AV-unprocessed.smi:1047|AV-procd|sdf|4590|dock2
  -GOLD-   22720 3 63D 1   1.00000     0.00000
 Structure written by MMmdl.
 57 59  0  0  0  0  0  0  0  0  3 V2000
  151.6120  130.0477  155.3636 C   0  0  0  0  0  0  0  0  0  0  0  0
  150.1538  130.5263  155.4058 C   0  0  0  0  0  0  0  0  0  0  0  0
  149.8709  131.7130  154.6000 N   0  0  0  0  0  0  0  0  0  0  0  0
  148.4475  131.8661  154.3088 C   0  0  0  0  0  0  0  0  0  0  0  0
  148.1653  133.1357  153.4876 C   0  0  0  0  0  0  0  0  0  0  0  0
  148.6780  134.2728  154.1744 O   0  0  0  0  0  0  0  0  0  0  0  0
  150.0787  134.1872  154.4256 C   0  0  1  0  0  0  0  0  0  0  0  0
  150.5117  135.4639  155.1588 C   0  0  0  0  0  0  0  0  0  0  0  0
  150.1063  136.6693  154.4096 N   0  3  0  0  0  0  0  0  0  0  0  0
  151.1828  137.6668  154.2476 C   0  0  0  0  0  0  0  0  0  0  0  0
  150.8050  139.0198  154.8818 C   0  0  1  0  0  0  0  0  0  0  0  0
  149.5360  138.9062  155.4939 O   0  0  0  0  0  0  0  0  0  0  0  0
  151.7899  139.4963  155.9692 C   0  0  0  0  0  0  0  0  0  0  0  0
  151.4808  140.8372  156.4860 N   0  0  0  0  0  0  0  0  0  0  0  0
  150.7400  141.8307  155.9232 C   0  0  0  0  0  0  0  0  0  0  0  0
  150.7281  142.8783  156.7928 N   0  3  0  0  0  0  0  0  0  0  0  0
  151.4684  142.5489  157.9300 C   0  0  0  0  0  0  0  0  0  0  0  0
  151.7427  143.2802  159.0794 C   0  0  0  0  0  0  0  0  0  0  0  0
  152.5351  142.6550  160.0684 C   0  0  0  0  0  0  0  0  0  0  0  0
  152.8509  143.4263  161.3390 C   0  0  0  0  0  0  0  0  0  0  0  0
  153.0264  141.3369  159.8835 C   0  0  0  0  0  0  0  0  0  0  0  0
  153.8797  140.6747  160.9521 C   0  0  0  0  0  0  0  0  0  0  0  0
  152.7364  140.6096  158.7070 C   0  0  0  0  0  0  0  0  0  0  0  0
  151.9525  141.2391  157.7423 C   0  0  0  0  0  0  0  0  0  0  0  0
  150.3514  132.9210  155.2616 C   0  0  0  0  0  0  0  0  0  0  0  0
  151.7670  129.2327  156.0708 H   0  0  0  0  0  0  0  0  0  0  0  0
  152.2987  130.8516  155.6305 H   0  0  0  0  0  0  0  0  0  0  0  0
  151.8912  129.6767  154.3779 H   0  0  0  0  0  0  0  0  0  0  0  0
  149.4944  129.7093  155.1088 H   0  0  0  0  0  0  0  0  0  0  0  0
  149.9120  130.7425  156.4473 H   0  0  0  0  0  0  0  0  0  0  0  0
  148.0789  131.0036  153.7541 H   0  0  0  0  0  0  0  0  0  0  0  0
  147.8806  131.9054  155.2404 H   0  0  0  0  0  0  0  0  0  0  0  0
  148.6195  133.0646  152.4979 H   0  0  0  0  0  0  0  0  0  0  0  0
  147.0925  133.2613  153.3397 H   0  0  0  0  0  0  0  0  0  0  0  0
  150.6144  134.1161  153.4769 H   0  0  0  0  0  0  0  0  0  0  0  0
  150.0789  135.4881  156.1600 H   0  0  0  0  0  0  0  0  0  0  0  0
  151.5961  135.4738  155.2757 H   0  0  0  0  0  0  0  0  0  0  0  0
  149.7813  136.3884  153.4953 H   0  0  0  0  0  0  0  0  0  0  0  0
  152.1076  137.2872  154.6852 H   0  0  0  0  0  0  0  0  0  0  0  0
  151.3606  137.7890  153.1793 H   0  0  0  0  0  0  0  0  0  0  0  0
  150.7406  139.7833  154.1052 H   0  0  0  0  0  0  0  0  0  0  0  0
  149.1864  139.7711  155.6443 H   0  0  0  0  0  0  0  0  0  0  0  0
  151.7548  138.8166  156.8221 H   0  0  0  0  0  0  0  0  0  0  0  0
  152.8189  139.4739  155.6100 H   0  0  0  0  0  0  0  0  0  0  0  0
  150.2456  141.7926  154.9629 H   0  0  0  0  0  0  0  0  0  0  0  0
  151.3654  144.2837  159.2128 H   0  0  0  0  0  0  0  0  0  0  0  0
  152.4886  142.8881  162.2151 H   0  0  0  0  0  0  0  0  0  0  0  0
  152.3805  144.4102  161.3359 H   0  0  0  0  0  0  0  0  0  0  0  0
  153.9269  143.5717  161.4414 H   0  0  0  0  0  0  0  0  0  0  0  0
  154.1971  139.6768  160.6482 H   0  0  0  0  0  0  0  0  0  0  0  0
  153.3199  140.5768  161.8825 H   0  0  0  0  0  0  0  0  0  0  0  0
  154.7765  141.2634  161.1469 H   0  0  0  0  0  0  0  0  0  0  0  0
  153.1133  139.6069  158.5711 H   0  0  0  0  0  0  0  0  0  0  0  0
  149.8751  133.0203  156.2383 H   0  0  0  0  0  0  0  0  0  0  0  0
  151.4231  132.8357  155.4462 H   0  0  0  0  0  0  0  0  0  0  0  0
  149.3406  137.1038  154.9054 H   0  0  0  0  0  0  0  0  0  0  0  0
  150.2429  143.7505  156.6236 H   0  0  0  0  0  0  0  0  0  0  0  0
  1  2  1  0  0  0  0
  1 26  1  0  0  0  0
  1 27  1  0  0  0  0
  1 28  1  0  0  0  0
  2  3  1  0  0  0  0
  2 29  1  0  0  0  0
  2 30  1  0  0  0  0
  3 25  1  0  0  0  0
  3  4  1  0  0  0  0
  4  5  1  0  0  0  0
  4 31  1  0  0  0  0
  4 32  1  0  0  0  0
  5  6  1  0  0  0  0
  5 33  1  0  0  0  0
  5 34  1  0  0  0  0
  6  7  1  0  0  0  0
  7  8  1  0  0  0  0
  7 25  1  0  0  0  0
  7 35  1  0  0  0  0
  8  9  1  0  0  0  0
  8 36  1  0  0  0  0
  8 37  1  0  0  0  0
  9 10  1  0  0  0  0
  9 38  1  0  0  0  0
  9 56  1  0  0  0  0
 10 11  1  0  0  0  0
 10 39  1  0  0  0  0
 10 40  1  0  0  0  0
 11 12  1  0  0  0  0
 11 13  1  0  0  0  0
 11 41  1  0  0  0  0
 12 42  1  0  0  0  0
 13 14  1  0  0  0  0
 13 43  1  0  0  0  0
 13 44  1  0  0  0  0
 14 24  1  0  0  0  0
 14 15  1  0  0  0  0
 15 16  2  0  0  0  0
 15 45  1  0  0  0  0
 16 17  1  0  0  0  0
 16 57  1  0  0  0  0
 17 24  2  0  0  0  0
 17 18  1  0  0  0  0
 18 19  2  0  0  0  0
 18 46  1  0  0  0  0
 19 20  1  0  0  0  0
 19 21  1  0  0  0  0
 20 47  1  0  0  0  0
 20 48  1  0  0  0  0
 20 49  1  0  0  0  0
 21 22  1  0  0  0  0
 21 23  2  0  0  0  0
 22 50  1  0  0  0  0
 22 51  1  0  0  0  0
 22 52  1  0  0  0  0
 23 24  1  0  0  0  0
 23 53  1  0  0  0  0
 25 54  1  0  0  0  0
 25 55  1  0  0  0  0
M  CHG  1   9   1
M  CHG  1  16   1
M  END
> <s_m_source_file>
AV-unprocessed.smi

> <i_m_source_file_index>
1047

> <i_lp_mmshare_version>
43012

> <i_f3d_flags>
0

> <s_epik_input>
W0NIM11bQ0gyXU4xW0NIMl1bQ0gyXU9bQ0BIXShbQ0gyXTEpW0NIMl1bTkhdW0NIMl1bQ0BIXShbT0hdKVtDSDJdbihbY0hdbjIpYyhjMjMpW2NIXWMoW0NIM10pYyhbY0hdMylbQ0gzXQ==

> <s_epik_cmdline>
J2VwaWtfcHl0aG9uJywgJy1waCcsICc3LjAnLCAnLXRuJywgJzgnLCAnLW1hJywgJzIwMCcsICctbWV0YWxfYmluZGluZycsICctaW1hZScsICc8aW5maWxlLm1hZT4nLCAnLW9tYWUnLCAnPG91dGZpbGUubWFlPic=

> <r_epik_Ionization_Penalty>
1.75732

> <r_epik_Ionization_Penalty_Charging>
1.18089

> <r_epik_Ionization_Penalty_Neutral>
0.576429

> <r_epik_State_Penalty>
1.69377

> <r_epik_Charging_Adjusted_Penalty>
2.87466

> <i_epik_Tot_Q>
2

> <i_epik_Tot_abs_Q>
2

> <r_epik_Metal_State_Penalty>
5.70174

> <b_epik_Metal_Only>
0

> <s_lp_Force_Field>
OPLS_2005

> <r_lp_Energy>
42.3107

> <b_lp_Chiralities_Consistent>
1

> <s_lp_Variant>
AV-unprocessed.smi:1047-31

> <Gold.Version>
5.8.1

> <Gold.Id.Protein>
6NUR|6NUR_protein|mol2

> <Gold.PLP.Fitness>
60.1976

> <Gold.PLP.PLP>
-51.8452

> <Gold.PLP.part.hbond>
-2.5459

> <Gold.PLP.part.metal>
0.0000

> <Gold.PLP.part.buried>
-6.8720

> <Gold.PLP.part.nonpolar>
-42.7701

> <Gold.PLP.part.repulsive>
1.0105

> <Gold.PLP.ligand.clash>
0.0000

> <Gold.PLP.ligand.torsion>
1.9471

> <Gold.PLP.Chemscore.Hbond>
4.0000

> <Gold.PLP.Chemscore.CHOScore>
0.0000

> <Gold.PLP.Chemscore.Metal>
0.0000

> <Gold.Chemscore.Hbonds>
donor molecule, donor type, donor heavy atom, donor atom, acceptor molecule, acceptor atom, score
      L1  H     9    38       P1  7948  2.00
      L1  H    16    57       P1  8028  1.98

> <Gold.PLP.Chemscore.Internal.Correction>
0.2465

> <Gold.Rescore>
     Score         DG    S(hbond)    S(metal)    S(lipo)     H(rot)  DE(clash)    DE(int)     intcor
     17.66     -20.05       1.82        0.00     131.41       2.69       0.07       2.31       ----

> <Gold.Chemscore.Fitness>
17.6627

> <Gold.Chemscore.DG>
-20.0482

> <Gold.Chemscore.ZeroCoef>
-5.4800

> <Gold.Chemscore.Hbond>
1.8215

> <Gold.Chemscore.Metal>
0.0000

> <Gold.Chemscore.Lipo>
131.4100

> <Gold.Chemscore.Internal_Hbond>
0.0000

> <Gold.Chemscore.DEClash>
0.0750

> <Gold.Chemscore.DEInternal>
2.3106

> <Gold.Chemscore.Rot>
2.6917

> <Gold.Chemscore.Internal.Correction>
   9.000000E+99

> <Gold.Chemscore.Hbonds>
donor molecule, donor type, donor heavy atom, donor atom, acceptor molecule, acceptor atom, score
      L1  H     9    38       P1  7948  0.26
      L1  H    16    57       P1  8028  0.94

> <Gold.Chemscore.Hbond.Weighted>
-6.0839

> <Gold.Chemscore.Metal.Weighted>
-0.0000

> <Gold.Chemscore.Lipo.Weighted>
-15.3750

> <Gold.Chemscore.Internal_Hbond.Weighted>
0.0000

> <Gold.Chemscore.DEClash.Weighted>
0.0750

> <Gold.Chemscore.DEInternal.Weighted>
2.3106

> <Gold.Chemscore.Rot.Weighted>
6.8907

> <Gold.Chemscore.Internal.Correction.Weighted>
   9.000000E+99

> <Gold.Protein.RotatedTorsions>
[ 6907 6896 6895 6894 ] final   53.99 input  -60.11 | X-H torsion
[ 7974 7965 7964 7962 ] final  -72.10 input  175.53 | X-H torsion
[ 8008 7997 7996 7995 ] final  106.84 input   59.86 | X-H torsion
[ 10167 10162 10161 10158 ] final   63.02 input  -65.29 | X-H torsion
[ 10718 10713 10712 10709 ] final -150.49 input   66.30 | X-H torsion
[ 10763 10752 10751 10750 ] final  140.90 input  -60.55 | X-H torsion
[ 11005 11000 10999 10996 ] final -111.83 input  -57.11 | X-H torsion

> <Gold.Protein.ActiveResidues>
 VAL166  LYS551  ARG553  GLY616  TRP617  ASP618  TYR619  PRO620  LYS621  CYS622 
 ASP623  PHE694  ASN695  SER759  ASP760  ASP761  ALA762  ILE779  LEU786  VAL792 
 PHE793  MET794  SER795  GLU796  ALA797  LYS798  CYS799  TRP800  GLU811  SER814 

> <Gold.Protein.RotatedAtoms>
  152.3393  134.7156  160.0267 H   0  0  0  0  0  0  0  0  0  0  0  0  # atno 6907 bound_to 6896
  151.7546  133.3324  159.3409 H   0  0  0  0  0  0  0  0  0  0  0  0  # atno 6908 bound_to 6896
  150.7470  134.6093  159.6122 H   0  0  0  0  0  0  0  0  0  0  0  0  # atno 6909 bound_to 6896
  145.6695  140.9226  143.0891 H   0  0  0  0  0  0  0  0  0  0  0  0  # atno 7974 bound_to 7965
  156.1776  140.3105  155.9087 H   0  0  0  0  0  0  0  0  0  0  0  0  # atno 8008 bound_to 7997
  155.3455  140.0468  157.3062 H   0  0  0  0  0  0  0  0  0  0  0  0  # atno 8009 bound_to 7997
  154.5307  140.2229  155.8820 H   0  0  0  0  0  0  0  0  0  0  0  0  # atno 8010 bound_to 7997
  140.1375  144.4584  150.6829 H   0  0  0  0  0  0  0  0  0  0  0  0  # atno 10167 bound_to 10162
  156.4468  130.8149  151.2379 H   0  0  0  0  0  0  0  0  0  0  0  0  # atno 10718 bound_to 10713
  153.9303  135.2991  155.3446 H   0  0  0  0  0  0  0  0  0  0  0  0  # atno 10763 bound_to 10752
  154.7530  135.4971  153.9326 H   0  0  0  0  0  0  0  0  0  0  0  0  # atno 10764 bound_to 10752
  153.1095  135.6755  153.9631 H   0  0  0  0  0  0  0  0  0  0  0  0  # atno 10765 bound_to 10752
  141.0711  133.9378  157.2482 H   0  0  0  0  0  0  0  0  0  0  0  0  # atno 11005 bound_to 11000
  144.7062  139.8553  143.7429 LP  0  0  0  0  0  0  0  0  0  0  0  0  # atno 17320 bound_to 7965
  146.1058  139.4057  143.0318 LP  0  0  0  0  0  0  0  0  0  0  0  0  # atno 17321 bound_to 7965
  140.6780  143.2314  151.5457 LP  0  0  0  0  0  0  0  0  0  0  0  0  # atno 17342 bound_to 10162
  139.5488  144.2449  152.1493 LP  0  0  0  0  0  0  0  0  0  0  0  0  # atno 17343 bound_to 10162
  157.7504  131.0150  150.3488 LP  0  0  0  0  0  0  0  0  0  0  0  0  # atno 17370 bound_to 10713
  156.3858  130.3889  149.7067 LP  0  0  0  0  0  0  0  0  0  0  0  0  # atno 17371 bound_to 10713
  139.9524  135.0172  156.9033 LP  0  0  0  0  0  0  0  0  0  0  0  0  # atno 17394 bound_to 11000
  140.5671  134.0479  155.7418 LP  0  0  0  0  0  0  0  0  0  0  0  0  # atno 17395 bound_to 11000

$$$$
