AV-unprocessed.smi:212|AV-procd|sdf|1622|dock7
  -GOLD-   2262019563D 1   1.00000     0.00000
 Structure written by MMmdl.
 65 68  0  0  0  0  0  0  0  0  2 V2000
  144.3691  135.4343  154.9692 C   0  0  0  0  0  0  0  0  0  0  0  0
  145.6375  136.0267  154.3322 C   0  0  1  0  0  0  0  0  0  0  0  0
  146.2268  135.1065  153.2413 C   0  0  0  0  0  0  0  0  0  0  0  0
  145.3986  135.1138  152.0069 N   0  3  2  0  0  0  0  0  0  0  0  0
  145.8728  134.1502  150.9785 C   0  0  0  0  0  0  0  0  0  0  0  0
  144.7112  133.4381  150.2459 C   0  0  0  0  0  0  0  0  0  0  0  0
  145.2074  132.1207  149.6271 C   0  0  0  0  0  0  0  0  0  0  0  0
  143.5109  133.1726  151.1736 C   0  0  0  0  0  0  0  0  0  0  0  0
  144.2724  134.2452  149.1714 O   0  0  0  0  0  0  0  0  0  0  0  0
  145.1969  136.4869  151.4766 C   0  0  0  0  0  0  0  0  0  0  0  0
  144.6063  137.4140  152.5544 C   0  0  0  0  0  0  0  0  0  0  0  0
  145.3930  137.3643  153.7877 N   0  0  0  0  0  0  0  0  0  0  0  0
  146.3910  138.2698  153.9636 C   0  0  0  0  0  0  0  0  0  0  0  0
  146.8004  139.0405  152.9208 N   0  0  0  0  0  0  0  0  0  0  0  0
  147.7876  139.9263  153.0812 C   0  0  0  0  0  0  0  0  0  0  0  0
  148.4875  140.2040  154.1821 N   0  0  0  0  0  0  0  0  0  0  0  0
  148.0756  139.4431  155.2358 C   0  0  0  0  0  0  0  0  0  0  0  0
  147.0473  138.4589  155.2130 C   0  0  0  0  0  0  0  0  0  0  0  0
  146.9069  137.8929  156.4751 N   0  0  0  0  0  0  0  0  0  0  0  0
  147.8016  138.5058  157.2015 C   0  0  0  0  0  0  0  0  0  0  0  0
  148.5396  139.4607  156.5395 N   0  0  0  0  0  0  0  0  0  0  0  0
  149.5851  140.2957  157.1064 C   0  0  0  0  0  0  0  0  0  0  0  0
  150.9675  139.5988  157.1604 C   0  0  1  0  0  0  0  0  0  0  0  0
  151.8680  140.0930  156.0031 C   0  0  0  0  0  0  0  0  0  0  0  0
  151.3683  139.6480  154.7591 O   0  0  0  0  0  0  0  0  0  0  0  0
  151.6413  139.7005  158.5590 C   0  0  2  0  0  0  0  0  0  0  0  0
  152.1458  141.0866  158.9542 C   0  0  0  0  0  0  0  0  0  0  0  0
  153.3650  140.7707  159.8091 C   0  0  0  0  0  0  0  0  0  0  0  0
  153.9321  139.6603  159.1357 O   0  0  0  0  0  0  0  0  0  0  0  0
  152.8679  138.7931  158.7645 C   0  0  0  0  0  0  0  0  0  0  0  0
  144.5784  134.4666  155.4254 H   0  0  0  0  0  0  0  0  0  0  0  0
  143.5729  135.2867  154.2395 H   0  0  0  0  0  0  0  0  0  0  0  0
  143.9862  136.0889  155.7528 H   0  0  0  0  0  0  0  0  0  0  0  0
  146.3815  136.0848  155.1266 H   0  0  0  0  0  0  0  0  0  0  0  0
  147.2359  135.4362  152.9887 H   0  0  0  0  0  0  0  0  0  0  0  0
  146.3155  134.0895  153.6257 H   0  0  0  0  0  0  0  0  0  0  0  0
  146.5294  134.6518  150.2654 H   0  0  0  0  0  0  0  0  0  0  0  0
  146.4930  133.3868  151.4510 H   0  0  0  0  0  0  0  0  0  0  0  0
  145.5598  131.4318  150.3956 H   0  0  0  0  0  0  0  0  0  0  0  0
  146.0337  132.2903  148.9353 H   0  0  0  0  0  0  0  0  0  0  0  0
  144.4151  131.6153  149.0735 H   0  0  0  0  0  0  0  0  0  0  0  0
  143.8036  132.5643  152.0302 H   0  0  0  0  0  0  0  0  0  0  0  0
  142.7159  132.6403  150.6500 H   0  0  0  0  0  0  0  0  0  0  0  0
  143.0804  134.0980  151.5580 H   0  0  0  0  0  0  0  0  0  0  0  0
  145.0227  134.4872  148.6491 H   0  0  0  0  0  0  0  0  0  0  0  0
  146.1514  136.8796  151.1235 H   0  0  0  0  0  0  0  0  0  0  0  0
  144.5304  136.4645  150.6149 H   0  0  0  0  0  0  0  0  0  0  0  0
  144.5279  138.4357  152.1805 H   0  0  0  0  0  0  0  0  0  0  0  0
  143.5864  137.1054  152.7841 H   0  0  0  0  0  0  0  0  0  0  0  0
  148.0544  140.4946  152.2023 H   0  0  0  0  0  0  0  0  0  0  0  0
  147.9430  138.2846  158.2497 H   0  0  0  0  0  0  0  0  0  0  0  0
  149.6406  141.2067  156.5094 H   0  0  0  0  0  0  0  0  0  0  0  0
  149.2817  140.6045  158.1073 H   0  0  0  0  0  0  0  0  0  0  0  0
  150.7946  138.5341  156.9948 H   0  0  0  0  0  0  0  0  0  0  0  0
  151.9261  141.1814  155.9842 H   0  0  0  0  0  0  0  0  0  0  0  0
  152.8878  139.7231  156.0996 H   0  0  0  0  0  0  0  0  0  0  0  0
  151.2968  138.7058  154.7840 H   0  0  0  0  0  0  0  0  0  0  0  0
  150.9202  139.3898  159.3157 H   0  0  0  0  0  0  0  0  0  0  0  0
  152.4599  141.6639  158.0859 H   0  0  0  0  0  0  0  0  0  0  0  0
  151.4007  141.6725  159.4919 H   0  0  0  0  0  0  0  0  0  0  0  0
  154.0635  141.6049  159.8746 H   0  0  0  0  0  0  0  0  0  0  0  0
  153.0727  140.4810  160.8200 H   0  0  0  0  0  0  0  0  0  0  0  0
  152.6850  138.0888  159.5775 H   0  0  0  0  0  0  0  0  0  0  0  0
  153.1371  138.2082  157.8854 H   0  0  0  0  0  0  0  0  0  0  0  0
  144.4869  134.7837  152.2899 H   0  0  0  0  0  0  0  0  0  0  0  0
  1  2  1  0  0  0  0
  1 31  1  0  0  0  0
  1 32  1  0  0  0  0
  1 33  1  0  0  0  0
  2 12  1  0  0  0  0
  2  3  1  0  0  0  0
  2 34  1  0  0  0  0
  3  4  1  0  0  0  0
  3 35  1  0  0  0  0
  3 36  1  0  0  0  0
  4  5  1  0  0  0  0
  4 10  1  0  0  0  0
  4 65  1  0  0  0  0
  5  6  1  0  0  0  0
  5 37  1  0  0  0  0
  5 38  1  0  0  0  0
  6  7  1  0  0  0  0
  6  8  1  0  0  0  0
  6  9  1  0  0  0  0
  7 39  1  0  0  0  0
  7 40  1  0  0  0  0
  7 41  1  0  0  0  0
  8 42  1  0  0  0  0
  8 43  1  0  0  0  0
  8 44  1  0  0  0  0
  9 45  1  0  0  0  0
 10 11  1  0  0  0  0
 10 46  1  0  0  0  0
 10 47  1  0  0  0  0
 11 12  1  0  0  0  0
 11 48  1  0  0  0  0
 11 49  1  0  0  0  0
 12 13  1  0  0  0  0
 13 18  1  0  0  0  0
 13 14  2  0  0  0  0
 14 15  1  0  0  0  0
 15 16  2  0  0  0  0
 15 50  1  0  0  0  0
 16 17  1  0  0  0  0
 17 21  1  0  0  0  0
 17 18  2  0  0  0  0
 18 19  1  0  0  0  0
 19 20  2  0  0  0  0
 20 21  1  0  0  0  0
 20 51  1  0  0  0  0
 21 22  1  0  0  0  0
 22 23  1  0  0  0  0
 22 52  1  0  0  0  0
 22 53  1  0  0  0  0
 23 24  1  0  0  0  0
 23 26  1  0  0  0  0
 23 54  1  0  0  0  0
 24 25  1  0  0  0  0
 24 55  1  0  0  0  0
 24 56  1  0  0  0  0
 25 57  1  0  0  0  0
 26 30  1  0  0  0  0
 26 27  1  0  0  0  0
 26 58  1  0  0  0  0
 27 28  1  0  0  0  0
 27 59  1  0  0  0  0
 27 60  1  0  0  0  0
 28 29  1  0  0  0  0
 28 61  1  0  0  0  0
 28 62  1  0  0  0  0
 29 30  1  0  0  0  0
 30 63  1  0  0  0  0
 30 64  1  0  0  0  0
M  CHG  1   4   1
M  END
> <s_m_source_file>
AV-unprocessed.smi

> <i_m_source_file_index>
212

> <i_lp_mmshare_version>
43012

> <i_f3d_flags>
0

> <s_epik_input>
W0NIM11bQ0BASF0xW0NIMl1OKFtDSDJdQyhbQ0gzXSkoW0NIM10pW09IXSlbQ0gyXVtDSDJdTjFjKG5bY0hdbjIpYyhjMjMpbltjSF1uM1tDSDJdW0NASF0oW0NIMl1bT0hdKVtDQEBIXTRbQ0gyXVtDSDJdT1tDSDJdNA==

> <s_epik_cmdline>
J2VwaWtfcHl0aG9uJywgJy1waCcsICc3LjAnLCAnLXRuJywgJzgnLCAnLW1hJywgJzIwMCcsICctbWV0YWxfYmluZGluZycsICctaW1hZScsICc8aW5maWxlLm1hZT4nLCAnLW9tYWUnLCAnPG91dGZpbGUubWFlPic=

> <r_lp_tautomer_probability>
1

> <r_epik_Ionization_Penalty>
0.00182193

> <r_epik_Ionization_Penalty_Charging>
0.00173996

> <r_epik_Ionization_Penalty_Neutral>
8.19718e-05

> <r_epik_State_Penalty>
-0

> <r_epik_Charging_Adjusted_Penalty>
0.00173996

> <i_epik_Tot_Q>
1

> <i_epik_Tot_abs_Q>
1

> <r_epik_Metal_State_Penalty>
-0

> <b_epik_Metal_Only>
0

> <s_lp_Force_Field>
OPLS_2005

> <r_lp_Energy>
60.7413

> <b_lp_Chiralities_Consistent>
1

> <s_lp_Variant>
AV-unprocessed.smi:212-6

> <Gold.Version>
5.8.1

> <Gold.Id.Protein>
6NUR|6NUR_protein|mol2

> <Gold.PLP.Fitness>
45.3744

> <Gold.PLP.PLP>
-38.0642

> <Gold.PLP.part.hbond>
-3.7456

> <Gold.PLP.part.metal>
0.0000

> <Gold.PLP.part.buried>
-6.1136

> <Gold.PLP.part.nonpolar>
-27.9430

> <Gold.PLP.part.repulsive>
0.3519

> <Gold.PLP.ligand.clash>
0.0000

> <Gold.PLP.ligand.torsion>
2.4109

> <Gold.PLP.Chemscore.Hbond>
2.9920

> <Gold.PLP.Chemscore.CHOScore>
0.7047

> <Gold.PLP.Chemscore.Metal>
0.0000

> <Gold.Chemscore.Hbonds>
donor molecule, donor type, donor heavy atom, donor atom, acceptor molecule, acceptor atom, score
      L1  H     9    45       P1  7921  1.00
      P1  H  7989  7998       L1    25  1.00
      P1  H  7997  8010       L1    29  0.65
      L1  C    15    50       P1  7957  0.58

> <Gold.PLP.Chemscore.Internal.Correction>
1.0418

> <Gold.Rescore>
     Score         DG    S(hbond)    S(metal)    S(lipo)     H(rot)  DE(clash)    DE(int)     intcor
     12.63     -15.50       2.55        0.00      87.05       3.40       0.15       2.72       ----

> <Gold.Chemscore.Fitness>
12.6266

> <Gold.Chemscore.DG>
-15.4965

> <Gold.Chemscore.ZeroCoef>
-5.4800

> <Gold.Chemscore.Hbond>
2.5547

> <Gold.Chemscore.Metal>
0.0000

> <Gold.Chemscore.Lipo>
87.0453

> <Gold.Chemscore.Internal_Hbond>
0.0000

> <Gold.Chemscore.DEClash>
0.1461

> <Gold.Chemscore.DEInternal>
2.7238

> <Gold.Chemscore.Rot>
3.3986

> <Gold.Chemscore.Internal.Correction>
   9.000000E+99

> <Gold.Chemscore.Hbonds>
donor molecule, donor type, donor heavy atom, donor atom, acceptor molecule, acceptor atom, score
      L1  H     9    45       P1  7921  0.93
      P1  H  7989  7998       L1    25  0.78
      P1  H  7997  8010       L1    29  0.36

> <Gold.Chemscore.Hbond.Weighted>
-8.5327

> <Gold.Chemscore.Metal.Weighted>
-0.0000

> <Gold.Chemscore.Lipo.Weighted>
-10.1843

> <Gold.Chemscore.Internal_Hbond.Weighted>
0.0000

> <Gold.Chemscore.DEClash.Weighted>
0.1461

> <Gold.Chemscore.DEInternal.Weighted>
2.7238

> <Gold.Chemscore.Rot.Weighted>
8.7005

> <Gold.Chemscore.Internal.Correction.Weighted>
   9.000000E+99

> <Gold.Protein.RotatedTorsions>
[ 6907 6896 6895 6894 ] final  -53.31 input  -60.11 | X-H torsion
[ 7974 7965 7964 7962 ] final  -99.09 input  175.53 | X-H torsion
[ 8008 7997 7996 7995 ] final    0.09 input   59.86 | X-H torsion
[ 10167 10162 10161 10158 ] final  155.12 input  -65.29 | X-H torsion
[ 10718 10713 10712 10709 ] final  165.28 input   66.30 | X-H torsion
[ 10763 10752 10751 10750 ] final  -93.63 input  -60.55 | X-H torsion
[ 11005 11000 10999 10996 ] final  122.95 input  -57.11 | X-H torsion

> <Gold.Protein.ActiveResidues>
 VAL166  LYS551  ARG553  GLY616  TRP617  ASP618  TYR619  PRO620  LYS621  CYS622 
 ASP623  PHE694  ASN695  SER759  ASP760  ASP761  ALA762  ILE779  LEU786  VAL792 
 PHE793  MET794  SER795  GLU796  ALA797  LYS798  CYS799  TRP800  GLU811  SER814 

> <Gold.Protein.RotatedAtoms>
  150.8438  134.7740  159.6953 H   0  0  0  0  0  0  0  0  0  0  0  0  # atno 6907 bound_to 6896
  152.4520  134.5370  159.9837 H   0  0  0  0  0  0  0  0  0  0  0  0  # atno 6908 bound_to 6896
  151.5504  133.3380  159.2988 H   0  0  0  0  0  0  0  0  0  0  0  0  # atno 6909 bound_to 6896
  145.3121  140.9402  143.2764 H   0  0  0  0  0  0  0  0  0  0  0  0  # atno 7974 bound_to 7965
  154.6641  140.2597  155.7077 H   0  0  0  0  0  0  0  0  0  0  0  0  # atno 8008 bound_to 7997
  156.2631  140.2842  156.1047 H   0  0  0  0  0  0  0  0  0  0  0  0  # atno 8009 bound_to 7997
  155.1264  140.0378  157.2753 H   0  0  0  0  0  0  0  0  0  0  0  0  # atno 8010 bound_to 7997
  139.4822  144.5126  151.8001 H   0  0  0  0  0  0  0  0  0  0  0  0  # atno 10167 bound_to 10162
  157.0824  131.0396  151.2569 H   0  0  0  0  0  0  0  0  0  0  0  0  # atno 10718 bound_to 10713
  154.6978  135.5187  153.8483 H   0  0  0  0  0  0  0  0  0  0  0  0  # atno 10763 bound_to 10752
  153.0680  135.6591  154.0320 H   0  0  0  0  0  0  0  0  0  0  0  0  # atno 10764 bound_to 10752
  154.0184  135.2996  155.3363 H   0  0  0  0  0  0  0  0  0  0  0  0  # atno 10765 bound_to 10752
  139.9291  134.9641  156.8186 H   0  0  0  0  0  0  0  0  0  0  0  0  # atno 11005 bound_to 11000
  144.9008  139.4653  143.6633 LP  0  0  0  0  0  0  0  0  0  0  0  0  # atno 17320 bound_to 7965
  146.3114  139.7760  142.9017 LP  0  0  0  0  0  0  0  0  0  0  0  0  # atno 17321 bound_to 7965
  140.4631  144.1694  150.5908 LP  0  0  0  0  0  0  0  0  0  0  0  0  # atno 17342 bound_to 10162
  140.4463  143.2505  151.9407 LP  0  0  0  0  0  0  0  0  0  0  0  0  # atno 17343 bound_to 10162
  157.4789  130.7753  149.7394 LP  0  0  0  0  0  0  0  0  0  0  0  0  # atno 17370 bound_to 10713
  155.9920  130.3934  150.2961 LP  0  0  0  0  0  0  0  0  0  0  0  0  # atno 17371 bound_to 10713
  140.6252  133.9956  155.7636 LP  0  0  0  0  0  0  0  0  0  0  0  0  # atno 17394 bound_to 11000
  141.0868  133.9978  157.3300 LP  0  0  0  0  0  0  0  0  0  0  0  0  # atno 17395 bound_to 11000

$$$$
