AV-unprocessed.smi:1107|AV-procd|sdf|4785|dock6
  -GOLD-   22720 3333D 1   1.00000     0.00000
 Structure written by MMmdl.
 48 49  0  0  0  0  0  0  0  0  3 V2000
  152.5043  140.7881  159.0423 C   0  0  0  0  0  0  0  0  0  0  0  0
  151.9402  139.9093  157.9464 C   0  0  0  0  0  0  0  0  0  0  0  0
  150.7104  139.5636  157.9965 N   0  0  0  0  0  0  0  0  0  0  0  0
  150.1810  138.7390  156.9893 C   0  0  0  0  0  0  0  0  0  0  0  0
  148.7241  138.3442  157.1544 C   0  0  0  0  0  0  0  0  0  0  0  0
  150.9529  138.3169  155.9469 C   0  0  0  0  0  0  0  0  0  0  0  0
  150.4605  137.3640  154.8565 C   0  0  0  0  0  0  0  0  0  0  0  0
  149.9489  136.0157  155.3688 C   0  0  0  0  0  0  0  0  0  0  0  0
  150.0828  135.7149  156.5540 O   0  0  0  0  0  0  0  0  0  0  0  0
  149.3241  135.2378  154.4702 N   0  0  0  0  0  0  0  0  0  0  0  0
  148.5618  134.0262  154.7542 C   0  0  2  0  0  0  0  0  0  0  0  0
  149.0698  132.8839  153.8645 C   0  0  0  0  0  0  0  0  0  0  0  0
  147.0536  134.2896  154.5414 C   0  0  0  0  0  0  0  0  0  0  0  0
  146.6733  134.4678  153.1138 N   0  3  0  0  0  0  0  0  0  0  0  0
  146.3293  133.1768  152.4616 C   0  0  0  0  0  0  0  0  0  0  0  0
  146.0330  133.3575  150.9628 C   0  0  0  0  0  0  0  0  0  0  0  0
  144.9382  134.4063  150.7342 C   0  0  0  0  0  0  0  0  0  0  0  0
  145.3206  135.7192  151.4281 C   0  0  0  0  0  0  0  0  0  0  0  0
  145.6073  135.4868  152.9200 C   0  0  0  0  0  0  0  0  0  0  0  0
  152.3623  138.7442  155.9221 C   0  0  0  0  0  0  0  0  0  0  0  0
  153.1016  138.3825  155.0079 O   0  0  0  0  0  0  0  0  0  0  0  0
  152.8061  139.5227  156.9484 N   0  5  0  0  0  0  0  0  0  0  0  0
  151.7161  141.3766  159.5136 H   0  0  0  0  0  0  0  0  0  0  0  0
  153.2479  141.4782  158.6414 H   0  0  0  0  0  0  0  0  0  0  0  0
  152.9795  140.1735  159.8071 H   0  0  0  0  0  0  0  0  0  0  0  0
  148.6149  137.2596  157.1581 H   0  0  0  0  0  0  0  0  0  0  0  0
  148.1260  138.7512  156.3389 H   0  0  0  0  0  0  0  0  0  0  0  0
  148.3153  138.7239  158.0916 H   0  0  0  0  0  0  0  0  0  0  0  0
  149.6597  137.8286  154.2825 H   0  0  0  0  0  0  0  0  0  0  0  0
  151.2617  137.1947  154.1354 H   0  0  0  0  0  0  0  0  0  0  0  0
  149.2921  135.5735  153.5179 H   0  0  0  0  0  0  0  0  0  0  0  0
  148.7233  133.7173  155.7876 H   0  0  0  0  0  0  0  0  0  0  0  0
  148.5259  131.9602  154.0641 H   0  0  0  0  0  0  0  0  0  0  0  0
  150.1274  132.6877  154.0442 H   0  0  0  0  0  0  0  0  0  0  0  0
  148.9501  133.1187  152.8063 H   0  0  0  0  0  0  0  0  0  0  0  0
  146.5057  133.4342  154.9403 H   0  0  0  0  0  0  0  0  0  0  0  0
  146.7282  135.1547  155.1211 H   0  0  0  0  0  0  0  0  0  0  0  0
  147.1578  132.4767  152.5766 H   0  0  0  0  0  0  0  0  0  0  0  0
  145.4668  132.7355  152.9632 H   0  0  0  0  0  0  0  0  0  0  0  0
  146.9404  133.6599  150.4415 H   0  0  0  0  0  0  0  0  0  0  0  0
  145.7336  132.4047  150.5253 H   0  0  0  0  0  0  0  0  0  0  0  0
  144.7926  134.5720  149.6666 H   0  0  0  0  0  0  0  0  0  0  0  0
  143.9885  134.0424  151.1282 H   0  0  0  0  0  0  0  0  0  0  0  0
  146.2008  136.1480  150.9477 H   0  0  0  0  0  0  0  0  0  0  0  0
  144.5191  136.4491  151.3118 H   0  0  0  0  0  0  0  0  0  0  0  0
  144.6978  135.1654  153.4298 H   0  0  0  0  0  0  0  0  0  0  0  0
  145.9027  136.4338  153.3700 H   0  0  0  0  0  0  0  0  0  0  0  0
  147.4961  134.8107  152.6373 H   0  0  0  0  0  0  0  0  0  0  0  0
  1  2  1  0  0  0  0
  1 23  1  0  0  0  0
  1 24  1  0  0  0  0
  1 25  1  0  0  0  0
  2 22  1  0  0  0  0
  2  3  2  0  0  0  0
  3  4  1  0  0  0  0
  4  5  1  0  0  0  0
  4  6  2  0  0  0  0
  5 26  1  0  0  0  0
  5 27  1  0  0  0  0
  5 28  1  0  0  0  0
  6  7  1  0  0  0  0
  6 20  1  0  0  0  0
  7  8  1  0  0  0  0
  7 29  1  0  0  0  0
  7 30  1  0  0  0  0
  8  9  2  0  0  0  0
  8 10  1  0  0  0  0
 10 11  1  0  0  0  0
 10 31  1  0  0  0  0
 11 12  1  0  0  0  0
 11 13  1  0  0  0  0
 11 32  1  0  0  0  0
 12 33  1  0  0  0  0
 12 34  1  0  0  0  0
 12 35  1  0  0  0  0
 13 14  1  0  0  0  0
 13 36  1  0  0  0  0
 13 37  1  0  0  0  0
 14 19  1  0  0  0  0
 14 15  1  0  0  0  0
 14 48  1  0  0  0  0
 15 16  1  0  0  0  0
 15 38  1  0  0  0  0
 15 39  1  0  0  0  0
 16 17  1  0  0  0  0
 16 40  1  0  0  0  0
 16 41  1  0  0  0  0
 17 18  1  0  0  0  0
 17 42  1  0  0  0  0
 17 43  1  0  0  0  0
 18 19  1  0  0  0  0
 18 44  1  0  0  0  0
 18 45  1  0  0  0  0
 19 46  1  0  0  0  0
 19 47  1  0  0  0  0
 20 21  2  0  0  0  0
 20 22  1  0  0  0  0
M  CHG  1  14   1
M  CHG  1  22  -1
M  END
> <s_m_source_file>
AV-unprocessed.smi

> <i_m_source_file_index>
1107

> <i_lp_mmshare_version>
43012

> <i_f3d_flags>
0

> <s_epik_input>
W0NIM11jMW5jKFtDSDNdKWMoYyg9TylbbkhdMSlbQ0gyXUMoPU8pW05IXVtDQEhdKFtDSDNdKVtDSDJdTjJbQ0gyXVtDSDJdW0NIMl1bQ0gyXVtDSDJdMg==

> <s_epik_cmdline>
J2VwaWtfcHl0aG9uJywgJy1waCcsICc3LjAnLCAnLXRuJywgJzgnLCAnLW1hJywgJzIwMCcsICctbWV0YWxfYmluZGluZycsICctaW1hZScsICc8aW5maWxlLm1hZT4nLCAnLW9tYWUnLCAnPG91dGZpbGUubWFlPic=

> <r_lp_tautomer_probability>
0.839158

> <r_epik_Ionization_Penalty>
6.34615

> <r_epik_Ionization_Penalty_Charging>
0.00266072

> <r_epik_Ionization_Penalty_Neutral>
6.34348

> <r_epik_State_Penalty>
4.30851

> <r_epik_Charging_Adjusted_Penalty>
4.31117

> <i_epik_Tot_Q>
0

> <i_epik_Tot_abs_Q>
2

> <r_epik_Metal_State_Penalty>
0.75957

> <b_epik_Metal_Only>
1

> <s_lp_Force_Field>
OPLS_2005

> <r_lp_Energy>
18.3813

> <b_lp_Chiralities_Consistent>
1

> <s_lp_Variant>
AV-unprocessed.smi:1107-5

> <Gold.Version>
5.8.1

> <Gold.Id.Protein>
6NUR|6NUR_protein|mol2

> <Gold.PLP.Fitness>
45.3470

> <Gold.PLP.PLP>
-31.5883

> <Gold.PLP.part.hbond>
-3.5465

> <Gold.PLP.part.metal>
0.0000

> <Gold.PLP.part.buried>
-4.4576

> <Gold.PLP.part.nonpolar>
-24.2296

> <Gold.PLP.part.repulsive>
0.0488

> <Gold.PLP.ligand.clash>
0.0000

> <Gold.PLP.ligand.torsion>
0.6378

> <Gold.PLP.Chemscore.Hbond>
5.0000

> <Gold.PLP.Chemscore.CHOScore>
0.0000

> <Gold.PLP.Chemscore.Metal>
0.0000

> <Gold.Chemscore.Hbonds>
donor molecule, donor type, donor heavy atom, donor atom, acceptor molecule, acceptor atom, score
      L1  H    10    31       P1  7948  1.00
      L1  H    14    48       P1  7948  1.43
      P1  H  7997  8010       L1    22  2.00

> <Gold.PLP.Chemscore.Internal.Correction>
0.0343

> <Gold.Rescore>
     Score         DG    S(hbond)    S(metal)    S(lipo)     H(rot)  DE(clash)    DE(int)     intcor
     15.11     -15.91       2.48        0.00      60.32       1.92       0.09       0.71       ----

> <Gold.Chemscore.Fitness>
15.1079

> <Gold.Chemscore.DG>
-15.9076

> <Gold.Chemscore.ZeroCoef>
-5.4800

> <Gold.Chemscore.Hbond>
2.4831

> <Gold.Chemscore.Metal>
0.0000

> <Gold.Chemscore.Lipo>
60.3246

> <Gold.Chemscore.Internal_Hbond>
0.0000

> <Gold.Chemscore.DEClash>
0.0901

> <Gold.Chemscore.DEInternal>
0.7096

> <Gold.Chemscore.Rot>
1.9233

> <Gold.Chemscore.Internal.Correction>
   9.000000E+99

> <Gold.Chemscore.Hbonds>
donor molecule, donor type, donor heavy atom, donor atom, acceptor molecule, acceptor atom, score
      L1  H    10    31       P1  7948  0.40
      L1  H    14    48       P1  7948  0.68
      P1  H  7997  8010       L1    22  0.88

> <Gold.Chemscore.Hbond.Weighted>
-8.2934

> <Gold.Chemscore.Metal.Weighted>
-0.0000

> <Gold.Chemscore.Lipo.Weighted>
-7.0580

> <Gold.Chemscore.Internal_Hbond.Weighted>
0.0000

> <Gold.Chemscore.DEClash.Weighted>
0.0901

> <Gold.Chemscore.DEInternal.Weighted>
0.7096

> <Gold.Chemscore.Rot.Weighted>
4.9237

> <Gold.Chemscore.Internal.Correction.Weighted>
   9.000000E+99

> <Gold.Protein.RotatedTorsions>
[ 6907 6896 6895 6894 ] final    7.99 input  -60.11 | X-H torsion
[ 7974 7965 7964 7962 ] final   94.10 input  175.53 | X-H torsion
[ 8008 7997 7996 7995 ] final   51.16 input   59.86 | X-H torsion
[ 10167 10162 10161 10158 ] final  139.15 input  -65.29 | X-H torsion
[ 10718 10713 10712 10709 ] final -102.14 input   66.30 | X-H torsion
[ 10763 10752 10751 10750 ] final  -26.08 input  -60.55 | X-H torsion
[ 11005 11000 10999 10996 ] final   98.94 input  -57.11 | X-H torsion

> <Gold.Protein.ActiveResidues>
 VAL166  LYS551  ARG553  GLY616  TRP617  ASP618  TYR619  PRO620  LYS621  CYS622 
 ASP623  PHE694  ASN695  SER759  ASP760  ASP761  ALA762  ILE779  LEU786  VAL792 
 PHE793  MET794  SER795  GLU796  ALA797  LYS798  CYS799  TRP800  GLU811  SER814 

> <Gold.Protein.RotatedAtoms>
  151.6987  135.0934  160.0246 H   0  0  0  0  0  0  0  0  0  0  0  0  # atno 6907 bound_to 6896
  152.3734  133.6444  159.6113 H   0  0  0  0  0  0  0  0  0  0  0  0  # atno 6908 bound_to 6896
  150.7690  133.9150  159.3422 H   0  0  0  0  0  0  0  0  0  0  0  0  # atno 6909 bound_to 6896
  145.4701  139.2282  143.2940 H   0  0  0  0  0  0  0  0  0  0  0  0  # atno 7974 bound_to 7965
  155.4307  140.3450  155.4280 H   0  0  0  0  0  0  0  0  0  0  0  0  # atno 8008 bound_to 7997
  156.1338  140.1522  156.9056 H   0  0  0  0  0  0  0  0  0  0  0  0  # atno 8009 bound_to 7997
  154.4915  140.0840  156.7586 H   0  0  0  0  0  0  0  0  0  0  0  0  # atno 8010 bound_to 7997
  139.5088  144.6311  151.5814 H   0  0  0  0  0  0  0  0  0  0  0  0  # atno 10167 bound_to 10162
  156.0218  130.5406  150.7065 H   0  0  0  0  0  0  0  0  0  0  0  0  # atno 10718 bound_to 10713
  153.7102  135.6951  153.5039 H   0  0  0  0  0  0  0  0  0  0  0  0  # atno 10763 bound_to 10752
  153.2278  135.4348  155.0561 H   0  0  0  0  0  0  0  0  0  0  0  0  # atno 10764 bound_to 10752
  154.8317  135.3476  154.6639 H   0  0  0  0  0  0  0  0  0  0  0  0  # atno 10765 bound_to 10752
  139.8771  134.9072  156.4531 H   0  0  0  0  0  0  0  0  0  0  0  0  # atno 11005 bound_to 11000
  146.2402  140.5478  142.8937 LP  0  0  0  0  0  0  0  0  0  0  0  0  # atno 17320 bound_to 7965
  144.7950  140.6106  143.6516 LP  0  0  0  0  0  0  0  0  0  0  0  0  # atno 17321 bound_to 7965
  140.6045  143.9550  150.6409 LP  0  0  0  0  0  0  0  0  0  0  0  0  # atno 17342 bound_to 10162
  140.2772  143.3414  152.1184 LP  0  0  0  0  0  0  0  0  0  0  0  0  # atno 17343 bound_to 10162
  157.4713  131.0893  151.0639 LP  0  0  0  0  0  0  0  0  0  0  0  0  # atno 17370 bound_to 10713
  157.1099  130.6017  149.5479 LP  0  0  0  0  0  0  0  0  0  0  0  0  # atno 17371 bound_to 10713
  140.8918  133.7843  155.9580 LP  0  0  0  0  0  0  0  0  0  0  0  0  # atno 17394 bound_to 11000
  140.8746  134.2685  157.5174 LP  0  0  0  0  0  0  0  0  0  0  0  0  # atno 17395 bound_to 11000

$$$$
