AV-unprocessed.smi:1231|AV-procd|sdf|5166|dock3
  -GOLD-   22720 4243D 1   1.00000     0.00000
 Structure written by MMmdl.
 43 44  0  0  0  0  0  0  0  0  2 V2000
  150.9512  137.6692  155.8281 C   0  0  0  0  0  0  0  0  0  0  0  0
  151.0696  138.6710  154.6657 C   0  0  1  0  0  0  0  0  0  0  0  0
  149.8096  138.7392  153.7802 C   0  0  0  0  0  0  0  0  0  0  0  0
  148.7085  139.4565  154.4658 N   0  3  2  0  0  0  0  0  0  0  0  0
  147.4641  139.4864  153.6583 C   0  0  0  0  0  0  0  0  0  0  0  0
  146.5522  138.2776  153.9433 C   0  0  0  0  0  0  0  0  0  0  0  0
  146.8008  137.1864  153.0083 N   0  0  0  0  0  0  0  0  0  0  0  0
  145.8967  136.2602  152.6575 C   0  0  0  0  0  0  0  0  0  0  0  0
  144.7449  136.2432  153.0932 O   0  0  0  0  0  0  0  0  0  0  0  0
  146.4143  135.3771  151.7857 N   0  0  0  0  0  0  0  0  0  0  0  0
  145.7706  134.2688  151.1734 C   0  0  0  0  0  0  0  0  0  0  0  0
  146.6400  133.3159  150.5956 C   0  0  0  0  0  0  0  0  0  0  0  0
  146.1001  132.1788  149.9638 C   0  0  0  0  0  0  0  0  0  0  0  0
  144.7029  132.0249  149.9243 C   0  0  0  0  0  0  0  0  0  0  0  0
  143.9086  133.0210  150.5219 C   0  0  0  0  0  0  0  0  0  0  0  0
  144.4240  134.1111  151.1288 N   0  0  0  0  0  0  0  0  0  0  0  0
  149.1631  140.7994  154.9002 C   0  0  0  0  0  0  0  0  0  0  0  0
  150.4022  140.6801  155.8054 C   0  0  2  0  0  0  0  0  0  0  0  0
  150.9559  142.0522  156.2053 C   0  0  0  0  0  0  0  0  0  0  0  0
  151.4305  139.9779  155.1119 O   0  0  0  0  0  0  0  0  0  0  0  0
  150.8051  136.6565  155.4514 H   0  0  0  0  0  0  0  0  0  0  0  0
  150.1118  137.8932  156.4857 H   0  0  0  0  0  0  0  0  0  0  0  0
  151.8588  137.6661  156.4323 H   0  0  0  0  0  0  0  0  0  0  0  0
  151.8944  138.3286  154.0401 H   0  0  0  0  0  0  0  0  0  0  0  0
  150.0442  139.2579  152.8490 H   0  0  0  0  0  0  0  0  0  0  0  0
  149.4924  137.7316  153.5082 H   0  0  0  0  0  0  0  0  0  0  0  0
  146.9405  140.4281  153.8304 H   0  0  0  0  0  0  0  0  0  0  0  0
  147.7241  139.4693  152.5986 H   0  0  0  0  0  0  0  0  0  0  0  0
  146.7323  137.9066  154.9525 H   0  0  0  0  0  0  0  0  0  0  0  0
  145.4977  138.5510  153.8973 H   0  0  0  0  0  0  0  0  0  0  0  0
  147.7257  137.1282  152.6069 H   0  0  0  0  0  0  0  0  0  0  0  0
  147.3808  135.5124  151.5285 H   0  0  0  0  0  0  0  0  0  0  0  0
  147.7115  133.4493  150.6352 H   0  0  0  0  0  0  0  0  0  0  0  0
  146.7476  131.4382  149.5181 H   0  0  0  0  0  0  0  0  0  0  0  0
  144.2516  131.1666  149.4492 H   0  0  0  0  0  0  0  0  0  0  0  0
  142.8317  132.9413  150.5123 H   0  0  0  0  0  0  0  0  0  0  0  0
  149.3926  141.4078  154.0236 H   0  0  0  0  0  0  0  0  0  0  0  0
  148.3705  141.3126  155.4437 H   0  0  0  0  0  0  0  0  0  0  0  0
  150.1393  140.1437  156.7175 H   0  0  0  0  0  0  0  0  0  0  0  0
  150.2144  142.6295  156.7580 H   0  0  0  0  0  0  0  0  0  0  0  0
  151.2458  142.6324  155.3286 H   0  0  0  0  0  0  0  0  0  0  0  0
  151.8358  141.9469  156.8407 H   0  0  0  0  0  0  0  0  0  0  0  0
  148.4998  138.9271  155.3001 H   0  0  0  0  0  0  0  0  0  0  0  0
  1  2  1  0  0  0  0
  1 21  1  0  0  0  0
  1 22  1  0  0  0  0
  1 23  1  0  0  0  0
  2 20  1  0  0  0  0
  2  3  1  0  0  0  0
  2 24  1  0  0  0  0
  3  4  1  0  0  0  0
  3 25  1  0  0  0  0
  3 26  1  0  0  0  0
  4  5  1  0  0  0  0
  4 17  1  0  0  0  0
  4 43  1  0  0  0  0
  5  6  1  0  0  0  0
  5 27  1  0  0  0  0
  5 28  1  0  0  0  0
  6  7  1  0  0  0  0
  6 29  1  0  0  0  0
  6 30  1  0  0  0  0
  7  8  1  0  0  0  0
  7 31  1  0  0  0  0
  8  9  2  0  0  0  0
  8 10  1  0  0  0  0
 10 11  1  0  0  0  0
 10 32  1  0  0  0  0
 11 16  1  0  0  0  0
 11 12  2  0  0  0  0
 12 13  1  0  0  0  0
 12 33  1  0  0  0  0
 13 14  2  0  0  0  0
 13 34  1  0  0  0  0
 14 15  1  0  0  0  0
 14 35  1  0  0  0  0
 15 16  2  0  0  0  0
 15 36  1  0  0  0  0
 17 18  1  0  0  0  0
 17 37  1  0  0  0  0
 17 38  1  0  0  0  0
 18 19  1  0  0  0  0
 18 20  1  0  0  0  0
 18 39  1  0  0  0  0
 19 40  1  0  0  0  0
 19 41  1  0  0  0  0
 19 42  1  0  0  0  0
M  CHG  1   4   1
M  END
> <s_m_source_file>
AV-unprocessed.smi

> <i_m_source_file_index>
1231

> <i_lp_mmshare_version>
43012

> <i_f3d_flags>
0

> <s_epik_input>
W0NIM11bQ0BASF0xW0NIMl1OKFtDSDJdW0NASF0oTzEpW0NIM10pW0NIMl1bQ0gyXVtOSF1DKD1PKVtOSF1jMltjSF1bY0hdW2NIXVtjSF1uMg==

> <s_epik_cmdline>
J2VwaWtfcHl0aG9uJywgJy1waCcsICc3LjAnLCAnLXRuJywgJzgnLCAnLW1hJywgJzIwMCcsICctbWV0YWxfYmluZGluZycsICctaW1hZScsICc8aW5maWxlLm1hZT4nLCAnLW9tYWUnLCAnPG91dGZpbGUubWFlPic=

> <r_epik_Ionization_Penalty>
0.602565

> <r_epik_Ionization_Penalty_Charging>
0.602531

> <r_epik_Ionization_Penalty_Neutral>
3.43186e-05

> <r_epik_State_Penalty>
0.617039

> <r_epik_Charging_Adjusted_Penalty>
1.21957

> <i_epik_Tot_Q>
1

> <i_epik_Tot_abs_Q>
1

> <r_epik_Metal_State_Penalty>
0.617041

> <b_epik_Metal_Only>
0

> <s_lp_Force_Field>
OPLS_2005

> <r_lp_Energy>
18.3102

> <b_lp_Chiralities_Consistent>
1

> <s_lp_Variant>
AV-unprocessed.smi:1231-7

> <Gold.Version>
5.8.1

> <Gold.Id.Protein>
6NUR|6NUR_protein|mol2

> <Gold.PLP.Fitness>
43.8192

> <Gold.PLP.PLP>
-33.5936

> <Gold.PLP.part.hbond>
-3.0000

> <Gold.PLP.part.metal>
0.0000

> <Gold.PLP.part.buried>
-3.2595

> <Gold.PLP.part.nonpolar>
-26.6340

> <Gold.PLP.part.repulsive>
0.4156

> <Gold.PLP.ligand.clash>
0.0000

> <Gold.PLP.ligand.torsion>
0.8985

> <Gold.PLP.Chemscore.Hbond>
3.0000

> <Gold.PLP.Chemscore.CHOScore>
0.9991

> <Gold.PLP.Chemscore.Metal>
0.0000

> <Gold.Chemscore.Hbonds>
donor molecule, donor type, donor heavy atom, donor atom, acceptor molecule, acceptor atom, score
      L1  H     7    31       P1  7948  1.00
      L1  H    10    32       P1  7948  1.00
      P1  H  7989  7998       L1    20  1.00
      L1  C    15    36       P1 10186  0.99

> <Gold.PLP.Chemscore.Internal.Correction>
0.0254

> <Gold.Rescore>
     Score         DG    S(hbond)    S(metal)    S(lipo)     H(rot)  DE(clash)    DE(int)     intcor
     16.97     -19.01       2.28        0.00      84.52       1.55       0.02       2.01       ----

> <Gold.Chemscore.Fitness>
16.9739

> <Gold.Chemscore.DG>
-19.0112

> <Gold.Chemscore.ZeroCoef>
-5.4800

> <Gold.Chemscore.Hbond>
2.2820

> <Gold.Chemscore.Metal>
0.0000

> <Gold.Chemscore.Lipo>
84.5215

> <Gold.Chemscore.Internal_Hbond>
0.0000

> <Gold.Chemscore.DEClash>
0.0227

> <Gold.Chemscore.DEInternal>
2.0146

> <Gold.Chemscore.Rot>
1.5546

> <Gold.Chemscore.Internal.Correction>
   9.000000E+99

> <Gold.Chemscore.Hbonds>
donor molecule, donor type, donor heavy atom, donor atom, acceptor molecule, acceptor atom, score
      L1  H     7    31       P1  7948  0.95
      L1  H    10    32       P1  7948  0.92
      P1  H  7989  7998       L1    20  0.19

> <Gold.Chemscore.Hbond.Weighted>
-7.6218

> <Gold.Chemscore.Metal.Weighted>
-0.0000

> <Gold.Chemscore.Lipo.Weighted>
-9.8890

> <Gold.Chemscore.Internal_Hbond.Weighted>
0.0000

> <Gold.Chemscore.DEClash.Weighted>
0.0227

> <Gold.Chemscore.DEInternal.Weighted>
2.0146

> <Gold.Chemscore.Rot.Weighted>
3.9797

> <Gold.Chemscore.Internal.Correction.Weighted>
   9.000000E+99

> <Gold.Protein.RotatedTorsions>
[ 6907 6896 6895 6894 ] final   31.10 input  -60.11 | X-H torsion
[ 7974 7965 7964 7962 ] final -150.32 input  175.53 | X-H torsion
[ 8008 7997 7996 7995 ] final   82.19 input   59.86 | X-H torsion
[ 10167 10162 10161 10158 ] final   43.98 input  -65.29 | X-H torsion
[ 10718 10713 10712 10709 ] final  -11.35 input   66.30 | X-H torsion
[ 10763 10752 10751 10750 ] final -154.15 input  -60.55 | X-H torsion
[ 11005 11000 10999 10996 ] final   65.29 input  -57.11 | X-H torsion

> <Gold.Protein.ActiveResidues>
 VAL166  LYS551  ARG553  GLY616  TRP617  ASP618  TYR619  PRO620  LYS621  CYS622 
 ASP623  PHE694  ASN695  SER759  ASP760  ASP761  ALA762  ILE779  LEU786  VAL792 
 PHE793  MET794  SER795  GLU796  ALA797  LYS798  CYS799  TRP800  GLU811  SER814 

> <Gold.Protein.RotatedAtoms>
  152.0555  134.9627  160.0574 H   0  0  0  0  0  0  0  0  0  0  0  0  # atno 6907 bound_to 6896
  152.1011  133.4245  159.4596 H   0  0  0  0  0  0  0  0  0  0  0  0  # atno 6908 bound_to 6896
  150.6839  134.2678  159.4619 H   0  0  0  0  0  0  0  0  0  0  0  0  # atno 6909 bound_to 6896
  144.7914  140.4947  143.5770 H   0  0  0  0  0  0  0  0  0  0  0  0  # atno 7974 bound_to 7965
  155.9073  140.3429  155.6071 H   0  0  0  0  0  0  0  0  0  0  0  0  # atno 8008 bound_to 7997
  155.7429  140.0810  157.2256 H   0  0  0  0  0  0  0  0  0  0  0  0  # atno 8009 bound_to 7997
  154.4051  140.1567  156.2624 H   0  0  0  0  0  0  0  0  0  0  0  0  # atno 8010 bound_to 7997
  140.3389  144.2495  150.6158 H   0  0  0  0  0  0  0  0  0  0  0  0  # atno 10167 bound_to 10162
  156.6602  130.4980  149.6033 H   0  0  0  0  0  0  0  0  0  0  0  0  # atno 10718 bound_to 10713
  154.7878  135.3196  154.7845 H   0  0  0  0  0  0  0  0  0  0  0  0  # atno 10763 bound_to 10752
  153.8541  135.6859  153.4793 H   0  0  0  0  0  0  0  0  0  0  0  0  # atno 10764 bound_to 10752
  153.1537  135.4689  154.9613 H   0  0  0  0  0  0  0  0  0  0  0  0  # atno 10765 bound_to 10752
  139.9904  134.6601  156.0102 H   0  0  0  0  0  0  0  0  0  0  0  0  # atno 11005 bound_to 11000
  145.5784  139.1487  143.3249 LP  0  0  0  0  0  0  0  0  0  0  0  0  # atno 17320 bound_to 7965
  146.2168  140.5914  142.9035 LP  0  0  0  0  0  0  0  0  0  0  0  0  # atno 17321 bound_to 7965
  140.5327  143.2240  151.8212 LP  0  0  0  0  0  0  0  0  0  0  0  0  # atno 17342 bound_to 10162
  139.4843  144.4700  151.9437 LP  0  0  0  0  0  0  0  0  0  0  0  0  # atno 17343 bound_to 10162
  156.2017  130.6623  151.1174 LP  0  0  0  0  0  0  0  0  0  0  0  0  # atno 17370 bound_to 10713
  157.7112  131.0733  150.6494 LP  0  0  0  0  0  0  0  0  0  0  0  0  # atno 17371 bound_to 10713
  141.1560  133.6543  156.4165 LP  0  0  0  0  0  0  0  0  0  0  0  0  # atno 17394 bound_to 11000
  140.4920  134.6566  157.5214 LP  0  0  0  0  0  0  0  0  0  0  0  0  # atno 17395 bound_to 11000

$$$$
