AV-unprocessed.smi:2497|AV-procd|sdf|9829|dock5
  -GOLD-   2272013463D 1   1.00000     0.00000
 Structure written by MMmdl.
 47 48  0  0  0  0  0  0  0  0  1 V2000
  145.8271  131.8035  149.5562 C   0  0  0  0  0  0  0  0  0  0  0  0
  145.4701  132.3892  150.9331 C   0  0  0  0  0  0  0  0  0  0  0  0
  145.7190  131.3494  152.0363 C   0  0  0  0  0  0  0  0  0  0  0  0
  144.0195  132.9080  150.9914 C   0  0  0  0  0  0  0  0  0  0  0  0
  143.7912  134.0181  152.0318 C   0  0  0  0  0  0  0  0  0  0  0  0
  144.5658  135.2024  151.7182 N   0  0  0  0  0  0  0  0  0  0  0  0
  145.4576  135.3959  150.6827 C   0  0  0  0  0  0  0  0  0  0  0  0
  145.9557  136.6622  150.8019 C   0  0  0  0  0  0  0  0  0  0  0  0
  145.2984  137.1624  151.9657 C   0  0  0  0  0  0  0  0  0  0  0  0
  145.4580  138.4573  152.5212 N   0  0  0  0  0  0  0  0  0  0  0  0
  146.4353  138.9000  153.3293 C   0  0  0  0  0  0  0  0  0  0  0  0
  147.3683  138.2170  153.7504 O   0  0  0  0  0  0  0  0  0  0  0  0
  146.2540  140.1967  153.6320 N   0  0  0  0  0  0  0  0  0  0  0  0
  147.0805  141.0630  154.4862 C   0  0  0  0  0  0  0  0  0  0  0  0
  148.5661  140.6663  154.3480 C   0  0  0  0  0  0  0  0  0  0  0  0
  146.8791  142.5626  154.1564 C   0  0  0  0  0  0  0  0  0  0  0  0
  145.4552  143.0398  154.4921 C   0  0  0  0  0  0  0  0  0  0  0  0
  145.1792  142.8012  155.8672 O   0  0  0  0  0  0  0  0  0  0  0  0
  145.2218  141.4209  156.2090 C   0  0  0  0  0  0  0  0  0  0  0  0
  146.6302  140.8527  155.9483 C   0  0  0  0  0  0  0  0  0  0  0  0
  144.4603  136.2947  152.5050 N   0  0  0  0  0  0  0  0  0  0  0  0
  145.1664  130.9765  149.2942 H   0  0  0  0  0  0  0  0  0  0  0  0
  146.8498  131.4254  149.5456 H   0  0  0  0  0  0  0  0  0  0  0  0
  145.7546  132.5514  148.7672 H   0  0  0  0  0  0  0  0  0  0  0  0
  146.1384  133.2297  151.1248 H   0  0  0  0  0  0  0  0  0  0  0  0
  145.0744  130.4785  151.9123 H   0  0  0  0  0  0  0  0  0  0  0  0
  145.5260  131.7687  153.0240 H   0  0  0  0  0  0  0  0  0  0  0  0
  146.7526  131.0025  152.0245 H   0  0  0  0  0  0  0  0  0  0  0  0
  143.7167  133.2575  150.0031 H   0  0  0  0  0  0  0  0  0  0  0  0
  143.3556  132.0762  151.2320 H   0  0  0  0  0  0  0  0  0  0  0  0
  142.7367  134.2939  152.0689 H   0  0  0  0  0  0  0  0  0  0  0  0
  144.0670  133.6831  153.0318 H   0  0  0  0  0  0  0  0  0  0  0  0
  145.6620  134.6240  149.9555 H   0  0  0  0  0  0  0  0  0  0  0  0
  146.6733  137.1400  150.1520 H   0  0  0  0  0  0  0  0  0  0  0  0
  144.7238  139.1142  152.3016 H   0  0  0  0  0  0  0  0  0  0  0  0
  145.4459  140.6430  153.2235 H   0  0  0  0  0  0  0  0  0  0  0  0
  149.1909  141.2270  155.0440 H   0  0  0  0  0  0  0  0  0  0  0  0
  148.9501  140.8623  153.3468 H   0  0  0  0  0  0  0  0  0  0  0  0
  148.7145  139.6064  154.5576 H   0  0  0  0  0  0  0  0  0  0  0  0
  147.5854  143.1559  154.7386 H   0  0  0  0  0  0  0  0  0  0  0  0
  147.1084  142.7780  153.1131 H   0  0  0  0  0  0  0  0  0  0  0  0
  145.3652  144.1086  154.2982 H   0  0  0  0  0  0  0  0  0  0  0  0
  144.7129  142.5423  153.8663 H   0  0  0  0  0  0  0  0  0  0  0  0
  144.9673  141.3157  157.2638 H   0  0  0  0  0  0  0  0  0  0  0  0
  144.4639  140.8732  155.6469 H   0  0  0  0  0  0  0  0  0  0  0  0
  146.6580  139.7938  156.2092 H   0  0  0  0  0  0  0  0  0  0  0  0
  147.3309  141.3484  156.6219 H   0  0  0  0  0  0  0  0  0  0  0  0
  1  2  1  0  0  0  0
  1 22  1  0  0  0  0
  1 23  1  0  0  0  0
  1 24  1  0  0  0  0
  2  3  1  0  0  0  0
  2  4  1  0  0  0  0
  2 25  1  0  0  0  0
  3 26  1  0  0  0  0
  3 27  1  0  0  0  0
  3 28  1  0  0  0  0
  4  5  1  0  0  0  0
  4 29  1  0  0  0  0
  4 30  1  0  0  0  0
  5  6  1  0  0  0  0
  5 31  1  0  0  0  0
  5 32  1  0  0  0  0
  6 21  1  0  0  0  0
  6  7  1  0  0  0  0
  7  8  2  0  0  0  0
  7 33  1  0  0  0  0
  8  9  1  0  0  0  0
  8 34  1  0  0  0  0
  9 10  1  0  0  0  0
  9 21  2  0  0  0  0
 10 11  1  0  0  0  0
 10 35  1  0  0  0  0
 11 12  2  0  0  0  0
 11 13  1  0  0  0  0
 13 14  1  0  0  0  0
 13 36  1  0  0  0  0
 14 20  1  0  0  0  0
 14 15  1  0  0  0  0
 14 16  1  0  0  0  0
 15 37  1  0  0  0  0
 15 38  1  0  0  0  0
 15 39  1  0  0  0  0
 16 17  1  0  0  0  0
 16 40  1  0  0  0  0
 16 41  1  0  0  0  0
 17 18  1  0  0  0  0
 17 42  1  0  0  0  0
 17 43  1  0  0  0  0
 18 19  1  0  0  0  0
 19 20  1  0  0  0  0
 19 44  1  0  0  0  0
 19 45  1  0  0  0  0
 20 46  1  0  0  0  0
 20 47  1  0  0  0  0
M  END
> <s_m_source_file>
AV-unprocessed.smi

> <i_m_source_file_index>
2497

> <i_lp_mmshare_version>
43012

> <i_f3d_flags>
0

> <s_epik_input>
W0NIM11bQ0hdKFtDSDNdKVtDSDJdW0NIMl1uMVtjSF1bY0hdYyhuMSlbTkhdQyg9TylbTkhdQzIoW0NIM10pW0NIMl1bQ0gyXU9bQ0gyXVtDSDJdMg==

> <s_epik_cmdline>
J2VwaWtfcHl0aG9uJywgJy1waCcsICc3LjAnLCAnLXRuJywgJzgnLCAnLW1hJywgJzIwMCcsICctbWV0YWxfYmluZGluZycsICctaW1hZScsICc8aW5maWxlLm1hZT4nLCAnLW9tYWUnLCAnPG91dGZpbGUubWFlPic=

> <r_lp_tautomer_probability>
1

> <r_epik_Ionization_Penalty>
3.57775e-05

> <r_epik_Ionization_Penalty_Charging>
0

> <r_epik_Ionization_Penalty_Neutral>
3.57775e-05

> <r_epik_State_Penalty>
-0

> <r_epik_Charging_Adjusted_Penalty>
0

> <i_epik_Tot_Q>
0

> <i_epik_Tot_abs_Q>
0

> <r_epik_Metal_State_Penalty>
-0

> <b_epik_Metal_Only>
0

> <s_lp_Force_Field>
OPLS_2005

> <r_lp_Energy>
13.1227

> <b_lp_Chiralities_Consistent>
1

> <s_lp_Variant>
AV-unprocessed.smi:2497-1

> <Gold.Version>
5.8.1

> <Gold.Id.Protein>
6NUR|6NUR_protein|mol2

> <Gold.PLP.Fitness>
42.4996

> <Gold.PLP.PLP>
-36.6109

> <Gold.PLP.part.hbond>
-2.7470

> <Gold.PLP.part.metal>
0.0000

> <Gold.PLP.part.buried>
-1.3470

> <Gold.PLP.part.nonpolar>
-34.3901

> <Gold.PLP.part.repulsive>
0.4841

> <Gold.PLP.ligand.clash>
0.0000

> <Gold.PLP.ligand.torsion>
1.5092

> <Gold.PLP.Chemscore.Hbond>
1.9600

> <Gold.PLP.Chemscore.CHOScore>
0.9878

> <Gold.PLP.Chemscore.Metal>
0.0000

> <Gold.Chemscore.Hbonds>
donor molecule, donor type, donor heavy atom, donor atom, acceptor molecule, acceptor atom, score
      L1  H    10    35       P1 10175  1.00
      L1  H    13    36       P1 10175  0.99
      L1  C     7    33       P1  7921  0.99

> <Gold.PLP.Chemscore.Internal.Correction>
0.0639

> <Gold.Rescore>
     Score         DG    S(hbond)    S(metal)    S(lipo)     H(rot)  DE(clash)    DE(int)     intcor
     13.26     -17.94       1.93        0.00      83.73       1.47       0.87       3.81       ----

> <Gold.Chemscore.Fitness>
13.2641

> <Gold.Chemscore.DG>
-17.9449

> <Gold.Chemscore.ZeroCoef>
-5.4800

> <Gold.Chemscore.Hbond>
1.9256

> <Gold.Chemscore.Metal>
0.0000

> <Gold.Chemscore.Lipo>
83.7275

> <Gold.Chemscore.Internal_Hbond>
0.0000

> <Gold.Chemscore.DEClash>
0.8730

> <Gold.Chemscore.DEInternal>
3.8078

> <Gold.Chemscore.Rot>
1.4698

> <Gold.Chemscore.Internal.Correction>
   9.000000E+99

> <Gold.Chemscore.Hbonds>
donor molecule, donor type, donor heavy atom, donor atom, acceptor molecule, acceptor atom, score
      L1  H    10    35       P1 10175  1.00
      L1  H    13    36       P1 10175  0.79

> <Gold.Chemscore.Hbond.Weighted>
-6.4315

> <Gold.Chemscore.Metal.Weighted>
-0.0000

> <Gold.Chemscore.Lipo.Weighted>
-9.7961

> <Gold.Chemscore.Internal_Hbond.Weighted>
0.0000

> <Gold.Chemscore.DEClash.Weighted>
0.8730

> <Gold.Chemscore.DEInternal.Weighted>
3.8078

> <Gold.Chemscore.Rot.Weighted>
3.7628

> <Gold.Chemscore.Internal.Correction.Weighted>
   9.000000E+99

> <Gold.Protein.RotatedTorsions>
[ 6907 6896 6895 6894 ] final  171.48 input  -60.11 | X-H torsion
[ 7974 7965 7964 7962 ] final  -65.75 input  175.53 | X-H torsion
[ 8008 7997 7996 7995 ] final -178.48 input   59.86 | X-H torsion
[ 10167 10162 10161 10158 ] final -166.43 input  -65.29 | X-H torsion
[ 10718 10713 10712 10709 ] final  130.49 input   66.30 | X-H torsion
[ 10763 10752 10751 10750 ] final -108.78 input  -60.55 | X-H torsion
[ 11005 11000 10999 10996 ] final -134.11 input  -57.11 | X-H torsion

> <Gold.Protein.ActiveResidues>
 VAL166  LYS551  ARG553  GLY616  TRP617  ASP618  TYR619  PRO620  LYS621  CYS622 
 ASP623  PHE694  ASN695  SER759  ASP760  ASP761  ALA762  ILE779  LEU786  VAL792 
 PHE793  MET794  SER795  GLU796  ALA797  LYS798  CYS799  TRP800  GLU811  SER814 

> <Gold.Protein.RotatedAtoms>
  151.7996  133.3368  159.3522 H   0  0  0  0  0  0  0  0  0  0  0  0  # atno 6907 bound_to 6896
  150.7363  134.5766  159.5927 H   0  0  0  0  0  0  0  0  0  0  0  0  # atno 6908 bound_to 6896
  152.3152  134.7449  160.0378 H   0  0  0  0  0  0  0  0  0  0  0  0  # atno 6909 bound_to 6896
  145.7504  140.8911  143.0483 H   0  0  0  0  0  0  0  0  0  0  0  0  # atno 7974 bound_to 7965
  156.0194  140.1257  157.0373 H   0  0  0  0  0  0  0  0  0  0  0  0  # atno 8008 bound_to 7997
  154.4305  140.1072  156.6011 H   0  0  0  0  0  0  0  0  0  0  0  0  # atno 8009 bound_to 7997
  155.5967  140.3470  155.4584 H   0  0  0  0  0  0  0  0  0  0  0  0  # atno 8010 bound_to 7997
  139.6116  144.0804  152.1847 H   0  0  0  0  0  0  0  0  0  0  0  0  # atno 10167 bound_to 10162
  157.5057  131.1095  150.9364 H   0  0  0  0  0  0  0  0  0  0  0  0  # atno 10718 bound_to 10713
  154.8155  135.4625  154.0633 H   0  0  0  0  0  0  0  0  0  0  0  0  # atno 10763 bound_to 10752
  153.2029  135.6871  153.8216 H   0  0  0  0  0  0  0  0  0  0  0  0  # atno 10764 bound_to 10752
  153.7694  135.3272  155.3326 H   0  0  0  0  0  0  0  0  0  0  0  0  # atno 10765 bound_to 10752
  140.9020  134.1678  157.4453 H   0  0  0  0  0  0  0  0  0  0  0  0  # atno 11005 bound_to 11000
  144.6851  139.9583  143.7479 LP  0  0  0  0  0  0  0  0  0  0  0  0  # atno 17320 bound_to 7965
  146.0362  139.3380  143.0725 LP  0  0  0  0  0  0  0  0  0  0  0  0  # atno 17321 bound_to 7965
  140.0424  144.5997  150.7400 LP  0  0  0  0  0  0  0  0  0  0  0  0  # atno 17342 bound_to 10162
  140.7322  143.2703  151.3909 LP  0  0  0  0  0  0  0  0  0  0  0  0  # atno 17343 bound_to 10162
  157.0021  130.5604  149.5312 LP  0  0  0  0  0  0  0  0  0  0  0  0  # atno 17370 bound_to 10713
  156.0257  130.5350  150.8399 LP  0  0  0  0  0  0  0  0  0  0  0  0  # atno 17371 bound_to 10713
  139.8743  134.9902  156.5490 LP  0  0  0  0  0  0  0  0  0  0  0  0  # atno 17394 bound_to 11000
  140.8218  133.8347  155.8903 LP  0  0  0  0  0  0  0  0  0  0  0  0  # atno 17395 bound_to 11000

$$$$
