AV-unprocessed.smi:2310|AV-procd|sdf|9260|dock9
  -GOLD-   2272012483D 1   1.00000     0.00000
 Structure written by MMmdl.
 45 46  0  0  0  0  0  0  0  0  3 V2000
  150.8822  133.0425  155.9581 C   0  0  0  0  0  0  0  0  0  0  0  0
  151.0684  134.5708  155.8919 C   0  0  0  0  0  0  0  0  0  0  0  0
  150.2077  135.2862  154.8260 C   0  0  1  0  0  0  0  0  0  0  0  0
  148.7150  135.3155  155.2116 C   0  0  0  0  0  0  0  0  0  0  0  0
  148.0892  133.9927  155.3914 C   0  0  0  0  0  0  0  0  0  0  0  0
  147.5995  132.9529  155.5371 N   0  0  0  0  0  0  0  0  0  0  0  0
  150.6923  136.6588  154.6405 N   0  5  0  0  0  0  0  0  0  0  0  0
  150.8974  137.5550  155.6422 C   0  0  0  0  0  0  0  0  0  0  0  0
  151.1187  137.3171  156.8353 O   0  0  0  0  0  0  0  0  0  0  0  0
  150.8681  138.8238  155.1989 N   0  0  0  0  0  0  0  0  0  0  0  0
  151.0243  140.0264  155.9401 C   0  0  0  0  0  0  0  0  0  0  0  0
  151.8960  140.1317  157.0506 C   0  0  0  0  0  0  0  0  0  0  0  0
  151.9813  141.3472  157.7584 C   0  0  0  0  0  0  0  0  0  0  0  0
  151.1846  142.4463  157.3617 C   0  0  0  0  0  0  0  0  0  0  0  0
  151.2197  143.6922  158.0158 N   0  0  0  0  0  0  0  0  0  0  0  0
  150.1592  144.1125  158.9228 C   0  0  0  0  0  0  0  0  0  0  0  0
  150.8233  145.0754  159.9136 C   0  0  0  0  0  0  0  0  0  0  0  0
  152.0761  145.5575  159.1819 C   0  0  0  0  0  0  0  0  0  0  0  0
  152.4762  144.3456  158.3416 C   0  0  0  0  0  0  0  0  0  0  0  0
  150.3554  142.2944  156.3021 N   0  3  0  0  0  0  0  0  0  0  0  0
  150.2390  141.1499  155.5923 C   0  0  0  0  0  0  0  0  0  0  0  0
  149.2599  141.1402  154.4328 C   0  0  0  0  0  0  0  0  0  0  0  0
  151.4998  132.6223  156.7520 H   0  0  0  0  0  0  0  0  0  0  0  0
  151.1778  132.5508  155.0296 H   0  0  0  0  0  0  0  0  0  0  0  0
  149.8492  132.7632  156.1731 H   0  0  0  0  0  0  0  0  0  0  0  0
  150.8202  134.9819  156.8709 H   0  0  0  0  0  0  0  0  0  0  0  0
  152.1240  134.7968  155.7347 H   0  0  0  0  0  0  0  0  0  0  0  0
  150.2874  134.7099  153.9026 H   0  0  0  0  0  0  0  0  0  0  0  0
  148.5661  135.8849  156.1296 H   0  0  0  0  0  0  0  0  0  0  0  0
  148.1483  135.8285  154.4345 H   0  0  0  0  0  0  0  0  0  0  0  0
  150.8030  138.9307  154.1971 H   0  0  0  0  0  0  0  0  0  0  0  0
  152.4912  139.2927  157.3787 H   0  0  0  0  0  0  0  0  0  0  0  0
  152.6548  141.4160  158.5993 H   0  0  0  0  0  0  0  0  0  0  0  0
  149.3862  144.6224  158.3471 H   0  0  0  0  0  0  0  0  0  0  0  0
  149.6993  143.2723  159.4446 H   0  0  0  0  0  0  0  0  0  0  0  0
  150.1666  145.8912  160.2166 H   0  0  0  0  0  0  0  0  0  0  0  0
  151.1150  144.5306  160.8122 H   0  0  0  0  0  0  0  0  0  0  0  0
  151.8219  146.3931  158.5281 H   0  0  0  0  0  0  0  0  0  0  0  0
  152.8666  145.8850  159.8574 H   0  0  0  0  0  0  0  0  0  0  0  0
  153.1015  143.6646  158.9206 H   0  0  0  0  0  0  0  0  0  0  0  0
  153.0214  144.6422  157.4451 H   0  0  0  0  0  0  0  0  0  0  0  0
  148.4863  140.3896  154.5963 H   0  0  0  0  0  0  0  0  0  0  0  0
  149.7769  140.9034  153.5027 H   0  0  0  0  0  0  0  0  0  0  0  0
  148.7741  142.1091  154.3123 H   0  0  0  0  0  0  0  0  0  0  0  0
  149.7832  143.0905  156.0214 H   0  0  0  0  0  0  0  0  0  0  0  0
  1  2  1  0  0  0  0
  1 23  1  0  0  0  0
  1 24  1  0  0  0  0
  1 25  1  0  0  0  0
  2  3  1  0  0  0  0
  2 26  1  0  0  0  0
  2 27  1  0  0  0  0
  3  4  1  0  0  0  0
  3  7  1  0  0  0  0
  3 28  1  0  0  0  0
  4  5  1  0  0  0  0
  4 29  1  0  0  0  0
  4 30  1  0  0  0  0
  5  6  3  0  0  0  0
  7  8  1  0  0  0  0
  8  9  2  0  0  0  0
  8 10  1  0  0  0  0
 10 11  1  0  0  0  0
 10 31  1  0  0  0  0
 11 21  1  0  0  0  0
 11 12  2  0  0  0  0
 12 13  1  0  0  0  0
 12 32  1  0  0  0  0
 13 14  2  0  0  0  0
 13 33  1  0  0  0  0
 14 15  1  0  0  0  0
 14 20  1  0  0  0  0
 15 19  1  0  0  0  0
 15 16  1  0  0  0  0
 16 17  1  0  0  0  0
 16 34  1  0  0  0  0
 16 35  1  0  0  0  0
 17 18  1  0  0  0  0
 17 36  1  0  0  0  0
 17 37  1  0  0  0  0
 18 19  1  0  0  0  0
 18 38  1  0  0  0  0
 18 39  1  0  0  0  0
 19 40  1  0  0  0  0
 19 41  1  0  0  0  0
 20 21  2  0  0  0  0
 20 45  1  0  0  0  0
 21 22  1  0  0  0  0
 22 42  1  0  0  0  0
 22 43  1  0  0  0  0
 22 44  1  0  0  0  0
M  CHG  1   7  -1
M  CHG  1  20   1
M  END
> <s_m_source_file>
AV-unprocessed.smi

> <i_m_source_file_index>
2310

> <i_lp_mmshare_version>
43012

> <i_f3d_flags>
0

> <s_epik_input>
TiNDW0NIMl1bQ0BASF0oW0NIMl1bQ0gzXSlbTkhdQyg9TylbTkhdYzFbY0hdW2NIXWMobmMxW0NIM10pTjJbQ0gyXVtDSDJdW0NIMl1bQ0gyXTI=

> <s_epik_cmdline>
J2VwaWtfcHl0aG9uJywgJy1waCcsICc3LjAnLCAnLXRuJywgJzgnLCAnLW1hJywgJzIwMCcsICctbWV0YWxfYmluZGluZycsICctaW1hZScsICc8aW5maWxlLm1hZT4nLCAnLW9tYWUnLCAnPG91dGZpbGUubWFlPic=

> <r_lp_tautomer_probability>
0.999994

> <r_epik_Ionization_Penalty>
7.34515

> <r_epik_Ionization_Penalty_Charging>
7.34514

> <r_epik_Ionization_Penalty_Neutral>
2.56118e-06

> <r_epik_State_Penalty>
6.99243

> <r_epik_Charging_Adjusted_Penalty>
14.3376

> <i_epik_Tot_Q>
0

> <i_epik_Tot_abs_Q>
2

> <r_epik_Metal_State_Penalty>
3.10684

> <b_epik_Metal_Only>
1

> <s_lp_Force_Field>
OPLS_2005

> <r_lp_Energy>
34.805

> <b_lp_Chiralities_Consistent>
1

> <s_lp_Variant>
AV-unprocessed.smi:2310-6

> <Gold.Version>
5.8.1

> <Gold.Id.Protein>
6NUR|6NUR_protein|mol2

> <Gold.PLP.Fitness>
43.2747

> <Gold.PLP.PLP>
-40.3447

> <Gold.PLP.part.hbond>
-1.0000

> <Gold.PLP.part.metal>
0.0000

> <Gold.PLP.part.buried>
-5.3542

> <Gold.PLP.part.nonpolar>
-34.2535

> <Gold.PLP.part.repulsive>
0.3492

> <Gold.PLP.ligand.clash>
0.0000

> <Gold.PLP.ligand.torsion>
1.6676

> <Gold.PLP.Chemscore.Hbond>
2.0000

> <Gold.PLP.Chemscore.CHOScore>
0.0000

> <Gold.PLP.Chemscore.Metal>
0.0000

> <Gold.Chemscore.Hbonds>
donor molecule, donor type, donor heavy atom, donor atom, acceptor molecule, acceptor atom, score
      L1  H    20    45       P1  8028  2.00

> <Gold.PLP.Chemscore.Internal.Correction>
0.2652

> <Gold.Rescore>
     Score         DG    S(hbond)    S(metal)    S(lipo)     H(rot)  DE(clash)    DE(int)     intcor
     11.96     -16.81       1.00        0.00      99.96       1.45       0.04       4.81       ----

> <Gold.Chemscore.Fitness>
11.9577

> <Gold.Chemscore.DG>
-16.8054

> <Gold.Chemscore.ZeroCoef>
-5.4800

> <Gold.Chemscore.Hbond>
1.0000

> <Gold.Chemscore.Metal>
0.0000

> <Gold.Chemscore.Lipo>
99.9609

> <Gold.Chemscore.Internal_Hbond>
0.0000

> <Gold.Chemscore.DEClash>
0.0406

> <Gold.Chemscore.DEInternal>
4.8070

> <Gold.Chemscore.Rot>
1.4492

> <Gold.Chemscore.Internal.Correction>
   9.000000E+99

> <Gold.Chemscore.Hbonds>
donor molecule, donor type, donor heavy atom, donor atom, acceptor molecule, acceptor atom, score
      L1  H    20    45       P1  8028  1.00

> <Gold.Chemscore.Hbond.Weighted>
-3.3399

> <Gold.Chemscore.Metal.Weighted>
-0.0000

> <Gold.Chemscore.Lipo.Weighted>
-11.6954

> <Gold.Chemscore.Internal_Hbond.Weighted>
0.0000

> <Gold.Chemscore.DEClash.Weighted>
0.0406

> <Gold.Chemscore.DEInternal.Weighted>
4.8070

> <Gold.Chemscore.Rot.Weighted>
3.7100

> <Gold.Chemscore.Internal.Correction.Weighted>
   9.000000E+99

> <Gold.Protein.RotatedTorsions>
[ 6907 6896 6895 6894 ] final  171.23 input  -60.11 | X-H torsion
[ 7974 7965 7964 7962 ] final   51.81 input  175.53 | X-H torsion
[ 8008 7997 7996 7995 ] final  162.62 input   59.86 | X-H torsion
[ 10167 10162 10161 10158 ] final  152.40 input  -65.29 | X-H torsion
[ 10718 10713 10712 10709 ] final   53.63 input   66.30 | X-H torsion
[ 10763 10752 10751 10750 ] final  -18.20 input  -60.55 | X-H torsion
[ 11005 11000 10999 10996 ] final  -73.57 input  -57.11 | X-H torsion

> <Gold.Protein.ActiveResidues>
 VAL166  LYS551  ARG553  GLY616  TRP617  ASP618  TYR619  PRO620  LYS621  CYS622 
 ASP623  PHE694  ASN695  SER759  ASP760  ASP761  ALA762  ILE779  LEU786  VAL792 
 PHE793  MET794  SER795  GLU796  ALA797  LYS798  CYS799  TRP800  GLU811  SER814 

> <Gold.Protein.RotatedAtoms>
  151.8035  133.3373  159.3533 H   0  0  0  0  0  0  0  0  0  0  0  0  # atno 6907 bound_to 6896
  150.7350  134.5731  159.5910 H   0  0  0  0  0  0  0  0  0  0  0  0  # atno 6908 bound_to 6896
  152.3126  134.7480  160.0384 H   0  0  0  0  0  0  0  0  0  0  0  0  # atno 6909 bound_to 6896
  145.9876  139.4305  143.0093 H   0  0  0  0  0  0  0  0  0  0  0  0  # atno 7974 bound_to 7965
  156.2018  140.1745  156.7884 H   0  0  0  0  0  0  0  0  0  0  0  0  # atno 8008 bound_to 7997
  154.5601  140.0701  156.8837 H   0  0  0  0  0  0  0  0  0  0  0  0  # atno 8009 bound_to 7997
  155.2863  140.3352  155.4257 H   0  0  0  0  0  0  0  0  0  0  0  0  # atno 8010 bound_to 7997
  139.4833  144.5361  151.7643 H   0  0  0  0  0  0  0  0  0  0  0  0  # atno 10167 bound_to 10162
  157.5185  130.8548  149.8527 H   0  0  0  0  0  0  0  0  0  0  0  0  # atno 10718 bound_to 10713
  153.5857  135.7004  153.5444 H   0  0  0  0  0  0  0  0  0  0  0  0  # atno 10763 bound_to 10752
  153.3222  135.4071  155.1426 H   0  0  0  0  0  0  0  0  0  0  0  0  # atno 10764 bound_to 10752
  154.8609  135.3698  154.5386 H   0  0  0  0  0  0  0  0  0  0  0  0  # atno 10765 bound_to 10752
  141.1624  133.6882  156.7231 H   0  0  0  0  0  0  0  0  0  0  0  0  # atno 11005 bound_to 11000
  145.7678  140.9909  143.1165 LP  0  0  0  0  0  0  0  0  0  0  0  0  # atno 17320 bound_to 7965
  144.6879  139.9409  143.7475 LP  0  0  0  0  0  0  0  0  0  0  0  0  # atno 17321 bound_to 7965
  140.4893  144.1334  150.5947 LP  0  0  0  0  0  0  0  0  0  0  0  0  # atno 17342 bound_to 10162
  140.4189  143.2621  151.9740 LP  0  0  0  0  0  0  0  0  0  0  0  0  # atno 17343 bound_to 10162
  156.0337  130.3757  150.1619 LP  0  0  0  0  0  0  0  0  0  0  0  0  # atno 17370 bound_to 10713
  156.9807  130.9863  151.3438 LP  0  0  0  0  0  0  0  0  0  0  0  0  # atno 17371 bound_to 10713
  140.2801  134.8324  157.3925 LP  0  0  0  0  0  0  0  0  0  0  0  0  # atno 17394 bound_to 11000
  140.1441  134.4934  155.8009 LP  0  0  0  0  0  0  0  0  0  0  0  0  # atno 17395 bound_to 11000

$$$$
