#       Name:                AV-unprocessed.smi:1910
#       Creating user name   scv26
#       Creation time:       Fri Mar 27 09:47:47 2020


#       File generated by GOLD software.
#

@<TRIPOS>MOLECULE
AV-unprocessed.smi:1910
    48    49     1
SMALL
NO_CHARGES


@<TRIPOS>ATOM
      1 ****        -4.2449  -4.4304   0.2565 C.3            1 S1                 0.0000
      2 ****        -3.6023  -3.1604   0.2400 O.3            1 S1                 0.0000
      3 ****        -4.3873  -2.0231   0.2393 C.ar           1 S1                 0.0000
      4 ****        -5.7361  -2.1696   0.2466 N.ar           1 S1                 0.0000
      5 ****        -6.5032  -1.0600   0.2522 C.ar           1 S1                 0.0000
      6 ****        -5.9730   0.2431   0.2571 C.ar           1 S1                 0.0000
      7 ****        -4.5746   0.3977   0.2489 C.ar           1 S1                 0.0000
      8 ****        -3.7557  -0.7575   0.2282 C.ar           1 S1                 0.0000
      9 ****        -2.3343  -0.7148   0.2422 N.am           1 S1                 0.0000
     10 ****        -1.5240   0.2801  -0.1563 C.2            1 S1                 0.0000
     11 ****        -1.8920   1.3427  -0.6565 O.2            1 S1                 0.0000
     12 ****        -0.2365  -0.0337   0.0387 N.am           1 S1                 0.0000
     13 ****         0.8792   0.8360  -0.3087 C.3            1 S1                 0.0000
     14 ****         2.1829   0.3284   0.3275 C.3            1 S1                 0.0000
     15 ****         3.3323   1.2215   0.0377 N.4            1 S1                 1.0000
     16 ****         4.4324   1.0684   1.0196 C.3            1 S1                 0.0000
     17 ****         5.5732   2.0521   0.7079 C.3            1 S1                 0.0000
     18 ****         6.0358   1.8406  -0.6199 O.3            1 S1                 0.0000
     19 ****         5.0133   2.0701  -1.5813 C.3            1 S1                 0.0000
     20 ****         3.8523   1.0888  -1.3460 C.3            1 S1                 0.0000
     21 ****        -3.4894  -5.2160   0.2546 H              1 S1                 0.0000
     22 ****        -4.8717  -4.5729  -0.6248 H              1 S1                 0.0000
     23 ****        -4.8525  -4.5581   1.1535 H              1 S1                 0.0000
     24 ****        -7.5718  -1.2155   0.2605 H              1 S1                 0.0000
     25 ****        -6.6239   1.1048   0.2726 H              1 S1                 0.0000
     26 ****        -4.1610   1.3939   0.2751 H              1 S1                 0.0000
     27 ****        -1.8825  -1.5669   0.5409 H              1 S1                 0.0000
     28 ****        -0.0169  -0.9300   0.4485 H              1 S1                 0.0000
     29 ****         0.9580   0.8699  -1.3955 H              1 S1                 0.0000
     30 ****         0.6751   1.8526   0.0320 H              1 S1                 0.0000
     31 ****         2.0354   0.2772   1.4074 H              1 S1                 0.0000
     32 ****         2.4086  -0.6874  -0.0017 H              1 S1                 0.0000
     33 ****         4.0588   1.2510   2.0279 H              1 S1                 0.0000
     34 ****         4.8052   0.0431   0.9954 H              1 S1                 0.0000
     35 ****         5.2432   3.0849   0.8310 H              1 S1                 0.0000
     36 ****         6.4018   1.8985   1.3994 H              1 S1                 0.0000
     37 ****         4.6682   3.1038  -1.5246 H              1 S1                 0.0000
     38 ****         5.4286   1.9276  -2.5791 H              1 S1                 0.0000
     39 ****         4.1923   0.0655  -1.5128 H              1 S1                 0.0000
     40 ****         3.0642   1.2861  -2.0719 H              1 S1                 0.0000
     41 ****         2.9948   2.1683   0.1384 H              1 S1                 0.0000
     42 ****        -3.0348  -3.1276  -0.5827 LP             1 S1                 0.0000
     43 ****        -3.0179  -3.1150   1.0501 LP             1 S1                 0.0000
     44 ****        -6.1520  -3.0791   0.2478 LP             1 S1                 0.0000
     45 ****        -2.8666   1.5192  -0.7948 LP             1 S1                 0.0000
     46 ****        -1.2165   2.0296  -0.9246 LP             1 S1                 0.0000
     47 ****         6.3532   0.8961  -0.7049 LP             1 S1                 0.0000
     48 ****         6.7955   2.4652  -0.8008 LP             1 S1                 0.0000
@<TRIPOS>BOND
    1    1    2 1     
    2    1   21 1     
    3    1   22 1     
    4    1   23 1     
    5    2    3 1     
    6    3    8 ar    
    7    3    4 ar    
    8    4    5 ar    
    9    5    6 ar    
   10    5   24 1     
   11    6    7 ar    
   12    6   25 1     
   13    7    8 ar    
   14    7   26 1     
   15    8    9 1     
   16    9   10 am    
   17    9   27 1     
   18   10   11 2     
   19   10   12 am    
   20   12   13 1     
   21   12   28 1     
   22   13   14 1     
   23   13   29 1     
   24   13   30 1     
   25   14   15 1     
   26   14   31 1     
   27   14   32 1     
   28   15   20 1     
   29   15   16 1     
   30   15   41 1     
   31   16   17 1     
   32   16   33 1     
   33   16   34 1     
   34   17   18 1     
   35   17   35 1     
   36   17   36 1     
   37   18   19 1     
   38   19   20 1     
   39   19   37 1     
   40   19   38 1     
   41   20   39 1     
   42   20   40 1     
   43    2   42 1     
   44    2   43 1     
   45    4   44 1     
   46   11   45 1     
   47   11   46 1     
   48   18   47 1     
   49   18   48 1     
@<TRIPOS>SUBSTRUCTURE
      1 S1             1
@<TRIPOS>SET
LONE_PAIRS      STATIC     ATOMS    <user>   **** ""
7 42 43 44 45 46 47 48
DONOR_HYDROGENS      STATIC     ATOMS    <user>   **** ""
3 27 28 41
ATOM$BLUE        STATIC     ATOMS    COLORGROUP SYSTEM
7 42 43 44 45 46 47 48
ATOM$RED        STATIC     ATOMS    COLORGROUP SYSTEM
3 27 28 41
