AV-unprocessed.smi:2436|AV-procd|sdf|9593|dock1
  -GOLD-   2272013223D 1   1.00000     0.00000
 Structure written by MMmdl.
 36 37  0  0  0  0  0  0  0  0  1 V2000
  152.5649  143.0938  161.7058 C   0  0  0  0  0  0  0  0  0  0  0  0
  152.5983  142.6008  160.2509 C   0  0  0  0  0  0  0  0  0  0  0  0
  151.7418  143.4336  159.2787 C   0  0  0  0  0  0  0  0  0  0  0  0
  151.6897  142.7963  157.9592 N   0  0  0  0  0  0  0  0  0  0  0  0
  150.6926  142.0371  157.4770 C   0  0  0  0  0  0  0  0  0  0  0  0
  149.6645  141.7828  158.1053 O   0  0  0  0  0  0  0  0  0  0  0  0
  150.9720  141.6025  156.2357 N   0  0  0  0  0  0  0  0  0  0  0  0
  150.1745  140.7812  155.3954 C   0  0  0  0  0  0  0  0  0  0  0  0
  148.7857  141.0404  155.4234 C   0  0  0  0  0  0  0  0  0  0  0  0
  147.9576  140.2447  154.6053 C   0  0  0  0  0  0  0  0  0  0  0  0
  146.5957  140.4641  154.6056 O   0  0  0  0  0  0  0  0  0  0  0  0
  146.1056  141.6427  155.2348 C   0  0  0  0  0  0  0  0  0  0  0  0
  148.4743  139.2691  153.8197 N   0  0  0  0  0  0  0  0  0  0  0  0
  149.7966  139.1021  153.8615 C   0  0  0  0  0  0  0  0  0  0  0  0
  150.6634  139.7983  154.5993 N   0  0  0  0  0  0  0  0  0  0  0  0
  150.3447  143.8961  159.7478 C   0  0  0  0  0  0  0  0  0  0  0  0
  150.9824  145.2234  160.1656 C   0  0  0  0  0  0  0  0  0  0  0  0
  152.0663  144.9333  159.1240 C   0  0  0  0  0  0  0  0  0  0  0  0
  153.1542  142.4379  162.3465 H   0  0  0  0  0  0  0  0  0  0  0  0
  151.5482  143.1102  162.0980 H   0  0  0  0  0  0  0  0  0  0  0  0
  152.9781  144.0983  161.7998 H   0  0  0  0  0  0  0  0  0  0  0  0
  153.6342  142.5725  159.9120 H   0  0  0  0  0  0  0  0  0  0  0  0
  152.2666  141.5623  160.2364 H   0  0  0  0  0  0  0  0  0  0  0  0
  152.4908  142.9457  157.3634 H   0  0  0  0  0  0  0  0  0  0  0  0
  151.8562  141.8938  155.8461 H   0  0  0  0  0  0  0  0  0  0  0  0
  148.3662  141.8162  156.0472 H   0  0  0  0  0  0  0  0  0  0  0  0
  145.0201  141.6759  155.1438 H   0  0  0  0  0  0  0  0  0  0  0  0
  146.5042  142.5420  154.7628 H   0  0  0  0  0  0  0  0  0  0  0  0
  146.3492  141.6581  156.2981 H   0  0  0  0  0  0  0  0  0  0  0  0
  150.2072  138.3244  153.2350 H   0  0  0  0  0  0  0  0  0  0  0  0
  149.6224  144.0203  158.9383 H   0  0  0  0  0  0  0  0  0  0  0  0
  149.9239  143.3180  160.5710 H   0  0  0  0  0  0  0  0  0  0  0  0
  150.3756  146.1060  159.9619 H   0  0  0  0  0  0  0  0  0  0  0  0
  151.3593  145.2154  161.1896 H   0  0  0  0  0  0  0  0  0  0  0  0
  153.0711  145.2258  159.4295 H   0  0  0  0  0  0  0  0  0  0  0  0
  151.8161  145.3405  158.1422 H   0  0  0  0  0  0  0  0  0  0  0  0
  1  2  1  0  0  0  0
  1 19  1  0  0  0  0
  1 20  1  0  0  0  0
  1 21  1  0  0  0  0
  2  3  1  0  0  0  0
  2 22  1  0  0  0  0
  2 23  1  0  0  0  0
  3 18  1  0  0  0  0
  3  4  1  0  0  0  0
  3 16  1  0  0  0  0
  4  5  1  0  0  0  0
  4 24  1  0  0  0  0
  5  6  2  0  0  0  0
  5  7  1  0  0  0  0
  7  8  1  0  0  0  0
  7 25  1  0  0  0  0
  8 15  1  0  0  0  0
  8  9  2  0  0  0  0
  9 10  1  0  0  0  0
  9 26  1  0  0  0  0
 10 11  1  0  0  0  0
 10 13  2  0  0  0  0
 11 12  1  0  0  0  0
 12 27  1  0  0  0  0
 12 28  1  0  0  0  0
 12 29  1  0  0  0  0
 13 14  1  0  0  0  0
 14 15  2  0  0  0  0
 14 30  1  0  0  0  0
 16 17  1  0  0  0  0
 16 31  1  0  0  0  0
 16 32  1  0  0  0  0
 17 18  1  0  0  0  0
 17 33  1  0  0  0  0
 17 34  1  0  0  0  0
 18 35  1  0  0  0  0
 18 36  1  0  0  0  0
M  END
> <s_m_source_file>
AV-unprocessed.smi

> <i_m_source_file_index>
2436

> <i_lp_mmshare_version>
43012

> <i_f3d_flags>
0

> <s_epik_input>
W0NIMl0xW0NIMl1bQ0gyXUMxKFtDSDJdW0NIM10pW05IXUMoPU8pW05IXWMyW2NIXWMoT1tDSDNdKW5bY0hdbjI=

> <s_epik_cmdline>
J2VwaWtfcHl0aG9uJywgJy1waCcsICc3LjAnLCAnLXRuJywgJzgnLCAnLW1hJywgJzIwMCcsICctbWV0YWxfYmluZGluZycsICctaW1hZScsICc8aW5maWxlLm1hZT4nLCAnLW9tYWUnLCAnPG91dGZpbGUubWFlPic=

> <r_lp_tautomer_probability>
1

> <r_epik_Ionization_Penalty>
2.8431e-05

> <r_epik_Ionization_Penalty_Charging>
0

> <r_epik_Ionization_Penalty_Neutral>
2.8431e-05

> <r_epik_State_Penalty>
-0

> <r_epik_Charging_Adjusted_Penalty>
0

> <i_epik_Tot_Q>
0

> <i_epik_Tot_abs_Q>
0

> <r_epik_Metal_State_Penalty>
-0

> <b_epik_Metal_Only>
0

> <s_lp_Force_Field>
OPLS_2005

> <r_lp_Energy>
14.8333

> <b_lp_Chiralities_Consistent>
1

> <s_lp_Variant>
AV-unprocessed.smi:2436-1

> <Gold.Version>
5.8.1

> <Gold.Id.Protein>
6NUR|6NUR_protein|mol2

> <Gold.PLP.Fitness>
39.1343

> <Gold.PLP.PLP>
-37.1489

> <Gold.PLP.part.hbond>
-1.0000

> <Gold.PLP.part.metal>
0.0000

> <Gold.PLP.part.buried>
-4.1422

> <Gold.PLP.part.nonpolar>
-33.3339

> <Gold.PLP.part.repulsive>
1.6363

> <Gold.PLP.ligand.clash>
0.0000

> <Gold.PLP.ligand.torsion>
0.8700

> <Gold.PLP.Chemscore.Hbond>
0.3500

> <Gold.PLP.Chemscore.CHOScore>
0.7472

> <Gold.PLP.Chemscore.Metal>
0.0000

> <Gold.Chemscore.Hbonds>
donor molecule, donor type, donor heavy atom, donor atom, acceptor molecule, acceptor atom, score
      P1  H  7989  7998       L1    15  0.85
      L1  C    14    30       P1  7948  0.45
      L1  C    14    30       P1  7957  0.05

> <Gold.PLP.Chemscore.Internal.Correction>
0.4336

> <Gold.Rescore>
     Score         DG    S(hbond)    S(metal)    S(lipo)     H(rot)  DE(clash)    DE(int)     intcor
      6.53     -10.77       0.03        0.00      78.91       1.57       0.05       4.20       ----

> <Gold.Chemscore.Fitness>
6.5252

> <Gold.Chemscore.DG>
-10.7716

> <Gold.Chemscore.ZeroCoef>
-5.4800

> <Gold.Chemscore.Hbond>
0.0259

> <Gold.Chemscore.Metal>
0.0000

> <Gold.Chemscore.Lipo>
78.9112

> <Gold.Chemscore.Internal_Hbond>
0.0000

> <Gold.Chemscore.DEClash>
0.0471

> <Gold.Chemscore.DEInternal>
4.1993

> <Gold.Chemscore.Rot>
1.5732

> <Gold.Chemscore.Internal.Correction>
   9.000000E+99

> <Gold.Chemscore.Hbonds>
donor molecule, donor type, donor heavy atom, donor atom, acceptor molecule, acceptor atom, score
      P1  H  7989  7998       L1    15  0.10

> <Gold.Chemscore.Hbond.Weighted>
-0.0864

> <Gold.Chemscore.Metal.Weighted>
-0.0000

> <Gold.Chemscore.Lipo.Weighted>
-9.2326

> <Gold.Chemscore.Internal_Hbond.Weighted>
0.0000

> <Gold.Chemscore.DEClash.Weighted>
0.0471

> <Gold.Chemscore.DEInternal.Weighted>
4.1993

> <Gold.Chemscore.Rot.Weighted>
4.0274

> <Gold.Chemscore.Internal.Correction.Weighted>
   9.000000E+99

> <Gold.Protein.RotatedTorsions>
[ 6907 6896 6895 6894 ] final  -95.42 input  -60.11 | X-H torsion
[ 7974 7965 7964 7962 ] final  -52.65 input  175.53 | X-H torsion
[ 8008 7997 7996 7995 ] final -161.93 input   59.86 | X-H torsion
[ 10167 10162 10161 10158 ] final  167.19 input  -65.29 | X-H torsion
[ 10718 10713 10712 10709 ] final  -45.73 input   66.30 | X-H torsion
[ 10763 10752 10751 10750 ] final  -38.42 input  -60.55 | X-H torsion
[ 11005 11000 10999 10996 ] final -113.49 input  -57.11 | X-H torsion

> <Gold.Protein.ActiveResidues>
 VAL166  LYS551  ARG553  GLY616  TRP617  ASP618  TYR619  PRO620  LYS621  CYS622 
 ASP623  PHE694  ASN695  SER759  ASP760  ASP761  ALA762  ILE779  LEU786  VAL792 
 PHE793  MET794  SER795  GLU796  ALA797  LYS798  CYS799  TRP800  GLU811  SER814 

> <Gold.Protein.RotatedAtoms>
  150.6963  134.1661  159.4194 H   0  0  0  0  0  0  0  0  0  0  0  0  # atno 6907 bound_to 6896
  151.9640  135.0107  160.0558 H   0  0  0  0  0  0  0  0  0  0  0  0  # atno 6908 bound_to 6896
  152.1901  133.4732  159.5040 H   0  0  0  0  0  0  0  0  0  0  0  0  # atno 6909 bound_to 6896
  145.9056  140.7958  142.9721 H   0  0  0  0  0  0  0  0  0  0  0  0  # atno 7974 bound_to 7965
  155.7993  140.0889  157.1966 H   0  0  0  0  0  0  0  0  0  0  0  0  # atno 8008 bound_to 7997
  154.3982  140.1475  156.3314 H   0  0  0  0  0  0  0  0  0  0  0  0  # atno 8009 bound_to 7997
  155.8479  140.3436  155.5676 H   0  0  0  0  0  0  0  0  0  0  0  0  # atno 8010 bound_to 7997
  139.4940  144.3947  151.9477 H   0  0  0  0  0  0  0  0  0  0  0  0  # atno 10167 bound_to 10162
  156.2254  130.4169  149.8940 H   0  0  0  0  0  0  0  0  0  0  0  0  # atno 10718 bound_to 10713
  153.9126  135.6791  153.4750 H   0  0  0  0  0  0  0  0  0  0  0  0  # atno 10763 bound_to 10752
  153.1070  135.4801  154.8966 H   0  0  0  0  0  0  0  0  0  0  0  0  # atno 10764 bound_to 10752
  154.7519  135.3187  154.8497 H   0  0  0  0  0  0  0  0  0  0  0  0  # atno 10765 bound_to 10752
  141.0611  133.9534  157.2665 H   0  0  0  0  0  0  0  0  0  0  0  0  # atno 11005 bound_to 11000
  144.6739  140.1745  143.7411 LP  0  0  0  0  0  0  0  0  0  0  0  0  # atno 17320 bound_to 7965
  145.8736  139.2285  143.1646 LP  0  0  0  0  0  0  0  0  0  0  0  0  # atno 17321 bound_to 7965
  140.3385  144.3231  150.5972 LP  0  0  0  0  0  0  0  0  0  0  0  0  # atno 17342 bound_to 10162
  140.5585  143.2195  151.7805 LP  0  0  0  0  0  0  0  0  0  0  0  0  # atno 17343 bound_to 10162
  156.6572  130.8767  151.3541 LP  0  0  0  0  0  0  0  0  0  0  0  0  # atno 17370 bound_to 10713
  157.7108  130.9438  150.1082 LP  0  0  0  0  0  0  0  0  0  0  0  0  # atno 17371 bound_to 10713
  139.9434  135.0188  156.8777 LP  0  0  0  0  0  0  0  0  0  0  0  0  # atno 17394 bound_to 11000
  140.5866  134.0301  155.7484 LP  0  0  0  0  0  0  0  0  0  0  0  0  # atno 17395 bound_to 11000

$$$$
