AV-unprocessed.smi:2201|AV-procd|sdf|8928|dock1
  -GOLD-   2272012143D 1   1.00000     0.00000
 Structure written by MMmdl.
 30 30  0  0  0  0  0  0  0  0  2 V2000
  146.2085  134.5832  160.0064 C   0  0  0  0  0  0  0  0  0  0  0  0
  147.2667  134.8779  161.0953 C   0  0  0  0  0  0  0  0  0  0  0  0
  146.5222  135.2657  162.3938 C   0  0  0  0  0  0  0  0  0  0  0  0
  148.0882  133.5894  161.3289 C   0  0  0  0  0  0  0  0  0  0  0  0
  148.2005  136.0350  160.6407 C   0  0  0  0  0  0  0  0  0  0  0  0
  148.1693  137.1170  161.2325 O   0  0  0  0  0  0  0  0  0  0  0  0
  148.9820  135.6967  159.5831 N   0  5  0  0  0  0  0  0  0  0  0  0
  149.0728  136.5249  158.5315 C   0  0  0  0  0  0  0  0  0  0  0  0
  149.9215  136.3254  157.5174 N   0  0  0  0  0  0  0  0  0  0  0  0
  149.8567  137.3130  156.5299 C   0  0  0  0  0  0  0  0  0  0  0  0
  150.7576  137.2415  155.3286 C   0  0  0  0  0  0  0  0  0  0  0  0
  150.6253  138.4894  154.4479 C   0  0  0  0  0  0  0  0  0  0  0  0
  149.9164  138.3832  153.3197 N   0  0  0  0  0  0  0  0  0  0  0  0
  151.1793  139.5378  154.7724 O   0  0  0  0  0  0  0  0  0  0  0  0
  148.9151  138.2742  156.7946 C   0  0  0  0  0  0  0  0  0  0  0  0
  148.0947  137.9748  158.2997 S   0  0  0  0  0  0  0  0  0  0  0  0
  145.5448  133.7729  160.3094 H   0  0  0  0  0  0  0  0  0  0  0  0
  146.6710  134.2838  159.0648 H   0  0  0  0  0  0  0  0  0  0  0  0
  145.5820  135.4542  159.8078 H   0  0  0  0  0  0  0  0  0  0  0  0
  145.9871  136.2095  162.2797 H   0  0  0  0  0  0  0  0  0  0  0  0
  147.2015  135.3724  163.2405 H   0  0  0  0  0  0  0  0  0  0  0  0
  145.7894  134.5067  162.6690 H   0  0  0  0  0  0  0  0  0  0  0  0
  147.4385  132.7457  161.5633 H   0  0  0  0  0  0  0  0  0  0  0  0
  148.7867  133.6929  162.1600 H   0  0  0  0  0  0  0  0  0  0  0  0
  148.6660  133.3197  160.4440 H   0  0  0  0  0  0  0  0  0  0  0  0
  151.7968  137.1308  155.6414 H   0  0  0  0  0  0  0  0  0  0  0  0
  150.5243  136.3642  154.7245 H   0  0  0  0  0  0  0  0  0  0  0  0
  149.8330  139.1771  152.7013 H   0  0  0  0  0  0  0  0  0  0  0  0
  149.4914  137.5005  153.0763 H   0  0  0  0  0  0  0  0  0  0  0  0
  148.6568  139.1376  156.2005 H   0  0  0  0  0  0  0  0  0  0  0  0
  1  2  1  0  0  0  0
  1 17  1  0  0  0  0
  1 18  1  0  0  0  0
  1 19  1  0  0  0  0
  2  3  1  0  0  0  0
  2  4  1  0  0  0  0
  2  5  1  0  0  0  0
  3 20  1  0  0  0  0
  3 21  1  0  0  0  0
  3 22  1  0  0  0  0
  4 23  1  0  0  0  0
  4 24  1  0  0  0  0
  4 25  1  0  0  0  0
  5  6  2  0  0  0  0
  5  7  1  0  0  0  0
  7  8  1  0  0  0  0
  8 16  1  0  0  0  0
  8  9  2  0  0  0  0
  9 10  1  0  0  0  0
 10 11  1  0  0  0  0
 10 15  2  0  0  0  0
 11 12  1  0  0  0  0
 11 26  1  0  0  0  0
 11 27  1  0  0  0  0
 12 13  1  0  0  0  0
 12 14  2  0  0  0  0
 13 28  1  0  0  0  0
 13 29  1  0  0  0  0
 15 16  1  0  0  0  0
 15 30  1  0  0  0  0
M  CHG  1   7  -1
M  END
> <s_m_source_file>
AV-unprocessed.smi

> <i_m_source_file_index>
2201

> <i_lp_mmshare_version>
43012

> <i_f3d_flags>
0

> <s_epik_input>
W0NIM11DKFtDSDNdKShbQ0gzXSlDKD1PKVtOSF1jMW5jKFtjSF1zMSlbQ0gyXUMoPU8pW05IMl0=

> <s_epik_cmdline>
J2VwaWtfcHl0aG9uJywgJy1waCcsICc3LjAnLCAnLXRuJywgJzgnLCAnLW1hJywgJzIwMCcsICctbWV0YWxfYmluZGluZycsICctaW1hZScsICc8aW5maWxlLm1hZT4nLCAnLW9tYWUnLCAnPG91dGZpbGUubWFlPic=

> <r_lp_tautomer_probability>
1

> <r_epik_Ionization_Penalty>
5.6718

> <r_epik_Ionization_Penalty_Charging>
5.12968

> <r_epik_Ionization_Penalty_Neutral>
0.54212

> <r_epik_State_Penalty>
5.12958

> <r_epik_Charging_Adjusted_Penalty>
10.2593

> <i_epik_Tot_Q>
-1

> <i_epik_Tot_abs_Q>
1

> <r_epik_Metal_State_Penalty>
1.2135

> <b_epik_Metal_Only>
1

> <s_lp_Force_Field>
OPLS_2005

> <r_lp_Energy>
3.19374

> <b_lp_Chiralities_Consistent>
1

> <s_lp_Variant>
AV-unprocessed.smi:2201-2

> <Gold.Version>
5.8.1

> <Gold.Id.Protein>
6NUR|6NUR_protein|mol2

> <Gold.PLP.Fitness>
40.5159

> <Gold.PLP.PLP>
-23.0135

> <Gold.PLP.part.hbond>
-6.0891

> <Gold.PLP.part.metal>
0.0000

> <Gold.PLP.part.buried>
-4.2272

> <Gold.PLP.part.nonpolar>
-12.7999

> <Gold.PLP.part.repulsive>
0.1681

> <Gold.PLP.ligand.clash>
0.0000

> <Gold.PLP.ligand.torsion>
0.8393

> <Gold.PLP.Chemscore.Hbond>
6.3343

> <Gold.PLP.Chemscore.CHOScore>
0.0000

> <Gold.PLP.Chemscore.Metal>
0.0000

> <Gold.Chemscore.Hbonds>
donor molecule, donor type, donor heavy atom, donor atom, acceptor molecule, acceptor atom, score
      L1  H    13    28       P1  7957  1.00
      L1  H    13    29       P1  7948  1.00
      P1  H  6896  6907       L1     7  2.00
      P1  H  6931  6943       L1     6  1.00
      P1  H  6934  6947       L1     6  0.44
      P1  H  7989  7998       L1    14  1.00

> <Gold.PLP.Chemscore.Internal.Correction>
0.1782

> <Gold.Rescore>
     Score         DG    S(hbond)    S(metal)    S(lipo)     H(rot)  DE(clash)    DE(int)     intcor
     19.89     -21.10       4.96        0.00      33.03       1.88       0.02       1.19       ----

> <Gold.Chemscore.Fitness>
19.8877

> <Gold.Chemscore.DG>
-21.0980

> <Gold.Chemscore.ZeroCoef>
-5.4800

> <Gold.Chemscore.Hbond>
4.9601

> <Gold.Chemscore.Metal>
0.0000

> <Gold.Chemscore.Lipo>
33.0315

> <Gold.Chemscore.Internal_Hbond>
0.0000

> <Gold.Chemscore.DEClash>
0.0202

> <Gold.Chemscore.DEInternal>
1.1901

> <Gold.Chemscore.Rot>
1.8802

> <Gold.Chemscore.Internal.Correction>
   9.000000E+99

> <Gold.Chemscore.Hbonds>
donor molecule, donor type, donor heavy atom, donor atom, acceptor molecule, acceptor atom, score
      L1  H    13    28       P1  7957  0.91
      L1  H    13    29       P1  7948  0.81
      P1  H  6896  6907       L1     7  0.52
      P1  H  6931  6943       L1     6  0.96
      P1  H  6934  6947       L1     6  0.44
      P1  H  7989  7998       L1    14  0.99

> <Gold.Chemscore.Hbond.Weighted>
-16.5666

> <Gold.Chemscore.Metal.Weighted>
-0.0000

> <Gold.Chemscore.Lipo.Weighted>
-3.8647

> <Gold.Chemscore.Internal_Hbond.Weighted>
0.0000

> <Gold.Chemscore.DEClash.Weighted>
0.0202

> <Gold.Chemscore.DEInternal.Weighted>
1.1901

> <Gold.Chemscore.Rot.Weighted>
4.8132

> <Gold.Chemscore.Internal.Correction.Weighted>
   9.000000E+99

> <Gold.Protein.RotatedTorsions>
[ 6907 6896 6895 6894 ] final  -67.46 input  -60.11 | X-H torsion
[ 7974 7965 7964 7962 ] final -170.73 input  175.53 | X-H torsion
[ 8008 7997 7996 7995 ] final   -4.49 input   59.86 | X-H torsion
[ 10167 10162 10161 10158 ] final -103.16 input  -65.29 | X-H torsion
[ 10718 10713 10712 10709 ] final  -37.78 input   66.30 | X-H torsion
[ 10763 10752 10751 10750 ] final -135.34 input  -60.55 | X-H torsion
[ 11005 11000 10999 10996 ] final   19.88 input  -57.11 | X-H torsion

> <Gold.Protein.ActiveResidues>
 VAL166  LYS551  ARG553  GLY616  TRP617  ASP618  TYR619  PRO620  LYS621  CYS622 
 ASP623  PHE694  ASN695  SER759  ASP760  ASP761  ALA762  ILE779  LEU786  VAL792 
 PHE793  MET794  SER795  GLU796  ALA797  LYS798  CYS799  TRP800  GLU811  SER814 

> <Gold.Protein.RotatedAtoms>
  150.7408  134.5878  159.5971 H   0  0  0  0  0  0  0  0  0  0  0  0  # atno 6907 bound_to 6896
  152.3274  134.7300  160.0307 H   0  0  0  0  0  0  0  0  0  0  0  0  # atno 6908 bound_to 6896
  151.7796  133.3312  159.3504 H   0  0  0  0  0  0  0  0  0  0  0  0  # atno 6909 bound_to 6896
  144.7166  140.2028  143.6336 H   0  0  0  0  0  0  0  0  0  0  0  0  # atno 7974 bound_to 7965
  154.6137  140.2482  155.7636 H   0  0  0  0  0  0  0  0  0  0  0  0  # atno 8008 bound_to 7997
  156.2386  140.2941  156.0331 H   0  0  0  0  0  0  0  0  0  0  0  0  # atno 8009 bound_to 7997
  155.2009  140.0394  157.2907 H   0  0  0  0  0  0  0  0  0  0  0  0  # atno 8010 bound_to 7997
  140.2229  143.3662  152.0954 H   0  0  0  0  0  0  0  0  0  0  0  0  # atno 10167 bound_to 10162
  156.3112  130.4253  149.8048 H   0  0  0  0  0  0  0  0  0  0  0  0  # atno 10718 bound_to 10713
  154.8704  135.3706  154.4882 H   0  0  0  0  0  0  0  0  0  0  0  0  # atno 10763 bound_to 10752
  153.5531  135.7024  153.5587 H   0  0  0  0  0  0  0  0  0  0  0  0  # atno 10764 bound_to 10752
  153.3697  135.4024  155.1743 H   0  0  0  0  0  0  0  0  0  0  0  0  # atno 10765 bound_to 10752
  140.4088  134.1640  155.7666 H   0  0  0  0  0  0  0  0  0  0  0  0  # atno 11005 bound_to 11000
  145.8664  139.2249  143.1686 LP  0  0  0  0  0  0  0  0  0  0  0  0  # atno 17320 bound_to 7965
  146.0126  140.8422  142.9963 LP  0  0  0  0  0  0  0  0  0  0  0  0  # atno 17321 bound_to 7965
  139.5137  144.6937  151.5689 LP  0  0  0  0  0  0  0  0  0  0  0  0  # atno 17342 bound_to 10162
  140.6242  143.9201  150.6550 LP  0  0  0  0  0  0  0  0  0  0  0  0  # atno 17343 bound_to 10162
  156.5391  130.8291  151.3263 LP  0  0  0  0  0  0  0  0  0  0  0  0  # atno 17370 bound_to 10713
  157.7391  130.9826  150.2295 LP  0  0  0  0  0  0  0  0  0  0  0  0  # atno 17371 bound_to 10713
  141.1829  133.8375  157.1193 LP  0  0  0  0  0  0  0  0  0  0  0  0  # atno 17394 bound_to 11000
  140.0282  134.9913  157.0729 LP  0  0  0  0  0  0  0  0  0  0  0  0  # atno 17395 bound_to 11000

$$$$
