AV-unprocessed.smi:104|AV-procd|sdf|998|dock2
  -GOLD-   2262017583D 1   1.00000     0.00000
 Structure written by MMmdl.
 47 49  0  0  0  0  0  0  0  0  1 V2000
  152.6007  141.3219  159.8608 C   0  0  0  0  0  0  0  0  0  0  0  0
  152.3907  140.0837  158.9995 C   0  0  0  0  0  0  0  0  0  0  0  0
  153.2971  139.6284  158.3028 O   0  0  0  0  0  0  0  0  0  0  0  0
  151.1436  139.5916  159.1057 O   0  0  0  0  0  0  0  0  0  0  0  0
  150.7446  138.4480  158.3612 C   0  0  0  0  0  0  0  0  0  0  0  0
  149.4556  137.8415  158.9442 C   0  0  1  0  0  0  0  0  0  0  0  0
  148.3056  138.5258  158.4783 O   0  0  0  0  0  0  0  0  0  0  0  0
  147.2021  137.7439  158.8010 C   0  0  1  0  0  0  0  0  0  0  0  0
  146.1263  138.0086  157.8013 N   0  0  0  0  0  0  0  0  0  0  0  0
  144.8229  138.4019  158.0034 C   0  0  0  0  0  0  0  0  0  0  0  0
  144.1008  138.6918  159.7418 Br  0  0  0  0  0  0  0  0  0  0  0  0
  144.0791  138.5599  156.9441 N   0  0  0  0  0  0  0  0  0  0  0  0
  144.9497  138.2430  155.9084 C   0  0  0  0  0  0  0  0  0  0  0  0
  144.8264  138.1930  154.4971 C   0  0  0  0  0  0  0  0  0  0  0  0
  143.6898  138.4878  153.8517 N   0  0  0  0  0  0  0  0  0  0  0  0
  145.9059  137.8291  153.7654 N   0  0  0  0  0  0  0  0  0  0  0  0
  147.0523  137.5295  154.3849 C   0  0  0  0  0  0  0  0  0  0  0  0
  147.3203  137.5325  155.6932 N   0  0  0  0  0  0  0  0  0  0  0  0
  146.2307  137.8990  156.4300 C   0  0  0  0  0  0  0  0  0  0  0  0
  147.6452  136.2731  158.7391 C   0  0  2  0  0  0  0  0  0  0  0  0
  147.2941  135.5838  159.9310 O   0  0  0  0  0  0  0  0  0  0  0  0
  147.5966  136.1139  161.1291 C   0  0  0  0  0  0  0  0  0  0  0  0
  147.1839  135.2116  162.2840 C   0  0  0  0  0  0  0  0  0  0  0  0
  148.1514  137.1954  161.3243 O   0  0  0  0  0  0  0  0  0  0  0  0
  149.1650  136.3708  158.6177 C   0  0  1  0  0  0  0  0  0  0  0  0
  149.5641  136.0443  157.2914 O   0  0  0  0  0  0  0  0  0  0  0  0
  149.7054  134.7612  156.9177 C   0  0  0  0  0  0  0  0  0  0  0  0
  150.0912  134.6264  155.4512 C   0  0  0  0  0  0  0  0  0  0  0  0
  149.5479  133.7751  157.6375 O   0  0  0  0  0  0  0  0  0  0  0  0
  152.8624  141.0326  160.8784 H   0  0  0  0  0  0  0  0  0  0  0  0
  151.6932  141.9252  159.8936 H   0  0  0  0  0  0  0  0  0  0  0  0
  153.4065  141.9352  159.4567 H   0  0  0  0  0  0  0  0  0  0  0  0
  150.5376  138.7954  157.3490 H   0  0  0  0  0  0  0  0  0  0  0  0
  151.5400  137.7076  158.2666 H   0  0  0  0  0  0  0  0  0  0  0  0
  149.4674  137.9661  160.0289 H   0  0  0  0  0  0  0  0  0  0  0  0
  146.8017  138.0423  159.7699 H   0  0  0  0  0  0  0  0  0  0  0  0
  142.8706  138.7608  154.3755 H   0  0  0  0  0  0  0  0  0  0  0  0
  143.6537  138.4350  152.8439 H   0  0  0  0  0  0  0  0  0  0  0  0
  147.8721  137.2466  153.7411 H   0  0  0  0  0  0  0  0  0  0  0  0
  147.2205  135.7811  157.8621 H   0  0  0  0  0  0  0  0  0  0  0  0
  147.7708  134.2931  162.2734 H   0  0  0  0  0  0  0  0  0  0  0  0
  146.1285  134.9513  162.2043 H   0  0  0  0  0  0  0  0  0  0  0  0
  147.3449  135.7135  163.2382 H   0  0  0  0  0  0  0  0  0  0  0  0
  149.6801  135.7200  159.3266 H   0  0  0  0  0  0  0  0  0  0  0  0
  151.0737  135.0656  155.2779 H   0  0  0  0  0  0  0  0  0  0  0  0
  149.3650  135.1397  154.8206 H   0  0  0  0  0  0  0  0  0  0  0  0
  150.1241  133.5769  155.1575 H   0  0  0  0  0  0  0  0  0  0  0  0
  1  2  1  0  0  0  0
  1 30  1  0  0  0  0
  1 31  1  0  0  0  0
  1 32  1  0  0  0  0
  2  3  2  0  0  0  0
  2  4  1  0  0  0  0
  4  5  1  0  0  0  0
  5  6  1  0  0  0  0
  5 33  1  0  0  0  0
  5 34  1  0  0  0  0
  6 25  1  0  0  0  0
  6  7  1  0  0  0  0
  6 35  1  0  0  0  0
  7  8  1  0  0  0  0
  8  9  1  0  0  0  0
  8 20  1  0  0  0  0
  8 36  1  0  0  0  0
  9 19  1  0  0  0  0
  9 10  1  0  0  0  0
 10 11  1  0  0  0  0
 10 12  2  0  0  0  0
 12 13  1  0  0  0  0
 13 19  2  0  0  0  0
 13 14  1  0  0  0  0
 14 15  1  0  0  0  0
 14 16  2  0  0  0  0
 15 37  1  0  0  0  0
 15 38  1  0  0  0  0
 16 17  1  0  0  0  0
 17 18  2  0  0  0  0
 17 39  1  0  0  0  0
 18 19  1  0  0  0  0
 20 21  1  0  0  0  0
 20 25  1  0  0  0  0
 20 40  1  0  0  0  0
 21 22  1  0  0  0  0
 22 23  1  0  0  0  0
 22 24  2  0  0  0  0
 23 41  1  0  0  0  0
 23 42  1  0  0  0  0
 23 43  1  0  0  0  0
 25 26  1  0  0  0  0
 25 44  1  0  0  0  0
 26 27  1  0  0  0  0
 27 28  1  0  0  0  0
 27 29  2  0  0  0  0
 28 45  1  0  0  0  0
 28 46  1  0  0  0  0
 28 47  1  0  0  0  0
M  END
> <s_m_source_file>
AV-unprocessed.smi

> <i_m_source_file_index>
104

> <i_lp_mmshare_version>
43012

> <i_f3d_flags>
0

> <s_epik_input>
W0NIM11DKD1PKU9bQ0gyXVtDQEBIXTFPW0NASF0oW0NAQEhdKE9DKD1PKVtDSDNdKVtDQEhdMU9DKD1PKVtDSDNdKW4oYyhCciluMiljKGMyMyluW2NIXW5jM1tOSDJd

> <s_epik_cmdline>
J2VwaWtfcHl0aG9uJywgJy1waCcsICc3LjAnLCAnLXRuJywgJzgnLCAnLW1hJywgJzIwMCcsICctbWV0YWxfYmluZGluZycsICctaW1hZScsICc8aW5maWxlLm1hZT4nLCAnLW9tYWUnLCAnPG91dGZpbGUubWFlPic=

> <r_lp_tautomer_probability>
1

> <r_epik_Ionization_Penalty>
7.36622e-05

> <r_epik_Ionization_Penalty_Charging>
0

> <r_epik_Ionization_Penalty_Neutral>
7.36622e-05

> <r_epik_State_Penalty>
-0

> <r_epik_Charging_Adjusted_Penalty>
0

> <i_epik_Tot_Q>
0

> <i_epik_Tot_abs_Q>
0

> <r_epik_Metal_State_Penalty>
-0

> <b_epik_Metal_Only>
0

> <s_epik_Chemistry_Notes>
This compound has an ester and may undergo hydrolysis at high or low pH. This compound contains an acetal/aminal-like group ( X-CH(R)-Y where X, Y are N, S, or O) that may be acid/base labile, releasing an aldehyde.

> <s_lp_Force_Field>
OPLS_2005

> <r_lp_Energy>
14.1863

> <b_lp_Chiralities_Consistent>
1

> <s_lp_Variant>
AV-unprocessed.smi:104-6

> <Gold.Version>
5.8.1

> <Gold.Id.Protein>
6NUR|6NUR_protein|mol2

> <Gold.PLP.Fitness>
39.4676

> <Gold.PLP.PLP>
-26.4151

> <Gold.PLP.part.hbond>
-5.4912

> <Gold.PLP.part.metal>
0.0000

> <Gold.PLP.part.buried>
-4.4484

> <Gold.PLP.part.nonpolar>
-16.6743

> <Gold.PLP.part.repulsive>
0.1772

> <Gold.PLP.ligand.clash>
0.0000

> <Gold.PLP.ligand.torsion>
0.5454

> <Gold.PLP.Chemscore.Hbond>
3.6289

> <Gold.PLP.Chemscore.CHOScore>
1.0000

> <Gold.PLP.Chemscore.Metal>
0.0000

> <Gold.Chemscore.Hbonds>
donor molecule, donor type, donor heavy atom, donor atom, acceptor molecule, acceptor atom, score
      P1  H  6896  6909       L1    29  0.89
      P1  H  6931  6943       L1    24  0.91
      P1  H  6934  6947       L1    24  0.51
      P1  H  7997  8009       L1     3  1.00
      L1  C    17    39       P1  7948  1.00

> <Gold.PLP.Chemscore.Internal.Correction>
0.2565

> <Gold.Rescore>
     Score         DG    S(hbond)    S(metal)    S(lipo)     H(rot)  DE(clash)    DE(int)     intcor
      8.45     -11.06       3.72        0.00      35.61       4.31       0.00       2.61       ----

> <Gold.Chemscore.Fitness>
8.4498

> <Gold.Chemscore.DG>
-11.0583

> <Gold.Chemscore.ZeroCoef>
-5.4800

> <Gold.Chemscore.Hbond>
3.7240

> <Gold.Chemscore.Metal>
0.0000

> <Gold.Chemscore.Lipo>
35.6075

> <Gold.Chemscore.Internal_Hbond>
0.0000

> <Gold.Chemscore.DEClash>
0.0009

> <Gold.Chemscore.DEInternal>
2.6076

> <Gold.Chemscore.Rot>
4.3070

> <Gold.Chemscore.Internal.Correction>
   9.000000E+99

> <Gold.Chemscore.Hbonds>
donor molecule, donor type, donor heavy atom, donor atom, acceptor molecule, acceptor atom, score
      L1  H    15    38       P1 10175  0.04
      P1  H  6896  6909       L1    29  0.74
      P1  H  6931  6943       L1    24  0.86
      P1  H  6934  6947       L1    24  0.51
      P1  H  7997  8009       L1     3  1.00

> <Gold.Chemscore.Hbond.Weighted>
-12.4381

> <Gold.Chemscore.Metal.Weighted>
-0.0000

> <Gold.Chemscore.Lipo.Weighted>
-4.1661

> <Gold.Chemscore.Internal_Hbond.Weighted>
0.0000

> <Gold.Chemscore.DEClash.Weighted>
0.0009

> <Gold.Chemscore.DEInternal.Weighted>
2.6076

> <Gold.Chemscore.Rot.Weighted>
11.0259

> <Gold.Chemscore.Internal.Correction.Weighted>
   9.000000E+99

> <Gold.Protein.RotatedTorsions>
[ 6907 6896 6895 6894 ] final   -8.67 input  -60.11 | X-H torsion
[ 7974 7965 7964 7962 ] final  132.72 input  175.53 | X-H torsion
[ 8008 7997 7996 7995 ] final  149.00 input   59.86 | X-H torsion
[ 10167 10162 10161 10158 ] final   48.16 input  -65.29 | X-H torsion
[ 10718 10713 10712 10709 ] final  163.30 input   66.30 | X-H torsion
[ 10763 10752 10751 10750 ] final   30.59 input  -60.55 | X-H torsion
[ 11005 11000 10999 10996 ] final -140.82 input  -57.11 | X-H torsion

> <Gold.Protein.ActiveResidues>
 VAL166  LYS551  ARG553  GLY616  TRP617  ASP618  TYR619  PRO620  LYS621  CYS622 
 ASP623  PHE694  ASN695  SER759  ASP760  ASP761  ALA762  ILE779  LEU786  VAL792 
 PHE793  MET794  SER795  GLU796  ALA797  LYS798  CYS799  TRP800  GLU811  SER814 

> <Gold.Protein.RotatedAtoms>
  151.4300  135.1008  159.9639 H   0  0  0  0  0  0  0  0  0  0  0  0  # atno 6907 bound_to 6896
  152.4959  133.8627  159.7268 H   0  0  0  0  0  0  0  0  0  0  0  0  # atno 6908 bound_to 6896
  150.9162  133.6878  159.2870 H   0  0  0  0  0  0  0  0  0  0  0  0  # atno 6909 bound_to 6896
  144.9939  139.4378  143.5325 H   0  0  0  0  0  0  0  0  0  0  0  0  # atno 7974 bound_to 7965
  156.2771  140.2113  156.5788 H   0  0  0  0  0  0  0  0  0  0  0  0  # atno 8008 bound_to 7997
  154.7075  140.0515  157.0541 H   0  0  0  0  0  0  0  0  0  0  0  0  # atno 8009 bound_to 7997
  155.0650  140.3170  155.4651 H   0  0  0  0  0  0  0  0  0  0  0  0  # atno 8010 bound_to 7997
  140.2962  144.2988  150.6229 H   0  0  0  0  0  0  0  0  0  0  0  0  # atno 10167 bound_to 10162
  157.1105  131.0466  151.2459 H   0  0  0  0  0  0  0  0  0  0  0  0  # atno 10718 bound_to 10713
  153.0363  135.6460  154.1068 H   0  0  0  0  0  0  0  0  0  0  0  0  # atno 10763 bound_to 10752
  154.0782  135.2875  155.3297 H   0  0  0  0  0  0  0  0  0  0  0  0  # atno 10764 bound_to 10752
  154.6548  135.5413  153.8010 H   0  0  0  0  0  0  0  0  0  0  0  0  # atno 10765 bound_to 10752
  140.8385  134.2431  157.4822 H   0  0  0  0  0  0  0  0  0  0  0  0  # atno 11005 bound_to 11000
  146.3437  139.9288  142.8756 LP  0  0  0  0  0  0  0  0  0  0  0  0  # atno 17320 bound_to 7965
  145.2246  140.9949  143.4025 LP  0  0  0  0  0  0  0  0  0  0  0  0  # atno 17321 bound_to 7965
  140.5690  143.2183  151.7632 LP  0  0  0  0  0  0  0  0  0  0  0  0  # atno 17342 bound_to 10162
  139.4926  144.4243  151.9943 LP  0  0  0  0  0  0  0  0  0  0  0  0  # atno 17343 bound_to 10162
  157.4563  130.7627  149.7196 LP  0  0  0  0  0  0  0  0  0  0  0  0  # atno 17370 bound_to 10713
  155.9851  130.3985  150.3275 LP  0  0  0  0  0  0  0  0  0  0  0  0  # atno 17371 bound_to 10713
  139.8703  134.9623  156.4425 LP  0  0  0  0  0  0  0  0  0  0  0  0  # atno 17394 bound_to 11000
  140.8921  133.7840  155.9584 LP  0  0  0  0  0  0  0  0  0  0  0  0  # atno 17395 bound_to 11000

$$$$
