AV-unprocessed.smi:2802|AV-procd|sdf|10804|dock3
  -GOLD-   2272015233D 1   1.00000     0.00000
 Structure written by MMmdl.
 47 48  0  0  0  0  0  0  0  0  1 V2000
  145.7815  139.0017  157.2096 C   0  0  0  0  0  0  0  0  0  0  0  0
  146.7092  139.4724  156.0795 C   0  0  1  0  0  0  0  0  0  0  0  0
  146.1536  140.7348  155.3993 C   0  0  0  0  0  0  0  0  0  0  0  0
  147.0320  141.2406  154.2339 C   0  0  0  0  0  0  0  0  0  0  0  0
  146.8723  140.3390  152.9893 C   0  0  0  0  0  0  0  0  0  0  0  0
  146.5358  142.6441  153.8264 C   0  0  0  0  0  0  0  0  0  0  0  0
  148.5156  141.3653  154.6863 C   0  0  0  0  0  0  0  0  0  0  0  0
  149.1376  140.1965  155.5175 C   0  0  1  0  0  0  0  0  0  0  0  0
  149.5844  139.0020  154.6248 C   0  0  0  0  0  0  0  0  0  0  0  0
  150.6857  139.3317  153.7994 O   0  0  0  0  0  0  0  0  0  0  0  0
  150.3030  140.7185  156.2519 N   0  0  0  0  0  0  0  0  0  0  0  0
  150.3363  141.6428  157.2287 C   0  0  0  0  0  0  0  0  0  0  0  0
  149.3329  142.1953  157.6817 O   0  0  0  0  0  0  0  0  0  0  0  0
  151.7334  141.9795  157.7639 C   0  0  0  0  0  0  0  0  0  0  0  0
  151.7252  143.1905  158.6828 C   0  0  0  0  0  0  0  0  0  0  0  0
  152.1652  143.0895  160.0190 C   0  0  0  0  0  0  0  0  0  0  0  0
  152.1372  144.2394  160.8312 C   0  0  0  0  0  0  0  0  0  0  0  0
  151.6682  145.4447  160.2710 C   0  0  0  0  0  0  0  0  0  0  0  0
  151.2442  145.5535  158.9933 N   0  0  0  0  0  0  0  0  0  0  0  0
  151.2744  144.4459  158.2212 C   0  0  0  0  0  0  0  0  0  0  0  0
  148.1302  139.7409  156.6051 C   0  0  0  0  0  0  0  0  0  0  0  0
  145.6870  139.7594  157.9881 H   0  0  0  0  0  0  0  0  0  0  0  0
  146.1598  138.0914  157.6752 H   0  0  0  0  0  0  0  0  0  0  0  0
  144.7813  138.7858  156.8326 H   0  0  0  0  0  0  0  0  0  0  0  0
  146.7500  138.6633  155.3514 H   0  0  0  0  0  0  0  0  0  0  0  0
  145.1395  140.5485  155.0431 H   0  0  0  0  0  0  0  0  0  0  0  0
  146.0642  141.5201  156.1517 H   0  0  0  0  0  0  0  0  0  0  0  0
  147.5555  140.6369  152.1935 H   0  0  0  0  0  0  0  0  0  0  0  0
  145.8609  140.4060  152.5871 H   0  0  0  0  0  0  0  0  0  0  0  0
  147.0439  139.2866  153.1930 H   0  0  0  0  0  0  0  0  0  0  0  0
  147.1245  143.0494  153.0026 H   0  0  0  0  0  0  0  0  0  0  0  0
  146.6015  143.3524  154.6531 H   0  0  0  0  0  0  0  0  0  0  0  0
  145.4940  142.6212  153.5044 H   0  0  0  0  0  0  0  0  0  0  0  0
  149.1367  141.5824  153.8166 H   0  0  0  0  0  0  0  0  0  0  0  0
  148.5798  142.2621  155.3057 H   0  0  0  0  0  0  0  0  0  0  0  0
  149.8890  138.1455  155.2179 H   0  0  0  0  0  0  0  0  0  0  0  0
  148.7683  138.6600  153.9885 H   0  0  0  0  0  0  0  0  0  0  0  0
  150.9519  138.5556  153.3304 H   0  0  0  0  0  0  0  0  0  0  0  0
  151.1941  140.3407  155.9648 H   0  0  0  0  0  0  0  0  0  0  0  0
  152.1292  141.1150  158.2982 H   0  0  0  0  0  0  0  0  0  0  0  0
  152.4062  142.1698  156.9265 H   0  0  0  0  0  0  0  0  0  0  0  0
  152.5158  142.1482  160.4167 H   0  0  0  0  0  0  0  0  0  0  0  0
  152.4657  144.1987  161.8591 H   0  0  0  0  0  0  0  0  0  0  0  0
  151.6331  146.3456  160.8657 H   0  0  0  0  0  0  0  0  0  0  0  0
  150.9266  144.5647  157.2055 H   0  0  0  0  0  0  0  0  0  0  0  0
  148.0602  140.5136  157.3733 H   0  0  0  0  0  0  0  0  0  0  0  0
  148.5057  138.8556  157.1200 H   0  0  0  0  0  0  0  0  0  0  0  0
  1  2  1  0  0  0  0
  1 22  1  0  0  0  0
  1 23  1  0  0  0  0
  1 24  1  0  0  0  0
  2 21  1  0  0  0  0
  2  3  1  0  0  0  0
  2 25  1  0  0  0  0
  3  4  1  0  0  0  0
  3 26  1  0  0  0  0
  3 27  1  0  0  0  0
  4  5  1  0  0  0  0
  4  6  1  0  0  0  0
  4  7  1  0  0  0  0
  5 28  1  0  0  0  0
  5 29  1  0  0  0  0
  5 30  1  0  0  0  0
  6 31  1  0  0  0  0
  6 32  1  0  0  0  0
  6 33  1  0  0  0  0
  7  8  1  0  0  0  0
  7 34  1  0  0  0  0
  7 35  1  0  0  0  0
  8  9  1  0  0  0  0
  8 11  1  0  0  0  0
  8 21  1  0  0  0  0
  9 10  1  0  0  0  0
  9 36  1  0  0  0  0
  9 37  1  0  0  0  0
 10 38  1  0  0  0  0
 11 12  1  0  0  0  0
 11 39  1  0  0  0  0
 12 13  2  0  0  0  0
 12 14  1  0  0  0  0
 14 15  1  0  0  0  0
 14 40  1  0  0  0  0
 14 41  1  0  0  0  0
 15 20  1  0  0  0  0
 15 16  2  0  0  0  0
 16 17  1  0  0  0  0
 16 42  1  0  0  0  0
 17 18  2  0  0  0  0
 17 43  1  0  0  0  0
 18 19  1  0  0  0  0
 18 44  1  0  0  0  0
 19 20  2  0  0  0  0
 20 45  1  0  0  0  0
 21 46  1  0  0  0  0
 21 47  1  0  0  0  0
M  END
> <s_m_source_file>
AV-unprocessed.smi

> <i_m_source_file_index>
2802

> <i_lp_mmshare_version>
43012

> <i_f3d_flags>
0

> <s_epik_input>
W0NIM11DMShbQ0gzXSlbQ0gyXVtDQEBIXShbQ0gzXSlbQ0gyXVtDQF0oW0NIMl0xKShbQ0gyXVtPSF0pW05IXUMoPU8pW0NIMl1jMltjSF1bY0hdW2NIXW5bY0hdMg==

> <s_epik_cmdline>
J2VwaWtfcHl0aG9uJywgJy1waCcsICc3LjAnLCAnLXRuJywgJzgnLCAnLW1hJywgJzIwMCcsICctbWV0YWxfYmluZGluZycsICctaW1hZScsICc8aW5maWxlLm1hZT4nLCAnLW9tYWUnLCAnPG91dGZpbGUubWFlPic=

> <r_epik_Ionization_Penalty>
0.004793

> <r_epik_Ionization_Penalty_Charging>
0

> <r_epik_Ionization_Penalty_Neutral>
0.004793

> <r_epik_State_Penalty>
0.00347421

> <r_epik_Charging_Adjusted_Penalty>
0.00347421

> <i_epik_Tot_Q>
0

> <i_epik_Tot_abs_Q>
0

> <r_epik_Metal_State_Penalty>
-0

> <b_epik_Metal_Only>
0

> <s_lp_Force_Field>
OPLS_2005

> <r_lp_Energy>
22.6817

> <b_lp_Chiralities_Consistent>
1

> <s_lp_Variant>
AV-unprocessed.smi:2802-2

> <Gold.Version>
5.8.1

> <Gold.Id.Protein>
6NUR|6NUR_protein|mol2

> <Gold.PLP.Fitness>
44.0326

> <Gold.PLP.PLP>
-38.4529

> <Gold.PLP.part.hbond>
-3.0000

> <Gold.PLP.part.metal>
0.0000

> <Gold.PLP.part.buried>
-3.5628

> <Gold.PLP.part.nonpolar>
-31.8523

> <Gold.PLP.part.repulsive>
0.3586

> <Gold.PLP.ligand.clash>
0.0000

> <Gold.PLP.ligand.torsion>
0.2246

> <Gold.PLP.Chemscore.Hbond>
1.0000

> <Gold.PLP.Chemscore.CHOScore>
1.0000

> <Gold.PLP.Chemscore.Metal>
0.0000

> <Gold.Chemscore.Hbonds>
donor molecule, donor type, donor heavy atom, donor atom, acceptor molecule, acceptor atom, score
      P1  H  7989  7998       L1    10  1.00
      L1  C    20    45       P1  8028  1.00

> <Gold.PLP.Chemscore.Internal.Correction>
0.0289

> <Gold.Rescore>
     Score         DG    S(hbond)    S(metal)    S(lipo)     H(rot)  DE(clash)    DE(int)     intcor
     14.37     -16.29       0.94        0.00     109.42       2.00       0.28       1.64       ----

> <Gold.Chemscore.Fitness>
14.3721

> <Gold.Chemscore.DG>
-16.2881

> <Gold.Chemscore.ZeroCoef>
-5.4800

> <Gold.Chemscore.Hbond>
0.9378

> <Gold.Chemscore.Metal>
0.0000

> <Gold.Chemscore.Lipo>
109.4221

> <Gold.Chemscore.Internal_Hbond>
0.0000

> <Gold.Chemscore.DEClash>
0.2807

> <Gold.Chemscore.DEInternal>
1.6353

> <Gold.Chemscore.Rot>
2.0026

> <Gold.Chemscore.Internal.Correction>
   9.000000E+99

> <Gold.Chemscore.Hbonds>
donor molecule, donor type, donor heavy atom, donor atom, acceptor molecule, acceptor atom, score
      P1  H  7989  7998       L1    10  0.89

> <Gold.Chemscore.Hbond.Weighted>
-3.1324

> <Gold.Chemscore.Metal.Weighted>
-0.0000

> <Gold.Chemscore.Lipo.Weighted>
-12.8024

> <Gold.Chemscore.Internal_Hbond.Weighted>
0.0000

> <Gold.Chemscore.DEClash.Weighted>
0.2807

> <Gold.Chemscore.DEInternal.Weighted>
1.6353

> <Gold.Chemscore.Rot.Weighted>
5.1267

> <Gold.Chemscore.Internal.Correction.Weighted>
   9.000000E+99

> <Gold.Protein.RotatedTorsions>
[ 6907 6896 6895 6894 ] final   61.85 input  -60.11 | X-H torsion
[ 7974 7965 7964 7962 ] final -100.44 input  175.53 | X-H torsion
[ 8008 7997 7996 7995 ] final -111.63 input   59.86 | X-H torsion
[ 10167 10162 10161 10158 ] final -138.39 input  -65.29 | X-H torsion
[ 10718 10713 10712 10709 ] final  -42.15 input   66.30 | X-H torsion
[ 10763 10752 10751 10750 ] final  -80.28 input  -60.55 | X-H torsion
[ 11005 11000 10999 10996 ] final  -91.21 input  -57.11 | X-H torsion

> <Gold.Protein.ActiveResidues>
 VAL166  LYS551  ARG553  GLY616  TRP617  ASP618  TYR619  PRO620  LYS621  CYS622 
 ASP623  PHE694  ASN695  SER759  ASP760  ASP761  ALA762  ILE779  LEU786  VAL792 
 PHE793  MET794  SER795  GLU796  ALA797  LYS798  CYS799  TRP800  GLU811  SER814 

> <Gold.Protein.RotatedAtoms>
  152.4123  134.6102  160.0023 H   0  0  0  0  0  0  0  0  0  0  0  0  # atno 6907 bound_to 6896
  151.6276  133.3329  159.3109 H   0  0  0  0  0  0  0  0  0  0  0  0  # atno 6908 bound_to 6896
  150.8013  134.7149  159.6670 H   0  0  0  0  0  0  0  0  0  0  0  0  # atno 6909 bound_to 6896
  145.2945  140.9361  143.2858 H   0  0  0  0  0  0  0  0  0  0  0  0  # atno 7974 bound_to 7965
  154.9928  140.0395  157.2327 H   0  0  0  0  0  0  0  0  0  0  0  0  # atno 8008 bound_to 7997
  154.7613  140.2785  155.6189 H   0  0  0  0  0  0  0  0  0  0  0  0  # atno 8009 bound_to 7997
  156.2904  140.2628  156.2393 H   0  0  0  0  0  0  0  0  0  0  0  0  # atno 8010 bound_to 7997
  139.8483  143.7232  152.2659 H   0  0  0  0  0  0  0  0  0  0  0  0  # atno 10167 bound_to 10162
  156.2627  130.4198  149.8525 H   0  0  0  0  0  0  0  0  0  0  0  0  # atno 10718 bound_to 10713
  154.5493  135.5666  153.6908 H   0  0  0  0  0  0  0  0  0  0  0  0  # atno 10763 bound_to 10752
  152.9985  135.6247  154.2396 H   0  0  0  0  0  0  0  0  0  0  0  0  # atno 10764 bound_to 10752
  154.2330  135.2865  155.2862 H   0  0  0  0  0  0  0  0  0  0  0  0  # atno 10765 bound_to 10752
  141.1549  133.7741  156.9847 H   0  0  0  0  0  0  0  0  0  0  0  0  # atno 11005 bound_to 11000
  144.9144  139.4488  143.6571 LP  0  0  0  0  0  0  0  0  0  0  0  0  # atno 17320 bound_to 7965
  146.3173  139.7971  142.8973 LP  0  0  0  0  0  0  0  0  0  0  0  0  # atno 17321 bound_to 7965
  139.7490  144.7539  151.0535 LP  0  0  0  0  0  0  0  0  0  0  0  0  # atno 17342 bound_to 10162
  140.7790  143.4882  150.9928 LP  0  0  0  0  0  0  0  0  0  0  0  0  # atno 17343 bound_to 10162
  156.6034  130.8556  151.3437 LP  0  0  0  0  0  0  0  0  0  0  0  0  # atno 17370 bound_to 10713
  157.7256  130.9618  150.1622 LP  0  0  0  0  0  0  0  0  0  0  0  0  # atno 17371 bound_to 10713
  140.1042  134.9516  157.1969 LP  0  0  0  0  0  0  0  0  0  0  0  0  # atno 17394 bound_to 11000
  140.3278  134.2844  155.7233 LP  0  0  0  0  0  0  0  0  0  0  0  0  # atno 17395 bound_to 11000

$$$$
