#       Name:                AV-unprocessed.smi:943
#       Creating user name   scv26
#       Creation time:       Fri Mar 27 02:13:51 2020


#       File generated by GOLD software.
#

@<TRIPOS>MOLECULE
AV-unprocessed.smi:943
    46    47     1
SMALL
NO_CHARGES


@<TRIPOS>ATOM
      1 ****        -2.0201  -2.0387  -2.6005 C.3            1 S1                 0.0000
      2 ****        -1.4831  -1.2191  -1.4147 C.3            1 S1                 0.0000
      3 ****        -1.9715  -1.8134  -0.0713 C.3            1 S1                 0.0000
      4 ****        -1.5237  -1.0749   1.2134 C.3            1 S1                 0.0000
      5 ****        -1.9918  -1.8453   2.4657 C.3            1 S1                 0.0000
      6 ****        -1.5568  -1.1486   3.7649 C.3            1 S1                 0.0000
      7 ****        -2.0572   0.3024   3.8111 C.3            1 S1                 0.0000
      8 ****        -1.5930   1.0837   2.5733 C.3            1 S1                 0.0000
      9 ****        -2.0267   0.3847   1.2742 C.3            1 S1                 0.0000
     10 ****         0.0485  -1.1320  -1.4869 C.2            1 S1                 0.0000
     11 ****         0.7339  -2.1520  -1.4076 O.2            1 S1                 0.0000
     12 ****         0.5709   0.0945  -1.6276 N.am           1 S1                 0.0000
     13 ****         1.9971   0.3790  -1.6940 C.3            1 S1                 0.0000
     14 ****         2.2411   1.8874  -1.8361 C.3            1 S1                 0.0000
     15 ****         3.7008   2.2223  -1.9006 C.2            1 S1                 0.0000
     16 ****         4.4778   2.7157  -0.8799 C.2            1 S1                 0.0000
     17 ****         6.1314   2.9621  -1.3753 S.3            1 S1                 0.0000
     18 ****         5.6905   2.3754  -2.9700 C.2            1 S1                 0.0000
     19 ****         4.4079   2.0320  -3.0930 N.2            1 S1                 0.0000
     20 ****        -1.6800  -1.6301  -3.5529 H              1 S1                 0.0000
     21 ****        -3.1103  -2.0335  -2.6154 H              1 S1                 0.0000
     22 ****        -1.6968  -3.0792  -2.5499 H              1 S1                 0.0000
     23 ****        -1.8901  -0.2126  -1.5169 H              1 S1                 0.0000
     24 ****        -3.0614  -1.8566  -0.0858 H              1 S1                 0.0000
     25 ****        -1.6414  -2.8517  -0.0097 H              1 S1                 0.0000
     26 ****        -0.4336  -1.0557   1.2406 H              1 S1                 0.0000
     27 ****        -3.0782  -1.9431   2.4539 H              1 S1                 0.0000
     28 ****        -1.5925  -2.8599   2.4499 H              1 S1                 0.0000
     29 ****        -1.9355  -1.6997   4.6262 H              1 S1                 0.0000
     30 ****        -0.4690  -1.1638   3.8418 H              1 S1                 0.0000
     31 ****        -3.1467   0.3129   3.8635 H              1 S1                 0.0000
     32 ****        -1.6982   0.7914   4.7171 H              1 S1                 0.0000
     33 ****        -1.9938   2.0973   2.6020 H              1 S1                 0.0000
     34 ****        -0.5067   1.1811   2.5896 H              1 S1                 0.0000
     35 ****        -1.6440   0.9556   0.4286 H              1 S1                 0.0000
     36 ****        -3.1145   0.4043   1.1945 H              1 S1                 0.0000
     37 ****        -0.0602   0.8804  -1.6859 H              1 S1                 0.0000
     38 ****         2.4822   0.0059  -0.7905 H              1 S1                 0.0000
     39 ****         2.4329  -0.1546  -2.5403 H              1 S1                 0.0000
     40 ****         1.7378   2.2547  -2.7315 H              1 S1                 0.0000
     41 ****         1.7781   2.4099  -0.9978 H              1 S1                 0.0000
     42 ****         4.1783   2.9466   0.1318 H              1 S1                 0.0000
     43 ****         6.3680   2.2848  -3.8062 H              1 S1                 0.0000
     44 ****         0.2936  -3.0428  -1.2956 LP             1 S1                 0.0000
     45 ****         1.7308  -2.0895  -1.4553 LP             1 S1                 0.0000
     46 ****         4.0004   1.6808  -3.9360 LP             1 S1                 0.0000
@<TRIPOS>BOND
    1    1    2 1     
    2    1   20 1     
    3    1   21 1     
    4    1   22 1     
    5    2    3 1     
    6    2   10 1     
    7    2   23 1     
    8    3    4 1     
    9    3   24 1     
   10    3   25 1     
   11    4    9 1     
   12    4    5 1     
   13    4   26 1     
   14    5    6 1     
   15    5   27 1     
   16    5   28 1     
   17    6    7 1     
   18    6   29 1     
   19    6   30 1     
   20    7    8 1     
   21    7   31 1     
   22    7   32 1     
   23    8    9 1     
   24    8   33 1     
   25    8   34 1     
   26    9   35 1     
   27    9   36 1     
   28   10   11 2     
   29   10   12 am    
   30   12   13 1     
   31   12   37 1     
   32   13   14 1     
   33   13   38 1     
   34   13   39 1     
   35   14   15 1     
   36   14   40 1     
   37   14   41 1     
   38   15   19 1     
   39   15   16 2     
   40   16   17 1     
   41   16   42 1     
   42   17   18 1     
   43   18   19 2     
   44   18   43 1     
   45   11   44 1     
   46   11   45 1     
   47   19   46 1     
@<TRIPOS>SUBSTRUCTURE
      1 S1             1
@<TRIPOS>SET
LONE_PAIRS      STATIC     ATOMS    <user>   **** ""
3 44 45 46
DONOR_HYDROGENS      STATIC     ATOMS    <user>   **** ""
1 37
ATOM$BLUE        STATIC     ATOMS    COLORGROUP SYSTEM
3 44 45 46
ATOM$RED        STATIC     ATOMS    COLORGROUP SYSTEM
1 37
