#       Name:                AV-unprocessed.smi:21
#       Creating user name   scv26
#       Creation time:       Thu Mar 26 15:32:58 2020


#       File generated by GOLD software.
#

@<TRIPOS>MOLECULE
AV-unprocessed.smi:21
    71    74     1
SMALL
NO_CHARGES


@<TRIPOS>ATOM
      1 ****        -4.2959   0.6659   4.9652 C.3            1 S1                 0.0000
      2 ****        -3.6512   1.1528   3.7986 O.3            1 S1                 0.0000
      3 ****        -4.5189   1.2825   2.6806 C.3            1 S1                 0.0000
      4 ****        -3.8395   2.1650   1.6325 C.3            1 S1                 0.0000
      5 ****        -3.1843   1.1683   0.6769 C.3            1 S1                 0.0000
      6 ****        -2.7858   1.7490  -0.7007 C.3            1 S1                 0.0000
      7 ****        -1.7007   2.7239  -0.6128 N.pl3          1 S1                 0.0000
      8 ****        -2.0562   4.1316  -0.4351 C.3            1 S1                 0.0000
      9 ****        -0.4003   2.3386  -0.4358 C.ar           1 S1                 0.0000
     10 ****         0.5248   3.3107  -0.2076 N.ar           1 S1                 0.0000
     11 ****         1.8121   3.0116  -0.0213 C.ar           1 S1                 0.0000
     12 ****         2.3951   1.8146  -0.0223 N.ar           1 S1                 0.0000
     13 ****         1.4878   0.8256  -0.2553 C.ar           1 S1                 0.0000
     14 ****         0.0865   0.9917  -0.4714 C.ar           1 S1                 0.0000
     15 ****        -0.4910  -0.2601  -0.6731 N.2            1 S1                 0.0000
     16 ****         0.4993  -1.1035  -0.5848 C.2            1 S1                 0.0000
     17 ****         1.7252  -0.5354  -0.3392 N.pl3          1 S1                 0.0000
     18 ****         2.9886  -1.2387  -0.1974 C.3            1 S1                 0.0000
     19 ****         3.5620  -1.7363  -1.5476 C.3            1 S1                 0.0000
     20 ****         3.6936  -0.6019  -2.5934 C.3            1 S1                 0.0000
     21 ****         4.6175   0.3816  -2.1754 O.3            1 S1                 0.0000
     22 ****         4.8894  -2.5135  -1.3558 C.3            1 S1                 0.0000
     23 ****         4.7881  -3.7413  -0.4677 C.3            1 S1                 0.0000
     24 ****         6.0477  -4.5123  -0.8443 C.3            1 S1                 0.0000
     25 ****         6.2563  -4.2461  -2.2260 O.3            1 S1                 0.0000
     26 ****         5.4564  -3.1403  -2.6350 C.3            1 S1                 0.0000
     27 ****        -4.1295   0.0259   0.6269 N.4            1 S1                 1.0000
     28 ****        -5.1621   0.0894  -0.4365 C.3            1 S1                 0.0000
     29 ****        -4.7186  -0.0791   1.9829 C.3            1 S1                 0.0000
     30 ****        -5.4677   1.7313   2.9805 H              1 S1                 0.0000
     31 ****        -2.2902   0.7835   1.1695 H              1 S1                 0.0000
     32 ****        -3.5693   0.5782   5.7729 H              1 S1                 0.0000
     33 ****        -4.7367  -0.3180   4.8028 H              1 S1                 0.0000
     34 ****        -5.0797   1.3491   5.2941 H              1 S1                 0.0000
     35 ****        -4.5929   2.7474   1.1005 H              1 S1                 0.0000
     36 ****        -3.1277   2.8669   2.0686 H              1 S1                 0.0000
     37 ****        -2.5159   0.9610  -1.4015 H              1 S1                 0.0000
     38 ****        -3.6485   2.2369  -1.1553 H              1 S1                 0.0000
     39 ****        -1.5432   4.7537  -1.1694 H              1 S1                 0.0000
     40 ****        -1.7850   4.4770   0.5632 H              1 S1                 0.0000
     41 ****        -3.1274   4.2910  -0.5603 H              1 S1                 0.0000
     42 ****         2.4681   3.8518   0.1534 H              1 S1                 0.0000
     43 ****         0.3642  -2.1693  -0.7010 H              1 S1                 0.0000
     44 ****         3.7034  -0.5820   0.2999 H              1 S1                 0.0000
     45 ****         2.8207  -2.0759   0.4800 H              1 S1                 0.0000
     46 ****         2.8364  -2.4422  -1.9545 H              1 S1                 0.0000
     47 ****         4.0181  -0.9965  -3.5560 H              1 S1                 0.0000
     48 ****         2.7317  -0.1231  -2.7768 H              1 S1                 0.0000
     49 ****         4.6470   1.0640  -2.8286 H              1 S1                 0.0000
     50 ****         5.6443  -1.8491  -0.9317 H              1 S1                 0.0000
     51 ****         4.7504  -3.5035   0.5957 H              1 S1                 0.0000
     52 ****         3.9021  -4.3256  -0.7206 H              1 S1                 0.0000
     53 ****         6.9050  -4.1366  -0.2841 H              1 S1                 0.0000
     54 ****         5.9580  -5.5816  -0.6512 H              1 S1                 0.0000
     55 ****         4.6545  -3.5193  -3.2701 H              1 S1                 0.0000
     56 ****         6.0417  -2.4308  -3.2203 H              1 S1                 0.0000
     57 ****        -5.7597   0.9981  -0.3558 H              1 S1                 0.0000
     58 ****        -5.8346  -0.7660  -0.3636 H              1 S1                 0.0000
     59 ****        -4.7142   0.0544  -1.4294 H              1 S1                 0.0000
     60 ****        -4.1883  -0.8677   2.5178 H              1 S1                 0.0000
     61 ****        -5.7709  -0.3662   1.9574 H              1 S1                 0.0000
     62 ****        -3.5929  -0.8119   0.4509 H              1 S1                 0.0000
     63 ****        -2.9159   0.5198   3.5562 LP             1 S1                 0.0000
     64 ****        -3.2633   2.0514   4.0035 LP             1 S1                 0.0000
     65 ****         0.2344   4.2672  -0.1790 LP             1 S1                 0.0000
     66 ****         3.3718   1.6616   0.1283 LP             1 S1                 0.0000
     67 ****        -1.4538  -0.4664  -0.8474 LP             1 S1                 0.0000
     68 ****         5.5241  -0.0285  -2.0753 LP             1 S1                 0.0000
     69 ****         4.3271   0.7662  -1.2992 LP             1 S1                 0.0000
     70 ****         6.0043  -5.0528  -2.7605 LP             1 S1                 0.0000
     71 ****         7.2209  -4.0321  -2.3802 LP             1 S1                 0.0000
@<TRIPOS>BOND
    1    1    2 1     
    2    1   32 1     
    3    1   33 1     
    4    1   34 1     
    5    2    3 1     
    6    3   30 1     
    7    3   29 1     
    8    3    4 1     
    9    4    5 1     
   10    4   35 1     
   11    4   36 1     
   12    5   31 1     
   13    5    6 1     
   14    5   27 1     
   15    6    7 1     
   16    6   37 1     
   17    6   38 1     
   18    7    8 1     
   19    7    9 1     
   20    8   39 1     
   21    8   40 1     
   22    8   41 1     
   23    9   14 ar    
   24    9   10 ar    
   25   10   11 ar    
   26   11   12 ar    
   27   11   42 1     
   28   12   13 ar    
   29   13   17 1     
   30   13   14 ar    
   31   14   15 1     
   32   15   16 2     
   33   16   17 1     
   34   16   43 1     
   35   17   18 1     
   36   18   19 1     
   37   18   44 1     
   38   18   45 1     
   39   19   20 1     
   40   19   22 1     
   41   19   46 1     
   42   20   21 1     
   43   20   47 1     
   44   20   48 1     
   45   21   49 1     
   46   22   26 1     
   47   22   23 1     
   48   22   50 1     
   49   23   24 1     
   50   23   51 1     
   51   23   52 1     
   52   24   25 1     
   53   24   53 1     
   54   24   54 1     
   55   25   26 1     
   56   26   55 1     
   57   26   56 1     
   58   27   28 1     
   59   27   29 1     
   60   27   62 1     
   61   28   57 1     
   62   28   58 1     
   63   28   59 1     
   64   29   60 1     
   65   29   61 1     
   66    2   63 1     
   67    2   64 1     
   68   10   65 1     
   69   12   66 1     
   70   15   67 1     
   71   21   68 1     
   72   21   69 1     
   73   25   70 1     
   74   25   71 1     
@<TRIPOS>SUBSTRUCTURE
      1 S1             1
@<TRIPOS>SET
LONE_PAIRS      STATIC     ATOMS    <user>   **** ""
9 63 64 65 66 67 68 69 70 71
DONOR_HYDROGENS      STATIC     ATOMS    <user>   **** ""
2 49 62
ATOM$BLUE        STATIC     ATOMS    COLORGROUP SYSTEM
9 63 64 65 66 67 68 69 70 71
ATOM$RED        STATIC     ATOMS    COLORGROUP SYSTEM
2 49 62
