AV-unprocessed.smi:2877|AV-procd|sdf|11043|dock10
  -GOLD-   2272015513D 1   1.00000     0.00000
 Structure written by MMmdl.
 41 42  0  0  0  0  0  0  0  0  1 V2000
  152.0836  140.4703  158.5721 O   0  0  0  0  0  0  0  0  0  0  0  0
  151.7697  141.6619  158.5822 C   0  0  0  0  0  0  0  0  0  0  0  0
  150.5766  142.1249  157.7277 C   0  0  0  0  0  0  0  0  0  0  0  0
  150.6759  141.7240  156.2411 C   0  0  0  0  0  0  0  0  0  0  0  0
  149.3926  141.8656  155.5621 N   0  0  0  0  0  0  0  0  0  0  0  0
  148.5988  140.8504  155.1830 C   0  0  0  0  0  0  0  0  0  0  0  0
  148.8912  139.6685  155.3741 O   0  0  0  0  0  0  0  0  0  0  0  0
  147.2710  141.2416  154.5116 C   0  0  0  0  0  0  0  0  0  0  0  0
  147.5589  141.8862  153.3791 F   0  0  0  0  0  0  0  0  0  0  0  0
  146.6058  140.1299  154.1878 F   0  0  0  0  0  0  0  0  0  0  0  0
  146.4020  142.1189  155.4126 C   0  0  0  0  0  0  0  0  0  0  0  0
  145.1880  142.6696  154.9416 C   0  0  0  0  0  0  0  0  0  0  0  0
  144.4313  143.4792  155.8102 C   0  0  0  0  0  0  0  0  0  0  0  0
  144.9115  143.7102  157.1131 C   0  0  0  0  0  0  0  0  0  0  0  0
  146.1341  143.1210  157.4901 C   0  0  0  0  0  0  0  0  0  0  0  0
  146.8674  142.3435  156.6651 N   0  0  0  0  0  0  0  0  0  0  0  0
  152.4439  142.5792  159.3189 N   0  0  0  0  0  0  0  0  0  0  0  0
  152.0386  143.9895  159.3927 C   0  0  0  0  0  0  0  0  0  0  0  0
  151.4858  144.2763  160.8011 C   0  0  0  0  0  0  0  0  0  0  0  0
  152.5188  143.9119  161.8841 C   0  0  0  0  0  0  0  0  0  0  0  0
  153.0755  142.4899  161.6831 C   0  0  0  0  0  0  0  0  0  0  0  0
  153.5569  142.2890  160.2347 C   0  0  0  0  0  0  0  0  0  0  0  0
  149.6638  141.7047  158.1509 H   0  0  0  0  0  0  0  0  0  0  0  0
  150.4993  143.2106  157.8006 H   0  0  0  0  0  0  0  0  0  0  0  0
  151.3936  142.3627  155.7246 H   0  0  0  0  0  0  0  0  0  0  0  0
  151.0379  140.6993  156.1390 H   0  0  0  0  0  0  0  0  0  0  0  0
  149.0803  142.8064  155.3692 H   0  0  0  0  0  0  0  0  0  0  0  0
  144.8430  142.4838  153.9353 H   0  0  0  0  0  0  0  0  0  0  0  0
  143.4997  143.9161  155.4820 H   0  0  0  0  0  0  0  0  0  0  0  0
  144.3570  144.3258  157.8059 H   0  0  0  0  0  0  0  0  0  0  0  0
  146.5338  143.2782  158.4810 H   0  0  0  0  0  0  0  0  0  0  0  0
  152.9025  144.6248  159.1919 H   0  0  0  0  0  0  0  0  0  0  0  0
  151.2944  144.2579  158.6416 H   0  0  0  0  0  0  0  0  0  0  0  0
  151.2073  145.3267  160.8892 H   0  0  0  0  0  0  0  0  0  0  0  0
  150.5732  143.6993  160.9569 H   0  0  0  0  0  0  0  0  0  0  0  0
  153.3430  144.6251  161.8436 H   0  0  0  0  0  0  0  0  0  0  0  0
  152.0768  144.0083  162.8761 H   0  0  0  0  0  0  0  0  0  0  0  0
  153.8941  142.3083  162.3800 H   0  0  0  0  0  0  0  0  0  0  0  0
  152.3018  141.7568  161.9149 H   0  0  0  0  0  0  0  0  0  0  0  0
  153.9735  141.2895  160.1219 H   0  0  0  0  0  0  0  0  0  0  0  0
  154.3816  142.9702  160.0199 H   0  0  0  0  0  0  0  0  0  0  0  0
  1  2  2  0  0  0  0
  2  3  1  0  0  0  0
  2 17  1  0  0  0  0
  3  4  1  0  0  0  0
  3 23  1  0  0  0  0
  3 24  1  0  0  0  0
  4  5  1  0  0  0  0
  4 25  1  0  0  0  0
  4 26  1  0  0  0  0
  5  6  1  0  0  0  0
  5 27  1  0  0  0  0
  6  7  2  0  0  0  0
  6  8  1  0  0  0  0
  8  9  1  0  0  0  0
  8 10  1  0  0  0  0
  8 11  1  0  0  0  0
 11 16  1  0  0  0  0
 11 12  2  0  0  0  0
 12 13  1  0  0  0  0
 12 28  1  0  0  0  0
 13 14  2  0  0  0  0
 13 29  1  0  0  0  0
 14 15  1  0  0  0  0
 14 30  1  0  0  0  0
 15 16  2  0  0  0  0
 15 31  1  0  0  0  0
 17 22  1  0  0  0  0
 17 18  1  0  0  0  0
 18 19  1  0  0  0  0
 18 32  1  0  0  0  0
 18 33  1  0  0  0  0
 19 20  1  0  0  0  0
 19 34  1  0  0  0  0
 19 35  1  0  0  0  0
 20 21  1  0  0  0  0
 20 36  1  0  0  0  0
 20 37  1  0  0  0  0
 21 22  1  0  0  0  0
 21 38  1  0  0  0  0
 21 39  1  0  0  0  0
 22 40  1  0  0  0  0
 22 41  1  0  0  0  0
M  END
> <s_m_source_file>
AV-unprocessed.smi

> <i_m_source_file_index>
2877

> <i_lp_mmshare_version>
43012

> <i_f3d_flags>
0

> <s_epik_input>
W0NIMl0xW0NIMl1bQ0gyXVtDSDJdW0NIMl1OMUMoPU8pW0NIMl1bQ0gyXVtOSF1DKD1PKUMoRikoRiljMltjSF1bY0hdW2NIXVtjSF1uMg==

> <s_epik_cmdline>
J2VwaWtfcHl0aG9uJywgJy1waCcsICc3LjAnLCAnLXRuJywgJzgnLCAnLW1hJywgJzIwMCcsICctbWV0YWxfYmluZGluZycsICctaW1hZScsICc8aW5maWxlLm1hZT4nLCAnLW9tYWUnLCAnPG91dGZpbGUubWFlPic=

> <r_lp_tautomer_probability>
1

> <r_epik_Ionization_Penalty>
7.88991e-05

> <r_epik_Ionization_Penalty_Charging>
0

> <r_epik_Ionization_Penalty_Neutral>
7.88991e-05

> <r_epik_State_Penalty>
-0

> <r_epik_Charging_Adjusted_Penalty>
0

> <i_epik_Tot_Q>
0

> <i_epik_Tot_abs_Q>
0

> <r_epik_Metal_State_Penalty>
0.0639978

> <b_epik_Metal_Only>
0

> <s_lp_Force_Field>
OPLS_2005

> <r_lp_Energy>
32.8241

> <b_lp_Chiralities_Consistent>
1

> <s_lp_Variant>
AV-unprocessed.smi:2877-1

> <Gold.Version>
5.8.1

> <Gold.Id.Protein>
6NUR|6NUR_protein|mol2

> <Gold.PLP.Fitness>
46.2709

> <Gold.PLP.PLP>
-43.7156

> <Gold.PLP.part.hbond>
-1.0000

> <Gold.PLP.part.metal>
0.0000

> <Gold.PLP.part.buried>
-6.8515

> <Gold.PLP.part.nonpolar>
-36.0447

> <Gold.PLP.part.repulsive>
0.3432

> <Gold.PLP.ligand.clash>
0.0000

> <Gold.PLP.ligand.torsion>
0.2411

> <Gold.PLP.Chemscore.Hbond>
1.0000

> <Gold.PLP.Chemscore.CHOScore>
0.0000

> <Gold.PLP.Chemscore.Metal>
0.0000

> <Gold.Chemscore.Hbonds>
donor molecule, donor type, donor heavy atom, donor atom, acceptor molecule, acceptor atom, score
      L1  H     5    27       P1  8028  1.00

> <Gold.PLP.Chemscore.Internal.Correction>
0.0375

> <Gold.Rescore>
     Score         DG    S(hbond)    S(metal)    S(lipo)     H(rot)  DE(clash)    DE(int)     intcor
     12.42     -14.69       0.99        0.00      93.18       1.95       0.69       1.59       ----

> <Gold.Chemscore.Fitness>
12.4166

> <Gold.Chemscore.DG>
-14.6920

> <Gold.Chemscore.ZeroCoef>
-5.4800

> <Gold.Chemscore.Hbond>
0.9875

> <Gold.Chemscore.Metal>
0.0000

> <Gold.Chemscore.Lipo>
93.1827

> <Gold.Chemscore.Internal_Hbond>
0.0000

> <Gold.Chemscore.DEClash>
0.6853

> <Gold.Chemscore.DEInternal>
1.5900

> <Gold.Chemscore.Rot>
1.9487

> <Gold.Chemscore.Internal.Correction>
   9.000000E+99

> <Gold.Chemscore.Hbonds>
donor molecule, donor type, donor heavy atom, donor atom, acceptor molecule, acceptor atom, score
      L1  H     5    27       P1  8028  0.98

> <Gold.Chemscore.Hbond.Weighted>
-3.2983

> <Gold.Chemscore.Metal.Weighted>
-0.0000

> <Gold.Chemscore.Lipo.Weighted>
-10.9024

> <Gold.Chemscore.Internal_Hbond.Weighted>
0.0000

> <Gold.Chemscore.DEClash.Weighted>
0.6853

> <Gold.Chemscore.DEInternal.Weighted>
1.5900

> <Gold.Chemscore.Rot.Weighted>
4.9886

> <Gold.Chemscore.Internal.Correction.Weighted>
   9.000000E+99

> <Gold.Protein.RotatedTorsions>
[ 6907 6896 6895 6894 ] final   53.04 input  -60.11 | X-H torsion
[ 7974 7965 7964 7962 ] final  -81.73 input  175.53 | X-H torsion
[ 8008 7997 7996 7995 ] final   48.92 input   59.86 | X-H torsion
[ 10167 10162 10161 10158 ] final  161.66 input  -65.29 | X-H torsion
[ 10718 10713 10712 10709 ] final -173.65 input   66.30 | X-H torsion
[ 10763 10752 10751 10750 ] final   62.35 input  -60.55 | X-H torsion
[ 11005 11000 10999 10996 ] final   95.32 input  -57.11 | X-H torsion

> <Gold.Protein.ActiveResidues>
 VAL166  LYS551  ARG553  GLY616  TRP617  ASP618  TYR619  PRO620  LYS621  CYS622 
 ASP623  PHE694  ASN695  SER759  ASP760  ASP761  ALA762  ILE779  LEU786  VAL792 
 PHE793  MET794  SER795  GLU796  ALA797  LYS798  CYS799  TRP800  GLU811  SER814 

> <Gold.Protein.RotatedAtoms>
  152.3295  134.7277  160.0292 H   0  0  0  0  0  0  0  0  0  0  0  0  # atno 6907 bound_to 6896
  151.7699  133.3335  159.3449 H   0  0  0  0  0  0  0  0  0  0  0  0  # atno 6908 bound_to 6896
  150.7415  134.5960  159.6056 H   0  0  0  0  0  0  0  0  0  0  0  0  # atno 6909 bound_to 6896
  145.5428  140.9507  143.1542 H   0  0  0  0  0  0  0  0  0  0  0  0  # atno 7974 bound_to 7965
  155.3936  140.3434  155.4253 H   0  0  0  0  0  0  0  0  0  0  0  0  # atno 8008 bound_to 7997
  156.1543  140.1581  156.8750 H   0  0  0  0  0  0  0  0  0  0  0  0  # atno 8009 bound_to 7997
  154.5081  140.0797  156.7916 H   0  0  0  0  0  0  0  0  0  0  0  0  # atno 8010 bound_to 7997
  139.4852  144.4515  151.8824 H   0  0  0  0  0  0  0  0  0  0  0  0  # atno 10167 bound_to 10162
  156.7735  130.9457  151.3120 H   0  0  0  0  0  0  0  0  0  0  0  0  # atno 10718 bound_to 10713
  152.9980  135.5468  154.6179 H   0  0  0  0  0  0  0  0  0  0  0  0  # atno 10763 bound_to 10752
  154.5485  135.2825  155.1032 H   0  0  0  0  0  0  0  0  0  0  0  0  # atno 10764 bound_to 10752
  154.2281  135.6438  153.5219 H   0  0  0  0  0  0  0  0  0  0  0  0  # atno 10765 bound_to 10752
  139.8790  134.8893  156.3994 H   0  0  0  0  0  0  0  0  0  0  0  0  # atno 11005 bound_to 11000
  144.7568  139.7054  143.7250 LP  0  0  0  0  0  0  0  0  0  0  0  0  # atno 17320 bound_to 7965
  146.1970  139.5242  142.9768 LP  0  0  0  0  0  0  0  0  0  0  0  0  # atno 17321 bound_to 7965
  140.3972  144.2540  150.5895 LP  0  0  0  0  0  0  0  0  0  0  0  0  # atno 17342 bound_to 10162
  140.5091  143.2295  151.8562 LP  0  0  0  0  0  0  0  0  0  0  0  0  # atno 17343 bound_to 10162
  157.6680  130.9025  149.9975 LP  0  0  0  0  0  0  0  0  0  0  0  0  # atno 17370 bound_to 10713
  156.1263  130.3644  149.9804 LP  0  0  0  0  0  0  0  0  0  0  0  0  # atno 17371 bound_to 10713
  140.9277  133.7601  155.9985 LP  0  0  0  0  0  0  0  0  0  0  0  0  # atno 17394 bound_to 11000
  140.8366  134.3115  157.5329 LP  0  0  0  0  0  0  0  0  0  0  0  0  # atno 17395 bound_to 11000

$$$$
