AV-unprocessed.smi:189|AV-procd|sdf|1488|dock8
  -GOLD-   2262019303D 1   1.00000     0.00000
 Structure written by MMmdl.
 53 57  0  0  0  0  0  0  0  0  1 V2000
  150.1125  140.2179  156.8166 C   0  0  0  0  0  0  0  0  0  0  0  0
  151.3776  141.0795  157.0130 C   0  0  1  0  0  0  0  0  0  0  0  0
  151.0221  142.5868  157.0172 C   0  0  0  0  0  0  0  0  0  0  0  0
  151.8252  143.1433  158.1890 C   0  0  1  0  0  0  0  0  0  0  0  0
  151.3295  144.4170  158.8837 C   0  0  0  0  0  0  0  0  0  0  0  0
  152.2575  144.7324  160.0758 C   0  0  0  0  0  0  0  0  0  0  0  0
  152.4221  143.5270  161.0298 C   0  0  0  0  0  0  0  0  0  0  0  0
  152.8312  142.2365  160.2885 C   0  0  0  0  0  0  0  0  0  0  0  0
  151.8222  141.9687  159.1560 C   0  0  2  0  0  0  0  0  0  0  0  0
  152.0835  140.8370  158.2798 N   0  0  0  0  0  0  0  0  0  0  0  0
  152.1952  139.5670  158.7454 C   0  0  0  0  0  0  0  0  0  0  0  0
  151.0791  138.8596  159.0622 N   0  0  0  0  0  0  0  0  0  0  0  0
  151.1809  137.6041  159.5077 C   0  0  0  0  0  0  0  0  0  0  0  0
  152.2810  136.8742  159.7018 N   0  0  0  0  0  0  0  0  0  0  0  0
  153.4043  137.5771  159.3790 C   0  0  0  0  0  0  0  0  0  0  0  0
  153.4509  138.9167  158.9003 C   0  0  0  0  0  0  0  0  0  0  0  0
  154.7698  139.2985  158.6875 N   0  0  0  0  0  0  0  0  0  0  0  0
  155.4630  138.2423  159.0137 C   0  0  0  0  0  0  0  0  0  0  0  0
  154.7229  137.1602  159.4338 N   0  0  0  0  0  0  0  0  0  0  0  0
  155.2373  135.8646  159.8497 C   0  0  0  0  0  0  0  0  0  0  0  0
  156.0341  135.1379  158.7413 C   0  0  2  0  0  0  0  0  0  0  0  0
  156.4817  133.8891  159.2407 O   0  0  0  0  0  0  0  0  0  0  0  0
  157.2425  135.9153  158.2264 C   0  0  0  0  0  0  0  0  0  0  0  0
  157.3298  135.4800  156.7703 C   0  0  0  0  0  0  0  0  0  0  0  0
  155.9675  135.4243  156.3830 O   0  0  0  0  0  0  0  0  0  0  0  0
  155.2113  134.8842  157.4623 C   0  0  0  0  0  0  0  0  0  0  0  0
  149.5930  140.4986  155.9000 H   0  0  0  0  0  0  0  0  0  0  0  0
  149.4145  140.3427  157.6452 H   0  0  0  0  0  0  0  0  0  0  0  0
  150.3491  139.1572  156.7360 H   0  0  0  0  0  0  0  0  0  0  0  0
  152.0794  140.8862  156.2010 H   0  0  0  0  0  0  0  0  0  0  0  0
  151.2669  143.0764  156.0744 H   0  0  0  0  0  0  0  0  0  0  0  0
  149.9569  142.7345  157.2006 H   0  0  0  0  0  0  0  0  0  0  0  0
  152.8453  143.3130  157.8378 H   0  0  0  0  0  0  0  0  0  0  0  0
  151.3175  145.2520  158.1827 H   0  0  0  0  0  0  0  0  0  0  0  0
  150.3053  144.2817  159.2336 H   0  0  0  0  0  0  0  0  0  0  0  0
  153.2385  145.0225  159.6975 H   0  0  0  0  0  0  0  0  0  0  0  0
  151.8765  145.5928  160.6264 H   0  0  0  0  0  0  0  0  0  0  0  0
  153.1581  143.7613  161.7993 H   0  0  0  0  0  0  0  0  0  0  0  0
  151.4799  143.3542  161.5512 H   0  0  0  0  0  0  0  0  0  0  0  0
  153.8371  142.3426  159.8805 H   0  0  0  0  0  0  0  0  0  0  0  0
  152.8675  141.4085  160.9952 H   0  0  0  0  0  0  0  0  0  0  0  0
  150.8249  141.8431  159.5825 H   0  0  0  0  0  0  0  0  0  0  0  0
  150.2468  137.1140  159.7396 H   0  0  0  0  0  0  0  0  0  0  0  0
  156.5414  138.2203  158.9518 H   0  0  0  0  0  0  0  0  0  0  0  0
  155.8629  136.0109  160.7312 H   0  0  0  0  0  0  0  0  0  0  0  0
  154.3956  135.2506  160.1726 H   0  0  0  0  0  0  0  0  0  0  0  0
  155.7333  133.3198  159.3369 H   0  0  0  0  0  0  0  0  0  0  0  0
  157.0426  136.9868  158.2558 H   0  0  0  0  0  0  0  0  0  0  0  0
  158.1590  135.7327  158.7891 H   0  0  0  0  0  0  0  0  0  0  0  0
  157.8963  136.1778  156.1533 H   0  0  0  0  0  0  0  0  0  0  0  0
  157.7814  134.4908  156.6805 H   0  0  0  0  0  0  0  0  0  0  0  0
  155.0361  133.8208  157.2902 H   0  0  0  0  0  0  0  0  0  0  0  0
  154.2370  135.3735  157.4921 H   0  0  0  0  0  0  0  0  0  0  0  0
  1  2  1  0  0  0  0
  1 27  1  0  0  0  0
  1 28  1  0  0  0  0
  1 29  1  0  0  0  0
  2 10  1  0  0  0  0
  2  3  1  0  0  0  0
  2 30  1  0  0  0  0
  3  4  1  0  0  0  0
  3 31  1  0  0  0  0
  3 32  1  0  0  0  0
  4  9  1  0  0  0  0
  4  5  1  0  0  0  0
  4 33  1  0  0  0  0
  5  6  1  0  0  0  0
  5 34  1  0  0  0  0
  5 35  1  0  0  0  0
  6  7  1  0  0  0  0
  6 36  1  0  0  0  0
  6 37  1  0  0  0  0
  7  8  1  0  0  0  0
  7 38  1  0  0  0  0
  7 39  1  0  0  0  0
  8  9  1  0  0  0  0
  8 40  1  0  0  0  0
  8 41  1  0  0  0  0
  9 10  1  0  0  0  0
  9 42  1  0  0  0  0
 10 11  1  0  0  0  0
 11 16  1  0  0  0  0
 11 12  2  0  0  0  0
 12 13  1  0  0  0  0
 13 14  2  0  0  0  0
 13 43  1  0  0  0  0
 14 15  1  0  0  0  0
 15 19  1  0  0  0  0
 15 16  2  0  0  0  0
 16 17  1  0  0  0  0
 17 18  2  0  0  0  0
 18 19  1  0  0  0  0
 18 44  1  0  0  0  0
 19 20  1  0  0  0  0
 20 21  1  0  0  0  0
 20 45  1  0  0  0  0
 20 46  1  0  0  0  0
 21 26  1  0  0  0  0
 21 22  1  0  0  0  0
 21 23  1  0  0  0  0
 22 47  1  0  0  0  0
 23 24  1  0  0  0  0
 23 48  1  0  0  0  0
 23 49  1  0  0  0  0
 24 25  1  0  0  0  0
 24 50  1  0  0  0  0
 24 51  1  0  0  0  0
 25 26  1  0  0  0  0
 26 52  1  0  0  0  0
 26 53  1  0  0  0  0
M  END
> <s_m_source_file>
AV-unprocessed.smi

> <i_m_source_file_index>
189

> <i_lp_mmshare_version>
43012

> <i_f3d_flags>
0

> <s_epik_input>
W0NIMl0xW0NIMl1bQ0gyXVtDSDJdW0NASF0oW0NASF0xMilOKFtDQEhdKFtDSDNdKVtDSDJdMiljKG5bY0hdbjMpYyhjMzQpbltjSF1uNFtDSDJdW0NAQF01KFtPSF0pW0NIMl1bQ0gyXU9bQ0gyXTU=

> <s_epik_cmdline>
J2VwaWtfcHl0aG9uJywgJy1waCcsICc3LjAnLCAnLXRuJywgJzgnLCAnLW1hJywgJzIwMCcsICctbWV0YWxfYmluZGluZycsICctaW1hZScsICc8aW5maWxlLm1hZT4nLCAnLW9tYWUnLCAnPG91dGZpbGUubWFlPic=

> <r_lp_tautomer_probability>
1

> <r_epik_Ionization_Penalty>
0.00594261

> <r_epik_Ionization_Penalty_Charging>
0

> <r_epik_Ionization_Penalty_Neutral>
0.00594261

> <r_epik_State_Penalty>
0.00429776

> <r_epik_Charging_Adjusted_Penalty>
0.00429776

> <i_epik_Tot_Q>
0

> <i_epik_Tot_abs_Q>
0

> <r_epik_Metal_State_Penalty>
-0

> <b_epik_Metal_Only>
0

> <s_lp_Force_Field>
OPLS_2005

> <r_lp_Energy>
58.0948

> <b_lp_Chiralities_Consistent>
1

> <s_lp_Variant>
AV-unprocessed.smi:189-14

> <Gold.Version>
5.8.1

> <Gold.Id.Protein>
6NUR|6NUR_protein|mol2

> <Gold.PLP.Fitness>
48.0667

> <Gold.PLP.PLP>
-39.1673

> <Gold.PLP.part.hbond>
-3.0000

> <Gold.PLP.part.metal>
0.0000

> <Gold.PLP.part.buried>
-6.1347

> <Gold.PLP.part.nonpolar>
-30.2161

> <Gold.PLP.part.repulsive>
0.0000

> <Gold.PLP.ligand.clash>
0.0000

> <Gold.PLP.ligand.torsion>
0.2466

> <Gold.PLP.Chemscore.Hbond>
3.0000

> <Gold.PLP.Chemscore.CHOScore>
0.0000

> <Gold.PLP.Chemscore.Metal>
0.0000

> <Gold.Chemscore.Hbonds>
donor molecule, donor type, donor heavy atom, donor atom, acceptor molecule, acceptor atom, score
      P1  H  6896  6908       L1    14  1.00
      P1  H  7997  8008       L1    17  1.00
      P1  H 10752 10765       L1    25  1.00

> <Gold.PLP.Chemscore.Internal.Correction>
0.3926

> <Gold.Rescore>
     Score         DG    S(hbond)    S(metal)    S(lipo)     H(rot)  DE(clash)    DE(int)     intcor
     20.25     -22.04       2.87        0.00     104.03       2.03       0.15       1.65       ----

> <Gold.Chemscore.Fitness>
20.2454

> <Gold.Chemscore.DG>
-22.0411

> <Gold.Chemscore.ZeroCoef>
-5.4800

> <Gold.Chemscore.Hbond>
2.8698

> <Gold.Chemscore.Metal>
0.0000

> <Gold.Chemscore.Lipo>
104.0330

> <Gold.Chemscore.Internal_Hbond>
0.0000

> <Gold.Chemscore.DEClash>
0.1461

> <Gold.Chemscore.DEInternal>
1.6496

> <Gold.Chemscore.Rot>
2.0297

> <Gold.Chemscore.Internal.Correction>
   9.000000E+99

> <Gold.Chemscore.Hbonds>
donor molecule, donor type, donor heavy atom, donor atom, acceptor molecule, acceptor atom, score
      P1  H  6896  6908       L1    14  0.45
      P1  H  7997  8008       L1    17  0.84
      P1  H 10752 10765       L1    25  0.44

> <Gold.Chemscore.Hbond.Weighted>
-9.5852

> <Gold.Chemscore.Metal.Weighted>
-0.0000

> <Gold.Chemscore.Lipo.Weighted>
-12.1719

> <Gold.Chemscore.Internal_Hbond.Weighted>
0.0000

> <Gold.Chemscore.DEClash.Weighted>
0.1461

> <Gold.Chemscore.DEInternal.Weighted>
1.6496

> <Gold.Chemscore.Rot.Weighted>
5.1960

> <Gold.Chemscore.Internal.Correction.Weighted>
   9.000000E+99

> <Gold.Protein.RotatedTorsions>
[ 6907 6896 6895 6894 ] final -117.70 input  -60.11 | X-H torsion
[ 7974 7965 7964 7962 ] final    4.69 input  175.53 | X-H torsion
[ 8008 7997 7996 7995 ] final -132.37 input   59.86 | X-H torsion
[ 10167 10162 10161 10158 ] final  -16.53 input  -65.29 | X-H torsion
[ 10718 10713 10712 10709 ] final   53.03 input   66.30 | X-H torsion
[ 10763 10752 10751 10750 ] final  -39.08 input  -60.55 | X-H torsion
[ 11005 11000 10999 10996 ] final  129.15 input  -57.11 | X-H torsion

> <Gold.Protein.ActiveResidues>
 VAL166  LYS551  ARG553  GLY616  TRP617  ASP618  TYR619  PRO620  LYS621  CYS622 
 ASP623  PHE694  ASN695  SER759  ASP760  ASP761  ALA762  ILE779  LEU786  VAL792 
 PHE793  MET794  SER795  GLU796  ALA797  LYS798  CYS799  TRP800  GLU811  SER814 

> <Gold.Protein.RotatedAtoms>
  150.8158  133.8340  159.3161 H   0  0  0  0  0  0  0  0  0  0  0  0  # atno 6907 bound_to 6896
  151.6112  135.1038  160.0091 H   0  0  0  0  0  0  0  0  0  0  0  0  # atno 6908 bound_to 6896
  152.4249  133.7138  159.6551 H   0  0  0  0  0  0  0  0  0  0  0  0  # atno 6909 bound_to 6896
  146.2443  140.0496  142.8376 H   0  0  0  0  0  0  0  0  0  0  0  0  # atno 7974 bound_to 7965
  155.3278  140.0465  157.3041 H   0  0  0  0  0  0  0  0  0  0  0  0  # atno 8008 bound_to 7997
  154.5345  140.2267  155.8713 H   0  0  0  0  0  0  0  0  0  0  0  0  # atno 8009 bound_to 7997
  156.1821  140.3071  155.9174 H   0  0  0  0  0  0  0  0  0  0  0  0  # atno 8010 bound_to 7997
  140.7235  143.5106  150.9754 H   0  0  0  0  0  0  0  0  0  0  0  0  # atno 10167 bound_to 10162
  157.5129  130.8513  149.8458 H   0  0  0  0  0  0  0  0  0  0  0  0  # atno 10718 bound_to 10713
  153.9235  135.6779  153.4747 H   0  0  0  0  0  0  0  0  0  0  0  0  # atno 10763 bound_to 10752
  153.1016  135.4825  154.8874 H   0  0  0  0  0  0  0  0  0  0  0  0  # atno 10764 bound_to 10752
  154.7465  135.3174  154.8591 H   0  0  0  0  0  0  0  0  0  0  0  0  # atno 10765 bound_to 10752
  139.9599  134.9604  156.9106 H   0  0  0  0  0  0  0  0  0  0  0  0  # atno 11005 bound_to 11000
  145.0996  140.9337  143.4720 LP  0  0  0  0  0  0  0  0  0  0  0  0  # atno 17320 bound_to 7965
  145.0686  139.3049  143.5843 LP  0  0  0  0  0  0  0  0  0  0  0  0  # atno 17321 bound_to 7965
  139.8820  143.7060  152.3156 LP  0  0  0  0  0  0  0  0  0  0  0  0  # atno 17342 bound_to 10162
  139.7346  144.7574  151.0748 LP  0  0  0  0  0  0  0  0  0  0  0  0  # atno 17343 bound_to 10162
  156.0301  130.3767  150.1712 LP  0  0  0  0  0  0  0  0  0  0  0  0  # atno 17370 bound_to 10713
  156.9901  130.9890  151.3417 LP  0  0  0  0  0  0  0  0  0  0  0  0  # atno 17371 bound_to 10713
  140.5523  134.0615  155.7373 LP  0  0  0  0  0  0  0  0  0  0  0  0  # atno 17394 bound_to 11000
  141.1275  133.9358  157.2604 LP  0  0  0  0  0  0  0  0  0  0  0  0  # atno 17395 bound_to 11000

$$$$
