AV-unprocessed.smi:1548|AV-procd|sdf|6221|dock2
  -GOLD-   22720 6393D 1   1.00000     0.00000
 Structure written by MMmdl.
 45 46  0  0  0  0  0  0  0  0  1 V2000
  144.8583  132.8306  151.5771 C   0  0  0  0  0  0  0  0  0  0  0  0
  145.5113  133.9514  150.7646 C   0  0  0  0  0  0  0  0  0  0  0  0
  145.9120  134.9874  151.6563 O   0  0  0  0  0  0  0  0  0  0  0  0
  144.9421  135.6447  152.3894 C   0  0  0  0  0  0  0  0  0  0  0  0
  143.6580  135.2173  152.2922 N   0  0  0  0  0  0  0  0  0  0  0  0
  142.7115  135.8559  153.0104 C   0  0  0  0  0  0  0  0  0  0  0  0
  142.9911  136.9413  153.8608 C   0  0  0  0  0  0  0  0  0  0  0  0
  144.3215  137.3876  153.9622 C   0  0  0  0  0  0  0  0  0  0  0  0
  145.3239  136.7362  153.2039 C   0  0  0  0  0  0  0  0  0  0  0  0
  146.6987  137.0945  153.2568 N   0  0  0  0  0  0  0  0  0  0  0  0
  147.2649  138.1140  153.9238 C   0  0  0  0  0  0  0  0  0  0  0  0
  146.6530  138.9622  154.5731 O   0  0  0  0  0  0  0  0  0  0  0  0
  148.5971  138.1090  153.7738 N   0  0  0  0  0  0  0  0  0  0  0  0
  149.5222  139.0841  154.3454 C   0  0  0  0  0  0  0  0  0  0  0  0
  150.9468  138.5101  154.3769 C   0  0  0  0  0  0  0  0  0  0  0  0
  151.9286  139.4822  155.0548 C   0  0  0  0  0  0  0  0  0  0  0  0
  151.4609  139.8833  156.3971 N   0  0  0  0  0  0  0  0  0  0  0  0
  152.1519  139.1484  157.8154 S   0  0  0  0  0  0  0  0  0  0  0  0
  152.1849  140.5070  159.0550 C   0  0  0  0  0  0  0  0  0  0  0  0
  151.2160  138.1173  158.2892 O   0  0  0  0  0  0  0  0  0  0  0  0
  153.5412  138.7824  157.5001 O   0  0  0  0  0  0  0  0  0  0  0  0
  150.0819  140.4100  156.4372 C   0  0  0  0  0  0  0  0  0  0  0  0
  149.0850  139.4448  155.7720 C   0  0  0  0  0  0  0  0  0  0  0  0
  144.5493  132.0097  150.9298 H   0  0  0  0  0  0  0  0  0  0  0  0
  143.9749  133.1925  152.1033 H   0  0  0  0  0  0  0  0  0  0  0  0
  145.5503  132.4300  152.3181 H   0  0  0  0  0  0  0  0  0  0  0  0
  146.3752  133.5569  150.2273 H   0  0  0  0  0  0  0  0  0  0  0  0
  144.8002  134.3329  150.0304 H   0  0  0  0  0  0  0  0  0  0  0  0
  141.7020  135.4860  152.9090 H   0  0  0  0  0  0  0  0  0  0  0  0
  142.2041  137.4171  154.4272 H   0  0  0  0  0  0  0  0  0  0  0  0
  144.5507  138.2056  154.6280 H   0  0  0  0  0  0  0  0  0  0  0  0
  147.3118  136.5452  152.6724 H   0  0  0  0  0  0  0  0  0  0  0  0
  149.0054  137.3732  153.2162 H   0  0  0  0  0  0  0  0  0  0  0  0
  149.5257  139.9990  153.7497 H   0  0  0  0  0  0  0  0  0  0  0  0
  150.9510  137.5542  154.9001 H   0  0  0  0  0  0  0  0  0  0  0  0
  151.2859  138.3016  153.3616 H   0  0  0  0  0  0  0  0  0  0  0  0
  152.9221  139.0386  155.1147 H   0  0  0  0  0  0  0  0  0  0  0  0
  152.0299  140.3801  154.4442 H   0  0  0  0  0  0  0  0  0  0  0  0
  152.6149  140.1309  159.9829 H   0  0  0  0  0  0  0  0  0  0  0  0
  151.1724  140.8552  159.2510 H   0  0  0  0  0  0  0  0  0  0  0  0
  152.7990  141.3283  158.6900 H   0  0  0  0  0  0  0  0  0  0  0  0
  149.7828  140.6153  157.4646 H   0  0  0  0  0  0  0  0  0  0  0  0
  150.0647  141.3676  155.9155 H   0  0  0  0  0  0  0  0  0  0  0  0
  148.0956  139.9035  155.7515 H   0  0  0  0  0  0  0  0  0  0  0  0
  148.9873  138.5402  156.3713 H   0  0  0  0  0  0  0  0  0  0  0  0
  1  2  1  0  0  0  0
  1 24  1  0  0  0  0
  1 25  1  0  0  0  0
  1 26  1  0  0  0  0
  2  3  1  0  0  0  0
  2 27  1  0  0  0  0
  2 28  1  0  0  0  0
  3  4  1  0  0  0  0
  4  9  1  0  0  0  0
  4  5  2  0  0  0  0
  5  6  1  0  0  0  0
  6  7  2  0  0  0  0
  6 29  1  0  0  0  0
  7  8  1  0  0  0  0
  7 30  1  0  0  0  0
  8  9  2  0  0  0  0
  8 31  1  0  0  0  0
  9 10  1  0  0  0  0
 10 11  1  0  0  0  0
 10 32  1  0  0  0  0
 11 12  2  0  0  0  0
 11 13  1  0  0  0  0
 13 14  1  0  0  0  0
 13 33  1  0  0  0  0
 14 23  1  0  0  0  0
 14 15  1  0  0  0  0
 14 34  1  0  0  0  0
 15 16  1  0  0  0  0
 15 35  1  0  0  0  0
 15 36  1  0  0  0  0
 16 17  1  0  0  0  0
 16 37  1  0  0  0  0
 16 38  1  0  0  0  0
 17 18  1  0  0  0  0
 17 22  1  0  0  0  0
 18 19  1  0  0  0  0
 18 20  2  0  0  0  0
 18 21  2  0  0  0  0
 19 39  1  0  0  0  0
 19 40  1  0  0  0  0
 19 41  1  0  0  0  0
 22 23  1  0  0  0  0
 22 42  1  0  0  0  0
 22 43  1  0  0  0  0
 23 44  1  0  0  0  0
 23 45  1  0  0  0  0
M  END
> <s_m_source_file>
AV-unprocessed.smi

> <i_m_source_file_index>
1548

> <i_lp_mmshare_version>
43012

> <i_f3d_flags>
0

> <s_epik_input>
W0NIM11bQ0gyXU9jMW5bY0hdW2NIXVtjSF1jMVtOSF1DKD1PKVtOSF1bQ0hdMltDSDJdW0NIMl1OKFMoPU8pKD1PKVtDSDNdKVtDSDJdW0NIMl0y

> <s_epik_cmdline>
J2VwaWtfcHl0aG9uJywgJy1waCcsICc3LjAnLCAnLXRuJywgJzgnLCAnLW1hJywgJzIwMCcsICctbWV0YWxfYmluZGluZycsICctaW1hZScsICc8aW5maWxlLm1hZT4nLCAnLW9tYWUnLCAnPG91dGZpbGUubWFlPic=

> <r_lp_tautomer_probability>
1

> <r_epik_Ionization_Penalty>
0.000113093

> <r_epik_Ionization_Penalty_Charging>
0

> <r_epik_Ionization_Penalty_Neutral>
0.000113093

> <r_epik_State_Penalty>
-0

> <r_epik_Charging_Adjusted_Penalty>
0

> <i_epik_Tot_Q>
0

> <i_epik_Tot_abs_Q>
0

> <r_epik_Metal_State_Penalty>
-0

> <b_epik_Metal_Only>
0

> <s_lp_Force_Field>
OPLS_2005

> <r_lp_Energy>
3.39389

> <b_lp_Chiralities_Consistent>
1

> <s_lp_Variant>
AV-unprocessed.smi:1548-1

> <Gold.Version>
5.8.1

> <Gold.Id.Protein>
6NUR|6NUR_protein|mol2

> <Gold.PLP.Fitness>
37.7461

> <Gold.PLP.PLP>
-29.4660

> <Gold.PLP.part.hbond>
-3.0000

> <Gold.PLP.part.metal>
0.0000

> <Gold.PLP.part.buried>
-4.9302

> <Gold.PLP.part.nonpolar>
-22.8216

> <Gold.PLP.part.repulsive>
0.4550

> <Gold.PLP.ligand.clash>
0.0000

> <Gold.PLP.ligand.torsion>
1.4123

> <Gold.PLP.Chemscore.Hbond>
3.0000

> <Gold.PLP.Chemscore.CHOScore>
0.0000

> <Gold.PLP.Chemscore.Metal>
0.0000

> <Gold.Chemscore.Hbonds>
donor molecule, donor type, donor heavy atom, donor atom, acceptor molecule, acceptor atom, score
      L1  H    10    32       P1  7948  1.00
      L1  H    13    33       P1  7948  1.00
      P1  H  7997  8008       L1    21  1.00

> <Gold.PLP.Chemscore.Internal.Correction>
2.1048

> <Gold.Rescore>
     Score         DG    S(hbond)    S(metal)    S(lipo)     H(rot)  DE(clash)    DE(int)     intcor
     14.43     -18.73       2.92        0.00      61.75       1.45       0.05       4.25       ----

> <Gold.Chemscore.Fitness>
14.4313

> <Gold.Chemscore.DG>
-18.7310

> <Gold.Chemscore.ZeroCoef>
-5.4800

> <Gold.Chemscore.Hbond>
2.9193

> <Gold.Chemscore.Metal>
0.0000

> <Gold.Chemscore.Lipo>
61.7516

> <Gold.Chemscore.Internal_Hbond>
0.0000

> <Gold.Chemscore.DEClash>
0.0512

> <Gold.Chemscore.DEInternal>
4.2484

> <Gold.Chemscore.Rot>
1.4549

> <Gold.Chemscore.Internal.Correction>
   9.000000E+99

> <Gold.Chemscore.Hbonds>
donor molecule, donor type, donor heavy atom, donor atom, acceptor molecule, acceptor atom, score
      L1  H    10    32       P1  7948  0.96
      L1  H    13    33       P1  7948  0.97
      P1  H  7997  8008       L1    21  0.95

> <Gold.Chemscore.Hbond.Weighted>
-9.7505

> <Gold.Chemscore.Metal.Weighted>
-0.0000

> <Gold.Chemscore.Lipo.Weighted>
-7.2249

> <Gold.Chemscore.Internal_Hbond.Weighted>
0.0000

> <Gold.Chemscore.DEClash.Weighted>
0.0512

> <Gold.Chemscore.DEInternal.Weighted>
4.2484

> <Gold.Chemscore.Rot.Weighted>
3.7244

> <Gold.Chemscore.Internal.Correction.Weighted>
   9.000000E+99

> <Gold.Protein.RotatedTorsions>
[ 6907 6896 6895 6894 ] final   -1.73 input  -60.11 | X-H torsion
[ 7974 7965 7964 7962 ] final  174.41 input  175.53 | X-H torsion
[ 8008 7997 7996 7995 ] final  -84.25 input   59.86 | X-H torsion
[ 10167 10162 10161 10158 ] final   14.81 input  -65.29 | X-H torsion
[ 10718 10713 10712 10709 ] final  100.01 input   66.30 | X-H torsion
[ 10763 10752 10751 10750 ] final   13.57 input  -60.55 | X-H torsion
[ 11005 11000 10999 10996 ] final  148.75 input  -57.11 | X-H torsion

> <Gold.Protein.ActiveResidues>
 VAL166  LYS551  ARG553  GLY616  TRP617  ASP618  TYR619  PRO620  LYS621  CYS622 
 ASP623  PHE694  ASN695  SER759  ASP760  ASP761  ALA762  ILE779  LEU786  VAL792 
 PHE793  MET794  SER795  GLU796  ALA797  LYS798  CYS799  TRP800  GLU811  SER814 

> <Gold.Protein.RotatedAtoms>
  151.5413  135.1068  159.9926 H   0  0  0  0  0  0  0  0  0  0  0  0  # atno 6907 bound_to 6896
  152.4534  133.7670  159.6788 H   0  0  0  0  0  0  0  0  0  0  0  0  # atno 6908 bound_to 6896
  150.8469  133.7781  159.3064 H   0  0  0  0  0  0  0  0  0  0  0  0  # atno 6909 bound_to 6896
  144.7222  139.9792  143.6438 H   0  0  0  0  0  0  0  0  0  0  0  0  # atno 7974 bound_to 7965
  154.6278  140.0607  156.9695 H   0  0  0  0  0  0  0  0  0  0  0  0  # atno 8008 bound_to 7997
  155.1713  140.3291  155.4373 H   0  0  0  0  0  0  0  0  0  0  0  0  # atno 8009 bound_to 7997
  156.2467  140.1913  156.6815 H   0  0  0  0  0  0  0  0  0  0  0  0  # atno 8010 bound_to 7997
  140.5910  143.8795  150.6874 H   0  0  0  0  0  0  0  0  0  0  0  0  # atno 10167 bound_to 10162
  157.6863  131.0686  150.5035 H   0  0  0  0  0  0  0  0  0  0  0  0  # atno 10718 bound_to 10713
  153.1708  135.6812  153.8611 H   0  0  0  0  0  0  0  0  0  0  0  0  # atno 10763 bound_to 10752
  153.7976  135.3160  155.3387 H   0  0  0  0  0  0  0  0  0  0  0  0  # atno 10764 bound_to 10752
  154.7996  135.4786  154.0336 H   0  0  0  0  0  0  0  0  0  0  0  0  # atno 10765 bound_to 10752
  140.0986  134.8997  157.1762 H   0  0  0  0  0  0  0  0  0  0  0  0  # atno 11005 bound_to 11000
  146.0501  139.3503  143.0645 LP  0  0  0  0  0  0  0  0  0  0  0  0  # atno 17320 bound_to 7965
  145.8226  140.9671  143.0891 LP  0  0  0  0  0  0  0  0  0  0  0  0  # atno 17321 bound_to 7965
  140.2318  143.3730  152.1559 LP  0  0  0  0  0  0  0  0  0  0  0  0  # atno 17342 bound_to 10162
  139.5227  144.7063  151.5345 LP  0  0  0  0  0  0  0  0  0  0  0  0  # atno 17343 bound_to 10162
  156.5356  130.4195  149.6179 LP  0  0  0  0  0  0  0  0  0  0  0  0  # atno 17370 bound_to 10713
  156.3031  130.7187  151.2064 LP  0  0  0  0  0  0  0  0  0  0  0  0  # atno 17371 bound_to 10713
  140.3251  134.2873  155.7238 LP  0  0  0  0  0  0  0  0  0  0  0  0  # atno 17394 bound_to 11000
  141.2099  133.7734  156.9965 LP  0  0  0  0  0  0  0  0  0  0  0  0  # atno 17395 bound_to 11000

$$$$
