#       Name:                AV-unprocessed.smi:1202
#       Creating user name   scv26
#       Creation time:       Fri Mar 27 04:05:14 2020


#       File generated by GOLD software.
#

@<TRIPOS>MOLECULE
AV-unprocessed.smi:1202
    51    52     1
SMALL
NO_CHARGES


@<TRIPOS>ATOM
      1 ****        -7.3867   0.6284   1.2425 C.3            1 S1                 0.0000
      2 ****        -6.3749   0.0280   0.3866 N.am           1 S1                 0.0000
      3 ****        -5.1343  -0.2808   0.7893 C.2            1 S1                 0.0000
      4 ****        -4.7302  -0.0902   1.9370 O.2            1 S1                 0.0000
      5 ****        -4.2201  -0.9170  -0.2630 C.3            1 S1                 0.0000
      6 ****        -2.7808  -0.8548   0.1007 N.4            1 S1                 1.0000
      7 ****        -2.1792   0.4880  -0.1190 C.3            1 S1                 0.0000
      8 ****        -0.7345   0.5402   0.4047 C.3            1 S1                 0.0000
      9 ****         0.1321  -0.5535  -0.2466 C.3            1 S1                 0.0000
     10 ****         1.4749  -0.5665   0.3253 N.am           1 S1                 0.0000
     11 ****         2.4770   0.2504  -0.0338 C.2            1 S1                 0.0000
     12 ****         2.3547   1.1325  -0.8848 O.2            1 S1                 0.0000
     13 ****         3.8094   0.0421   0.7003 C.3            1 S1                 0.0000
     14 ****         4.9725   0.5549  -0.0432 N.am           1 S1                 0.0000
     15 ****         5.4672   1.8202   0.3311 C.2            1 S1                 0.0000
     16 ****         6.5237   2.3786  -0.2804 C.2            1 S1                 0.0000
     17 ****         7.1590   1.6465  -1.3504 C.2            1 S1                 0.0000
     18 ****         6.6916   0.4372  -1.7190 C.2            1 S1                 0.0000
     19 ****         5.5352  -0.1757  -1.0551 C.2            1 S1                 0.0000
     20 ****         5.0988  -1.2781  -1.3876 O.2            1 S1                 0.0000
     21 ****        -0.5326  -1.9245  -0.0444 C.3            1 S1                 0.0000
     22 ****        -1.9831  -1.9222  -0.5551 C.3            1 S1                 0.0000
     23 ****        -8.3144   0.7596   0.6856 H              1 S1                 0.0000
     24 ****        -7.0622   1.6066   1.5997 H              1 S1                 0.0000
     25 ****        -7.5940  -0.0062   2.1050 H              1 S1                 0.0000
     26 ****        -6.6368  -0.1654  -0.5696 H              1 S1                 0.0000
     27 ****        -4.5313  -1.9586  -0.3542 H              1 S1                 0.0000
     28 ****        -4.3806  -0.4558  -1.2390 H              1 S1                 0.0000
     29 ****        -2.1996   0.7274  -1.1835 H              1 S1                 0.0000
     30 ****        -2.7696   1.2530   0.3861 H              1 S1                 0.0000
     31 ****        -0.3109   1.5257   0.2078 H              1 S1                 0.0000
     32 ****        -0.7374   0.4164   1.4888 H              1 S1                 0.0000
     33 ****         0.2025  -0.3625  -1.3195 H              1 S1                 0.0000
     34 ****         1.6626  -1.2584   1.0366 H              1 S1                 0.0000
     35 ****         3.7364   0.5219   1.6773 H              1 S1                 0.0000
     36 ****         3.9444  -1.0200   0.9140 H              1 S1                 0.0000
     37 ****         4.9327   2.3048   1.1353 H              1 S1                 0.0000
     38 ****         6.8866   3.3514   0.0178 H              1 S1                 0.0000
     39 ****         8.0125   2.0708  -1.8585 H              1 S1                 0.0000
     40 ****         7.1789  -0.0957  -2.5222 H              1 S1                 0.0000
     41 ****         0.0385  -2.6967  -0.5613 H              1 S1                 0.0000
     42 ****        -0.5237  -2.1901   1.0140 H              1 S1                 0.0000
     43 ****        -2.4328  -2.8953  -0.3538 H              1 S1                 0.0000
     44 ****        -2.0028  -1.7802  -1.6369 H              1 S1                 0.0000
     45 ****        -2.7370  -1.0375   1.0936 H              1 S1                 0.0000
     46 ****        -5.3383   0.3135   2.6206 LP             1 S1                 0.0000
     47 ****        -3.7941  -0.3391   2.1853 LP             1 S1                 0.0000
     48 ****         1.4764   1.2659  -1.3441 LP             1 S1                 0.0000
     49 ****         3.1336   1.7153  -1.1163 LP             1 S1                 0.0000
     50 ****         4.3086  -1.6667  -0.9136 LP             1 S1                 0.0000
     51 ****         5.5345  -1.7847  -2.1315 LP             1 S1                 0.0000
@<TRIPOS>BOND
    1    1    2 1     
    2    1   23 1     
    3    1   24 1     
    4    1   25 1     
    5    2    3 am    
    6    2   26 1     
    7    3    4 2     
    8    3    5 1     
    9    5    6 1     
   10    5   27 1     
   11    5   28 1     
   12    6   22 1     
   13    6    7 1     
   14    6   45 1     
   15    7    8 1     
   16    7   29 1     
   17    7   30 1     
   18    8    9 1     
   19    8   31 1     
   20    8   32 1     
   21    9   10 1     
   22    9   21 1     
   23    9   33 1     
   24   10   11 am    
   25   10   34 1     
   26   11   12 2     
   27   11   13 1     
   28   13   14 1     
   29   13   35 1     
   30   13   36 1     
   31   14   19 am    
   32   14   15 1     
   33   15   16 2     
   34   15   37 1     
   35   16   17 1     
   36   16   38 1     
   37   17   18 2     
   38   17   39 1     
   39   18   19 1     
   40   18   40 1     
   41   19   20 2     
   42   21   22 1     
   43   21   41 1     
   44   21   42 1     
   45   22   43 1     
   46   22   44 1     
   47    4   46 1     
   48    4   47 1     
   49   12   48 1     
   50   12   49 1     
   51   20   50 1     
   52   20   51 1     
@<TRIPOS>SUBSTRUCTURE
      1 S1             1
@<TRIPOS>SET
LONE_PAIRS      STATIC     ATOMS    <user>   **** ""
6 46 47 48 49 50 51
DONOR_HYDROGENS      STATIC     ATOMS    <user>   **** ""
3 26 45 34
ATOM$BLUE        STATIC     ATOMS    COLORGROUP SYSTEM
6 46 47 48 49 50 51
ATOM$RED        STATIC     ATOMS    COLORGROUP SYSTEM
3 26 45 34
