#       Name:                AV-unprocessed.smi:371
#       Creating user name   scv26
#       Creation time:       Thu Mar 26 22:38:20 2020


#       File generated by GOLD software.
#

@<TRIPOS>MOLECULE
AV-unprocessed.smi:371
    45    46     1
SMALL
NO_CHARGES


@<TRIPOS>ATOM
      1 ****        -4.9505   0.5306   0.7665 C.3            1 S1                 0.0000
      2 ****        -3.4599   0.2137   0.7598 C.2            1 S1                 0.0000
      3 ****        -2.5350   1.3106   0.9257 C.2            1 S1                 0.0000
      4 ****        -1.2079   1.1146   0.8733 C.2            1 S1                 0.0000
      5 ****        -0.2429   2.2838   1.0357 C.3            1 S1                 0.0000
      6 ****        -0.6781  -0.1907   0.6765 N.am           1 S1                 0.0000
      7 ****         0.7904  -0.3826   0.6044 C.3            1 S1                 0.0000
      8 ****         1.3344  -0.2000  -0.8330 C.3            1 S1                 0.0000
      9 ****         1.0941  -1.3812  -1.5726 O.3            1 S1                 0.0000
     10 ****         2.8210   0.1336  -0.8185 C.ar           1 S1                 0.0000
     11 ****         3.7611  -0.8465  -0.4271 C.ar           1 S1                 0.0000
     12 ****         5.1372  -0.5484  -0.4090 C.ar           1 S1                 0.0000
     13 ****         5.5844   0.7333  -0.7801 C.ar           1 S1                 0.0000
     14 ****         4.6542   1.7162  -1.1677 C.ar           1 S1                 0.0000
     15 ****         3.2770   1.4204  -1.1879 C.ar           1 S1                 0.0000
     16 ****         2.4002   2.3812  -1.5662 F              1 S1                 0.0000
     17 ****        -1.4856  -1.2939   0.5615 C.2            1 S1                 0.0000
     18 ****        -0.9900  -2.4221   0.4745 O.2            1 S1                 0.0000
     19 ****        -2.9520  -1.0342   0.5700 C.2            1 S1                 0.0000
     20 ****        -3.8325  -2.2059   0.3899 C.2            1 S1                 0.0000
     21 ****        -3.4861  -3.0330  -0.6061 N.am           1 S1                 0.0000
     22 ****        -4.8649  -2.4134   1.0255 O.2            1 S1                 0.0000
     23 ****        -5.1248   1.6067   0.7464 H              1 S1                 0.0000
     24 ****        -5.4219   0.1361   1.6669 H              1 S1                 0.0000
     25 ****        -5.4469   0.1046  -0.1060 H              1 S1                 0.0000
     26 ****        -2.9191   2.3081   1.0840 H              1 S1                 0.0000
     27 ****        -0.7714   3.2340   0.9531 H              1 S1                 0.0000
     28 ****         0.5323   2.2909   0.2720 H              1 S1                 0.0000
     29 ****         0.2270   2.2566   2.0191 H              1 S1                 0.0000
     30 ****         1.2815   0.3224   1.2734 H              1 S1                 0.0000
     31 ****         1.1121  -1.3434   1.0107 H              1 S1                 0.0000
     32 ****         0.7937   0.6025  -1.3345 H              1 S1                 0.0000
     33 ****         1.3582  -1.2329  -2.4678 H              1 S1                 0.0000
     34 ****         3.4279  -1.8327  -0.1385 H              1 S1                 0.0000
     35 ****         5.8494  -1.3035  -0.1103 H              1 S1                 0.0000
     36 ****         6.6397   0.9628  -0.7674 H              1 S1                 0.0000
     37 ****         4.9976   2.7001  -1.4514 H              1 S1                 0.0000
     38 ****        -4.0508  -3.8460  -0.8058 H              1 S1                 0.0000
     39 ****        -2.6722  -2.8285  -1.1673 H              1 S1                 0.0000
     40 ****         0.1204  -1.6069  -1.5410 LP             1 S1                 0.0000
     41 ****         1.6238  -2.1356  -1.1850 LP             1 S1                 0.0000
     42 ****         0.0036  -2.5341   0.4878 LP             1 S1                 0.0000
     43 ****        -1.5825  -3.2234   0.3909 LP             1 S1                 0.0000
     44 ****        -5.1614  -1.7622   1.7241 LP             1 S1                 0.0000
     45 ****        -5.4078  -3.2333   0.8437 LP             1 S1                 0.0000
@<TRIPOS>BOND
    1    1    2 1     
    2    1   23 1     
    3    1   24 1     
    4    1   25 1     
    5    2   19 2     
    6    2    3 1     
    7    3    4 2     
    8    3   26 1     
    9    4    5 1     
   10    4    6 1     
   11    5   27 1     
   12    5   28 1     
   13    5   29 1     
   14    6    7 1     
   15    6   17 am    
   16    7    8 1     
   17    7   30 1     
   18    7   31 1     
   19    8    9 1     
   20    8   10 1     
   21    8   32 1     
   22    9   33 1     
   23   10   15 ar    
   24   10   11 ar    
   25   11   12 ar    
   26   11   34 1     
   27   12   13 ar    
   28   12   35 1     
   29   13   14 ar    
   30   13   36 1     
   31   14   15 ar    
   32   14   37 1     
   33   15   16 1     
   34   17   18 2     
   35   17   19 1     
   36   19   20 1     
   37   20   21 am    
   38   20   22 2     
   39   21   38 1     
   40   21   39 1     
   41    9   40 1     
   42    9   41 1     
   43   18   42 1     
   44   18   43 1     
   45   22   44 1     
   46   22   45 1     
@<TRIPOS>SUBSTRUCTURE
      1 S1             1
@<TRIPOS>SET
LONE_PAIRS      STATIC     ATOMS    <user>   **** ""
6 40 41 42 43 44 45
DONOR_HYDROGENS      STATIC     ATOMS    <user>   **** ""
3 33 38 39
ATOM$BLUE        STATIC     ATOMS    COLORGROUP SYSTEM
6 40 41 42 43 44 45
ATOM$RED        STATIC     ATOMS    COLORGROUP SYSTEM
3 33 38 39
