AV-unprocessed.smi:1033|AV-procd|sdf|4510|dock9
  -GOLD-   22720 2513D 1   1.00000     0.00000
 Structure written by MMmdl.
 57 59  0  0  0  0  0  0  0  0  3 V2000
  152.9510  142.7240  161.4942 C   0  0  0  0  0  0  0  0  0  0  0  0
  152.3916  142.4713  160.1052 C   0  0  0  0  0  0  0  0  0  0  0  0
  152.7893  141.3100  159.4048 C   0  0  0  0  0  0  0  0  0  0  0  0
  152.2916  141.0379  158.1117 C   0  0  0  0  0  0  0  0  0  0  0  0
  152.5396  139.9785  157.2556 N   0  0  0  0  0  0  0  0  0  0  0  0
  151.7808  140.2939  156.2099 C   0  0  0  0  0  0  0  0  0  0  0  0
  151.0625  141.4308  156.2912 N   0  0  0  0  0  0  0  0  0  0  0  0
  150.1594  141.9768  155.2946 C   0  0  0  0  0  0  0  0  0  0  0  0
  149.2273  140.9001  154.7074 C   0  0  2  0  0  0  0  0  0  0  0  0
  149.9600  140.0901  153.8084 O   0  0  0  0  0  0  0  0  0  0  0  0
  148.0316  141.5183  153.9565 C   0  0  0  0  0  0  0  0  0  0  0  0
  147.0756  142.2014  154.8665 N   0  3  2  0  0  0  0  0  0  0  0  0
  146.8510  141.4434  156.1227 C   0  0  0  0  0  0  0  0  0  0  0  0
  145.9253  142.2119  157.0886 C   0  0  0  0  0  0  0  0  0  0  0  0
  144.6441  142.6097  156.4473 N   0  3  2  0  0  0  0  0  0  0  0  0
  143.6470  141.5130  156.3112 C   0  0  0  0  0  0  0  0  0  0  0  0
  142.5026  141.8775  155.3448 C   0  0  2  0  0  0  0  0  0  0  0  0
  141.3602  142.6168  156.0530 C   0  0  0  0  0  0  0  0  0  0  0  0
  141.9781  140.6927  154.7806 O   0  0  0  0  0  0  0  0  0  0  0  0
  144.8872  143.3524  155.1853 C   0  0  0  0  0  0  0  0  0  0  0  0
  145.7869  142.5596  154.2188 C   0  0  0  0  0  0  0  0  0  0  0  0
  151.3759  141.9658  157.5356 C   0  0  0  0  0  0  0  0  0  0  0  0
  150.9748  143.1265  158.2206 C   0  0  0  0  0  0  0  0  0  0  0  0
  151.4831  143.3839  159.5107 C   0  0  0  0  0  0  0  0  0  0  0  0
  151.0463  144.6410  160.2421 C   0  0  0  0  0  0  0  0  0  0  0  0
  153.6220  141.9228  161.8051 H   0  0  0  0  0  0  0  0  0  0  0  0
  152.1453  142.7874  162.2259 H   0  0  0  0  0  0  0  0  0  0  0  0
  153.5129  143.6581  161.5154 H   0  0  0  0  0  0  0  0  0  0  0  0
  153.4827  140.6161  159.8567 H   0  0  0  0  0  0  0  0  0  0  0  0
  151.7386  139.6578  155.3375 H   0  0  0  0  0  0  0  0  0  0  0  0
  149.5741  142.7658  155.7687 H   0  0  0  0  0  0  0  0  0  0  0  0
  150.7463  142.4527  154.5073 H   0  0  0  0  0  0  0  0  0  0  0  0
  148.8765  140.2691  155.5229 H   0  0  0  0  0  0  0  0  0  0  0  0
  149.5414  140.1264  152.9608 H   0  0  0  0  0  0  0  0  0  0  0  0
  148.3776  142.2255  153.2013 H   0  0  0  0  0  0  0  0  0  0  0  0
  147.5174  140.7223  153.4150 H   0  0  0  0  0  0  0  0  0  0  0  0
  146.4336  140.4636  155.8869 H   0  0  0  0  0  0  0  0  0  0  0  0
  147.8071  141.2634  156.6159 H   0  0  0  0  0  0  0  0  0  0  0  0
  145.7479  141.6261  157.9896 H   0  0  0  0  0  0  0  0  0  0  0  0
  146.4309  143.1205  157.4185 H   0  0  0  0  0  0  0  0  0  0  0  0
  144.1380  140.6133  155.9367 H   0  0  0  0  0  0  0  0  0  0  0  0
  143.2472  141.2490  157.2905 H   0  0  0  0  0  0  0  0  0  0  0  0
  142.8681  142.5078  154.5347 H   0  0  0  0  0  0  0  0  0  0  0  0
  141.7115  143.5514  156.4916 H   0  0  0  0  0  0  0  0  0  0  0  0
  140.9300  142.0147  156.8543 H   0  0  0  0  0  0  0  0  0  0  0  0
  140.5592  142.8636  155.3550 H   0  0  0  0  0  0  0  0  0  0  0  0
  142.5159  140.4405  154.0449 H   0  0  0  0  0  0  0  0  0  0  0  0
  143.9422  143.6131  154.7071 H   0  0  0  0  0  0  0  0  0  0  0  0
  145.3699  144.2991  155.4329 H   0  0  0  0  0  0  0  0  0  0  0  0
  145.9611  143.1646  153.3301 H   0  0  0  0  0  0  0  0  0  0  0  0
  145.2793  141.6531  153.8853 H   0  0  0  0  0  0  0  0  0  0  0  0
  150.2828  143.8133  157.7565 H   0  0  0  0  0  0  0  0  0  0  0  0
  150.3429  145.2240  159.6468 H   0  0  0  0  0  0  0  0  0  0  0  0
  151.9067  145.2746  160.4585 H   0  0  0  0  0  0  0  0  0  0  0  0
  150.5574  144.3869  161.1827 H   0  0  0  0  0  0  0  0  0  0  0  0
  144.2058  143.2723  157.0724 H   0  0  0  0  0  0  0  0  0  0  0  0
  147.5226  143.0671  155.1355 H   0  0  0  0  0  0  0  0  0  0  0  0
  1  2  1  0  0  0  0
  1 26  1  0  0  0  0
  1 27  1  0  0  0  0
  1 28  1  0  0  0  0
  2 24  1  0  0  0  0
  2  3  2  0  0  0  0
  3  4  1  0  0  0  0
  3 29  1  0  0  0  0
  4 22  2  0  0  0  0
  4  5  1  0  0  0  0
  5  6  2  0  0  0  0
  6  7  1  0  0  0  0
  6 30  1  0  0  0  0
  7  8  1  0  0  0  0
  7 22  1  0  0  0  0
  8  9  1  0  0  0  0
  8 31  1  0  0  0  0
  8 32  1  0  0  0  0
  9 10  1  0  0  0  0
  9 11  1  0  0  0  0
  9 33  1  0  0  0  0
 10 34  1  0  0  0  0
 11 12  1  0  0  0  0
 11 35  1  0  0  0  0
 11 36  1  0  0  0  0
 12 21  1  0  0  0  0
 12 13  1  0  0  0  0
 12 57  1  0  0  0  0
 13 14  1  0  0  0  0
 13 37  1  0  0  0  0
 13 38  1  0  0  0  0
 14 15  1  0  0  0  0
 14 39  1  0  0  0  0
 14 40  1  0  0  0  0
 15 16  1  0  0  0  0
 15 20  1  0  0  0  0
 15 56  1  0  0  0  0
 16 17  1  0  0  0  0
 16 41  1  0  0  0  0
 16 42  1  0  0  0  0
 17 18  1  0  0  0  0
 17 19  1  0  0  0  0
 17 43  1  0  0  0  0
 18 44  1  0  0  0  0
 18 45  1  0  0  0  0
 18 46  1  0  0  0  0
 19 47  1  0  0  0  0
 20 21  1  0  0  0  0
 20 48  1  0  0  0  0
 20 49  1  0  0  0  0
 21 50  1  0  0  0  0
 21 51  1  0  0  0  0
 22 23  1  0  0  0  0
 23 24  2  0  0  0  0
 23 52  1  0  0  0  0
 24 25  1  0  0  0  0
 25 53  1  0  0  0  0
 25 54  1  0  0  0  0
 25 55  1  0  0  0  0
M  CHG  1  12   1
M  CHG  1  15   1
M  END
> <s_m_source_file>
AV-unprocessed.smi

> <i_m_source_file_index>
1033

> <i_lp_mmshare_version>
43012

> <i_f3d_flags>
0

> <s_epik_input>
W0NIM11jKFtjSF0xKWMoW0NIM10pW2NIXWMoYzEyKW4oW2NIXW4yKVtDSDJdW0NASF0oW09IXSlbQ0gyXU4zW0NIMl1bQ0gyXU4oW0NIMl1bQ0gyXTMpW0NIMl1bQ0BIXShbQ0gzXSlbT0hd

> <s_epik_cmdline>
J2VwaWtfcHl0aG9uJywgJy1waCcsICc3LjAnLCAnLXRuJywgJzgnLCAnLW1hJywgJzIwMCcsICctbWV0YWxfYmluZGluZycsICctaW1hZScsICc8aW5maWxlLm1hZT4nLCAnLW9tYWUnLCAnPG91dGZpbGUubWFlPic=

> <r_epik_Ionization_Penalty>
3.16016

> <r_epik_Ionization_Penalty_Charging>
3.07679

> <r_epik_Ionization_Penalty_Neutral>
0.083365

> <r_epik_State_Penalty>
2.09701

> <r_epik_Charging_Adjusted_Penalty>
5.1738

> <i_epik_Tot_Q>
2

> <i_epik_Tot_abs_Q>
2

> <r_epik_Metal_State_Penalty>
2.02534

> <b_epik_Metal_Only>
0

> <s_lp_Force_Field>
OPLS_2005

> <r_lp_Energy>
28.3009

> <b_lp_Chiralities_Consistent>
1

> <s_lp_Variant>
AV-unprocessed.smi:1033-21

> <Gold.Version>
5.8.1

> <Gold.Id.Protein>
6NUR|6NUR_protein|mol2

> <Gold.PLP.Fitness>
64.2512

> <Gold.PLP.PLP>
-48.4661

> <Gold.PLP.part.hbond>
-6.0000

> <Gold.PLP.part.metal>
0.0000

> <Gold.PLP.part.buried>
-4.0293

> <Gold.PLP.part.nonpolar>
-36.8517

> <Gold.PLP.part.repulsive>
0.1111

> <Gold.PLP.ligand.clash>
0.0000

> <Gold.PLP.ligand.torsion>
0.9547

> <Gold.PLP.Chemscore.Hbond>
5.8320

> <Gold.PLP.Chemscore.CHOScore>
0.0000

> <Gold.PLP.Chemscore.Metal>
0.0000

> <Gold.Chemscore.Hbonds>
donor molecule, donor type, donor heavy atom, donor atom, acceptor molecule, acceptor atom, score
      L1  H    10    34       P1  7957  1.00
      L1  H    12    57       P1  8028  1.33
      L1  H    19    47       P1 10175  1.00
      P1  H  7989  7998       L1    10  0.78
      P1  H  7997  8009       L1     5  1.00

> <Gold.PLP.Chemscore.Internal.Correction>
0.1985

> <Gold.Rescore>
     Score         DG    S(hbond)    S(metal)    S(lipo)     H(rot)  DE(clash)    DE(int)     intcor
     17.53     -22.11       3.11        0.00     122.02       3.14       2.65       1.92       ----

> <Gold.Chemscore.Fitness>
17.5333

> <Gold.Chemscore.DG>
-22.1117

> <Gold.Chemscore.ZeroCoef>
-5.4800

> <Gold.Chemscore.Hbond>
3.1105

> <Gold.Chemscore.Metal>
0.0000

> <Gold.Chemscore.Lipo>
122.0152

> <Gold.Chemscore.Internal_Hbond>
0.0000

> <Gold.Chemscore.DEClash>
2.6544

> <Gold.Chemscore.DEInternal>
1.9240

> <Gold.Chemscore.Rot>
3.1380

> <Gold.Chemscore.Internal.Correction>
   9.000000E+99

> <Gold.Chemscore.Hbonds>
donor molecule, donor type, donor heavy atom, donor atom, acceptor molecule, acceptor atom, score
      L1  H    10    34       P1  7957  0.95
      L1  H    12    57       P1  8028  0.26
      L1  H    19    47       P1 10175  0.78
      P1  H  7989  7998       L1    10  0.20
      P1  H  7997  8009       L1     5  0.36

> <Gold.Chemscore.Hbond.Weighted>
-10.3891

> <Gold.Chemscore.Metal.Weighted>
-0.0000

> <Gold.Chemscore.Lipo.Weighted>
-14.2758

> <Gold.Chemscore.Internal_Hbond.Weighted>
0.0000

> <Gold.Chemscore.DEClash.Weighted>
2.6544

> <Gold.Chemscore.DEInternal.Weighted>
1.9240

> <Gold.Chemscore.Rot.Weighted>
8.0332

> <Gold.Chemscore.Internal.Correction.Weighted>
   9.000000E+99

> <Gold.Protein.RotatedTorsions>
[ 6907 6896 6895 6894 ] final -132.16 input  -60.11 | X-H torsion
[ 7974 7965 7964 7962 ] final  170.80 input  175.53 | X-H torsion
[ 8008 7997 7996 7995 ] final  179.38 input   59.86 | X-H torsion
[ 10167 10162 10161 10158 ] final  -30.15 input  -65.29 | X-H torsion
[ 10718 10713 10712 10709 ] final  178.04 input   66.30 | X-H torsion
[ 10763 10752 10751 10750 ] final  -56.75 input  -60.55 | X-H torsion
[ 11005 11000 10999 10996 ] final  171.99 input  -57.11 | X-H torsion

> <Gold.Protein.ActiveResidues>
 VAL166  LYS551  ARG553  GLY616  TRP617  ASP618  TYR619  PRO620  LYS621  CYS622 
 ASP623  PHE694  ASN695  SER759  ASP760  ASP761  ALA762  ILE779  LEU786  VAL792 
 PHE793  MET794  SER795  GLU796  ALA797  LYS798  CYS799  TRP800  GLU811  SER814 

> <Gold.Protein.RotatedAtoms>
  150.9592  133.6464  159.2757 H   0  0  0  0  0  0  0  0  0  0  0  0  # atno 6907 bound_to 6896
  151.3793  135.0935  159.9500 H   0  0  0  0  0  0  0  0  0  0  0  0  # atno 6908 bound_to 6896
  152.5141  133.9130  159.7551 H   0  0  0  0  0  0  0  0  0  0  0  0  # atno 6909 bound_to 6896
  144.7313  139.9256  143.6422 H   0  0  0  0  0  0  0  0  0  0  0  0  # atno 7974 bound_to 7965
  156.0440  140.1310  157.0124 H   0  0  0  0  0  0  0  0  0  0  0  0  # atno 8008 bound_to 7997
  154.4404  140.1024  156.6349 H   0  0  0  0  0  0  0  0  0  0  0  0  # atno 8009 bound_to 7997
  155.5624  140.3465  155.4497 H   0  0  0  0  0  0  0  0  0  0  0  0  # atno 8010 bound_to 7997
  140.7252  143.3871  151.1495 H   0  0  0  0  0  0  0  0  0  0  0  0  # atno 10167 bound_to 10162
  156.8965  130.9864  151.3042 H   0  0  0  0  0  0  0  0  0  0  0  0  # atno 10718 bound_to 10713
  154.2115  135.6393  153.5117 H   0  0  0  0  0  0  0  0  0  0  0  0  # atno 10763 bound_to 10752
  152.9989  135.5475  154.6209 H   0  0  0  0  0  0  0  0  0  0  0  0  # atno 10764 bound_to 10752
  154.5647  135.2912  155.0858 H   0  0  0  0  0  0  0  0  0  0  0  0  # atno 10765 bound_to 10752
  140.3249  134.7406  157.4092 H   0  0  0  0  0  0  0  0  0  0  0  0  # atno 11005 bound_to 11000
  146.0896  139.3886  143.0414 LP  0  0  0  0  0  0  0  0  0  0  0  0  # atno 17320 bound_to 7965
  145.7729  140.9889  143.1140 LP  0  0  0  0  0  0  0  0  0  0  0  0  # atno 17321 bound_to 7965
  139.7470  143.8836  152.3066 LP  0  0  0  0  0  0  0  0  0  0  0  0  # atno 17342 bound_to 10162
  139.8677  144.7084  150.9024 LP  0  0  0  0  0  0  0  0  0  0  0  0  # atno 17343 bound_to 10162
  157.6052  130.8542  149.8864 LP  0  0  0  0  0  0  0  0  0  0  0  0  # atno 17370 bound_to 10713
  156.0603  130.3701  150.0997 LP  0  0  0  0  0  0  0  0  0  0  0  0  # atno 17371 bound_to 10713
  140.0910  134.5601  155.8444 LP  0  0  0  0  0  0  0  0  0  0  0  0  # atno 17394 bound_to 11000
  141.2077  133.6667  156.6326 LP  0  0  0  0  0  0  0  0  0  0  0  0  # atno 17395 bound_to 11000

$$$$
