AV-unprocessed.smi:1328|AV-procd|sdf|5482|dock9
  -GOLD-   22720 5 53D 1   1.00000     0.00000
 Structure written by MMmdl.
 38 39  0  0  0  0  0  0  0  0  1 V2000
  149.6340  130.5921  155.1427 C   0  0  0  0  0  0  0  0  0  0  0  0
  149.9164  131.9131  155.7993 C   0  0  0  0  0  0  0  0  0  0  0  0
  150.2775  131.9463  157.0711 N   0  0  0  0  0  0  0  0  0  0  0  0
  150.4679  133.2967  157.3802 O   0  0  0  0  0  0  0  0  0  0  0  0
  150.2090  134.0321  156.2691 C   0  0  0  0  0  0  0  0  0  0  0  0
  150.3641  135.5105  156.3905 C   0  0  0  0  0  0  0  0  0  0  0  0
  149.8512  133.2175  155.2304 C   0  0  0  0  0  0  0  0  0  0  0  0
  149.4825  133.6005  153.8209 C   0  0  0  0  0  0  0  0  0  0  0  0
  148.0056  133.2912  153.5770 C   0  0  0  0  0  0  0  0  0  0  0  0
  147.5200  132.2414  153.9977 O   0  0  0  0  0  0  0  0  0  0  0  0
  147.3057  134.2186  152.9044 N   0  0  0  0  0  0  0  0  0  0  0  0
  145.8767  134.1672  152.6028 C   0  0  1  0  0  0  0  0  0  0  0  0
  145.4794  135.4737  151.9008 C   0  0  0  0  0  0  0  0  0  0  0  0
  145.5459  132.9310  151.7409 C   0  0  1  0  0  0  0  0  0  0  0  0
  144.1268  132.8956  151.1706 C   0  0  0  0  0  0  0  0  0  0  0  0
  144.2557  132.0013  149.9482 C   0  0  0  0  0  0  0  0  0  0  0  0
  145.7615  131.9625  149.6727 C   0  0  0  0  0  0  0  0  0  0  0  0
  146.3307  132.9168  150.5588 O   0  0  0  0  0  0  0  0  0  0  0  0
  148.5629  130.4513  154.9990 H   0  0  0  0  0  0  0  0  0  0  0  0
  150.0021  129.7573  155.7400 H   0  0  0  0  0  0  0  0  0  0  0  0
  150.1116  130.5300  154.1649 H   0  0  0  0  0  0  0  0  0  0  0  0
  151.2629  135.8457  155.8728 H   0  0  0  0  0  0  0  0  0  0  0  0
  150.4417  135.8138  157.4348 H   0  0  0  0  0  0  0  0  0  0  0  0
  149.5093  136.0263  155.9529 H   0  0  0  0  0  0  0  0  0  0  0  0
  149.6783  134.6572  153.6326 H   0  0  0  0  0  0  0  0  0  0  0  0
  150.0767  133.0499  153.0908 H   0  0  0  0  0  0  0  0  0  0  0  0
  147.7998  135.0429  152.5951 H   0  0  0  0  0  0  0  0  0  0  0  0
  145.3066  134.1075  153.5317 H   0  0  0  0  0  0  0  0  0  0  0  0
  144.4096  135.4995  151.6922 H   0  0  0  0  0  0  0  0  0  0  0  0
  146.0055  135.5924  150.9530 H   0  0  0  0  0  0  0  0  0  0  0  0
  145.7119  136.3394  152.5218 H   0  0  0  0  0  0  0  0  0  0  0  0
  145.7403  132.0145  152.3018 H   0  0  0  0  0  0  0  0  0  0  0  0
  143.3913  132.5307  151.8880 H   0  0  0  0  0  0  0  0  0  0  0  0
  143.8237  133.8956  150.8569 H   0  0  0  0  0  0  0  0  0  0  0  0
  143.8787  130.9979  150.1489 H   0  0  0  0  0  0  0  0  0  0  0  0
  143.6972  132.4072  149.1043 H   0  0  0  0  0  0  0  0  0  0  0  0
  146.1664  130.9749  149.8986 H   0  0  0  0  0  0  0  0  0  0  0  0
  146.0038  132.2007  148.6369 H   0  0  0  0  0  0  0  0  0  0  0  0
  1  2  1  0  0  0  0
  1 19  1  0  0  0  0
  1 20  1  0  0  0  0
  1 21  1  0  0  0  0
  2  7  1  0  0  0  0
  2  3  2  0  0  0  0
  3  4  1  0  0  0  0
  4  5  1  0  0  0  0
  5  6  1  0  0  0  0
  5  7  2  0  0  0  0
  6 22  1  0  0  0  0
  6 23  1  0  0  0  0
  6 24  1  0  0  0  0
  7  8  1  0  0  0  0
  8  9  1  0  0  0  0
  8 25  1  0  0  0  0
  8 26  1  0  0  0  0
  9 10  2  0  0  0  0
  9 11  1  0  0  0  0
 11 12  1  0  0  0  0
 11 27  1  0  0  0  0
 12 13  1  0  0  0  0
 12 14  1  0  0  0  0
 12 28  1  0  0  0  0
 13 29  1  0  0  0  0
 13 30  1  0  0  0  0
 13 31  1  0  0  0  0
 14 18  1  0  0  0  0
 14 15  1  0  0  0  0
 14 32  1  0  0  0  0
 15 16  1  0  0  0  0
 15 33  1  0  0  0  0
 15 34  1  0  0  0  0
 16 17  1  0  0  0  0
 16 35  1  0  0  0  0
 16 36  1  0  0  0  0
 17 18  1  0  0  0  0
 17 37  1  0  0  0  0
 17 38  1  0  0  0  0
M  END
> <s_m_source_file>
AV-unprocessed.smi

> <i_m_source_file_index>
1328

> <i_lp_mmshare_version>
43012

> <i_f3d_flags>
0

> <s_epik_input>
W0NIM11jMW5vYyhbQ0gzXSljMVtDSDJdQyg9TylbTkhdW0NASF0oW0NIM10pW0NAQEhdMltDSDJdW0NIMl1bQ0gyXU8y

> <s_epik_cmdline>
J2VwaWtfcHl0aG9uJywgJy1waCcsICc3LjAnLCAnLXRuJywgJzgnLCAnLW1hJywgJzIwMCcsICctbWV0YWxfYmluZGluZycsICctaW1hZScsICc8aW5maWxlLm1hZT4nLCAnLW9tYWUnLCAnPG91dGZpbGUubWFlPic=

> <r_lp_tautomer_probability>
1

> <r_epik_Ionization_Penalty>
2.66156e-08

> <r_epik_Ionization_Penalty_Charging>
0

> <r_epik_Ionization_Penalty_Neutral>
2.66156e-08

> <r_epik_State_Penalty>
-0

> <r_epik_Charging_Adjusted_Penalty>
0

> <i_epik_Tot_Q>
0

> <i_epik_Tot_abs_Q>
0

> <r_epik_Metal_State_Penalty>
-0

> <b_epik_Metal_Only>
0

> <s_lp_Force_Field>
OPLS_2005

> <r_lp_Energy>
12.2386

> <b_lp_Chiralities_Consistent>
1

> <s_lp_Variant>
AV-unprocessed.smi:1328-4

> <Gold.Version>
5.8.1

> <Gold.Id.Protein>
6NUR|6NUR_protein|mol2

> <Gold.PLP.Fitness>
37.3679

> <Gold.PLP.PLP>
-32.0707

> <Gold.PLP.part.hbond>
-2.0000

> <Gold.PLP.part.metal>
0.0000

> <Gold.PLP.part.buried>
-5.4656

> <Gold.PLP.part.nonpolar>
-25.0450

> <Gold.PLP.part.repulsive>
0.2810

> <Gold.PLP.ligand.clash>
0.0000

> <Gold.PLP.ligand.torsion>
0.3669

> <Gold.PLP.Chemscore.Hbond>
2.0000

> <Gold.PLP.Chemscore.CHOScore>
0.0000

> <Gold.PLP.Chemscore.Metal>
0.0000

> <Gold.Chemscore.Hbonds>
donor molecule, donor type, donor heavy atom, donor atom, acceptor molecule, acceptor atom, score
      L1  H    11    27       P1  7948  1.00
      P1  H  6896  6908       L1     4  0.94

> <Gold.PLP.Chemscore.Internal.Correction>
0.0310

> <Gold.Rescore>
     Score         DG    S(hbond)    S(metal)    S(lipo)     H(rot)  DE(clash)    DE(int)     intcor
     15.57     -16.56       1.87        0.00      74.43       1.52       0.05       0.94       ----

> <Gold.Chemscore.Fitness>
15.5701

> <Gold.Chemscore.DG>
-16.5603

> <Gold.Chemscore.ZeroCoef>
-5.4800

> <Gold.Chemscore.Hbond>
1.8721

> <Gold.Chemscore.Metal>
0.0000

> <Gold.Chemscore.Lipo>
74.4298

> <Gold.Chemscore.Internal_Hbond>
0.0000

> <Gold.Chemscore.DEClash>
0.0516

> <Gold.Chemscore.DEInternal>
0.9385

> <Gold.Chemscore.Rot>
1.5159

> <Gold.Chemscore.Internal.Correction>
   9.000000E+99

> <Gold.Chemscore.Hbonds>
donor molecule, donor type, donor heavy atom, donor atom, acceptor molecule, acceptor atom, score
      L1  H    11    27       P1  7948  0.97
      P1  H  6896  6908       L1     4  0.67

> <Gold.Chemscore.Hbond.Weighted>
-6.2527

> <Gold.Chemscore.Metal.Weighted>
-0.0000

> <Gold.Chemscore.Lipo.Weighted>
-8.7083

> <Gold.Chemscore.Internal_Hbond.Weighted>
0.0000

> <Gold.Chemscore.DEClash.Weighted>
0.0516

> <Gold.Chemscore.DEInternal.Weighted>
0.9385

> <Gold.Chemscore.Rot.Weighted>
3.8807

> <Gold.Chemscore.Internal.Correction.Weighted>
   9.000000E+99

> <Gold.Protein.RotatedTorsions>
[ 6907 6896 6895 6894 ] final   92.29 input  -60.11 | X-H torsion
[ 7974 7965 7964 7962 ] final  -98.44 input  175.53 | X-H torsion
[ 8008 7997 7996 7995 ] final -171.66 input   59.86 | X-H torsion
[ 10167 10162 10161 10158 ] final -124.76 input  -65.29 | X-H torsion
[ 10718 10713 10712 10709 ] final  -66.51 input   66.30 | X-H torsion
[ 10763 10752 10751 10750 ] final  109.47 input  -60.55 | X-H torsion
[ 11005 11000 10999 10996 ] final  111.83 input  -57.11 | X-H torsion

> <Gold.Protein.ActiveResidues>
 VAL166  LYS551  ARG553  GLY616  TRP617  ASP618  TYR619  PRO620  LYS621  CYS622 
 ASP623  PHE694  ASN695  SER759  ASP760  ASP761  ALA762  ILE779  LEU786  VAL792 
 PHE793  MET794  SER795  GLU796  ALA797  LYS798  CYS799  TRP800  GLU811  SER814 

> <Gold.Protein.RotatedAtoms>
  152.5452  134.1525  159.8523 H   0  0  0  0  0  0  0  0  0  0  0  0  # atno 6907 bound_to 6896
  151.1550  133.4875  159.2602 H   0  0  0  0  0  0  0  0  0  0  0  0  # atno 6908 bound_to 6896
  151.1432  135.0201  159.8690 H   0  0  0  0  0  0  0  0  0  0  0  0  # atno 6909 bound_to 6896
  145.3206  140.9421  143.2718 H   0  0  0  0  0  0  0  0  0  0  0  0  # atno 7974 bound_to 7965
  155.9345  140.1097  157.1106 H   0  0  0  0  0  0  0  0  0  0  0  0  # atno 8008 bound_to 7997
  154.4077  140.1231  156.4911 H   0  0  0  0  0  0  0  0  0  0  0  0  # atno 8009 bound_to 7997
  155.7039  140.3471  155.4947 H   0  0  0  0  0  0  0  0  0  0  0  0  # atno 8010 bound_to 7997
  139.9893  143.5658  152.2348 H   0  0  0  0  0  0  0  0  0  0  0  0  # atno 10167 bound_to 10162
  156.0608  130.4263  150.1720 H   0  0  0  0  0  0  0  0  0  0  0  0  # atno 10718 bound_to 10713
  153.4352  135.3779  155.2195 H   0  0  0  0  0  0  0  0  0  0  0  0  # atno 10763 bound_to 10752
  154.8752  135.3849  154.4219 H   0  0  0  0  0  0  0  0  0  0  0  0  # atno 10764 bound_to 10752
  153.4757  135.7087  153.6030 H   0  0  0  0  0  0  0  0  0  0  0  0  # atno 10765 bound_to 10752
  139.8913  134.9517  156.6493 H   0  0  0  0  0  0  0  0  0  0  0  0  # atno 11005 bound_to 11000
  144.8943  139.4733  143.6663 LP  0  0  0  0  0  0  0  0  0  0  0  0  # atno 17320 bound_to 7965
  146.3084  139.7659  142.9039 LP  0  0  0  0  0  0  0  0  0  0  0  0  # atno 17321 bound_to 7965
  139.6352  144.7649  151.2453 LP  0  0  0  0  0  0  0  0  0  0  0  0  # atno 17342 bound_to 10162
  140.7460  143.6411  150.8334 LP  0  0  0  0  0  0  0  0  0  0  0  0  # atno 17343 bound_to 10162
  156.9788  130.9858  151.3442 LP  0  0  0  0  0  0  0  0  0  0  0  0  # atno 17370 bound_to 10713
  157.5615  130.8249  149.8272 LP  0  0  0  0  0  0  0  0  0  0  0  0  # atno 17371 bound_to 10713
  140.7533  133.8879  155.8363 LP  0  0  0  0  0  0  0  0  0  0  0  0  # atno 17394 bound_to 11000
  140.9982  134.1186  157.4342 LP  0  0  0  0  0  0  0  0  0  0  0  0  # atno 17395 bound_to 11000

$$$$
