AV-unprocessed.smi:836|AV-procd|sdf|3891|dock2
  -GOLD-   22720 1343D 1   1.00000     0.00000
 Structure written by MMmdl.
 38 39  0  0  0  0  0  0  0  0  1 V2000
  148.2331  140.9596  154.2989 C   0  0  0  0  0  0  0  0  0  0  0  0
  149.4718  140.0535  154.3401 C   0  0  2  0  0  0  0  0  0  0  0  0
  149.1163  138.6348  154.8242 C   0  0  0  0  0  0  0  0  0  0  0  0
  150.3555  137.7229  154.8693 C   0  0  0  0  0  0  0  0  0  0  0  0
  151.4902  138.3227  155.7250 C   0  0  2  0  0  0  0  0  0  0  0  0
  151.1390  138.3233  157.1427 N   0  0  0  0  0  0  0  0  0  0  0  0
  150.9329  137.2367  157.9035 C   0  0  0  0  0  0  0  0  0  0  0  0
  150.9994  136.0850  157.4750 O   0  0  0  0  0  0  0  0  0  0  0  0
  150.5882  137.4869  159.3739 C   0  0  0  0  0  0  0  0  0  0  0  0
  149.3862  136.7722  159.7703 N   0  0  0  0  0  0  0  0  0  0  0  0
  148.5789  135.9609  159.0024 C   0  0  0  0  0  0  0  0  0  0  0  0
  147.5817  135.4984  159.8122 C   0  0  0  0  0  0  0  0  0  0  0  0
  147.8623  136.0870  161.0795 C   0  0  0  0  0  0  0  0  0  0  0  0
  147.1006  135.9365  162.3701 C   0  0  0  0  0  0  0  0  0  0  0  0
  145.8547  136.3883  162.2276 F   0  0  0  0  0  0  0  0  0  0  0  0
  147.0535  134.6519  162.7230 F   0  0  0  0  0  0  0  0  0  0  0  0
  147.7016  136.6313  163.3357 F   0  0  0  0  0  0  0  0  0  0  0  0
  148.9449  136.8523  161.0443 N   0  0  0  0  0  0  0  0  0  0  0  0
  151.8276  139.7534  155.2639 C   0  0  0  0  0  0  0  0  0  0  0  0
  150.5840  140.6594  155.2176 C   0  0  0  0  0  0  0  0  0  0  0  0
  147.7986  141.0825  155.2915 H   0  0  0  0  0  0  0  0  0  0  0  0
  147.4641  140.5442  153.6472 H   0  0  0  0  0  0  0  0  0  0  0  0
  148.4843  141.9508  153.9201 H   0  0  0  0  0  0  0  0  0  0  0  0
  149.8540  139.9744  153.3213 H   0  0  0  0  0  0  0  0  0  0  0  0
  148.6614  138.6848  155.8147 H   0  0  0  0  0  0  0  0  0  0  0  0
  148.3666  138.1943  154.1662 H   0  0  0  0  0  0  0  0  0  0  0  0
  150.0794  136.7353  155.2406 H   0  0  0  0  0  0  0  0  0  0  0  0
  150.7201  137.5707  153.8526 H   0  0  0  0  0  0  0  0  0  0  0  0
  152.3852  137.7116  155.5944 H   0  0  0  0  0  0  0  0  0  0  0  0
  151.0562  139.2267  157.5869 H   0  0  0  0  0  0  0  0  0  0  0  0
  151.4239  137.1779  160.0037 H   0  0  0  0  0  0  0  0  0  0  0  0
  150.4318  138.5525  159.5461 H   0  0  0  0  0  0  0  0  0  0  0  0
  148.7824  135.7791  157.9572 H   0  0  0  0  0  0  0  0  0  0  0  0
  146.7734  134.8357  159.5408 H   0  0  0  0  0  0  0  0  0  0  0  0
  152.5843  140.1913  155.9161 H   0  0  0  0  0  0  0  0  0  0  0  0
  152.2739  139.7117  154.2695 H   0  0  0  0  0  0  0  0  0  0  0  0
  150.8649  141.6417  154.8363 H   0  0  0  0  0  0  0  0  0  0  0  0
  150.2097  140.8208  156.2294 H   0  0  0  0  0  0  0  0  0  0  0  0
  1  2  1  0  0  0  0
  1 21  1  0  0  0  0
  1 22  1  0  0  0  0
  1 23  1  0  0  0  0
  2 20  1  0  0  0  0
  2  3  1  0  0  0  0
  2 24  1  0  0  0  0
  3  4  1  0  0  0  0
  3 25  1  0  0  0  0
  3 26  1  0  0  0  0
  4  5  1  0  0  0  0
  4 27  1  0  0  0  0
  4 28  1  0  0  0  0
  5  6  1  0  0  0  0
  5 19  1  0  0  0  0
  5 29  1  0  0  0  0
  6  7  1  0  0  0  0
  6 30  1  0  0  0  0
  7  8  2  0  0  0  0
  7  9  1  0  0  0  0
  9 10  1  0  0  0  0
  9 31  1  0  0  0  0
  9 32  1  0  0  0  0
 10 18  1  0  0  0  0
 10 11  1  0  0  0  0
 11 12  2  0  0  0  0
 11 33  1  0  0  0  0
 12 13  1  0  0  0  0
 12 34  1  0  0  0  0
 13 14  1  0  0  0  0
 13 18  2  0  0  0  0
 14 15  1  0  0  0  0
 14 16  1  0  0  0  0
 14 17  1  0  0  0  0
 19 20  1  0  0  0  0
 19 35  1  0  0  0  0
 19 36  1  0  0  0  0
 20 37  1  0  0  0  0
 20 38  1  0  0  0  0
M  END
> <s_m_source_file>
AV-unprocessed.smi

> <i_m_source_file_index>
836

> <i_lp_mmshare_version>
43012

> <i_f3d_flags>
0

> <s_epik_input>
W0NIM11bQ0BASF0xW0NIMl1bQ0gyXVtDQEhdKFtDSDJdW0NIMl0xKVtOSF1DKD1PKVtDSDJdbjJbY0hdW2NIXWMobjIpQyhGKShGKUY=

> <s_epik_cmdline>
J2VwaWtfcHl0aG9uJywgJy1waCcsICc3LjAnLCAnLXRuJywgJzgnLCAnLW1hJywgJzIwMCcsICctbWV0YWxfYmluZGluZycsICctaW1hZScsICc8aW5maWxlLm1hZT4nLCAnLW9tYWUnLCAnPG91dGZpbGUubWFlPic=

> <r_lp_tautomer_probability>
1

> <r_epik_Ionization_Penalty>
8.28749e-08

> <r_epik_Ionization_Penalty_Charging>
0

> <r_epik_Ionization_Penalty_Neutral>
8.28749e-08

> <r_epik_State_Penalty>
-0

> <r_epik_Charging_Adjusted_Penalty>
0

> <i_epik_Tot_Q>
0

> <i_epik_Tot_abs_Q>
0

> <r_epik_Metal_State_Penalty>
-0

> <b_epik_Metal_Only>
0

> <s_lp_Force_Field>
OPLS_2005

> <r_lp_Energy>
10.0253

> <b_lp_Chiralities_Consistent>
1

> <s_lp_Variant>
AV-unprocessed.smi:836-2

> <Gold.Version>
5.8.1

> <Gold.Id.Protein>
6NUR|6NUR_protein|mol2

> <Gold.PLP.Fitness>
40.7428

> <Gold.PLP.PLP>
-37.9747

> <Gold.PLP.part.hbond>
-1.3734

> <Gold.PLP.part.metal>
0.0000

> <Gold.PLP.part.buried>
0.7819

> <Gold.PLP.part.nonpolar>
-36.9824

> <Gold.PLP.part.repulsive>
0.0140

> <Gold.PLP.ligand.clash>
0.0000

> <Gold.PLP.ligand.torsion>
0.1146

> <Gold.PLP.Chemscore.Hbond>
0.9920

> <Gold.PLP.Chemscore.CHOScore>
0.0000

> <Gold.PLP.Chemscore.Metal>
0.0000

> <Gold.Chemscore.Hbonds>
donor molecule, donor type, donor heavy atom, donor atom, acceptor molecule, acceptor atom, score
      P1  H  6931  6943       L1    18  0.99

> <Gold.PLP.Chemscore.Internal.Correction>
0.0212

> <Gold.Rescore>
     Score         DG    S(hbond)    S(metal)    S(lipo)     H(rot)  DE(clash)    DE(int)     intcor
     10.94     -12.68       0.85        0.00      70.97       1.54       0.30       1.44       ----

> <Gold.Chemscore.Fitness>
10.9404

> <Gold.Chemscore.DG>
-12.6800

> <Gold.Chemscore.ZeroCoef>
-5.4800

> <Gold.Chemscore.Hbond>
0.8517

> <Gold.Chemscore.Metal>
0.0000

> <Gold.Chemscore.Lipo>
70.9671

> <Gold.Chemscore.Internal_Hbond>
0.0000

> <Gold.Chemscore.DEClash>
0.2985

> <Gold.Chemscore.DEInternal>
1.4412

> <Gold.Chemscore.Rot>
1.5422

> <Gold.Chemscore.Internal.Correction>
   9.000000E+99

> <Gold.Chemscore.Hbonds>
donor molecule, donor type, donor heavy atom, donor atom, acceptor molecule, acceptor atom, score
      P1  H  6931  6943       L1    18  0.92

> <Gold.Chemscore.Hbond.Weighted>
-2.8448

> <Gold.Chemscore.Metal.Weighted>
-0.0000

> <Gold.Chemscore.Lipo.Weighted>
-8.3032

> <Gold.Chemscore.Internal_Hbond.Weighted>
0.0000

> <Gold.Chemscore.DEClash.Weighted>
0.2985

> <Gold.Chemscore.DEInternal.Weighted>
1.4412

> <Gold.Chemscore.Rot.Weighted>
3.9479

> <Gold.Chemscore.Internal.Correction.Weighted>
   9.000000E+99

> <Gold.Protein.RotatedTorsions>
[ 6907 6896 6895 6894 ] final  140.59 input  -60.11 | X-H torsion
[ 7974 7965 7964 7962 ] final  145.30 input  175.53 | X-H torsion
[ 8008 7997 7996 7995 ] final   -1.11 input   59.86 | X-H torsion
[ 10167 10162 10161 10158 ] final  102.74 input  -65.29 | X-H torsion
[ 10718 10713 10712 10709 ] final  118.47 input   66.30 | X-H torsion
[ 10763 10752 10751 10750 ] final  102.70 input  -60.55 | X-H torsion
[ 11005 11000 10999 10996 ] final  -20.27 input  -57.11 | X-H torsion

> <Gold.Protein.ActiveResidues>
 VAL166  LYS551  ARG553  GLY616  TRP617  ASP618  TYR619  PRO620  LYS621  CYS622 
 ASP623  PHE694  ASN695  SER759  ASP760  ASP761  ALA762  ILE779  LEU786  VAL792 
 PHE793  MET794  SER795  GLU796  ALA797  LYS798  CYS799  TRP800  GLU811  SER814 

> <Gold.Protein.RotatedAtoms>
  152.2412  133.5137  159.5271 H   0  0  0  0  0  0  0  0  0  0  0  0  # atno 6907 bound_to 6896
  150.7065  134.1086  159.4001 H   0  0  0  0  0  0  0  0  0  0  0  0  # atno 6908 bound_to 6896
  151.9007  135.0379  160.0557 H   0  0  0  0  0  0  0  0  0  0  0  0  # atno 6909 bound_to 6896
  144.8764  139.5766  143.5863 H   0  0  0  0  0  0  0  0  0  0  0  0  # atno 7974 bound_to 7965
  154.6504  140.2567  155.7220 H   0  0  0  0  0  0  0  0  0  0  0  0  # atno 8008 bound_to 7997
  156.2572  140.2869  156.0856 H   0  0  0  0  0  0  0  0  0  0  0  0  # atno 8009 bound_to 7997
  155.1460  140.0381  157.2800 H   0  0  0  0  0  0  0  0  0  0  0  0  # atno 8010 bound_to 7997
  139.7323  144.7033  151.0702 H   0  0  0  0  0  0  0  0  0  0  0  0  # atno 10167 bound_to 10162
  157.6028  131.1048  150.7761 H   0  0  0  0  0  0  0  0  0  0  0  0  # atno 10718 bound_to 10713
  153.3431  135.4001  155.1587 H   0  0  0  0  0  0  0  0  0  0  0  0  # atno 10763 bound_to 10752
  154.8647  135.3638  154.5320 H   0  0  0  0  0  0  0  0  0  0  0  0  # atno 10764 bound_to 10752
  153.5766  135.7077  153.5541 H   0  0  0  0  0  0  0  0  0  0  0  0  # atno 10765 bound_to 10752
  140.8448  133.7900  155.9900 H   0  0  0  0  0  0  0  0  0  0  0  0  # atno 11005 bound_to 11000
  146.2965  139.7295  142.9122 LP  0  0  0  0  0  0  0  0  0  0  0  0  # atno 17320 bound_to 7965
  145.4035  141.0388  143.3057 LP  0  0  0  0  0  0  0  0  0  0  0  0  # atno 17321 bound_to 7965
  140.7773  143.5027  150.9751 LP  0  0  0  0  0  0  0  0  0  0  0  0  # atno 17342 bound_to 10162
  139.8715  143.7186  152.3166 LP  0  0  0  0  0  0  0  0  0  0  0  0  # atno 17343 bound_to 10162
  156.8156  130.4967  149.5350 LP  0  0  0  0  0  0  0  0  0  0  0  0  # atno 17370 bound_to 10713
  156.1105  130.6037  151.0040 LP  0  0  0  0  0  0  0  0  0  0  0  0  # atno 17371 bound_to 10713
  140.8855  134.2559  157.5122 LP  0  0  0  0  0  0  0  0  0  0  0  0  # atno 17394 bound_to 11000
  139.8703  134.9636  156.4468 LP  0  0  0  0  0  0  0  0  0  0  0  0  # atno 17395 bound_to 11000

$$$$
