#       Name:                AV-unprocessed.smi:187
#       Creating user name   scv26
#       Creation time:       Thu Mar 26 19:28:31 2020


#       File generated by GOLD software.
#

@<TRIPOS>MOLECULE
AV-unprocessed.smi:187
    63    66     1
SMALL
NO_CHARGES


@<TRIPOS>ATOM
      1 ****        -2.9351   0.8070  -3.2925 C.3            1 S1                 0.0000
      2 ****        -3.5617   1.1297  -1.9196 C.3            1 S1                 0.0000
      3 ****        -4.9716   0.5058  -1.8456 C.3            1 S1                 0.0000
      4 ****        -5.6232   0.7071  -0.4673 C.3            1 S1                 0.0000
      5 ****        -4.7141   0.2261   0.6826 C.3            1 S1                 0.0000
      6 ****        -4.6550  -1.3099   0.7928 C.2            1 S1                 0.0000
      7 ****        -5.3002  -1.8668   1.8210 N.am           1 S1                 0.0000
      8 ****        -4.0313  -1.9883  -0.0214 O.2            1 S1                 0.0000
      9 ****        -3.3155   0.8618   0.5363 C.3            1 S1                 0.0000
     10 ****        -2.7388   0.6595  -0.7944 N.3            1 S1                 0.0000
     11 ****        -1.4319   1.0102  -0.7897 C.ar           1 S1                 0.0000
     12 ****        -1.0633   2.2904  -1.0618 N.ar           1 S1                 0.0000
     13 ****         0.2290   2.6311  -1.0377 C.ar           1 S1                 0.0000
     14 ****         1.2895   1.8682  -0.7611 N.ar           1 S1                 0.0000
     15 ****         0.9175   0.5873  -0.4739 C.ar           1 S1                 0.0000
     16 ****        -0.4107   0.0791  -0.4669 C.ar           1 S1                 0.0000
     17 ****        -0.4048  -1.2704  -0.1400 N.2            1 S1                 0.0000
     18 ****         0.8596  -1.5482   0.0273 C.2            1 S1                 0.0000
     19 ****         1.7215  -0.4848  -0.1300 N.pl3          1 S1                 0.0000
     20 ****         3.1517  -0.5051  -0.0371 C.3            1 S1                 0.0000
     21 ****         3.8949  -1.6002   0.7321 C.3            1 S1                 0.0000
     22 ****         4.9874  -0.5758   1.1163 C.3            1 S1                 0.0000
     23 ****         5.4980  -0.6639   2.5643 C.3            1 S1                 0.0000
     24 ****         6.1353   0.5347   2.9573 O.3            1 S1                 0.0000
     25 ****         6.1939  -0.5053   0.1583 C.3            1 S1                 0.0000
     26 ****         6.9240  -1.7153   0.1577 O.3            1 S1                 0.0000
     27 ****         3.8904   0.4831   0.8672 C.3            1 S1                 0.0000
     28 ****        -3.5917   1.1247  -4.1027 H              1 S1                 0.0000
     29 ****        -2.7647  -0.2642  -3.4064 H              1 S1                 0.0000
     30 ****        -1.9815   1.3126  -3.4429 H              1 S1                 0.0000
     31 ****        -3.6658   2.2121  -1.8307 H              1 S1                 0.0000
     32 ****        -5.6102   0.9418  -2.6145 H              1 S1                 0.0000
     33 ****        -4.9165  -0.5593  -2.0724 H              1 S1                 0.0000
     34 ****        -5.8407   1.7669  -0.3284 H              1 S1                 0.0000
     35 ****        -6.5860   0.1955  -0.4338 H              1 S1                 0.0000
     36 ****        -5.1406   0.5950   1.6169 H              1 S1                 0.0000
     37 ****        -5.2948  -2.8695   1.9381 H              1 S1                 0.0000
     38 ****        -5.7941  -1.2799   2.4776 H              1 S1                 0.0000
     39 ****        -3.3831   1.9337   0.7294 H              1 S1                 0.0000
     40 ****        -2.6490   0.4537   1.2986 H              1 S1                 0.0000
     41 ****         0.4441   3.6635  -1.2710 H              1 S1                 0.0000
     42 ****         1.1961  -2.5439   0.2769 H              1 S1                 0.0000
     43 ****         3.5192  -0.4386  -1.0626 H              1 S1                 0.0000
     44 ****         3.3328  -1.9627   1.5948 H              1 S1                 0.0000
     45 ****         4.2333  -2.4313   0.1127 H              1 S1                 0.0000
     46 ****         4.6739  -0.8433   3.2554 H              1 S1                 0.0000
     47 ****         6.1925  -1.4940   2.6961 H              1 S1                 0.0000
     48 ****         6.4353   0.4374   3.8483 H              1 S1                 0.0000
     49 ****         5.8755  -0.3091  -0.8656 H              1 S1                 0.0000
     50 ****         6.8673   0.3098   0.4245 H              1 S1                 0.0000
     51 ****         6.3561  -2.4082  -0.1428 H              1 S1                 0.0000
     52 ****         4.2315   1.3883   0.3638 H              1 S1                 0.0000
     53 ****         3.3221   0.7282   1.7667 H              1 S1                 0.0000
     54 ****        -3.5479  -1.5445  -0.7760 LP             1 S1                 0.0000
     55 ****        -4.0076  -2.9837   0.0710 LP             1 S1                 0.0000
     56 ****        -2.7561  -0.3199  -0.9957 LP             1 S1                 0.0000
     57 ****        -1.7580   2.9760  -1.2796 LP             1 S1                 0.0000
     58 ****         2.2349   2.1939  -0.7641 LP             1 S1                 0.0000
     59 ****        -1.1877  -1.8865  -0.0529 LP             1 S1                 0.0000
     60 ****         5.4881   1.2949   2.9006 LP             1 S1                 0.0000
     61 ****         6.9145   0.7148   2.3569 LP             1 S1                 0.0000
     62 ****         7.2421  -1.9177   1.0839 LP             1 S1                 0.0000
     63 ****         7.7104  -1.6344  -0.4546 LP             1 S1                 0.0000
@<TRIPOS>BOND
    1    1    2 1     
    2    1   28 1     
    3    1   29 1     
    4    1   30 1     
    5    2   10 1     
    6    2    3 1     
    7    2   31 1     
    8    3    4 1     
    9    3   32 1     
   10    3   33 1     
   11    4    5 1     
   12    4   34 1     
   13    4   35 1     
   14    5    6 1     
   15    5    9 1     
   16    5   36 1     
   17    6    7 am    
   18    6    8 2     
   19    7   37 1     
   20    7   38 1     
   21    9   10 1     
   22    9   39 1     
   23    9   40 1     
   24   10   11 1     
   25   11   16 ar    
   26   11   12 ar    
   27   12   13 ar    
   28   13   14 ar    
   29   13   41 1     
   30   14   15 ar    
   31   15   19 1     
   32   15   16 ar    
   33   16   17 1     
   34   17   18 2     
   35   18   19 1     
   36   18   42 1     
   37   19   20 1     
   38   20   27 1     
   39   20   21 1     
   40   20   43 1     
   41   21   22 1     
   42   21   44 1     
   43   21   45 1     
   44   22   23 1     
   45   22   25 1     
   46   22   27 1     
   47   23   24 1     
   48   23   46 1     
   49   23   47 1     
   50   24   48 1     
   51   25   26 1     
   52   25   49 1     
   53   25   50 1     
   54   26   51 1     
   55   27   52 1     
   56   27   53 1     
   57    8   54 1     
   58    8   55 1     
   59   10   56 1     
   60   12   57 1     
   61   14   58 1     
   62   17   59 1     
   63   24   60 1     
   64   24   61 1     
   65   26   62 1     
   66   26   63 1     
@<TRIPOS>SUBSTRUCTURE
      1 S1             1
@<TRIPOS>SET
LONE_PAIRS      STATIC     ATOMS    <user>   **** ""
10 54 55 56 57 58 59 60 61 62 63
DONOR_HYDROGENS      STATIC     ATOMS    <user>   **** ""
4 37 38 48 51
ATOM$BLUE        STATIC     ATOMS    COLORGROUP SYSTEM
10 54 55 56 57 58 59 60 61 62 63
ATOM$RED        STATIC     ATOMS    COLORGROUP SYSTEM
4 37 38 48 51
