AV-unprocessed.smi:283|AV-procd|sdf|2128|dock10
  -GOLD-   2262021443D 1   1.00000     0.00000
 Structure written by MMmdl.
 48 51  0  0  0  0  0  0  0  0  1 V2000
  149.5154  140.9401  157.7951 C   0  0  0  0  0  0  0  0  0  0  0  0
  151.0029  141.1795  158.0865 C   0  0  1  0  0  0  0  0  0  0  0  0
  151.7930  140.8634  156.8987 N   0  0  0  0  0  0  0  0  0  0  0  0
  151.8447  139.6089  156.3982 C   0  0  0  0  0  0  0  0  0  0  0  0
  152.0775  139.5250  155.0676 N   0  0  0  0  0  0  0  0  0  0  0  0
  152.1649  138.3311  154.4781 C   0  0  0  0  0  0  0  0  0  0  0  0
  152.0521  137.1221  155.0277 N   0  0  0  0  0  0  0  0  0  0  0  0
  151.8114  137.1889  156.3694 C   0  0  0  0  0  0  0  0  0  0  0  0
  151.6808  138.3918  157.1245 C   0  0  0  0  0  0  0  0  0  0  0  0
  151.4038  138.0753  158.4480 N   0  0  0  0  0  0  0  0  0  0  0  0
  151.3953  136.7727  158.4737 C   0  0  0  0  0  0  0  0  0  0  0  0
  151.6501  136.1507  157.2722 N   0  0  0  0  0  0  0  0  0  0  0  0
  151.7072  134.6637  157.0379 C   0  0  1  0  0  0  0  0  0  0  0  0
  151.6793  133.9866  158.2590 O   0  0  0  0  0  0  0  0  0  0  0  0
  150.4070  133.3696  158.4751 C   0  0  2  0  0  0  0  0  0  0  0  0
  150.6208  131.8599  158.6962 C   0  0  0  0  0  0  0  0  0  0  0  0
  149.4109  131.1778  158.9572 O   0  0  0  0  0  0  0  0  0  0  0  0
  149.5056  133.7438  157.2856 C   0  0  1  0  0  0  0  0  0  0  0  0
  148.6427  134.8047  157.6561 O   0  0  0  0  0  0  0  0  0  0  0  0
  150.5094  134.1559  156.2158 C   0  0  1  0  0  0  0  0  0  0  0  0
  149.9801  135.0670  155.2668 O   0  0  0  0  0  0  0  0  0  0  0  0
  151.2151  142.5895  158.6464 C   0  0  0  0  0  0  0  0  0  0  0  0
  150.1940  143.5611  158.5243 C   0  0  0  0  0  0  0  0  0  0  0  0
  150.3762  144.8626  159.0280 C   0  0  0  0  0  0  0  0  0  0  0  0
  151.5803  145.2056  159.6683 C   0  0  0  0  0  0  0  0  0  0  0  0
  152.5972  144.2437  159.8096 C   0  0  0  0  0  0  0  0  0  0  0  0
  152.4199  142.9390  159.3074 C   0  0  0  0  0  0  0  0  0  0  0  0
  153.6989  141.7951  159.5227 Cl  0  0  0  0  0  0  0  0  0  0  0  0
  152.6657  134.5191  156.5381 H   0  0  0  0  0  0  0  0  0  0  0  0
  149.9949  133.7671  159.4035 H   0  0  0  0  0  0  0  0  0  0  0  0
  148.8820  132.9130  156.9535 H   0  0  0  0  0  0  0  0  0  0  0  0
  150.8444  133.2647  155.6842 H   0  0  0  0  0  0  0  0  0  0  0  0
  148.9118  141.0814  158.6922 H   0  0  0  0  0  0  0  0  0  0  0  0
  149.3429  139.9233  157.4412 H   0  0  0  0  0  0  0  0  0  0  0  0
  149.1443  141.6264  157.0331 H   0  0  0  0  0  0  0  0  0  0  0  0
  151.2958  140.4518  158.8415 H   0  0  0  0  0  0  0  0  0  0  0  0
  152.4792  141.5615  156.6517 H   0  0  0  0  0  0  0  0  0  0  0  0
  152.3571  138.3452  153.4156 H   0  0  0  0  0  0  0  0  0  0  0  0
  151.2112  136.2220  159.3846 H   0  0  0  0  0  0  0  0  0  0  0  0
  151.1138  131.4120  157.8329 H   0  0  0  0  0  0  0  0  0  0  0  0
  151.2783  131.7059  159.5522 H   0  0  0  0  0  0  0  0  0  0  0  0
  148.6953  131.7017  158.6302 H   0  0  0  0  0  0  0  0  0  0  0  0
  148.6726  135.4617  156.9773 H   0  0  0  0  0  0  0  0  0  0  0  0
  149.5690  134.5736  154.5740 H   0  0  0  0  0  0  0  0  0  0  0  0
  149.2618  143.3152  158.0374 H   0  0  0  0  0  0  0  0  0  0  0  0
  149.5914  145.5971  158.9236 H   0  0  0  0  0  0  0  0  0  0  0  0
  151.7223  146.2039  160.0554 H   0  0  0  0  0  0  0  0  0  0  0  0
  153.5179  144.5087  160.3081 H   0  0  0  0  0  0  0  0  0  0  0  0
  1  2  1  0  0  0  0
  1 33  1  0  0  0  0
  1 34  1  0  0  0  0
  1 35  1  0  0  0  0
  2  3  1  0  0  0  0
  2 22  1  0  0  0  0
  2 36  1  0  0  0  0
  3  4  1  0  0  0  0
  3 37  1  0  0  0  0
  4  9  1  0  0  0  0
  4  5  2  0  0  0  0
  5  6  1  0  0  0  0
  6  7  2  0  0  0  0
  6 38  1  0  0  0  0
  7  8  1  0  0  0  0
  8 12  1  0  0  0  0
  8  9  2  0  0  0  0
  9 10  1  0  0  0  0
 10 11  2  0  0  0  0
 11 12  1  0  0  0  0
 11 39  1  0  0  0  0
 12 13  1  0  0  0  0
 13 29  1  0  0  0  0
 13 20  1  0  0  0  0
 13 14  1  0  0  0  0
 14 15  1  0  0  0  0
 15 30  1  0  0  0  0
 15 16  1  0  0  0  0
 15 18  1  0  0  0  0
 16 17  1  0  0  0  0
 16 40  1  0  0  0  0
 16 41  1  0  0  0  0
 17 42  1  0  0  0  0
 18 31  1  0  0  0  0
 18 19  1  0  0  0  0
 18 20  1  0  0  0  0
 19 43  1  0  0  0  0
 20 32  1  0  0  0  0
 20 21  1  0  0  0  0
 21 44  1  0  0  0  0
 22 27  1  0  0  0  0
 22 23  2  0  0  0  0
 23 24  1  0  0  0  0
 23 45  1  0  0  0  0
 24 25  2  0  0  0  0
 24 46  1  0  0  0  0
 25 26  1  0  0  0  0
 25 47  1  0  0  0  0
 26 27  2  0  0  0  0
 26 48  1  0  0  0  0
 27 28  1  0  0  0  0
M  END
> <s_m_source_file>
AV-unprocessed.smi

> <i_m_source_file_index>
283

> <i_lp_mmshare_version>
43012

> <i_f3d_flags>
0

> <s_epik_input>
Q2xjMVtjSF1bY0hdW2NIXVtjSF1jMVtDQEhdKFtDSDNdKVtOSF1jKG5bY0hdbjIpYyhjMjMpbltjSF1uM1tDQEBIXTRPW0NASF0oW0NIMl1bT0hdKVtDQEBIXShbT0hdKVtDQEhdNFtPSF0=

> <s_epik_cmdline>
J2VwaWtfcHl0aG9uJywgJy1waCcsICc3LjAnLCAnLXRuJywgJzgnLCAnLW1hJywgJzIwMCcsICctbWV0YWxfYmluZGluZycsICctaW1hZScsICc8aW5maWxlLm1hZT4nLCAnLW9tYWUnLCAnPG91dGZpbGUubWFlPic=

> <r_lp_tautomer_probability>
1

> <r_epik_Ionization_Penalty>
0.000266407

> <r_epik_Ionization_Penalty_Charging>
0

> <r_epik_Ionization_Penalty_Neutral>
0.000266407

> <r_epik_State_Penalty>
-0

> <r_epik_Charging_Adjusted_Penalty>
0

> <i_epik_Tot_Q>
0

> <i_epik_Tot_abs_Q>
0

> <r_epik_Metal_State_Penalty>
-0

> <b_epik_Metal_Only>
0

> <s_epik_Chemistry_Notes>
This compound contains an acetal/aminal-like group ( X-CH(R)-Y where X, Y are N, S, or O) that may be acid/base labile, releasing an aldehyde.

> <s_lp_Force_Field>
OPLS_2005

> <r_lp_Energy>
53.7739

> <b_lp_Chiralities_Consistent>
1

> <s_lp_Variant>
AV-unprocessed.smi:283-4

> <Gold.Version>
5.8.1

> <Gold.Id.Protein>
6NUR|6NUR_protein|mol2

> <Gold.PLP.Fitness>
50.5045

> <Gold.PLP.PLP>
-41.9229

> <Gold.PLP.part.hbond>
-4.0000

> <Gold.PLP.part.metal>
0.0000

> <Gold.PLP.part.buried>
-7.1738

> <Gold.PLP.part.nonpolar>
-30.9657

> <Gold.PLP.part.repulsive>
0.2809

> <Gold.PLP.ligand.clash>
0.0000

> <Gold.PLP.ligand.torsion>
0.7031

> <Gold.PLP.Chemscore.Hbond>
3.2009

> <Gold.PLP.Chemscore.CHOScore>
0.0000

> <Gold.PLP.Chemscore.Metal>
0.0000

> <Gold.Chemscore.Hbonds>
donor molecule, donor type, donor heavy atom, donor atom, acceptor molecule, acceptor atom, score
      P1  H  7989  7998       L1     5  0.74
      P1  H 10752 10764       L1     7  0.88

> <Gold.PLP.Chemscore.Internal.Correction>
0.3851

> <Gold.Rescore>
     Score         DG    S(hbond)    S(metal)    S(lipo)     H(rot)  DE(clash)    DE(int)     intcor
     12.06     -13.83       2.14        0.00      99.78       4.10       0.15       1.63       ----

> <Gold.Chemscore.Fitness>
12.0554

> <Gold.Chemscore.DG>
-13.8282

> <Gold.Chemscore.ZeroCoef>
-5.4800

> <Gold.Chemscore.Hbond>
2.1443

> <Gold.Chemscore.Metal>
0.0000

> <Gold.Chemscore.Lipo>
99.7796

> <Gold.Chemscore.Internal_Hbond>
0.0000

> <Gold.Chemscore.DEClash>
0.1453

> <Gold.Chemscore.DEInternal>
1.6274

> <Gold.Chemscore.Rot>
4.0968

> <Gold.Chemscore.Internal.Correction>
   9.000000E+99

> <Gold.Chemscore.Hbonds>
donor molecule, donor type, donor heavy atom, donor atom, acceptor molecule, acceptor atom, score
      P1  H  7989  7998       L1     5  0.36
      P1  H 10752 10764       L1     7  0.81

> <Gold.Chemscore.Hbond.Weighted>
-7.1619

> <Gold.Chemscore.Metal.Weighted>
-0.0000

> <Gold.Chemscore.Lipo.Weighted>
-11.6742

> <Gold.Chemscore.Internal_Hbond.Weighted>
0.0000

> <Gold.Chemscore.DEClash.Weighted>
0.1453

> <Gold.Chemscore.DEInternal.Weighted>
1.6274

> <Gold.Chemscore.Rot.Weighted>
10.4879

> <Gold.Chemscore.Internal.Correction.Weighted>
   9.000000E+99

> <Gold.Protein.RotatedTorsions>
[ 6907 6896 6895 6894 ] final    4.71 input  -60.11 | X-H torsion
[ 7974 7965 7964 7962 ] final  108.32 input  175.53 | X-H torsion
[ 8008 7997 7996 7995 ] final  121.50 input   59.86 | X-H torsion
[ 10167 10162 10161 10158 ] final   73.76 input  -65.29 | X-H torsion
[ 10718 10713 10712 10709 ] final -142.63 input   66.30 | X-H torsion
[ 10763 10752 10751 10750 ] final  -70.09 input  -60.55 | X-H torsion
[ 11005 11000 10999 10996 ] final -152.24 input  -57.11 | X-H torsion

> <Gold.Protein.ActiveResidues>
 VAL166  LYS551  ARG553  GLY616  TRP617  ASP618  TYR619  PRO620  LYS621  CYS622 
 ASP623  PHE694  ASN695  SER759  ASP760  ASP761  ALA762  ILE779  LEU786  VAL792 
 PHE793  MET794  SER795  GLU796  ALA797  LYS798  CYS799  TRP800  GLU811  SER814 

> <Gold.Protein.RotatedAtoms>
  151.6457  135.1007  160.0150 H   0  0  0  0  0  0  0  0  0  0  0  0  # atno 6907 bound_to 6896
  152.4029  133.6841  159.6340 H   0  0  0  0  0  0  0  0  0  0  0  0  # atno 6908 bound_to 6896
  150.7927  133.8677  159.3290 H   0  0  0  0  0  0  0  0  0  0  0  0  # atno 6909 bound_to 6896
  145.2822  139.2629  143.3910 H   0  0  0  0  0  0  0  0  0  0  0  0  # atno 7974 bound_to 7965
  156.2689  140.2807  156.1318 H   0  0  0  0  0  0  0  0  0  0  0  0  # atno 8008 bound_to 7997
  155.1046  140.0390  157.2724 H   0  0  0  0  0  0  0  0  0  0  0  0  # atno 8009 bound_to 7997
  154.6789  140.2604  155.6935 H   0  0  0  0  0  0  0  0  0  0  0  0  # atno 8010 bound_to 7997
  140.0210  144.5540  150.7582 H   0  0  0  0  0  0  0  0  0  0  0  0  # atno 10167 bound_to 10162
  156.3482  130.7674  151.1822 H   0  0  0  0  0  0  0  0  0  0  0  0  # atno 10718 bound_to 10713
  154.4128  135.6005  153.5963 H   0  0  0  0  0  0  0  0  0  0  0  0  # atno 10763 bound_to 10752
  152.9791  135.5933  154.4050 H   0  0  0  0  0  0  0  0  0  0  0  0  # atno 10764 bound_to 10752
  154.3864  135.2841  155.2159 H   0  0  0  0  0  0  0  0  0  0  0  0  # atno 10765 bound_to 10752
  140.7210  134.3727  157.5183 H   0  0  0  0  0  0  0  0  0  0  0  0  # atno 11005 bound_to 11000
  146.3213  140.3292  142.8639 LP  0  0  0  0  0  0  0  0  0  0  0  0  # atno 17320 bound_to 7965
  144.9244  140.7904  143.5728 LP  0  0  0  0  0  0  0  0  0  0  0  0  # atno 17321 bound_to 7965
  140.7342  143.2726  151.3840 LP  0  0  0  0  0  0  0  0  0  0  0  0  # atno 17342 bound_to 10162
  139.6140  144.1041  152.2327 LP  0  0  0  0  0  0  0  0  0  0  0  0  # atno 17343 bound_to 10162
  157.7457  131.0435  150.4747 LP  0  0  0  0  0  0  0  0  0  0  0  0  # atno 17370 bound_to 10713
  156.4938  130.4101  149.6392 LP  0  0  0  0  0  0  0  0  0  0  0  0  # atno 17371 bound_to 10713
  139.8848  134.8955  156.2680 LP  0  0  0  0  0  0  0  0  0  0  0  0  # atno 17394 bound_to 11000
  141.0003  133.7155  156.0951 LP  0  0  0  0  0  0  0  0  0  0  0  0  # atno 17395 bound_to 11000

$$$$
