AV-unprocessed.smi:1683|AV-procd|sdf|6748|dock1
  -GOLD-   22720 7503D 1   1.00000     0.00000
 Structure written by MMmdl.
 36 37  0  0  0  0  0  0  0  0  1 V2000
  144.6392  137.4719  152.6966 O   0  0  0  0  0  0  0  0  0  0  0  0
  145.8115  137.1937  152.4431 C   0  0  0  0  0  0  0  0  0  0  0  0
  146.8585  137.9006  152.8923 N   0  0  0  0  0  0  0  0  0  0  0  0
  146.7822  139.0992  153.7231 C   0  0  0  0  0  0  0  0  0  0  0  0
  148.0764  139.9312  153.6449 C   0  0  1  0  0  0  0  0  0  0  0  0
  147.9101  141.4070  154.0044 C   0  0  0  0  0  0  0  0  0  0  0  0
  149.2119  141.7467  154.7178 C   0  0  0  0  0  0  0  0  0  0  0  0
  149.4480  140.5454  155.5054 N   0  0  0  0  0  0  0  0  0  0  0  0
  150.7937  140.4580  156.0692 C   0  0  0  0  0  0  0  0  0  0  0  0
  150.9567  141.2490  157.3816 C   0  0  0  0  0  0  0  0  0  0  0  0
  149.9480  140.9356  158.1935 F   0  0  0  0  0  0  0  0  0  0  0  0
  152.0967  140.9425  158.0002 F   0  0  0  0  0  0  0  0  0  0  0  0
  150.9188  142.5608  157.1466 F   0  0  0  0  0  0  0  0  0  0  0  0
  149.1816  139.4372  154.5926 C   0  0  0  0  0  0  0  0  0  0  0  0
  146.2119  136.1573  151.6886 N   0  0  0  0  0  0  0  0  0  0  0  0
  145.3935  135.2078  151.0257 C   0  0  0  0  0  0  0  0  0  0  0  0
  145.7424  133.8464  150.8136 C   0  0  0  0  0  0  0  0  0  0  0  0
  144.7866  133.1975  150.1644 N   0  0  0  0  0  0  0  0  0  0  0  0
  143.8315  134.1322  149.9583 N   0  0  0  0  0  0  0  0  0  0  0  0
  144.1577  135.3707  150.4652 C   0  0  0  0  0  0  0  0  0  0  0  0
  142.9720  133.9122  149.4752 H   0  0  0  0  0  0  0  0  0  0  0  0
  147.7831  137.5918  152.6305 H   0  0  0  0  0  0  0  0  0  0  0  0
  145.9184  139.7110  153.4571 H   0  0  0  0  0  0  0  0  0  0  0  0
  146.6191  138.7764  154.7515 H   0  0  0  0  0  0  0  0  0  0  0  0
  148.4659  139.8669  152.6275 H   0  0  0  0  0  0  0  0  0  0  0  0
  147.7322  142.0358  153.1317 H   0  0  0  0  0  0  0  0  0  0  0  0
  147.0756  141.5463  154.6931 H   0  0  0  0  0  0  0  0  0  0  0  0
  150.0175  141.8997  153.9977 H   0  0  0  0  0  0  0  0  0  0  0  0
  149.1160  142.6393  155.3357 H   0  0  0  0  0  0  0  0  0  0  0  0
  150.9979  139.4072  156.2790 H   0  0  0  0  0  0  0  0  0  0  0  0
  151.5346  140.7793  155.3357 H   0  0  0  0  0  0  0  0  0  0  0  0
  148.9001  138.5411  155.1470 H   0  0  0  0  0  0  0  0  0  0  0  0
  150.0752  139.2025  154.0118 H   0  0  0  0  0  0  0  0  0  0  0  0
  147.2072  136.0372  151.5707 H   0  0  0  0  0  0  0  0  0  0  0  0
  146.6388  133.3183  151.1034 H   0  0  0  0  0  0  0  0  0  0  0  0
  143.4991  136.2222  150.3795 H   0  0  0  0  0  0  0  0  0  0  0  0
  1  2  2  0  0  0  0
  2  3  1  0  0  0  0
  2 15  1  0  0  0  0
  3  4  1  0  0  0  0
  3 22  1  0  0  0  0
  4  5  1  0  0  0  0
  4 23  1  0  0  0  0
  4 24  1  0  0  0  0
  5 14  1  0  0  0  0
  5  6  1  0  0  0  0
  5 25  1  0  0  0  0
  6  7  1  0  0  0  0
  6 26  1  0  0  0  0
  6 27  1  0  0  0  0
  7  8  1  0  0  0  0
  7 28  1  0  0  0  0
  7 29  1  0  0  0  0
  8  9  1  0  0  0  0
  8 14  1  0  0  0  0
  9 10  1  0  0  0  0
  9 30  1  0  0  0  0
  9 31  1  0  0  0  0
 10 11  1  0  0  0  0
 10 12  1  0  0  0  0
 10 13  1  0  0  0  0
 14 32  1  0  0  0  0
 14 33  1  0  0  0  0
 15 16  1  0  0  0  0
 15 34  1  0  0  0  0
 16 20  2  0  0  0  0
 16 17  1  0  0  0  0
 17 18  2  0  0  0  0
 17 35  1  0  0  0  0
 18 19  1  0  0  0  0
 19 21  1  0  0  0  0
 19 20  1  0  0  0  0
 20 36  1  0  0  0  0
M  END
> <s_m_source_file>
AV-unprocessed.smi

> <i_m_source_file_index>
1683

> <i_lp_mmshare_version>
43012

> <i_f3d_flags>
0

> <s_epik_input>
W2NIXTFbbkhdbltjSF1jMVtOSF1DKD1PKVtOSF1bQ0gyXVtDQEBIXTJbQ0gyXVtDSDJdTihbQ0gyXTIpW0NIMl1DKEYpKEYpRg==

> <s_epik_cmdline>
J2VwaWtfcHl0aG9uJywgJy1waCcsICc3LjAnLCAnLXRuJywgJzgnLCAnLW1hJywgJzIwMCcsICctbWV0YWxfYmluZGluZycsICctaW1hZScsICc8aW5maWxlLm1hZT4nLCAnLW9tYWUnLCAnPG91dGZpbGUubWFlPic=

> <r_lp_tautomer_probability>
0.5

> <r_epik_Ionization_Penalty>
0.244885

> <r_epik_Ionization_Penalty_Charging>
0

> <r_epik_Ionization_Penalty_Neutral>
0.244885

> <r_epik_State_Penalty>
0.235951

> <r_epik_Charging_Adjusted_Penalty>
0.235951

> <i_epik_Tot_Q>
0

> <i_epik_Tot_abs_Q>
0

> <r_epik_Metal_State_Penalty>
0.23595

> <b_epik_Metal_Only>
0

> <s_lp_Force_Field>
OPLS_2005

> <r_lp_Energy>
31.7206

> <b_lp_Chiralities_Consistent>
1

> <s_lp_Variant>
AV-unprocessed.smi:1683-2

> <Gold.Version>
5.8.1

> <Gold.Id.Protein>
6NUR|6NUR_protein|mol2

> <Gold.PLP.Fitness>
44.1806

> <Gold.PLP.PLP>
-34.0108

> <Gold.PLP.part.hbond>
-3.0000

> <Gold.PLP.part.metal>
0.0000

> <Gold.PLP.part.buried>
-3.5694

> <Gold.PLP.part.nonpolar>
-28.6654

> <Gold.PLP.part.repulsive>
0.5690

> <Gold.PLP.ligand.clash>
0.0000

> <Gold.PLP.ligand.torsion>
0.9228

> <Gold.PLP.Chemscore.Hbond>
2.8000

> <Gold.PLP.Chemscore.CHOScore>
1.0000

> <Gold.PLP.Chemscore.Metal>
0.0000

> <Gold.Chemscore.Hbonds>
donor molecule, donor type, donor heavy atom, donor atom, acceptor molecule, acceptor atom, score
      L1  H     3    22       P1  7948  1.00
      L1  H    15    34       P1  7948  1.00
      L1  H    19    21       P1 10186  0.77
      L1  C    20    36       P1 10171  1.00

> <Gold.PLP.Chemscore.Internal.Correction>
0.6154

> <Gold.Rescore>
     Score         DG    S(hbond)    S(metal)    S(lipo)     H(rot)  DE(clash)    DE(int)     intcor
     16.37     -17.49       2.86        0.00      60.03       1.78       0.17       0.95       ----

> <Gold.Chemscore.Fitness>
16.3688

> <Gold.Chemscore.DG>
-17.4937

> <Gold.Chemscore.ZeroCoef>
-5.4800

> <Gold.Chemscore.Hbond>
2.8578

> <Gold.Chemscore.Metal>
0.0000

> <Gold.Chemscore.Lipo>
60.0324

> <Gold.Chemscore.Internal_Hbond>
0.0000

> <Gold.Chemscore.DEClash>
0.1731

> <Gold.Chemscore.DEInternal>
0.9517

> <Gold.Chemscore.Rot>
1.7793

> <Gold.Chemscore.Internal.Correction>
   9.000000E+99

> <Gold.Chemscore.Hbonds>
donor molecule, donor type, donor heavy atom, donor atom, acceptor molecule, acceptor atom, score
      L1  H     3    22       P1  7948  0.94
      L1  H    15    34       P1  7948  1.00
      L1  H    19    21       P1 10186  0.73

> <Gold.Chemscore.Hbond.Weighted>
-9.5450

> <Gold.Chemscore.Metal.Weighted>
-0.0000

> <Gold.Chemscore.Lipo.Weighted>
-7.0238

> <Gold.Chemscore.Internal_Hbond.Weighted>
0.0000

> <Gold.Chemscore.DEClash.Weighted>
0.1731

> <Gold.Chemscore.DEInternal.Weighted>
0.9517

> <Gold.Chemscore.Rot.Weighted>
4.5551

> <Gold.Chemscore.Internal.Correction.Weighted>
   9.000000E+99

> <Gold.Protein.RotatedTorsions>
[ 6907 6896 6895 6894 ] final -170.39 input  -60.11 | X-H torsion
[ 7974 7965 7964 7962 ] final  -59.66 input  175.53 | X-H torsion
[ 8008 7997 7996 7995 ] final  -86.08 input   59.86 | X-H torsion
[ 10167 10162 10161 10158 ] final  113.15 input  -65.29 | X-H torsion
[ 10718 10713 10712 10709 ] final  -54.89 input   66.30 | X-H torsion
[ 10763 10752 10751 10750 ] final   37.71 input  -60.55 | X-H torsion
[ 11005 11000 10999 10996 ] final   20.89 input  -57.11 | X-H torsion

> <Gold.Protein.ActiveResidues>
 VAL166  LYS551  ARG553  GLY616  TRP617  ASP618  TYR619  PRO620  LYS621  CYS622 
 ASP623  PHE694  ASN695  SER759  ASP760  ASP761  ALA762  ILE779  LEU786  VAL792 
 PHE793  MET794  SER795  GLU796  ALA797  LYS798  CYS799  TRP800  GLU811  SER814 

> <Gold.Protein.RotatedAtoms>
  151.5070  133.3492  159.2878 H   0  0  0  0  0  0  0  0  0  0  0  0  # atno 6907 bound_to 6896
  150.8737  134.8118  159.7184 H   0  0  0  0  0  0  0  0  0  0  0  0  # atno 6908 bound_to 6896
  152.4716  134.4957  159.9761 H   0  0  0  0  0  0  0  0  0  0  0  0  # atno 6909 bound_to 6896
  145.8249  140.8517  143.0114 H   0  0  0  0  0  0  0  0  0  0  0  0  # atno 7974 bound_to 7965
  154.6478  140.0583  156.9921 H   0  0  0  0  0  0  0  0  0  0  0  0  # atno 8008 bound_to 7997
  155.1417  140.3266  155.4432 H   0  0  0  0  0  0  0  0  0  0  0  0  # atno 8009 bound_to 7997
  156.2562  140.1963  156.6532 H   0  0  0  0  0  0  0  0  0  0  0  0  # atno 8010 bound_to 7997
  139.6482  144.7127  151.2100 H   0  0  0  0  0  0  0  0  0  0  0  0  # atno 10167 bound_to 10162
  156.1413  130.4154  150.0098 H   0  0  0  0  0  0  0  0  0  0  0  0  # atno 10718 bound_to 10713
  153.0027  135.6270  154.2188 H   0  0  0  0  0  0  0  0  0  0  0  0  # atno 10763 bound_to 10752
  154.1931  135.2807  155.3017 H   0  0  0  0  0  0  0  0  0  0  0  0  # atno 10764 bound_to 10752
  154.5744  135.5667  153.7184 H   0  0  0  0  0  0  0  0  0  0  0  0  # atno 10765 bound_to 10752
  140.3976  134.1752  155.7663 H   0  0  0  0  0  0  0  0  0  0  0  0  # atno 11005 bound_to 11000
  144.6744  140.0587  143.7477 LP  0  0  0  0  0  0  0  0  0  0  0  0  # atno 17320 bound_to 7965
  145.9635  139.2817  143.1141 LP  0  0  0  0  0  0  0  0  0  0  0  0  # atno 17321 bound_to 7965
  140.7525  143.6194  150.8527 LP  0  0  0  0  0  0  0  0  0  0  0  0  # atno 17342 bound_to 10162
  139.9840  143.5920  152.2933 LP  0  0  0  0  0  0  0  0  0  0  0  0  # atno 17343 bound_to 10162
  156.7982  130.9281  151.3646 LP  0  0  0  0  0  0  0  0  0  0  0  0  # atno 17370 bound_to 10713
  157.6578  130.8940  149.9766 LP  0  0  0  0  0  0  0  0  0  0  0  0  # atno 17371 bound_to 10713
  141.1868  133.8294  157.1054 LP  0  0  0  0  0  0  0  0  0  0  0  0  # atno 17394 bound_to 11000
  140.0360  134.9878  157.0871 LP  0  0  0  0  0  0  0  0  0  0  0  0  # atno 17395 bound_to 11000

$$$$
