AV-unprocessed.smi:3117|AV-procd|sdf|11882|dock6
  -GOLD-   2272017273D 1   1.00000     0.00000
 Structure written by MMmdl.
 36 36  0  0  0  0  0  0  0  0  1 V2000
  149.1051  140.5701  157.9187 C   0  0  0  0  0  0  0  0  0  0  0  0
  149.3868  141.9844  157.3813 C   0  0  2  0  0  0  0  0  0  0  0  0
  148.5127  142.1997  156.2212 N   0  0  0  0  0  0  0  0  0  0  0  0
  148.9665  141.6014  154.9621 C   0  0  0  0  0  0  0  0  0  0  0  0
  147.7950  141.2726  154.0127 C   0  0  0  0  0  0  0  0  0  0  0  0
  147.2058  139.8982  154.3709 C   0  0  0  0  0  0  0  0  0  0  0  0
  146.6893  142.3453  154.0389 C   0  0  0  0  0  0  0  0  0  0  0  0
  148.3005  141.1619  152.6961 O   0  0  0  0  0  0  0  0  0  0  0  0
  150.8912  142.1845  157.0206 C   0  0  2  0  0  0  0  0  0  0  0  0
  151.6862  140.8650  156.9474 C   0  0  0  0  0  0  0  0  0  0  0  0
  151.5680  143.1080  157.9228 N   0  0  0  0  0  0  0  0  0  0  0  0
  151.3716  144.4679  158.0525 C   0  0  0  0  0  0  0  0  0  0  0  0
  152.2163  144.9124  159.0290 C   0  0  0  0  0  0  0  0  0  0  0  0
  152.9002  143.7362  159.4448 C   0  0  0  0  0  0  0  0  0  0  0  0
  152.5103  142.6586  158.7838 N   0  0  0  0  0  0  0  0  0  0  0  0
  149.6040  140.3922  158.8710 H   0  0  0  0  0  0  0  0  0  0  0  0
  149.4332  139.8029  157.2165 H   0  0  0  0  0  0  0  0  0  0  0  0
  148.0387  140.4243  158.0942 H   0  0  0  0  0  0  0  0  0  0  0  0
  149.1137  142.6826  158.1739 H   0  0  0  0  0  0  0  0  0  0  0  0
  148.3828  143.1964  156.0768 H   0  0  0  0  0  0  0  0  0  0  0  0
  149.6635  142.2772  154.4646 H   0  0  0  0  0  0  0  0  0  0  0  0
  149.5202  140.6851  155.1492 H   0  0  0  0  0  0  0  0  0  0  0  0
  146.7929  139.8990  155.3804 H   0  0  0  0  0  0  0  0  0  0  0  0
  147.9645  139.1154  154.3273 H   0  0  0  0  0  0  0  0  0  0  0  0
  146.4029  139.6165  153.6884 H   0  0  0  0  0  0  0  0  0  0  0  0
  146.2941  142.4746  155.0472 H   0  0  0  0  0  0  0  0  0  0  0  0
  145.8559  142.0714  153.3911 H   0  0  0  0  0  0  0  0  0  0  0  0
  147.0545  143.3157  153.7015 H   0  0  0  0  0  0  0  0  0  0  0  0
  148.7649  140.3424  152.6209 H   0  0  0  0  0  0  0  0  0  0  0  0
  150.9359  142.6322  156.0263 H   0  0  0  0  0  0  0  0  0  0  0  0
  151.3508  140.2362  156.1230 H   0  0  0  0  0  0  0  0  0  0  0  0
  151.5919  140.2888  157.8684 H   0  0  0  0  0  0  0  0  0  0  0  0
  152.7470  141.0574  156.7832 H   0  0  0  0  0  0  0  0  0  0  0  0
  150.6509  144.9994  157.4487 H   0  0  0  0  0  0  0  0  0  0  0  0
  152.3271  145.9232  159.3917 H   0  0  0  0  0  0  0  0  0  0  0  0
  153.6618  143.6340  160.2037 H   0  0  0  0  0  0  0  0  0  0  0  0
  1  2  1  0  0  0  0
  1 16  1  0  0  0  0
  1 17  1  0  0  0  0
  1 18  1  0  0  0  0
  2  3  1  0  0  0  0
  2  9  1  0  0  0  0
  2 19  1  0  0  0  0
  3  4  1  0  0  0  0
  3 20  1  0  0  0  0
  4  5  1  0  0  0  0
  4 21  1  0  0  0  0
  4 22  1  0  0  0  0
  5  6  1  0  0  0  0
  5  7  1  0  0  0  0
  5  8  1  0  0  0  0
  6 23  1  0  0  0  0
  6 24  1  0  0  0  0
  6 25  1  0  0  0  0
  7 26  1  0  0  0  0
  7 27  1  0  0  0  0
  7 28  1  0  0  0  0
  8 29  1  0  0  0  0
  9 10  1  0  0  0  0
  9 11  1  0  0  0  0
  9 30  1  0  0  0  0
 10 31  1  0  0  0  0
 10 32  1  0  0  0  0
 10 33  1  0  0  0  0
 11 15  1  0  0  0  0
 11 12  1  0  0  0  0
 12 13  2  0  0  0  0
 12 34  1  0  0  0  0
 13 14  1  0  0  0  0
 13 35  1  0  0  0  0
 14 15  2  0  0  0  0
 14 36  1  0  0  0  0
M  END
> <s_m_source_file>
AV-unprocessed.smi

> <i_m_source_file_index>
3117

> <i_lp_mmshare_version>
43012

> <i_f3d_flags>
0

> <s_epik_input>
W0NIM11DKFtDSDNdKShbT0hdKVtDSDJdW05IXVtDQEBIXShbQ0gzXSlbQ0BIXShbQ0gzXSluMVtjSF1bY0hdW2NIXW4x

> <s_epik_cmdline>
J2VwaWtfcHl0aG9uJywgJy1waCcsICc3LjAnLCAnLXRuJywgJzgnLCAnLW1hJywgJzIwMCcsICctbWV0YWxfYmluZGluZycsICctaW1hZScsICc8aW5maWxlLm1hZT4nLCAnLW9tYWUnLCAnPG91dGZpbGUubWFlPic=

> <r_lp_tautomer_probability>
1

> <r_epik_Ionization_Penalty>
2.13419

> <r_epik_Ionization_Penalty_Charging>
0

> <r_epik_Ionization_Penalty_Neutral>
2.13419

> <r_epik_State_Penalty>
2.27148

> <r_epik_Charging_Adjusted_Penalty>
2.27148

> <i_epik_Tot_Q>
0

> <i_epik_Tot_abs_Q>
0

> <r_epik_Metal_State_Penalty>
2.27029

> <b_epik_Metal_Only>
0

> <s_lp_Force_Field>
OPLS_2005

> <r_lp_Energy>
19.9089

> <b_lp_Chiralities_Consistent>
1

> <s_lp_Variant>
AV-unprocessed.smi:3117-5

> <Gold.Version>
5.8.1

> <Gold.Id.Protein>
6NUR|6NUR_protein|mol2

> <Gold.PLP.Fitness>
37.9181

> <Gold.PLP.PLP>
-32.8413

> <Gold.PLP.part.hbond>
-2.1123

> <Gold.PLP.part.metal>
0.0000

> <Gold.PLP.part.buried>
-2.0993

> <Gold.PLP.part.nonpolar>
-28.4455

> <Gold.PLP.part.repulsive>
0.0000

> <Gold.PLP.ligand.clash>
0.0000

> <Gold.PLP.ligand.torsion>
2.3089

> <Gold.PLP.Chemscore.Hbond>
2.2000

> <Gold.PLP.Chemscore.CHOScore>
1.0012

> <Gold.PLP.Chemscore.Metal>
0.0000

> <Gold.Chemscore.Hbonds>
donor molecule, donor type, donor heavy atom, donor atom, acceptor molecule, acceptor atom, score
      L1  H     3    20       P1  8028  1.00
      L1  H     8    29       P1  7957  0.34
      P1  H  8011  8017       L1     8  0.88
      L1  C    12    34       P1  8028  0.99
      L1  C    12    34       P1  8029  0.01

> <Gold.PLP.Chemscore.Internal.Correction>
0.0911

> <Gold.Rescore>
     Score         DG    S(hbond)    S(metal)    S(lipo)     H(rot)  DE(clash)    DE(int)     intcor
     13.90     -16.27       1.93        0.00      84.91       2.19       0.37       2.00       ----

> <Gold.Chemscore.Fitness>
13.8973

> <Gold.Chemscore.DG>
-16.2654

> <Gold.Chemscore.ZeroCoef>
-5.4800

> <Gold.Chemscore.Hbond>
1.9321

> <Gold.Chemscore.Metal>
0.0000

> <Gold.Chemscore.Lipo>
84.9065

> <Gold.Chemscore.Internal_Hbond>
0.0000

> <Gold.Chemscore.DEClash>
0.3725

> <Gold.Chemscore.DEInternal>
1.9956

> <Gold.Chemscore.Rot>
2.1882

> <Gold.Chemscore.Internal.Correction>
   9.000000E+99

> <Gold.Chemscore.Hbonds>
donor molecule, donor type, donor heavy atom, donor atom, acceptor molecule, acceptor atom, score
      L1  H     3    20       P1  8028  0.83
      L1  H     8    29       P1  7957  0.34
      P1  H  8011  8017       L1     8  0.19

> <Gold.Chemscore.Hbond.Weighted>
-6.4532

> <Gold.Chemscore.Metal.Weighted>
-0.0000

> <Gold.Chemscore.Lipo.Weighted>
-9.9341

> <Gold.Chemscore.Internal_Hbond.Weighted>
0.0000

> <Gold.Chemscore.DEClash.Weighted>
0.3725

> <Gold.Chemscore.DEInternal.Weighted>
1.9956

> <Gold.Chemscore.Rot.Weighted>
5.6018

> <Gold.Chemscore.Internal.Correction.Weighted>
   9.000000E+99

> <Gold.Protein.RotatedTorsions>
[ 6907 6896 6895 6894 ] final  157.35 input  -60.11 | X-H torsion
[ 7974 7965 7964 7962 ] final -125.53 input  175.53 | X-H torsion
[ 8008 7997 7996 7995 ] final  122.12 input   59.86 | X-H torsion
[ 10167 10162 10161 10158 ] final   13.29 input  -65.29 | X-H torsion
[ 10718 10713 10712 10709 ] final -125.49 input   66.30 | X-H torsion
[ 10763 10752 10751 10750 ] final  107.79 input  -60.55 | X-H torsion
[ 11005 11000 10999 10996 ] final -158.64 input  -57.11 | X-H torsion

> <Gold.Protein.ActiveResidues>
 VAL166  LYS551  ARG553  GLY616  TRP617  ASP618  TYR619  PRO620  LYS621  CYS622 
 ASP623  PHE694  ASN695  SER759  ASP760  ASP761  ALA762  ILE779  LEU786  VAL792 
 PHE793  MET794  SER795  GLU796  ALA797  LYS798  CYS799  TRP800  GLU811  SER814 

> <Gold.Protein.RotatedAtoms>
  152.0164  133.3881  159.4239 H   0  0  0  0  0  0  0  0  0  0  0  0  # atno 6907 bound_to 6896
  150.6894  134.3674  159.4986 H   0  0  0  0  0  0  0  0  0  0  0  0  # atno 6908 bound_to 6896
  152.1442  134.9038  160.0602 H   0  0  0  0  0  0  0  0  0  0  0  0  # atno 6909 bound_to 6896
  144.9966  140.7782  143.4522 H   0  0  0  0  0  0  0  0  0  0  0  0  # atno 7974 bound_to 7965
  156.2715  140.2793  156.1417 H   0  0  0  0  0  0  0  0  0  0  0  0  # atno 8008 bound_to 7997
  155.0946  140.0389  157.2696 H   0  0  0  0  0  0  0  0  0  0  0  0  # atno 8009 bound_to 7997
  154.6863  140.2619  155.6863 H   0  0  0  0  0  0  0  0  0  0  0  0  # atno 8010 bound_to 7997
  140.6012  143.8601  150.6967 H   0  0  0  0  0  0  0  0  0  0  0  0  # atno 10167 bound_to 10162
  156.1680  130.6647  151.0141 H   0  0  0  0  0  0  0  0  0  0  0  0  # atno 10718 bound_to 10713
  153.4117  135.3833  155.2054 H   0  0  0  0  0  0  0  0  0  0  0  0  # atno 10763 bound_to 10752
  154.8738  135.3796  154.4493 H   0  0  0  0  0  0  0  0  0  0  0  0  # atno 10764 bound_to 10752
  153.5002  135.7088  153.5898 H   0  0  0  0  0  0  0  0  0  0  0  0  # atno 10765 bound_to 10752
  140.6514  134.4447  157.5235 H   0  0  0  0  0  0  0  0  0  0  0  0  # atno 11005 bound_to 11000
  145.2211  139.2158  143.5092 LP  0  0  0  0  0  0  0  0  0  0  0  0  # atno 17320 bound_to 7965
  146.3443  140.2069  142.8589 LP  0  0  0  0  0  0  0  0  0  0  0  0  # atno 17321 bound_to 7965
  140.2147  143.3856  152.1690 LP  0  0  0  0  0  0  0  0  0  0  0  0  # atno 17342 bound_to 10162
  139.5292  144.7139  151.5116 LP  0  0  0  0  0  0  0  0  0  0  0  0  # atno 17343 bound_to 10162
  157.6782  131.0845  150.7440 LP  0  0  0  0  0  0  0  0  0  0  0  0  # atno 17370 bound_to 10713
  156.7500  130.4765  149.5459 LP  0  0  0  0  0  0  0  0  0  0  0  0  # atno 17371 bound_to 10713
  139.9044  134.8481  156.1763 LP  0  0  0  0  0  0  0  0  0  0  0  0  # atno 17394 bound_to 11000
  141.0534  133.6877  156.1815 LP  0  0  0  0  0  0  0  0  0  0  0  0  # atno 17395 bound_to 11000

$$$$
