#       Name:                AV-unprocessed.smi:1821
#       Creating user name   scv26
#       Creation time:       Fri Mar 27 09:05:45 2020


#       File generated by GOLD software.
#

@<TRIPOS>MOLECULE
AV-unprocessed.smi:1821
    38    40     1
SMALL
NO_CHARGES


@<TRIPOS>ATOM
      1 ****        -1.1906   1.0720  -2.8003 C.3            1 S1                 0.0000
      2 ****        -1.3567   1.6545  -1.4323 C.2            1 S1                 0.0000
      3 ****        -1.8157   2.8906  -1.2367 N.2            1 S1                 0.0000
      4 ****        -1.8070   3.0023   0.1405 C.ar           1 S1                 0.0000
      5 ****        -2.1809   4.0784   0.9770 C.ar           1 S1                 0.0000
      6 ****        -2.0841   3.9599   2.3790 C.ar           1 S1                 0.0000
      7 ****        -1.6128   2.7665   2.9637 C.ar           1 S1                 0.0000
      8 ****        -1.2348   1.6823   2.1486 C.ar           1 S1                 0.0000
      9 ****        -1.3339   1.8053   0.7496 C.ar           1 S1                 0.0000
     10 ****        -1.0501   0.9533  -0.3135 N.pl3          1 S1                 0.0000
     11 ****        -0.5312  -0.4044  -0.2209 C.3            1 S1                 0.0000
     12 ****         1.0062  -0.4655  -0.3336 C.3            1 S1                 0.0000
     13 ****         1.6050   0.3296   0.6725 O.3            1 S1                 0.0000
     14 ****         1.5092  -1.9049  -0.3149 C.ar           1 S1                 0.0000
     15 ****         1.5245  -2.6509   0.8884 C.ar           1 S1                 0.0000
     16 ****         1.0894  -2.1001   2.0473 F              1 S1                 0.0000
     17 ****         1.9883  -3.9807   0.8940 C.ar           1 S1                 0.0000
     18 ****         2.4338  -4.5795  -0.2986 C.ar           1 S1                 0.0000
     19 ****         2.4124  -3.8479  -1.5003 C.ar           1 S1                 0.0000
     20 ****         1.9512  -2.5171  -1.5111 C.ar           1 S1                 0.0000
     21 ****         1.9341  -1.8345  -2.6814 F              1 S1                 0.0000
     22 ****        -1.4824   1.7967  -3.5611 H              1 S1                 0.0000
     23 ****        -1.8167   0.1868  -2.9132 H              1 S1                 0.0000
     24 ****        -0.1508   0.7959  -2.9735 H              1 S1                 0.0000
     25 ****        -2.5426   4.9968   0.5385 H              1 S1                 0.0000
     26 ****        -2.3720   4.7890   3.0087 H              1 S1                 0.0000
     27 ****        -1.5403   2.6843   4.0383 H              1 S1                 0.0000
     28 ****        -0.8693   0.7683   2.5926 H              1 S1                 0.0000
     29 ****        -0.8627  -0.8363   0.7241 H              1 S1                 0.0000
     30 ****        -0.9903  -1.0087  -1.0038 H              1 S1                 0.0000
     31 ****         1.2999  -0.0070  -1.2772 H              1 S1                 0.0000
     32 ****         2.5338   0.3778   0.5046 H              1 S1                 0.0000
     33 ****         1.9997  -4.5431   1.8160 H              1 S1                 0.0000
     34 ****         2.7880  -5.5998  -0.2922 H              1 S1                 0.0000
     35 ****         2.7494  -4.3088  -2.4171 H              1 S1                 0.0000
     36 ****        -2.0963   3.5679  -1.9169 LP             1 S1                 0.0000
     37 ****         1.4455  -0.0843   1.5687 LP             1 S1                 0.0000
     38 ****         1.2111   1.2486   0.6548 LP             1 S1                 0.0000
@<TRIPOS>BOND
    1    1    2 1     
    2    1   22 1     
    3    1   23 1     
    4    1   24 1     
    5    2   10 1     
    6    2    3 2     
    7    3    4 1     
    8    4    9 ar    
    9    4    5 ar    
   10    5    6 ar    
   11    5   25 1     
   12    6    7 ar    
   13    6   26 1     
   14    7    8 ar    
   15    7   27 1     
   16    8    9 ar    
   17    8   28 1     
   18    9   10 1     
   19   10   11 1     
   20   11   12 1     
   21   11   29 1     
   22   11   30 1     
   23   12   13 1     
   24   12   14 1     
   25   12   31 1     
   26   13   32 1     
   27   14   20 ar    
   28   14   15 ar    
   29   15   16 1     
   30   15   17 ar    
   31   17   18 ar    
   32   17   33 1     
   33   18   19 ar    
   34   18   34 1     
   35   19   20 ar    
   36   19   35 1     
   37   20   21 1     
   38    3   36 1     
   39   13   37 1     
   40   13   38 1     
@<TRIPOS>SUBSTRUCTURE
      1 S1             1
@<TRIPOS>SET
LONE_PAIRS      STATIC     ATOMS    <user>   **** ""
3 36 37 38
DONOR_HYDROGENS      STATIC     ATOMS    <user>   **** ""
1 32
ATOM$BLUE        STATIC     ATOMS    COLORGROUP SYSTEM
3 36 37 38
ATOM$RED        STATIC     ATOMS    COLORGROUP SYSTEM
1 32
