AV-unprocessed.smi:690|AV-procd|sdf|3360|dock2
  -GOLD-   22720 0343D 1   1.00000     0.00000
 Structure written by MMmdl.
 46 48  0  0  0  0  0  0  0  0  1 V2000
  152.9636  142.2850  159.7290 C   0  0  0  0  0  0  0  0  0  0  0  0
  153.6642  140.9479  159.4805 C   0  0  0  0  0  0  0  0  0  0  0  0
  153.1261  140.3606  158.3080 O   0  0  0  0  0  0  0  0  0  0  0  0
  151.9900  139.5507  158.5673 C   0  0  2  0  0  0  0  0  0  0  0  0
  152.2833  138.2579  159.3352 C   0  0  0  0  0  0  0  0  0  0  0  0
  151.2971  137.5566  158.3939 C   0  0  1  0  0  0  0  0  0  0  0  0
  149.9411  137.5727  158.9442 N   0  0  0  0  0  0  0  0  0  0  0  0
  149.1124  136.5191  158.9686 C   0  0  0  0  0  0  0  0  0  0  0  0
  149.4114  135.4139  158.5151 O   0  0  0  0  0  0  0  0  0  0  0  0
  147.7228  136.7687  159.5696 C   0  0  0  0  0  0  0  0  0  0  0  0
  147.4040  135.8595  160.6826 N   0  0  0  0  0  0  0  0  0  0  0  0
  147.3542  134.4809  160.3944 C   0  0  0  0  0  0  0  0  0  0  0  0
  147.0655  133.5687  161.3361 C   0  0  0  0  0  0  0  0  0  0  0  0
  146.7994  134.0326  162.6770 C   0  0  0  0  0  0  0  0  0  0  0  0
  146.8486  135.3485  162.9645 C   0  0  0  0  0  0  0  0  0  0  0  0
  147.1687  136.3487  161.9394 C   0  0  0  0  0  0  0  0  0  0  0  0
  147.2196  137.5524  162.1940 O   0  0  0  0  0  0  0  0  0  0  0  0
  151.5553  138.6844  157.3599 C   0  0  0  0  0  0  0  0  0  0  0  0
  152.6159  138.4001  156.2933 C   0  0  0  0  0  0  0  0  0  0  0  0
  152.4576  139.4637  155.2020 C   0  0  0  0  0  0  0  0  0  0  0  0
  151.0379  140.0164  155.3624 C   0  0  0  0  0  0  0  0  0  0  0  0
  150.4075  139.2111  156.5007 C   0  0  0  0  0  0  0  0  0  0  0  0
  153.3564  142.7705  160.6225 H   0  0  0  0  0  0  0  0  0  0  0  0
  151.8913  142.1447  159.8671 H   0  0  0  0  0  0  0  0  0  0  0  0
  153.1078  142.9641  158.8883 H   0  0  0  0  0  0  0  0  0  0  0  0
  154.7374  141.1069  159.3674 H   0  0  0  0  0  0  0  0  0  0  0  0
  153.5159  140.2861  160.3348 H   0  0  0  0  0  0  0  0  0  0  0  0
  151.1554  140.1116  158.9937 H   0  0  0  0  0  0  0  0  0  0  0  0
  153.3096  137.9100  159.2057 H   0  0  0  0  0  0  0  0  0  0  0  0
  151.9966  138.2762  160.3874 H   0  0  0  0  0  0  0  0  0  0  0  0
  151.6431  136.5718  158.0752 H   0  0  0  0  0  0  0  0  0  0  0  0
  149.6144  138.4454  159.3327 H   0  0  0  0  0  0  0  0  0  0  0  0
  147.6435  137.8061  159.9005 H   0  0  0  0  0  0  0  0  0  0  0  0
  146.9883  136.6678  158.7696 H   0  0  0  0  0  0  0  0  0  0  0  0
  147.5714  134.2162  159.3697 H   0  0  0  0  0  0  0  0  0  0  0  0
  147.0358  132.5156  161.0982 H   0  0  0  0  0  0  0  0  0  0  0  0
  146.5602  133.3213  163.4538 H   0  0  0  0  0  0  0  0  0  0  0  0
  146.6467  135.6769  163.9736 H   0  0  0  0  0  0  0  0  0  0  0  0
  153.6302  138.3891  156.6939 H   0  0  0  0  0  0  0  0  0  0  0  0
  152.4449  137.4145  155.8582 H   0  0  0  0  0  0  0  0  0  0  0  0
  153.1852  140.2639  155.3433 H   0  0  0  0  0  0  0  0  0  0  0  0
  152.6224  139.0417  154.2101 H   0  0  0  0  0  0  0  0  0  0  0  0
  151.0835  141.0719  155.6331 H   0  0  0  0  0  0  0  0  0  0  0  0
  150.4572  139.9367  154.4429 H   0  0  0  0  0  0  0  0  0  0  0  0
  149.8440  138.3763  156.0816 H   0  0  0  0  0  0  0  0  0  0  0  0
  149.7007  139.8163  157.0694 H   0  0  0  0  0  0  0  0  0  0  0  0
  1  2  1  0  0  0  0
  1 23  1  0  0  0  0
  1 24  1  0  0  0  0
  1 25  1  0  0  0  0
  2  3  1  0  0  0  0
  2 26  1  0  0  0  0
  2 27  1  0  0  0  0
  3  4  1  0  0  0  0
  4 18  1  0  0  0  0
  4  5  1  0  0  0  0
  4 28  1  0  0  0  0
  5  6  1  0  0  0  0
  5 29  1  0  0  0  0
  5 30  1  0  0  0  0
  6  7  1  0  0  0  0
  6 18  1  0  0  0  0
  6 31  1  0  0  0  0
  7  8  1  0  0  0  0
  7 32  1  0  0  0  0
  8  9  2  0  0  0  0
  8 10  1  0  0  0  0
 10 11  1  0  0  0  0
 10 33  1  0  0  0  0
 10 34  1  0  0  0  0
 11 16  1  0  0  0  0
 11 12  1  0  0  0  0
 12 13  2  0  0  0  0
 12 35  1  0  0  0  0
 13 14  1  0  0  0  0
 13 36  1  0  0  0  0
 14 15  2  0  0  0  0
 14 37  1  0  0  0  0
 15 16  1  0  0  0  0
 15 38  1  0  0  0  0
 16 17  2  0  0  0  0
 18 22  1  0  0  0  0
 18 19  1  0  0  0  0
 19 20  1  0  0  0  0
 19 39  1  0  0  0  0
 19 40  1  0  0  0  0
 20 21  1  0  0  0  0
 20 41  1  0  0  0  0
 20 42  1  0  0  0  0
 21 22  1  0  0  0  0
 21 43  1  0  0  0  0
 21 44  1  0  0  0  0
 22 45  1  0  0  0  0
 22 46  1  0  0  0  0
M  END
> <s_m_source_file>
AV-unprocessed.smi

> <i_m_source_file_index>
690

> <i_lp_mmshare_version>
43012

> <i_f3d_flags>
0

> <s_epik_input>
W0NIMl0xW0NIMl1bQ0gyXVtDSDJdQzEyW0NASF0oT1tDSDJdW0NIM10pW0NIMl1bQ0BIXTJbTkhdQyg9TylbQ0gyXW4zW2NIXVtjSF1bY0hdW2NIXWMzPU8=

> <s_epik_cmdline>
J2VwaWtfcHl0aG9uJywgJy1waCcsICc3LjAnLCAnLXRuJywgJzgnLCAnLW1hJywgJzIwMCcsICctbWV0YWxfYmluZGluZycsICctaW1hZScsICc8aW5maWxlLm1hZT4nLCAnLW9tYWUnLCAnPG91dGZpbGUubWFlPic=

> <r_lp_tautomer_probability>
1

> <r_epik_Ionization_Penalty>
4.11691e-07

> <r_epik_Ionization_Penalty_Charging>
3.92797e-07

> <r_epik_Ionization_Penalty_Neutral>
1.88943e-08

> <r_epik_State_Penalty>
-0

> <r_epik_Charging_Adjusted_Penalty>
3.92797e-07

> <i_epik_Tot_Q>
0

> <i_epik_Tot_abs_Q>
0

> <r_epik_Metal_State_Penalty>
-0

> <b_epik_Metal_Only>
0

> <s_lp_Force_Field>
OPLS_2005

> <r_lp_Energy>
46.6505

> <b_lp_Chiralities_Consistent>
1

> <s_lp_Variant>
AV-unprocessed.smi:690-1

> <Gold.Version>
5.8.1

> <Gold.Id.Protein>
6NUR|6NUR_protein|mol2

> <Gold.PLP.Fitness>
51.1813

> <Gold.PLP.PLP>
-41.5263

> <Gold.PLP.part.hbond>
-4.0000

> <Gold.PLP.part.metal>
0.0000

> <Gold.PLP.part.buried>
-0.8183

> <Gold.PLP.part.nonpolar>
-35.5482

> <Gold.PLP.part.repulsive>
0.1841

> <Gold.PLP.ligand.clash>
0.0000

> <Gold.PLP.ligand.torsion>
0.3593

> <Gold.PLP.Chemscore.Hbond>
3.3360

> <Gold.PLP.Chemscore.CHOScore>
0.0000

> <Gold.PLP.Chemscore.Metal>
0.0000

> <Gold.Chemscore.Hbonds>
donor molecule, donor type, donor heavy atom, donor atom, acceptor molecule, acceptor atom, score
      P1  H  6896  6908       L1     9  1.00
      P1  H  6931  6943       L1    17  0.66
      P1  H  6934  6947       L1    17  0.59
      P1  H  7997  8008       L1     3  0.88

> <Gold.PLP.Chemscore.Internal.Correction>
0.3657

> <Gold.Rescore>
     Score         DG    S(hbond)    S(metal)    S(lipo)     H(rot)  DE(clash)    DE(int)     intcor
     19.82     -21.39       2.60        0.00      98.64       1.69       0.03       1.55       ----

> <Gold.Chemscore.Fitness>
19.8166

> <Gold.Chemscore.DG>
-21.3901

> <Gold.Chemscore.ZeroCoef>
-5.4800

> <Gold.Chemscore.Hbond>
2.6036

> <Gold.Chemscore.Metal>
0.0000

> <Gold.Chemscore.Lipo>
98.6383

> <Gold.Chemscore.Internal_Hbond>
0.0000

> <Gold.Chemscore.DEClash>
0.0270

> <Gold.Chemscore.DEInternal>
1.5465

> <Gold.Chemscore.Rot>
1.6900

> <Gold.Chemscore.Internal.Correction>
   9.000000E+99

> <Gold.Chemscore.Hbonds>
donor molecule, donor type, donor heavy atom, donor atom, acceptor molecule, acceptor atom, score
      P1  H  6896  6908       L1     9  0.85
      P1  H  6931  6943       L1    17  0.52
      P1  H  6934  6947       L1    17  0.58
      P1  H  7997  8008       L1     3  0.56

> <Gold.Chemscore.Hbond.Weighted>
-8.6959

> <Gold.Chemscore.Metal.Weighted>
-0.0000

> <Gold.Chemscore.Lipo.Weighted>
-11.5407

> <Gold.Chemscore.Internal_Hbond.Weighted>
0.0000

> <Gold.Chemscore.DEClash.Weighted>
0.0270

> <Gold.Chemscore.DEInternal.Weighted>
1.5465

> <Gold.Chemscore.Rot.Weighted>
4.3265

> <Gold.Chemscore.Internal.Correction.Weighted>
   9.000000E+99

> <Gold.Protein.RotatedTorsions>
[ 6907 6896 6895 6894 ] final  166.99 input  -60.11 | X-H torsion
[ 7974 7965 7964 7962 ] final -118.41 input  175.53 | X-H torsion
[ 8008 7997 7996 7995 ] final  -87.35 input   59.86 | X-H torsion
[ 10167 10162 10161 10158 ] final  -19.82 input  -65.29 | X-H torsion
[ 10718 10713 10712 10709 ] final -161.02 input   66.30 | X-H torsion
[ 10763 10752 10751 10750 ] final   27.97 input  -60.55 | X-H torsion
[ 11005 11000 10999 10996 ] final -163.29 input  -57.11 | X-H torsion

> <Gold.Protein.ActiveResidues>
 VAL166  LYS551  ARG553  GLY616  TRP617  ASP618  TYR619  PRO620  LYS621  CYS622 
 ASP623  PHE694  ASN695  SER759  ASP760  ASP761  ALA762  ILE779  LEU786  VAL792 
 PHE793  MET794  SER795  GLU796  ALA797  LYS798  CYS799  TRP800  GLU811  SER814 

> <Gold.Protein.RotatedAtoms>
  151.8704  133.3474  159.3732 H   0  0  0  0  0  0  0  0  0  0  0  0  # atno 6907 bound_to 6896
  150.7154  134.5119  159.5620 H   0  0  0  0  0  0  0  0  0  0  0  0  # atno 6908 bound_to 6896
  152.2650  134.7994  160.0475 H   0  0  0  0  0  0  0  0  0  0  0  0  # atno 6909 bound_to 6896
  145.0741  140.8380  143.4078 H   0  0  0  0  0  0  0  0  0  0  0  0  # atno 7974 bound_to 7965
  154.6622  140.0567  157.0075 H   0  0  0  0  0  0  0  0  0  0  0  0  # atno 8008 bound_to 7997
  155.1211  140.3247  155.4478 H   0  0  0  0  0  0  0  0  0  0  0  0  # atno 8009 bound_to 7997
  156.2623  140.1997  156.6333 H   0  0  0  0  0  0  0  0  0  0  0  0  # atno 8010 bound_to 7997
  140.7271  143.4782  151.0153 H   0  0  0  0  0  0  0  0  0  0  0  0  # atno 10167 bound_to 10162
  156.5903  130.8767  151.2888 H   0  0  0  0  0  0  0  0  0  0  0  0  # atno 10718 bound_to 10713
  153.0522  135.6524  154.0666 H   0  0  0  0  0  0  0  0  0  0  0  0  # atno 10763 bound_to 10752
  154.0352  135.2908  155.3364 H   0  0  0  0  0  0  0  0  0  0  0  0  # atno 10764 bound_to 10752
  154.6816  135.5317  153.8338 H   0  0  0  0  0  0  0  0  0  0  0  0  # atno 10765 bound_to 10752
  140.5997  134.4959  157.5203 H   0  0  0  0  0  0  0  0  0  0  0  0  # atno 11005 bound_to 11000
  145.1257  139.2665  143.5565 LP  0  0  0  0  0  0  0  0  0  0  0  0  # atno 17320 bound_to 7965
  146.3529  140.0893  142.8613 LP  0  0  0  0  0  0  0  0  0  0  0  0  # atno 17321 bound_to 7965
  139.8479  143.7477  152.3179 LP  0  0  0  0  0  0  0  0  0  0  0  0  # atno 17342 bound_to 10162
  139.7649  144.7495  151.0309 LP  0  0  0  0  0  0  0  0  0  0  0  0  # atno 17343 bound_to 10162
  157.7305  130.9686  150.1836 LP  0  0  0  0  0  0  0  0  0  0  0  0  # atno 17370 bound_to 10713
  156.2555  130.3705  149.8186 LP  0  0  0  0  0  0  0  0  0  0  0  0  # atno 17371 bound_to 10713
  139.9238  134.8097  156.1131 LP  0  0  0  0  0  0  0  0  0  0  0  0  # atno 17394 bound_to 11000
  141.0880  133.6726  156.2478 LP  0  0  0  0  0  0  0  0  0  0  0  0  # atno 17395 bound_to 11000

$$$$
