AV-unprocessed.smi:2379|AV-procd|sdf|9453|dock1
  -GOLD-   2272013 83D 1   1.00000     0.00000
 Structure written by MMmdl.
 53 55  0  0  0  0  0  0  0  0  2 V2000
  155.3788  140.1118  160.3060 C   0  0  0  0  0  0  0  0  0  0  0  0
  154.0854  140.8731  160.1051 C   0  0  0  0  0  0  0  0  0  0  0  0
  153.7551  141.9631  160.9329 C   0  0  0  0  0  0  0  0  0  0  0  0
  152.5391  142.6333  160.6962 C   0  0  0  0  0  0  0  0  0  0  0  0
  152.1229  143.8129  161.5496 C   0  0  0  0  0  0  0  0  0  0  0  0
  151.6797  142.2764  159.7177 N   0  0  0  0  0  0  0  0  0  0  0  0
  151.9875  141.2286  158.9139 C   0  0  0  0  0  0  0  0  0  0  0  0
  151.1567  140.7818  157.8521 N   0  0  0  0  0  0  0  0  0  0  0  0
  151.5264  140.1787  156.7084 C   0  0  0  0  0  0  0  0  0  0  0  0
  152.6869  139.9570  156.3621 O   0  0  0  0  0  0  0  0  0  0  0  0
  150.4595  139.8432  155.9677 N   0  0  0  0  0  0  0  0  0  0  0  0
  150.5105  139.1918  154.6585 C   0  0  2  0  0  0  0  0  0  0  0  0
  149.0929  138.8309  154.1817 C   0  0  0  0  0  0  0  0  0  0  0  0
  148.4923  137.6574  154.9788 C   0  0  0  0  0  0  0  0  0  0  0  0
  149.3811  136.4662  154.9436 N   0  3  2  0  0  0  0  0  0  0  0  0
  148.7665  135.2740  155.5848 C   0  0  0  0  0  0  0  0  0  0  0  0
  149.5710  133.9842  155.3261 C   0  0  2  0  0  0  0  0  0  0  0  0
  149.3890  133.4373  153.9235 C   0  0  0  0  0  0  0  0  0  0  0  0
  149.8807  132.0027  154.0759 C   0  0  0  0  0  0  0  0  0  0  0  0
  149.5159  131.6177  155.3960 O   0  0  0  0  0  0  0  0  0  0  0  0
  149.1633  132.7664  156.1607 C   0  0  0  0  0  0  0  0  0  0  0  0
  150.7323  136.7850  155.4747 C   0  0  0  0  0  0  0  0  0  0  0  0
  151.3862  137.9228  154.6734 C   0  0  0  0  0  0  0  0  0  0  0  0
  153.1900  140.5052  159.0804 C   0  0  0  0  0  0  0  0  0  0  0  0
  155.7826  140.2802  161.3048 H   0  0  0  0  0  0  0  0  0  0  0  0
  156.1222  140.4337  159.5766 H   0  0  0  0  0  0  0  0  0  0  0  0
  155.2165  139.0407  160.1832 H   0  0  0  0  0  0  0  0  0  0  0  0
  154.4159  142.2775  161.7277 H   0  0  0  0  0  0  0  0  0  0  0  0
  152.9797  144.2412  162.0706 H   0  0  0  0  0  0  0  0  0  0  0  0
  151.3903  143.4995  162.2933 H   0  0  0  0  0  0  0  0  0  0  0  0
  151.6763  144.5953  160.9349 H   0  0  0  0  0  0  0  0  0  0  0  0
  150.1676  140.9317  157.9844 H   0  0  0  0  0  0  0  0  0  0  0  0
  149.5446  140.0716  156.3281 H   0  0  0  0  0  0  0  0  0  0  0  0
  150.9360  139.9055  153.9505 H   0  0  0  0  0  0  0  0  0  0  0  0
  148.4387  139.7015  154.2446 H   0  0  0  0  0  0  0  0  0  0  0  0
  149.1310  138.5589  153.1260 H   0  0  0  0  0  0  0  0  0  0  0  0
  148.3157  137.9505  156.0149 H   0  0  0  0  0  0  0  0  0  0  0  0
  147.5209  137.4044  154.5521 H   0  0  0  0  0  0  0  0  0  0  0  0
  148.6120  135.4429  156.6517 H   0  0  0  0  0  0  0  0  0  0  0  0
  147.7711  135.1195  155.1657 H   0  0  0  0  0  0  0  0  0  0  0  0
  150.6344  134.1791  155.4764 H   0  0  0  0  0  0  0  0  0  0  0  0
  148.3344  133.4423  153.6438 H   0  0  0  0  0  0  0  0  0  0  0  0
  149.9446  133.9953  153.1692 H   0  0  0  0  0  0  0  0  0  0  0  0
  149.4539  131.3313  153.3305 H   0  0  0  0  0  0  0  0  0  0  0  0
  150.9672  131.9610  153.9887 H   0  0  0  0  0  0  0  0  0  0  0  0
  149.6541  132.7478  157.1338 H   0  0  0  0  0  0  0  0  0  0  0  0
  148.0847  132.7478  156.3222 H   0  0  0  0  0  0  0  0  0  0  0  0
  150.6576  137.0596  156.5282 H   0  0  0  0  0  0  0  0  0  0  0  0
  151.3766  135.9095  155.4286 H   0  0  0  0  0  0  0  0  0  0  0  0
  151.5459  137.5876  153.6478 H   0  0  0  0  0  0  0  0  0  0  0  0
  152.3775  138.1386  155.0730 H   0  0  0  0  0  0  0  0  0  0  0  0
  153.4250  139.6738  158.4314 H   0  0  0  0  0  0  0  0  0  0  0  0
  149.4944  136.2349  153.9669 H   0  0  0  0  0  0  0  0  0  0  0  0
  1  2  1  0  0  0  0
  1 25  1  0  0  0  0
  1 26  1  0  0  0  0
  1 27  1  0  0  0  0
  2 24  1  0  0  0  0
  2  3  2  0  0  0  0
  3  4  1  0  0  0  0
  3 28  1  0  0  0  0
  4  5  1  0  0  0  0
  4  6  2  0  0  0  0
  5 29  1  0  0  0  0
  5 30  1  0  0  0  0
  5 31  1  0  0  0  0
  6  7  1  0  0  0  0
  7  8  1  0  0  0  0
  7 24  2  0  0  0  0
  8  9  1  0  0  0  0
  8 32  1  0  0  0  0
  9 10  2  0  0  0  0
  9 11  1  0  0  0  0
 11 12  1  0  0  0  0
 11 33  1  0  0  0  0
 12 23  1  0  0  0  0
 12 13  1  0  0  0  0
 12 34  1  0  0  0  0
 13 14  1  0  0  0  0
 13 35  1  0  0  0  0
 13 36  1  0  0  0  0
 14 15  1  0  0  0  0
 14 37  1  0  0  0  0
 14 38  1  0  0  0  0
 15 16  1  0  0  0  0
 15 22  1  0  0  0  0
 15 53  1  0  0  0  0
 16 17  1  0  0  0  0
 16 39  1  0  0  0  0
 16 40  1  0  0  0  0
 17 21  1  0  0  0  0
 17 18  1  0  0  0  0
 17 41  1  0  0  0  0
 18 19  1  0  0  0  0
 18 42  1  0  0  0  0
 18 43  1  0  0  0  0
 19 20  1  0  0  0  0
 19 44  1  0  0  0  0
 19 45  1  0  0  0  0
 20 21  1  0  0  0  0
 21 46  1  0  0  0  0
 21 47  1  0  0  0  0
 22 23  1  0  0  0  0
 22 48  1  0  0  0  0
 22 49  1  0  0  0  0
 23 50  1  0  0  0  0
 23 51  1  0  0  0  0
 24 52  1  0  0  0  0
M  CHG  1  15   1
M  END
> <s_m_source_file>
AV-unprocessed.smi

> <i_m_source_file_index>
2379

> <i_lp_mmshare_version>
43012

> <i_f3d_flags>
0

> <s_epik_input>
W0NIM11jMVtjSF1jKFtDSDNdKW5jKFtjSF0xKVtOSF1DKD1PKVtOSF1bQ0hdMltDSDJdW0NIMl1OKFtDSDJdW0NIMl0yKVtDSDJdW0NAQEhdM1tDSDJdW0NIMl1PW0NIMl0z

> <s_epik_cmdline>
J2VwaWtfcHl0aG9uJywgJy1waCcsICc3LjAnLCAnLXRuJywgJzgnLCAnLW1hJywgJzIwMCcsICctbWV0YWxfYmluZGluZycsICctaW1hZScsICc8aW5maWxlLm1hZT4nLCAnLW9tYWUnLCAnPG91dGZpbGUubWFlPic=

> <r_epik_Ionization_Penalty>
0.00766556

> <r_epik_Ionization_Penalty_Charging>
0.00747775

> <r_epik_Ionization_Penalty_Neutral>
0.00018781

> <r_epik_State_Penalty>
0.00558817

> <r_epik_Charging_Adjusted_Penalty>
0.0130659

> <i_epik_Tot_Q>
1

> <i_epik_Tot_abs_Q>
1

> <r_epik_Metal_State_Penalty>
-0

> <b_epik_Metal_Only>
0

> <s_lp_Force_Field>
OPLS_2005

> <r_lp_Energy>
34.3762

> <b_lp_Chiralities_Consistent>
1

> <s_lp_Variant>
AV-unprocessed.smi:2379-3

> <Gold.Version>
5.8.1

> <Gold.Id.Protein>
6NUR|6NUR_protein|mol2

> <Gold.PLP.Fitness>
51.9350

> <Gold.PLP.PLP>
-43.5477

> <Gold.PLP.part.hbond>
-2.0452

> <Gold.PLP.part.metal>
0.0000

> <Gold.PLP.part.buried>
-4.3483

> <Gold.PLP.part.nonpolar>
-36.6842

> <Gold.PLP.part.repulsive>
0.1469

> <Gold.PLP.ligand.clash>
0.0000

> <Gold.PLP.ligand.torsion>
0.3475

> <Gold.PLP.Chemscore.Hbond>
3.0000

> <Gold.PLP.Chemscore.CHOScore>
0.0000

> <Gold.PLP.Chemscore.Metal>
0.0000

> <Gold.Chemscore.Hbonds>
donor molecule, donor type, donor heavy atom, donor atom, acceptor molecule, acceptor atom, score
      L1  H    15    53       P1  7948  1.43
      P1  H  7997  8009       L1    10  1.00

> <Gold.PLP.Chemscore.Internal.Correction>
0.0822

> <Gold.Rescore>
     Score         DG    S(hbond)    S(metal)    S(lipo)     H(rot)  DE(clash)    DE(int)     intcor
     18.66     -21.45       1.95        0.00     110.82       1.37       0.12       2.68       ----

> <Gold.Chemscore.Fitness>
18.6569

> <Gold.Chemscore.DG>
-21.4547

> <Gold.Chemscore.ZeroCoef>
-5.4800

> <Gold.Chemscore.Hbond>
1.9528

> <Gold.Chemscore.Metal>
0.0000

> <Gold.Chemscore.Lipo>
110.8193

> <Gold.Chemscore.Internal_Hbond>
0.0000

> <Gold.Chemscore.DEClash>
0.1173

> <Gold.Chemscore.DEInternal>
2.6805

> <Gold.Chemscore.Rot>
1.3725

> <Gold.Chemscore.Internal.Correction>
   9.000000E+99

> <Gold.Chemscore.Hbonds>
donor molecule, donor type, donor heavy atom, donor atom, acceptor molecule, acceptor atom, score
      L1  H    15    53       P1  7948  0.52
      P1  H  7997  8009       L1    10  0.99

> <Gold.Chemscore.Hbond.Weighted>
-6.5224

> <Gold.Chemscore.Metal.Weighted>
-0.0000

> <Gold.Chemscore.Lipo.Weighted>
-12.9659

> <Gold.Chemscore.Internal_Hbond.Weighted>
0.0000

> <Gold.Chemscore.DEClash.Weighted>
0.1173

> <Gold.Chemscore.DEInternal.Weighted>
2.6805

> <Gold.Chemscore.Rot.Weighted>
3.5136

> <Gold.Chemscore.Internal.Correction.Weighted>
   9.000000E+99

> <Gold.Protein.RotatedTorsions>
[ 6907 6896 6895 6894 ] final -158.03 input  -60.11 | X-H torsion
[ 7974 7965 7964 7962 ] final  140.74 input  175.53 | X-H torsion
[ 8008 7997 7996 7995 ] final -153.55 input   59.86 | X-H torsion
[ 10167 10162 10161 10158 ] final    5.71 input  -65.29 | X-H torsion
[ 10718 10713 10712 10709 ] final  126.93 input   66.30 | X-H torsion
[ 10763 10752 10751 10750 ] final -177.18 input  -60.55 | X-H torsion
[ 11005 11000 10999 10996 ] final   79.91 input  -57.11 | X-H torsion

> <Gold.Protein.ActiveResidues>
 VAL166  LYS551  ARG553  GLY616  TRP617  ASP618  TYR619  PRO620  LYS621  CYS622 
 ASP623  PHE694  ASN695  SER759  ASP760  ASP761  ALA762  ILE779  LEU786  VAL792 
 PHE793  MET794  SER795  GLU796  ALA797  LYS798  CYS799  TRP800  GLU811  SER814 

> <Gold.Protein.RotatedAtoms>
  151.3119  133.4077  159.2647 H   0  0  0  0  0  0  0  0  0  0  0  0  # atno 6907 bound_to 6896
  151.0107  134.9395  159.8016 H   0  0  0  0  0  0  0  0  0  0  0  0  # atno 6908 bound_to 6896
  152.5300  134.3084  159.9157 H   0  0  0  0  0  0  0  0  0  0  0  0  # atno 6909 bound_to 6896
  144.9159  139.5231  143.5686 H   0  0  0  0  0  0  0  0  0  0  0  0  # atno 7974 bound_to 7965
  155.6725  140.0735  157.2514 H   0  0  0  0  0  0  0  0  0  0  0  0  # atno 8008 bound_to 7997
  154.4120  140.1696  156.1946 H   0  0  0  0  0  0  0  0  0  0  0  0  # atno 8009 bound_to 7997
  155.9604  140.3370  155.6488 H   0  0  0  0  0  0  0  0  0  0  0  0  # atno 8010 bound_to 7997
  140.6467  143.7644  150.7510 H   0  0  0  0  0  0  0  0  0  0  0  0  # atno 10167 bound_to 10162
  157.5377  131.1097  150.8909 H   0  0  0  0  0  0  0  0  0  0  0  0  # atno 10718 bound_to 10713
  154.5632  135.2822  155.0899 H   0  0  0  0  0  0  0  0  0  0  0  0  # atno 10763 bound_to 10752
  154.2299  135.6376  153.5176 H   0  0  0  0  0  0  0  0  0  0  0  0  # atno 10764 bound_to 10752
  153.0035  135.5535  154.6233 H   0  0  0  0  0  0  0  0  0  0  0  0  # atno 10765 bound_to 10752
  139.9154  134.7880  156.1841 H   0  0  0  0  0  0  0  0  0  0  0  0  # atno 11005 bound_to 11000
  146.3181  139.8001  142.8967 LP  0  0  0  0  0  0  0  0  0  0  0  0  # atno 17320 bound_to 7965
  145.3376  141.0280  143.3410 LP  0  0  0  0  0  0  0  0  0  0  0  0  # atno 17321 bound_to 7965
  140.1287  143.4546  152.2268 LP  0  0  0  0  0  0  0  0  0  0  0  0  # atno 17342 bound_to 10162
  139.5678  144.7445  151.3973 LP  0  0  0  0  0  0  0  0  0  0  0  0  # atno 17343 bound_to 10162
  156.9471  130.5406  149.5281 LP  0  0  0  0  0  0  0  0  0  0  0  0  # atno 17370 bound_to 10713
  156.0472  130.5546  150.8907 LP  0  0  0  0  0  0  0  0  0  0  0  0  # atno 17371 bound_to 10713
  141.0624  133.6835  156.1979 LP  0  0  0  0  0  0  0  0  0  0  0  0  # atno 17394 bound_to 11000
  140.6639  134.4939  157.5584 LP  0  0  0  0  0  0  0  0  0  0  0  0  # atno 17395 bound_to 11000

$$$$
