AV-unprocessed.smi:19|AV-procd|sdf|110|dock9
  -GOLD-   2262015273D 1   1.00000     0.00000
 Structure written by MMmdl.
 57 60  0  0  0  0  0  0  0  0  1 V2000
  151.4758  144.6330  158.4628 C   0  0  0  0  0  0  0  0  0  0  0  0
  151.1601  144.1626  159.7613 O   0  0  0  0  0  0  0  0  0  0  0  0
  152.3161  143.8603  160.5250 C   0  0  0  0  0  0  0  0  0  0  0  0
  152.5776  142.3500  160.4660 C   0  0  1  0  0  0  0  0  0  0  0  0
  152.2884  141.7746  159.0667 C   0  0  0  0  0  0  0  0  0  0  0  0
  152.6525  140.3623  159.0157 N   0  0  0  0  0  0  0  0  0  0  0  0
  152.1857  139.6899  157.9325 C   0  0  0  0  0  0  0  0  0  0  0  0
  152.6631  138.4489  157.6454 N   0  0  0  0  0  0  0  0  0  0  0  0
  152.2203  137.7855  156.5736 C   0  0  0  0  0  0  0  0  0  0  0  0
  151.3135  138.1669  155.6729 N   0  0  0  0  0  0  0  0  0  0  0  0
  150.8182  139.4042  155.9607 C   0  0  0  0  0  0  0  0  0  0  0  0
  151.1987  140.2281  157.0583 C   0  0  0  0  0  0  0  0  0  0  0  0
  150.4797  141.4171  157.0262 N   0  0  0  0  0  0  0  0  0  0  0  0
  149.7295  141.3081  155.9645 C   0  0  0  0  0  0  0  0  0  0  0  0
  149.8545  140.1236  155.2733 N   0  0  0  0  0  0  0  0  0  0  0  0
  149.1402  139.7433  154.0613 C   0  0  0  0  0  0  0  0  0  0  0  0
  147.5880  139.8486  154.1506 C   0  0  0  0  0  0  0  0  0  0  0  0
  146.9143  138.8822  153.1351 C   0  0  0  0  0  0  0  0  0  0  0  0
  147.5274  138.9303  151.8627 O   0  0  0  0  0  0  0  0  0  0  0  0
  147.1146  139.5022  155.5858 C   0  0  0  0  0  0  0  0  0  0  0  0
  145.6487  139.8932  155.8526 C   0  0  0  0  0  0  0  0  0  0  0  0
  145.4496  141.2732  155.5770 O   0  0  0  0  0  0  0  0  0  0  0  0
  145.7076  141.6061  154.2197 C   0  0  0  0  0  0  0  0  0  0  0  0
  147.1820  141.3205  153.8854 C   0  0  0  0  0  0  0  0  0  0  0  0
  154.0280  140.1123  159.4387 C   0  0  0  0  0  0  0  0  0  0  0  0
  154.2797  140.7366  160.8231 C   0  0  1  0  0  0  0  0  0  0  0  0
  155.7432  140.6044  161.2572 C   0  0  0  0  0  0  0  0  0  0  0  0
  153.9515  142.1222  160.7723 O   0  0  0  0  0  0  0  0  0  0  0  0
  150.5567  144.8463  157.9171 H   0  0  0  0  0  0  0  0  0  0  0  0
  152.0377  143.8875  157.8984 H   0  0  0  0  0  0  0  0  0  0  0  0
  152.0613  145.5521  158.5084 H   0  0  0  0  0  0  0  0  0  0  0  0
  153.1674  144.3990  160.1053 H   0  0  0  0  0  0  0  0  0  0  0  0
  152.1981  144.1878  161.5592 H   0  0  0  0  0  0  0  0  0  0  0  0
  151.9447  141.8500  161.2015 H   0  0  0  0  0  0  0  0  0  0  0  0
  151.2368  141.9234  158.8247 H   0  0  0  0  0  0  0  0  0  0  0  0
  152.8648  142.3136  158.3134 H   0  0  0  0  0  0  0  0  0  0  0  0
  152.6556  136.8100  156.4145 H   0  0  0  0  0  0  0  0  0  0  0  0
  149.0526  142.0926  155.6592 H   0  0  0  0  0  0  0  0  0  0  0  0
  149.5107  140.3768  153.2542 H   0  0  0  0  0  0  0  0  0  0  0  0
  149.4383  138.7289  153.7937 H   0  0  0  0  0  0  0  0  0  0  0  0
  146.9472  137.8544  153.4968 H   0  0  0  0  0  0  0  0  0  0  0  0
  145.8603  139.1152  152.9950 H   0  0  0  0  0  0  0  0  0  0  0  0
  148.1354  139.6536  151.8490 H   0  0  0  0  0  0  0  0  0  0  0  0
  147.2423  138.4384  155.7870 H   0  0  0  0  0  0  0  0  0  0  0  0
  147.7400  140.0265  156.3095 H   0  0  0  0  0  0  0  0  0  0  0  0
  144.9570  139.2887  155.2656 H   0  0  0  0  0  0  0  0  0  0  0  0
  145.4046  139.7110  156.8992 H   0  0  0  0  0  0  0  0  0  0  0  0
  145.0321  141.0619  153.5588 H   0  0  0  0  0  0  0  0  0  0  0  0
  145.4953  142.6657  154.0770 H   0  0  0  0  0  0  0  0  0  0  0  0
  147.7965  141.9814  154.4982 H   0  0  0  0  0  0  0  0  0  0  0  0
  147.3886  141.6011  152.8524 H   0  0  0  0  0  0  0  0  0  0  0  0
  154.2172  139.0387  159.4796 H   0  0  0  0  0  0  0  0  0  0  0  0
  154.7153  140.5381  158.7060 H   0  0  0  0  0  0  0  0  0  0  0  0
  153.6499  140.2465  161.5678 H   0  0  0  0  0  0  0  0  0  0  0  0
  156.0403  139.5575  161.3212 H   0  0  0  0  0  0  0  0  0  0  0  0
  155.9008  141.0559  162.2369 H   0  0  0  0  0  0  0  0  0  0  0  0
  156.4104  141.0994  160.5509 H   0  0  0  0  0  0  0  0  0  0  0  0
  1  2  1  0  0  0  0
  1 29  1  0  0  0  0
  1 30  1  0  0  0  0
  1 31  1  0  0  0  0
  2  3  1  0  0  0  0
  3  4  1  0  0  0  0
  3 32  1  0  0  0  0
  3 33  1  0  0  0  0
  4 28  1  0  0  0  0
  4  5  1  0  0  0  0
  4 34  1  0  0  0  0
  5  6  1  0  0  0  0
  5 35  1  0  0  0  0
  5 36  1  0  0  0  0
  6  7  1  0  0  0  0
  6 25  1  0  0  0  0
  7 12  1  0  0  0  0
  7  8  2  0  0  0  0
  8  9  1  0  0  0  0
  9 10  2  0  0  0  0
  9 37  1  0  0  0  0
 10 11  1  0  0  0  0
 11 15  1  0  0  0  0
 11 12  2  0  0  0  0
 12 13  1  0  0  0  0
 13 14  2  0  0  0  0
 14 15  1  0  0  0  0
 14 38  1  0  0  0  0
 15 16  1  0  0  0  0
 16 17  1  0  0  0  0
 16 39  1  0  0  0  0
 16 40  1  0  0  0  0
 17 24  1  0  0  0  0
 17 18  1  0  0  0  0
 17 20  1  0  0  0  0
 18 19  1  0  0  0  0
 18 41  1  0  0  0  0
 18 42  1  0  0  0  0
 19 43  1  0  0  0  0
 20 21  1  0  0  0  0
 20 44  1  0  0  0  0
 20 45  1  0  0  0  0
 21 22  1  0  0  0  0
 21 46  1  0  0  0  0
 21 47  1  0  0  0  0
 22 23  1  0  0  0  0
 23 24  1  0  0  0  0
 23 48  1  0  0  0  0
 23 49  1  0  0  0  0
 24 50  1  0  0  0  0
 24 51  1  0  0  0  0
 25 26  1  0  0  0  0
 25 52  1  0  0  0  0
 25 53  1  0  0  0  0
 26 27  1  0  0  0  0
 26 28  1  0  0  0  0
 26 54  1  0  0  0  0
 27 55  1  0  0  0  0
 27 56  1  0  0  0  0
 27 57  1  0  0  0  0
M  END
> <s_m_source_file>
AV-unprocessed.smi

> <i_m_source_file_index>
19

> <i_lp_mmshare_version>
43012

> <i_f3d_flags>
0

> <s_epik_input>
W0NIM11PW0NIMl1bQ0BASF0xW0NIMl1OKFtDSDJdW0NASF0oTzEpW0NIM10pYyhuW2NIXW4yKWMoYzIzKW5bY0hdbjNbQ0gyXUM0KFtDSDJdW09IXSlbQ0gyXVtDSDJdT1tDSDJdW0NIMl00

> <s_epik_cmdline>
J2VwaWtfcHl0aG9uJywgJy1waCcsICc3LjAnLCAnLXRuJywgJzgnLCAnLW1hJywgJzIwMCcsICctbWV0YWxfYmluZGluZycsICctaW1hZScsICc8aW5maWxlLm1hZT4nLCAnLW9tYWUnLCAnPG91dGZpbGUubWFlPic=

> <r_lp_tautomer_probability>
1

> <r_epik_Ionization_Penalty>
6.20357e-05

> <r_epik_Ionization_Penalty_Charging>
0

> <r_epik_Ionization_Penalty_Neutral>
6.20357e-05

> <r_epik_State_Penalty>
-0

> <r_epik_Charging_Adjusted_Penalty>
0

> <i_epik_Tot_Q>
0

> <i_epik_Tot_abs_Q>
0

> <r_epik_Metal_State_Penalty>
-0

> <b_epik_Metal_Only>
0

> <s_lp_Force_Field>
OPLS_2005

> <r_lp_Energy>
35.6446

> <b_lp_Chiralities_Consistent>
1

> <s_lp_Variant>
AV-unprocessed.smi:19-2

> <Gold.Version>
5.8.1

> <Gold.Id.Protein>
6NUR|6NUR_protein|mol2

> <Gold.PLP.Fitness>
48.4296

> <Gold.PLP.PLP>
-45.1051

> <Gold.PLP.part.hbond>
-1.7678

> <Gold.PLP.part.metal>
0.0000

> <Gold.PLP.part.buried>
-6.6437

> <Gold.PLP.part.nonpolar>
-36.6208

> <Gold.PLP.part.repulsive>
0.2756

> <Gold.PLP.ligand.clash>
0.0000

> <Gold.PLP.ligand.torsion>
1.6098

> <Gold.PLP.Chemscore.Hbond>
1.0602

> <Gold.PLP.Chemscore.CHOScore>
1.0000

> <Gold.PLP.Chemscore.Metal>
0.0000

> <Gold.Chemscore.Hbonds>
donor molecule, donor type, donor heavy atom, donor atom, acceptor molecule, acceptor atom, score
      L1  H    19    43       P1  7957  0.75
      P1  H  7954  7966       L1    19  0.23
      L1  C    14    38       P1  8028  0.75

> <Gold.PLP.Chemscore.Internal.Correction>
0.3634

> <Gold.Rescore>
     Score         DG    S(hbond)    S(metal)    S(lipo)     H(rot)  DE(clash)    DE(int)     intcor
     10.96     -14.08       0.93        0.00     109.69       2.87       0.20       2.92       ----

> <Gold.Chemscore.Fitness>
10.9608

> <Gold.Chemscore.DG>
-14.0779

> <Gold.Chemscore.ZeroCoef>
-5.4800

> <Gold.Chemscore.Hbond>
0.9337

> <Gold.Chemscore.Metal>
0.0000

> <Gold.Chemscore.Lipo>
109.6912

> <Gold.Chemscore.Internal_Hbond>
0.0000

> <Gold.Chemscore.DEClash>
0.2010

> <Gold.Chemscore.DEInternal>
2.9161

> <Gold.Chemscore.Rot>
2.8729

> <Gold.Chemscore.Internal.Correction>
   9.000000E+99

> <Gold.Chemscore.Hbonds>
donor molecule, donor type, donor heavy atom, donor atom, acceptor molecule, acceptor atom, score
      L1  H    19    43       P1  7957  0.76
      P1  H  7954  7966       L1    19  0.04

> <Gold.Chemscore.Hbond.Weighted>
-3.1186

> <Gold.Chemscore.Metal.Weighted>
-0.0000

> <Gold.Chemscore.Lipo.Weighted>
-12.8339

> <Gold.Chemscore.Internal_Hbond.Weighted>
0.0000

> <Gold.Chemscore.DEClash.Weighted>
0.2010

> <Gold.Chemscore.DEInternal.Weighted>
2.9161

> <Gold.Chemscore.Rot.Weighted>
7.3546

> <Gold.Chemscore.Internal.Correction.Weighted>
   9.000000E+99

> <Gold.Protein.RotatedTorsions>
[ 6907 6896 6895 6894 ] final  -98.81 input  -60.11 | X-H torsion
[ 7974 7965 7964 7962 ] final   80.97 input  175.53 | X-H torsion
[ 8008 7997 7996 7995 ] final  112.25 input   59.86 | X-H torsion
[ 10167 10162 10161 10158 ] final  155.80 input  -65.29 | X-H torsion
[ 10718 10713 10712 10709 ] final  138.89 input   66.30 | X-H torsion
[ 10763 10752 10751 10750 ] final   31.38 input  -60.55 | X-H torsion
[ 11005 11000 10999 10996 ] final  -99.43 input  -57.11 | X-H torsion

> <Gold.Protein.ActiveResidues>
 VAL166  LYS551  ARG553  GLY616  TRP617  ASP618  TYR619  PRO620  LYS621  CYS622 
 ASP623  PHE694  ASN695  SER759  ASP760  ASP761  ALA762  ILE779  LEU786  VAL792 
 PHE793  MET794  SER795  GLU796  ALA797  LYS798  CYS799  TRP800  GLU811  SER814 

> <Gold.Protein.RotatedAtoms>
  150.7059  134.1137  159.4009 H   0  0  0  0  0  0  0  0  0  0  0  0  # atno 6907 bound_to 6896
  151.9123  135.0331  160.0525 H   0  0  0  0  0  0  0  0  0  0  0  0  # atno 6908 bound_to 6896
  152.2325  133.5034  159.5260 H   0  0  0  0  0  0  0  0  0  0  0  0  # atno 6909 bound_to 6896
  145.6443  139.2432  143.2013 H   0  0  0  0  0  0  0  0  0  0  0  0  # atno 7974 bound_to 7965
  156.2179  140.3003  155.9883 H   0  0  0  0  0  0  0  0  0  0  0  0  # atno 8008 bound_to 7997
  155.2557  140.0428  157.3009 H   0  0  0  0  0  0  0  0  0  0  0  0  # atno 8009 bound_to 7997
  154.5796  140.2371  155.8081 H   0  0  0  0  0  0  0  0  0  0  0  0  # atno 8010 bound_to 7997
  139.4821  144.5066  151.8088 H   0  0  0  0  0  0  0  0  0  0  0  0  # atno 10167 bound_to 10162
  157.4204  131.1038  151.0360 H   0  0  0  0  0  0  0  0  0  0  0  0  # atno 10718 bound_to 10713
  153.0319  135.6440  154.1191 H   0  0  0  0  0  0  0  0  0  0  0  0  # atno 10763 bound_to 10752
  154.0912  135.2866  155.3272 H   0  0  0  0  0  0  0  0  0  0  0  0  # atno 10764 bound_to 10752
  154.6463  135.5442  153.7912 H   0  0  0  0  0  0  0  0  0  0  0  0  # atno 10765 bound_to 10752
  141.1309  133.8321  157.0971 H   0  0  0  0  0  0  0  0  0  0  0  0  # atno 11005 bound_to 11000
  146.1256  140.7253  142.9437 LP  0  0  0  0  0  0  0  0  0  0  0  0  # atno 17320 bound_to 7965
  144.7146  140.4163  143.7054 LP  0  0  0  0  0  0  0  0  0  0  0  0  # atno 17321 bound_to 7965
  140.4565  144.1782  150.5902 LP  0  0  0  0  0  0  0  0  0  0  0  0  # atno 17342 bound_to 10162
  140.4530  143.2479  151.9322 LP  0  0  0  0  0  0  0  0  0  0  0  0  # atno 17343 bound_to 10162
  157.1292  130.6095  149.5525 LP  0  0  0  0  0  0  0  0  0  0  0  0  # atno 17370 bound_to 10713
  155.9878  130.4919  150.7144 LP  0  0  0  0  0  0  0  0  0  0  0  0  # atno 17371 bound_to 10713
  140.0356  134.9879  157.0865 LP  0  0  0  0  0  0  0  0  0  0  0  0  # atno 17394 bound_to 11000
  140.4215  134.1875  155.7164 LP  0  0  0  0  0  0  0  0  0  0  0  0  # atno 17395 bound_to 11000

$$$$
