AV-unprocessed.smi:2864|AV-procd|sdf|11013|dock10
  -GOLD-   2272015473D 1   1.00000     0.00000
 Structure written by MMmdl.
 37 38  0  0  0  0  0  0  0  0  1 V2000
  152.2352  145.1499  159.6647 C   0  0  0  0  0  0  0  0  0  0  0  0
  152.3686  143.6424  159.5996 C   0  0  0  0  0  0  0  0  0  0  0  0
  153.0416  142.9478  160.6218 C   0  0  0  0  0  0  0  0  0  0  0  0
  153.1536  141.5469  160.5639 C   0  0  0  0  0  0  0  0  0  0  0  0
  152.5984  140.8252  159.4856 C   0  0  0  0  0  0  0  0  0  0  0  0
  152.7301  139.3112  159.4792 C   0  0  0  0  0  0  0  0  0  0  0  0
  151.9289  141.5202  158.4437 C   0  0  0  0  0  0  0  0  0  0  0  0
  151.3058  140.7746  157.2631 C   0  0  2  0  0  0  0  0  0  0  0  0
  152.2587  139.9821  156.5796 O   0  0  0  0  0  0  0  0  0  0  0  0
  150.6746  141.7644  156.2595 C   0  0  0  0  0  0  0  0  0  0  0  0
  149.5437  141.1677  155.5385 N   0  0  0  0  0  0  0  0  0  0  0  0
  148.3364  141.8119  155.7505 N   0  0  0  0  0  0  0  0  0  0  0  0
  147.2441  141.3947  155.1965 C   0  0  0  0  0  0  0  0  0  0  0  0
  145.9784  142.1603  155.4946 C   0  0  0  0  0  0  0  0  0  0  0  0
  145.5401  142.7675  154.3914 F   0  0  0  0  0  0  0  0  0  0  0  0
  145.0198  141.3482  155.9411 F   0  0  0  0  0  0  0  0  0  0  0  0
  146.2131  143.0887  156.4228 F   0  0  0  0  0  0  0  0  0  0  0  0
  147.2932  140.2278  154.3314 C   0  0  0  0  0  0  0  0  0  0  0  0
  148.4709  139.5987  154.1299 C   0  0  0  0  0  0  0  0  0  0  0  0
  149.7061  140.0596  154.7592 C   0  0  0  0  0  0  0  0  0  0  0  0
  150.7906  139.4984  154.6072 O   0  0  0  0  0  0  0  0  0  0  0  0
  151.8130  142.9281  158.5199 C   0  0  0  0  0  0  0  0  0  0  0  0
  153.0906  145.5942  160.1745 H   0  0  0  0  0  0  0  0  0  0  0  0
  151.3307  145.4237  160.2080 H   0  0  0  0  0  0  0  0  0  0  0  0
  152.1786  145.5791  158.6639 H   0  0  0  0  0  0  0  0  0  0  0  0
  153.4693  143.4855  161.4554 H   0  0  0  0  0  0  0  0  0  0  0  0
  153.6673  141.0263  161.3590 H   0  0  0  0  0  0  0  0  0  0  0  0
  151.7573  138.8385  159.3444 H   0  0  0  0  0  0  0  0  0  0  0  0
  153.1462  138.9448  160.4180 H   0  0  0  0  0  0  0  0  0  0  0  0
  153.3898  138.9892  158.6734 H   0  0  0  0  0  0  0  0  0  0  0  0
  150.5496  140.0841  157.6346 H   0  0  0  0  0  0  0  0  0  0  0  0
  151.8247  139.2118  156.2454 H   0  0  0  0  0  0  0  0  0  0  0  0
  150.2857  142.6252  156.8076 H   0  0  0  0  0  0  0  0  0  0  0  0
  151.4260  142.1842  155.5877 H   0  0  0  0  0  0  0  0  0  0  0  0
  146.3926  139.8687  153.8559 H   0  0  0  0  0  0  0  0  0  0  0  0
  148.5031  138.7311  153.4869 H   0  0  0  0  0  0  0  0  0  0  0  0
  151.2899  143.4706  157.7459 H   0  0  0  0  0  0  0  0  0  0  0  0
  1  2  1  0  0  0  0
  1 23  1  0  0  0  0
  1 24  1  0  0  0  0
  1 25  1  0  0  0  0
  2 22  1  0  0  0  0
  2  3  2  0  0  0  0
  3  4  1  0  0  0  0
  3 26  1  0  0  0  0
  4  5  2  0  0  0  0
  4 27  1  0  0  0  0
  5  6  1  0  0  0  0
  5  7  1  0  0  0  0
  6 28  1  0  0  0  0
  6 29  1  0  0  0  0
  6 30  1  0  0  0  0
  7  8  1  0  0  0  0
  7 22  2  0  0  0  0
  8  9  1  0  0  0  0
  8 10  1  0  0  0  0
  8 31  1  0  0  0  0
  9 32  1  0  0  0  0
 10 11  1  0  0  0  0
 10 33  1  0  0  0  0
 10 34  1  0  0  0  0
 11 20  1  0  0  0  0
 11 12  1  0  0  0  0
 12 13  2  0  0  0  0
 13 14  1  0  0  0  0
 13 18  1  0  0  0  0
 14 15  1  0  0  0  0
 14 16  1  0  0  0  0
 14 17  1  0  0  0  0
 18 19  2  0  0  0  0
 18 35  1  0  0  0  0
 19 20  1  0  0  0  0
 19 36  1  0  0  0  0
 20 21  2  0  0  0  0
 22 37  1  0  0  0  0
M  END
> <s_m_source_file>
AV-unprocessed.smi

> <i_m_source_file_index>
2864

> <i_lp_mmshare_version>
43012

> <i_f3d_flags>
0

> <s_epik_input>
W0NIM11jMVtjSF1bY0hdYyhbQ0gzXSljKFtjSF0xKVtDQEhdKFtPSF0pW0NIMl1uMm5jKEMoRikoRilGKVtjSF1bY0hdYzI9Tw==

> <s_epik_cmdline>
J2VwaWtfcHl0aG9uJywgJy1waCcsICc3LjAnLCAnLXRuJywgJzgnLCAnLW1hJywgJzIwMCcsICctbWV0YWxfYmluZGluZycsICctaW1hZScsICc8aW5maWxlLm1hZT4nLCAnLW9tYWUnLCAnPG91dGZpbGUubWFlPic=

> <r_lp_tautomer_probability>
1

> <r_epik_Ionization_Penalty>
5.25156e-08

> <r_epik_Ionization_Penalty_Charging>
3.92872e-09

> <r_epik_Ionization_Penalty_Neutral>
4.85868e-08

> <r_epik_State_Penalty>
-0

> <r_epik_Charging_Adjusted_Penalty>
3.92872e-09

> <i_epik_Tot_Q>
0

> <i_epik_Tot_abs_Q>
0

> <r_epik_Metal_State_Penalty>
-0

> <b_epik_Metal_Only>
0

> <s_lp_Force_Field>
OPLS_2005

> <r_lp_Energy>
30.6225

> <b_lp_Chiralities_Consistent>
1

> <s_lp_Variant>
AV-unprocessed.smi:2864-1

> <Gold.Version>
5.8.1

> <Gold.Id.Protein>
6NUR|6NUR_protein|mol2

> <Gold.PLP.Fitness>
50.2786

> <Gold.PLP.PLP>
-45.2215

> <Gold.PLP.part.hbond>
-2.0000

> <Gold.PLP.part.metal>
0.0000

> <Gold.PLP.part.buried>
-4.2580

> <Gold.PLP.part.nonpolar>
-40.0891

> <Gold.PLP.part.repulsive>
0.9962

> <Gold.PLP.ligand.clash>
0.0000

> <Gold.PLP.ligand.torsion>
0.4764

> <Gold.PLP.Chemscore.Hbond>
2.0000

> <Gold.PLP.Chemscore.CHOScore>
0.0000

> <Gold.PLP.Chemscore.Metal>
0.0000

> <Gold.Chemscore.Hbonds>
donor molecule, donor type, donor heavy atom, donor atom, acceptor molecule, acceptor atom, score
      P1  H  7989  7998       L1    21  0.90
      P1  H  7997  8008       L1     9  0.86

> <Gold.PLP.Chemscore.Internal.Correction>
0.0099

> <Gold.Rescore>
     Score         DG    S(hbond)    S(metal)    S(lipo)     H(rot)  DE(clash)    DE(int)     intcor
     16.65     -18.66       1.84        0.00     105.14       2.05       0.00       2.00       ----

> <Gold.Chemscore.Fitness>
16.6535

> <Gold.Chemscore.DG>
-18.6576

> <Gold.Chemscore.ZeroCoef>
-5.4800

> <Gold.Chemscore.Hbond>
1.8350

> <Gold.Chemscore.Metal>
0.0000

> <Gold.Chemscore.Lipo>
105.1366

> <Gold.Chemscore.Internal_Hbond>
0.0000

> <Gold.Chemscore.DEClash>
0.0038

> <Gold.Chemscore.DEInternal>
2.0003

> <Gold.Chemscore.Rot>
2.0517

> <Gold.Chemscore.Internal.Correction>
   9.000000E+99

> <Gold.Chemscore.Hbonds>
donor molecule, donor type, donor heavy atom, donor atom, acceptor molecule, acceptor atom, score
      P1  H  7989  7998       L1    21  0.18
      P1  H  7997  8008       L1     9  0.82

> <Gold.Chemscore.Hbond.Weighted>
-6.1289

> <Gold.Chemscore.Metal.Weighted>
-0.0000

> <Gold.Chemscore.Lipo.Weighted>
-12.3010

> <Gold.Chemscore.Internal_Hbond.Weighted>
0.0000

> <Gold.Chemscore.DEClash.Weighted>
0.0038

> <Gold.Chemscore.DEInternal.Weighted>
2.0003

> <Gold.Chemscore.Rot.Weighted>
5.2524

> <Gold.Chemscore.Internal.Correction.Weighted>
   9.000000E+99

> <Gold.Protein.RotatedTorsions>
[ 6907 6896 6895 6894 ] final -161.79 input  -60.11 | X-H torsion
[ 7974 7965 7964 7962 ] final -107.51 input  175.53 | X-H torsion
[ 8008 7997 7996 7995 ] final  -52.68 input   59.86 | X-H torsion
[ 10167 10162 10161 10158 ] final  -20.08 input  -65.29 | X-H torsion
[ 10718 10713 10712 10709 ] final    9.10 input   66.30 | X-H torsion
[ 10763 10752 10751 10750 ] final   30.25 input  -60.55 | X-H torsion
[ 11005 11000 10999 10996 ] final  172.24 input  -57.11 | X-H torsion

> <Gold.Protein.ActiveResidues>
 VAL166  LYS551  ARG553  GLY616  TRP617  ASP618  TYR619  PRO620  LYS621  CYS622 
 ASP623  PHE694  ASN695  SER759  ASP760  ASP761  ALA762  ILE779  LEU786  VAL792 
 PHE793  MET794  SER795  GLU796  ALA797  LYS798  CYS799  TRP800  GLU811  SER814 

> <Gold.Protein.RotatedAtoms>
  151.3702  133.3857  159.2698 H   0  0  0  0  0  0  0  0  0  0  0  0  # atno 6907 bound_to 6896
  150.9657  134.9039  159.7768 H   0  0  0  0  0  0  0  0  0  0  0  0  # atno 6908 bound_to 6896
  152.5166  134.3663  159.9354 H   0  0  0  0  0  0  0  0  0  0  0  0  # atno 6909 bound_to 6896
  145.2044  140.9070  143.3351 H   0  0  0  0  0  0  0  0  0  0  0  0  # atno 7974 bound_to 7965
  154.4113  140.1218  156.5030 H   0  0  0  0  0  0  0  0  0  0  0  0  # atno 8008 bound_to 7997
  155.6875  140.3495  155.4861 H   0  0  0  0  0  0  0  0  0  0  0  0  # atno 8009 bound_to 7997
  155.9498  140.1102  157.0976 H   0  0  0  0  0  0  0  0  0  0  0  0  # atno 8010 bound_to 7997
  140.7273  143.4757  151.0186 H   0  0  0  0  0  0  0  0  0  0  0  0  # atno 10167 bound_to 10162
  156.9613  130.5934  149.5662 H   0  0  0  0  0  0  0  0  0  0  0  0  # atno 10718 bound_to 10713
  153.0382  135.6469  154.1016 H   0  0  0  0  0  0  0  0  0  0  0  0  # atno 10763 bound_to 10752
  154.0727  135.2879  155.3306 H   0  0  0  0  0  0  0  0  0  0  0  0  # atno 10764 bound_to 10752
  154.6583  135.5401  153.8051 H   0  0  0  0  0  0  0  0  0  0  0  0  # atno 10765 bound_to 10752
  140.3276  134.7384  157.4110 H   0  0  0  0  0  0  0  0  0  0  0  0  # atno 11005 bound_to 11000
  144.9916  139.3684  143.6212 LP  0  0  0  0  0  0  0  0  0  0  0  0  # atno 17320 bound_to 7965
  146.3411  139.9101  142.8781 LP  0  0  0  0  0  0  0  0  0  0  0  0  # atno 17321 bound_to 7965
  139.8452  143.7511  152.3179 LP  0  0  0  0  0  0  0  0  0  0  0  0  # atno 17342 bound_to 10162
  139.7673  144.7488  151.0275 LP  0  0  0  0  0  0  0  0  0  0  0  0  # atno 17343 bound_to 10162
  156.0321  130.5411  150.8560 LP  0  0  0  0  0  0  0  0  0  0  0  0  # atno 17370 bound_to 10713
  157.5656  131.0946  150.9495 LP  0  0  0  0  0  0  0  0  0  0  0  0  # atno 17371 bound_to 10713
  140.0888  134.5629  155.8465 LP  0  0  0  0  0  0  0  0  0  0  0  0  # atno 17394 bound_to 11000
  141.2071  133.6661  156.6286 LP  0  0  0  0  0  0  0  0  0  0  0  0  # atno 17395 bound_to 11000

$$$$
