AV-unprocessed.smi:539|AV-procd|sdf|2867|dock4
  -GOLD-   2262023363D 1   1.00000     0.00000
 Structure written by MMmdl.
 40 42  0  0  0  0  0  0  0  0  1 V2000
  148.2131  141.4550  153.9004 C   0  0  0  0  0  0  0  0  0  0  0  0
  149.5162  141.7643  154.3607 O   0  0  0  0  0  0  0  0  0  0  0  0
  149.6105  141.7545  155.7760 C   0  0  0  0  0  0  0  0  0  0  0  0
  151.0047  142.2291  156.2094 C   0  0  0  0  0  0  0  0  0  0  0  0
  151.6649  141.2547  157.0758 N   0  0  0  0  0  0  0  0  0  0  0  0
  152.1665  141.4448  158.3254 C   0  0  0  0  0  0  0  0  0  0  0  0
  152.1382  142.6912  158.9467 N   0  0  0  0  0  0  0  0  0  0  0  0
  152.4592  142.9533  160.3427 C   0  0  0  0  0  0  0  0  0  0  0  0
  152.0104  144.3838  160.6681 C   0  0  0  0  0  0  0  0  0  0  0  0
  151.6129  144.9776  159.3208 C   0  0  0  0  0  0  0  0  0  0  0  0
  152.2201  144.0020  158.3214 C   0  0  0  0  0  0  0  0  0  0  0  0
  152.6360  140.3420  158.9141 N   0  0  0  0  0  0  0  0  0  0  0  0
  152.4444  139.3673  157.9467 C   0  0  0  0  0  0  0  0  0  0  0  0
  151.8570  139.8911  156.8402 C   0  0  0  0  0  0  0  0  0  0  0  0
  151.4994  139.0677  155.6760 C   0  0  0  0  0  0  0  0  0  0  0  0
  150.9546  139.5121  154.6683 O   0  0  0  0  0  0  0  0  0  0  0  0
  151.8266  137.7613  155.8280 N   0  0  0  0  0  0  0  0  0  0  0  0
  152.4216  137.1729  156.9097 C   0  0  0  0  0  0  0  0  0  0  0  0
  152.6516  135.9637  156.9029 O   0  0  0  0  0  0  0  0  0  0  0  0
  152.7393  137.9742  157.9763 N   0  0  0  0  0  0  0  0  0  0  0  0
  153.3742  137.3970  159.1626 C   0  0  0  0  0  0  0  0  0  0  0  0
  151.6010  137.1514  155.0558 H   0  0  0  0  0  0  0  0  0  0  0  0
  148.1951  141.4780  152.8110 H   0  0  0  0  0  0  0  0  0  0  0  0
  147.4836  142.1792  154.2650 H   0  0  0  0  0  0  0  0  0  0  0  0
  147.9081  140.4580  154.2214 H   0  0  0  0  0  0  0  0  0  0  0  0
  148.8480  142.4052  156.2060 H   0  0  0  0  0  0  0  0  0  0  0  0
  149.4293  140.7470  156.1541 H   0  0  0  0  0  0  0  0  0  0  0  0
  151.6259  142.4279  155.3387 H   0  0  0  0  0  0  0  0  0  0  0  0
  150.9239  143.1847  156.7192 H   0  0  0  0  0  0  0  0  0  0  0  0
  151.9591  142.2293  160.9864 H   0  0  0  0  0  0  0  0  0  0  0  0
  153.5340  142.8415  160.4910 H   0  0  0  0  0  0  0  0  0  0  0  0
  151.1701  144.3953  161.3631 H   0  0  0  0  0  0  0  0  0  0  0  0
  152.8281  144.9442  161.1223 H   0  0  0  0  0  0  0  0  0  0  0  0
  150.5264  144.9795  159.2219 H   0  0  0  0  0  0  0  0  0  0  0  0
  151.9684  145.9988  159.1822 H   0  0  0  0  0  0  0  0  0  0  0  0
  153.2728  144.2370  158.1569 H   0  0  0  0  0  0  0  0  0  0  0  0
  151.7293  144.0510  157.3517 H   0  0  0  0  0  0  0  0  0  0  0  0
  154.2679  136.8339  158.8894 H   0  0  0  0  0  0  0  0  0  0  0  0
  152.6855  136.7187  159.6681 H   0  0  0  0  0  0  0  0  0  0  0  0
  153.6800  138.1540  159.8844 H   0  0  0  0  0  0  0  0  0  0  0  0
  1  2  1  0  0  0  0
  1 23  1  0  0  0  0
  1 24  1  0  0  0  0
  1 25  1  0  0  0  0
  2  3  1  0  0  0  0
  3  4  1  0  0  0  0
  3 26  1  0  0  0  0
  3 27  1  0  0  0  0
  4  5  1  0  0  0  0
  4 28  1  0  0  0  0
  4 29  1  0  0  0  0
  5 14  1  0  0  0  0
  5  6  1  0  0  0  0
  6  7  1  0  0  0  0
  6 12  2  0  0  0  0
  7 11  1  0  0  0  0
  7  8  1  0  0  0  0
  8  9  1  0  0  0  0
  8 30  1  0  0  0  0
  8 31  1  0  0  0  0
  9 10  1  0  0  0  0
  9 32  1  0  0  0  0
  9 33  1  0  0  0  0
 10 11  1  0  0  0  0
 10 34  1  0  0  0  0
 10 35  1  0  0  0  0
 11 36  1  0  0  0  0
 11 37  1  0  0  0  0
 12 13  1  0  0  0  0
 13 20  1  0  0  0  0
 13 14  2  0  0  0  0
 14 15  1  0  0  0  0
 15 16  2  0  0  0  0
 15 17  1  0  0  0  0
 17 22  1  0  0  0  0
 17 18  1  0  0  0  0
 18 19  2  0  0  0  0
 18 20  1  0  0  0  0
 20 21  1  0  0  0  0
 21 38  1  0  0  0  0
 21 39  1  0  0  0  0
 21 40  1  0  0  0  0
M  END
> <s_m_source_file>
AV-unprocessed.smi

> <i_m_source_file_index>
539

> <i_lp_mmshare_version>
43012

> <i_f3d_flags>
0

> <s_epik_input>
W0NIM11uMWMoPU8pW25IXWMoPU8pYyhjMTIpbihbQ0gyXVtDSDJdT1tDSDNdKWMobjIpTjNbQ0gyXVtDSDJdW0NIMl1bQ0gyXTM=

> <s_epik_cmdline>
J2VwaWtfcHl0aG9uJywgJy1waCcsICc3LjAnLCAnLXRuJywgJzgnLCAnLW1hJywgJzIwMCcsICctbWV0YWxfYmluZGluZycsICctaW1hZScsICc8aW5maWxlLm1hZT4nLCAnLW9tYWUnLCAnPG91dGZpbGUubWFlPic=

> <r_lp_tautomer_probability>
1

> <r_epik_Ionization_Penalty>
0.000190904

> <r_epik_Ionization_Penalty_Charging>
2.17435e-05

> <r_epik_Ionization_Penalty_Neutral>
0.00016916

> <r_epik_State_Penalty>
-0

> <r_epik_Charging_Adjusted_Penalty>
2.17435e-05

> <i_epik_Tot_Q>
0

> <i_epik_Tot_abs_Q>
0

> <r_epik_Metal_State_Penalty>
0.0206064

> <b_epik_Metal_Only>
0

> <s_lp_Force_Field>
OPLS_2005

> <r_lp_Energy>
47.9611

> <b_lp_Chiralities_Consistent>
1

> <s_lp_Variant>
AV-unprocessed.smi:539-1

> <Gold.Version>
5.8.1

> <Gold.Id.Protein>
6NUR|6NUR_protein|mol2

> <Gold.PLP.Fitness>
47.1321

> <Gold.PLP.PLP>
-41.7589

> <Gold.PLP.part.hbond>
-4.0000

> <Gold.PLP.part.metal>
0.0000

> <Gold.PLP.part.buried>
-4.4883

> <Gold.PLP.part.nonpolar>
-31.9481

> <Gold.PLP.part.repulsive>
0.3879

> <Gold.PLP.ligand.clash>
0.0000

> <Gold.PLP.ligand.torsion>
0.6248

> <Gold.PLP.Chemscore.Hbond>
2.0702

> <Gold.PLP.Chemscore.CHOScore>
0.0000

> <Gold.PLP.Chemscore.Metal>
0.0000

> <Gold.Chemscore.Hbonds>
donor molecule, donor type, donor heavy atom, donor atom, acceptor molecule, acceptor atom, score
      P1  H  7989  7998       L1    16  1.00
      P1  H  8011  8017       L1     2  0.07
      P1  H 10752 10764       L1    19  1.00

> <Gold.PLP.Chemscore.Internal.Correction>
0.4122

> <Gold.Rescore>
     Score         DG    S(hbond)    S(metal)    S(lipo)     H(rot)  DE(clash)    DE(int)     intcor
     14.26     -17.75       1.98        0.00      81.40       1.52       0.07       3.41       ----

> <Gold.Chemscore.Fitness>
14.2634

> <Gold.Chemscore.DG>
-17.7452

> <Gold.Chemscore.ZeroCoef>
-5.4800

> <Gold.Chemscore.Hbond>
1.9825

> <Gold.Chemscore.Metal>
0.0000

> <Gold.Chemscore.Lipo>
81.4030

> <Gold.Chemscore.Internal_Hbond>
0.0000

> <Gold.Chemscore.DEClash>
0.0688

> <Gold.Chemscore.DEInternal>
3.4131

> <Gold.Chemscore.Rot>
1.5159

> <Gold.Chemscore.Internal.Correction>
   9.000000E+99

> <Gold.Chemscore.Hbonds>
donor molecule, donor type, donor heavy atom, donor atom, acceptor molecule, acceptor atom, score
      P1  H  7989  7998       L1    16  1.00
      P1  H 10752 10764       L1    19  0.82

> <Gold.Chemscore.Hbond.Weighted>
-6.6217

> <Gold.Chemscore.Metal.Weighted>
-0.0000

> <Gold.Chemscore.Lipo.Weighted>
-9.5241

> <Gold.Chemscore.Internal_Hbond.Weighted>
0.0000

> <Gold.Chemscore.DEClash.Weighted>
0.0688

> <Gold.Chemscore.DEInternal.Weighted>
3.4131

> <Gold.Chemscore.Rot.Weighted>
3.8806

> <Gold.Chemscore.Internal.Correction.Weighted>
   9.000000E+99

> <Gold.Protein.RotatedTorsions>
[ 6907 6896 6895 6894 ] final  -58.55 input  -60.11 | X-H torsion
[ 7974 7965 7964 7962 ] final  133.87 input  175.53 | X-H torsion
[ 8008 7997 7996 7995 ] final   31.75 input   59.86 | X-H torsion
[ 10167 10162 10161 10158 ] final   39.00 input  -65.29 | X-H torsion
[ 10718 10713 10712 10709 ] final  174.56 input   66.30 | X-H torsion
[ 10763 10752 10751 10750 ] final   -9.88 input  -60.55 | X-H torsion
[ 11005 11000 10999 10996 ] final -164.89 input  -57.11 | X-H torsion

> <Gold.Protein.ActiveResidues>
 VAL166  LYS551  ARG553  GLY616  TRP617  ASP618  TYR619  PRO620  LYS621  CYS622 
 ASP623  PHE694  ASN695  SER759  ASP760  ASP761  ALA762  ILE779  LEU786  VAL792 
 PHE793  MET794  SER795  GLU796  ALA797  LYS798  CYS799  TRP800  GLU811  SER814 

> <Gold.Protein.RotatedAtoms>
  150.7998  134.7084  159.6589 H   0  0  0  0  0  0  0  0  0  0  0  0  # atno 6907 bound_to 6896
  152.4114  134.6115  160.0036 H   0  0  0  0  0  0  0  0  0  0  0  0  # atno 6908 bound_to 6896
  151.6357  133.3292  159.3155 H   0  0  0  0  0  0  0  0  0  0  0  0  # atno 6909 bound_to 6896
  144.9821  139.4493  143.5381 H   0  0  0  0  0  0  0  0  0  0  0  0  # atno 7974 bound_to 7965
  155.1115  140.3239  155.4520 H   0  0  0  0  0  0  0  0  0  0  0  0  # atno 8008 bound_to 7997
  156.2689  140.2043  156.6187 H   0  0  0  0  0  0  0  0  0  0  0  0  # atno 8009 bound_to 7997
  154.6752  140.0532  157.0195 H   0  0  0  0  0  0  0  0  0  0  0  0  # atno 8010 bound_to 7997
  140.3882  144.1888  150.6130 H   0  0  0  0  0  0  0  0  0  0  0  0  # atno 10167 bound_to 10162
  156.9477  131.0021  151.2955 H   0  0  0  0  0  0  0  0  0  0  0  0  # atno 10718 bound_to 10713
  153.4611  135.7016  153.6050 H   0  0  0  0  0  0  0  0  0  0  0  0  # atno 10763 bound_to 10752
  153.4344  135.3795  155.2190 H   0  0  0  0  0  0  0  0  0  0  0  0  # atno 10764 bound_to 10752
  154.8727  135.3958  154.4037 H   0  0  0  0  0  0  0  0  0  0  0  0  # atno 10765 bound_to 10752
  140.5819  134.5133  157.5179 H   0  0  0  0  0  0  0  0  0  0  0  0  # atno 11005 bound_to 11000
  146.3411  139.9100  142.8781 LP  0  0  0  0  0  0  0  0  0  0  0  0  # atno 17320 bound_to 7965
  145.2406  141.0008  143.3938 LP  0  0  0  0  0  0  0  0  0  0  0  0  # atno 17321 bound_to 7965
  140.4867  143.2361  151.8877 LP  0  0  0  0  0  0  0  0  0  0  0  0  # atno 17342 bound_to 10162
  139.4790  144.5211  151.8800 LP  0  0  0  0  0  0  0  0  0  0  0  0  # atno 17343 bound_to 10162
  157.5742  130.8332  149.8433 LP  0  0  0  0  0  0  0  0  0  0  0  0  # atno 17370 bound_to 10713
  156.0376  130.3747  150.1519 LP  0  0  0  0  0  0  0  0  0  0  0  0  # atno 17371 bound_to 10713
  139.9313  134.7958  156.0922 LP  0  0  0  0  0  0  0  0  0  0  0  0  # atno 17394 bound_to 11000
  141.0991  133.6684  156.2712 LP  0  0  0  0  0  0  0  0  0  0  0  0  # atno 17395 bound_to 11000

$$$$
