AV-unprocessed.smi:2977|AV-procd|sdf|11367|dock9
  -GOLD-   2272016283D 1   1.00000     0.00000
 Structure written by MMmdl.
 38 39  0  0  0  0  0  0  0  0  1 V2000
  150.4541  140.3832  156.6482 O   0  0  0  0  0  0  0  0  0  0  0  0
  150.2522  141.5789  156.4357 C   0  0  0  0  0  0  0  0  0  0  0  0
  151.3474  142.6098  156.7343 C   0  0  0  0  0  0  0  0  0  0  0  0
  151.7845  142.5539  158.1358 N   0  0  0  0  0  0  0  0  0  0  0  0
  151.5387  143.7099  158.8558 N   0  0  0  0  0  0  0  0  0  0  0  0
  151.8519  143.7569  160.1047 C   0  0  0  0  0  0  0  0  0  0  0  0
  152.4629  142.6382  160.7888 C   0  0  0  0  0  0  0  0  0  0  0  0
  152.8590  142.7593  162.4667 Cl  0  0  0  0  0  0  0  0  0  0  0  0
  152.7111  141.5146  160.0700 C   0  0  0  0  0  0  0  0  0  0  0  0
  153.4454  140.1370  160.8164 Cl  0  0  0  0  0  0  0  0  0  0  0  0
  152.3700  141.4262  158.6437 C   0  0  0  0  0  0  0  0  0  0  0  0
  152.5875  140.4293  157.9542 O   0  0  0  0  0  0  0  0  0  0  0  0
  149.0939  142.0590  155.9592 N   0  0  0  0  0  0  0  0  0  0  0  0
  147.9258  141.2566  155.6069 C   0  0  0  0  0  0  0  0  0  0  0  0
  147.2687  141.6748  154.2739 C   0  0  0  0  0  0  0  0  0  0  0  0
  146.1939  142.7434  154.4130 C   0  0  0  0  0  0  0  0  0  0  0  0
  145.6448  143.0513  155.6044 C   0  0  0  0  0  0  0  0  0  0  0  0
  144.5631  144.0985  155.8003 C   0  0  0  0  0  0  0  0  0  0  0  0
  143.9094  144.5197  154.4737 C   0  0  0  0  0  0  0  0  0  0  0  0
  144.9634  144.7282  153.3793 C   0  0  0  0  0  0  0  0  0  0  0  0
  145.7737  143.4439  153.1263 C   0  0  0  0  0  0  0  0  0  0  0  0
  152.1967  142.4717  156.0621 H   0  0  0  0  0  0  0  0  0  0  0  0
  150.9520  143.6000  156.5014 H   0  0  0  0  0  0  0  0  0  0  0  0
  151.6728  144.6432  160.7134 H   0  0  0  0  0  0  0  0  0  0  0  0
  149.0190  143.0561  155.8172 H   0  0  0  0  0  0  0  0  0  0  0  0
  148.2004  140.2014  155.5756 H   0  0  0  0  0  0  0  0  0  0  0  0
  147.2030  141.3590  156.4165 H   0  0  0  0  0  0  0  0  0  0  0  0
  148.0394  142.0329  153.5904 H   0  0  0  0  0  0  0  0  0  0  0  0
  146.8303  140.8001  153.7928 H   0  0  0  0  0  0  0  0  0  0  0  0
  145.9790  142.5438  156.4975 H   0  0  0  0  0  0  0  0  0  0  0  0
  143.8058  143.7100  156.4808 H   0  0  0  0  0  0  0  0  0  0  0  0
  145.0150  144.9619  156.2889 H   0  0  0  0  0  0  0  0  0  0  0  0
  143.2075  143.7500  154.1507 H   0  0  0  0  0  0  0  0  0  0  0  0
  143.3247  145.4284  154.6185 H   0  0  0  0  0  0  0  0  0  0  0  0
  144.4899  145.0573  152.4540 H   0  0  0  0  0  0  0  0  0  0  0  0
  145.6383  145.5300  153.6821 H   0  0  0  0  0  0  0  0  0  0  0  0
  146.6583  143.6823  152.5349 H   0  0  0  0  0  0  0  0  0  0  0  0
  145.1796  142.7435  152.5384 H   0  0  0  0  0  0  0  0  0  0  0  0
  1  2  2  0  0  0  0
  2  3  1  0  0  0  0
  2 13  1  0  0  0  0
  3  4  1  0  0  0  0
  3 22  1  0  0  0  0
  3 23  1  0  0  0  0
  4 11  1  0  0  0  0
  4  5  1  0  0  0  0
  5  6  2  0  0  0  0
  6  7  1  0  0  0  0
  6 24  1  0  0  0  0
  7  8  1  0  0  0  0
  7  9  2  0  0  0  0
  9 10  1  0  0  0  0
  9 11  1  0  0  0  0
 11 12  2  0  0  0  0
 13 14  1  0  0  0  0
 13 25  1  0  0  0  0
 14 15  1  0  0  0  0
 14 26  1  0  0  0  0
 14 27  1  0  0  0  0
 15 16  1  0  0  0  0
 15 28  1  0  0  0  0
 15 29  1  0  0  0  0
 16 21  1  0  0  0  0
 16 17  2  0  0  0  0
 17 18  1  0  0  0  0
 17 30  1  0  0  0  0
 18 19  1  0  0  0  0
 18 31  1  0  0  0  0
 18 32  1  0  0  0  0
 19 20  1  0  0  0  0
 19 33  1  0  0  0  0
 19 34  1  0  0  0  0
 20 21  1  0  0  0  0
 20 35  1  0  0  0  0
 20 36  1  0  0  0  0
 21 37  1  0  0  0  0
 21 38  1  0  0  0  0
M  END
> <s_m_source_file>
AV-unprocessed.smi

> <i_m_source_file_index>
2977

> <i_lp_mmshare_version>
43012

> <i_f3d_flags>
0

> <s_epik_input>
Tz1jMWMoQ2wpYyhDbClbY0hdbm4xW0NIMl1DKD1PKVtOSF1bQ0gyXVtDSDJdQzI9W0NIXVtDSDJdW0NIMl1bQ0gyXVtDSDJdMg==

> <s_epik_cmdline>
J2VwaWtfcHl0aG9uJywgJy1waCcsICc3LjAnLCAnLXRuJywgJzgnLCAnLW1hJywgJzIwMCcsICctbWV0YWxfYmluZGluZycsICctaW1hZScsICc8aW5maWxlLm1hZT4nLCAnLW9tYWUnLCAnPG91dGZpbGUubWFlPic=

> <r_lp_tautomer_probability>
1

> <r_epik_Ionization_Penalty>
1.81325e-08

> <r_epik_Ionization_Penalty_Charging>
2.89782e-11

> <r_epik_Ionization_Penalty_Neutral>
1.81035e-08

> <r_epik_State_Penalty>
-0

> <r_epik_Charging_Adjusted_Penalty>
2.89782e-11

> <i_epik_Tot_Q>
0

> <i_epik_Tot_abs_Q>
0

> <r_epik_Metal_State_Penalty>
-0

> <b_epik_Metal_Only>
0

> <s_lp_Force_Field>
OPLS_2005

> <r_lp_Energy>
20.3958

> <b_lp_Chiralities_Consistent>
1

> <s_lp_Variant>
AV-unprocessed.smi:2977-1

> <Gold.Version>
5.8.1

> <Gold.Id.Protein>
6NUR|6NUR_protein|mol2

> <Gold.PLP.Fitness>
49.4290

> <Gold.PLP.PLP>
-44.6695

> <Gold.PLP.part.hbond>
-2.0000

> <Gold.PLP.part.metal>
0.0000

> <Gold.PLP.part.buried>
-7.2211

> <Gold.PLP.part.nonpolar>
-34.9178

> <Gold.PLP.part.repulsive>
0.2012

> <Gold.PLP.ligand.clash>
0.0000

> <Gold.PLP.ligand.torsion>
0.4967

> <Gold.PLP.Chemscore.Hbond>
1.9040

> <Gold.PLP.Chemscore.CHOScore>
0.0000

> <Gold.PLP.Chemscore.Metal>
0.0000

> <Gold.Chemscore.Hbonds>
donor molecule, donor type, donor heavy atom, donor atom, acceptor molecule, acceptor atom, score
      L1  H    13    25       P1  8028  1.00
      P1  H  7997  8008       L1    12  0.43

> <Gold.PLP.Chemscore.Internal.Correction>
0.0409

> <Gold.Rescore>
     Score         DG    S(hbond)    S(metal)    S(lipo)     H(rot)  DE(clash)    DE(int)     intcor
     16.87     -18.92       1.84        0.00     103.84       1.89       0.09       1.96       ----

> <Gold.Chemscore.Fitness>
16.8720

> <Gold.Chemscore.DG>
-18.9191

> <Gold.Chemscore.ZeroCoef>
-5.4800

> <Gold.Chemscore.Hbond>
1.8361

> <Gold.Chemscore.Metal>
0.0000

> <Gold.Chemscore.Lipo>
103.8381

> <Gold.Chemscore.Internal_Hbond>
0.0000

> <Gold.Chemscore.DEClash>
0.0894

> <Gold.Chemscore.DEInternal>
1.9576

> <Gold.Chemscore.Rot>
1.8916

> <Gold.Chemscore.Internal.Correction>
   9.000000E+99

> <Gold.Chemscore.Hbonds>
donor molecule, donor type, donor heavy atom, donor atom, acceptor molecule, acceptor atom, score
      L1  H    13    25       P1  8028  1.00
      P1  H  7997  8008       L1    12  0.43

> <Gold.Chemscore.Hbond.Weighted>
-6.1325

> <Gold.Chemscore.Metal.Weighted>
-0.0000

> <Gold.Chemscore.Lipo.Weighted>
-12.1491

> <Gold.Chemscore.Internal_Hbond.Weighted>
0.0000

> <Gold.Chemscore.DEClash.Weighted>
0.0894

> <Gold.Chemscore.DEInternal.Weighted>
1.9576

> <Gold.Chemscore.Rot.Weighted>
4.8425

> <Gold.Chemscore.Internal.Correction.Weighted>
   9.000000E+99

> <Gold.Protein.RotatedTorsions>
[ 6907 6896 6895 6894 ] final  -81.14 input  -60.11 | X-H torsion
[ 7974 7965 7964 7962 ] final   42.21 input  175.53 | X-H torsion
[ 8008 7997 7996 7995 ] final  -62.14 input   59.86 | X-H torsion
[ 10167 10162 10161 10158 ] final  -37.60 input  -65.29 | X-H torsion
[ 10718 10713 10712 10709 ] final -119.06 input   66.30 | X-H torsion
[ 10763 10752 10751 10750 ] final -108.73 input  -60.55 | X-H torsion
[ 11005 11000 10999 10996 ] final   65.77 input  -57.11 | X-H torsion

> <Gold.Protein.ActiveResidues>
 VAL166  LYS551  ARG553  GLY616  TRP617  ASP618  TYR619  PRO620  LYS621  CYS622 
 ASP623  PHE694  ASN695  SER759  ASP760  ASP761  ALA762  ILE779  LEU786  VAL792 
 PHE793  MET794  SER795  GLU796  ALA797  LYS798  CYS799  TRP800  GLU811  SER814 

> <Gold.Protein.RotatedAtoms>
  150.6917  134.3863  159.5056 H   0  0  0  0  0  0  0  0  0  0  0  0  # atno 6907 bound_to 6896
  152.1658  134.8872  160.0547 H   0  0  0  0  0  0  0  0  0  0  0  0  # atno 6908 bound_to 6896
  151.9917  133.3758  159.4184 H   0  0  0  0  0  0  0  0  0  0  0  0  # atno 6909 bound_to 6896
  146.0759  139.5326  142.9568 H   0  0  0  0  0  0  0  0  0  0  0  0  # atno 7974 bound_to 7965
  154.4484  140.1002  156.6541 H   0  0  0  0  0  0  0  0  0  0  0  0  # atno 8008 bound_to 7997
  155.5365  140.3482  155.4419 H   0  0  0  0  0  0  0  0  0  0  0  0  # atno 8009 bound_to 7997
  156.0627  140.1330  156.9911 H   0  0  0  0  0  0  0  0  0  0  0  0  # atno 8010 bound_to 7997
  140.7114  143.3331  151.2523 H   0  0  0  0  0  0  0  0  0  0  0  0  # atno 10167 bound_to 10162
  156.1152  130.6280  150.9369 H   0  0  0  0  0  0  0  0  0  0  0  0  # atno 10718 bound_to 10713
  154.8152  135.4627  154.0624 H   0  0  0  0  0  0  0  0  0  0  0  0  # atno 10763 bound_to 10752
  153.2023  135.6870  153.8223 H   0  0  0  0  0  0  0  0  0  0  0  0  # atno 10764 bound_to 10752
  153.7703  135.3271  155.3328 H   0  0  0  0  0  0  0  0  0  0  0  0  # atno 10765 bound_to 10752
  139.9874  134.6646  156.0152 H   0  0  0  0  0  0  0  0  0  0  0  0  # atno 11005 bound_to 11000
  145.6307  141.0304  143.1865 LP  0  0  0  0  0  0  0  0  0  0  0  0  # atno 17320 bound_to 7965
  144.7261  139.7871  143.7364 LP  0  0  0  0  0  0  0  0  0  0  0  0  # atno 17321 bound_to 7965
  139.6819  143.9840  152.2813 LP  0  0  0  0  0  0  0  0  0  0  0  0  # atno 17342 bound_to 10162
  139.9473  144.6643  150.8207 LP  0  0  0  0  0  0  0  0  0  0  0  0  # atno 17343 bound_to 10162
  157.6335  131.0918  150.8394 LP  0  0  0  0  0  0  0  0  0  0  0  0  # atno 17370 bound_to 10713
  156.8499  130.5077  149.5313 LP  0  0  0  0  0  0  0  0  0  0  0  0  # atno 17371 bound_to 10713
  141.1536  133.6545  156.4091 LP  0  0  0  0  0  0  0  0  0  0  0  0  # atno 17394 bound_to 11000
  140.4976  134.6516  157.5236 LP  0  0  0  0  0  0  0  0  0  0  0  0  # atno 17395 bound_to 11000

$$$$
