AV-unprocessed.smi:554|AV-procd|sdf|2907|dock4
  -GOLD-   2262023403D 1   1.00000     0.00000
 Structure written by MMmdl.
 27 28  0  0  0  0  0  0  0  0  1 V2000
  153.0468  142.9652  160.5112 C   0  0  0  0  0  0  0  0  0  0  0  0
  151.9462  143.9471  160.1627 C   0  0  1  0  0  0  0  0  0  0  0  0
  152.2156  145.0975  159.2213 C   0  0  0  0  0  0  0  0  0  0  0  0
  151.2702  143.9951  158.8045 C   0  0  1  0  0  0  0  0  0  0  0  0
  151.6305  143.0839  157.6443 C   0  0  0  0  0  0  0  0  0  0  0  0
  150.5921  142.9580  156.6292 N   0  0  0  0  0  0  0  0  0  0  0  0
  150.1522  141.8042  156.1072 C   0  0  0  0  0  0  0  0  0  0  0  0
  150.6054  140.7010  156.4122 O   0  0  0  0  0  0  0  0  0  0  0  0
  149.1652  142.0193  155.2196 N   0  0  0  0  0  0  0  0  0  0  0  0
  148.4388  141.0611  154.4651 C   0  0  0  0  0  0  0  0  0  0  0  0
  148.7960  139.7789  154.3283 N   0  0  0  0  0  0  0  0  0  0  0  0
  147.8968  139.0659  153.5313 C   0  0  0  0  0  0  0  0  0  0  0  0
  146.8529  139.8263  153.0666 C   0  0  0  0  0  0  0  0  0  0  0  0
  146.9586  141.4782  153.6139 S   0  0  0  0  0  0  0  0  0  0  0  0
  153.7357  142.8239  159.6790 H   0  0  0  0  0  0  0  0  0  0  0  0
  152.6165  142.0000  160.7784 H   0  0  0  0  0  0  0  0  0  0  0  0
  153.6161  143.3349  161.3639 H   0  0  0  0  0  0  0  0  0  0  0  0
  151.2958  144.1680  161.0069 H   0  0  0  0  0  0  0  0  0  0  0  0
  151.7818  146.0635  159.4714 H   0  0  0  0  0  0  0  0  0  0  0  0
  153.1899  145.1375  158.7378 H   0  0  0  0  0  0  0  0  0  0  0  0
  150.2151  144.2627  158.8182 H   0  0  0  0  0  0  0  0  0  0  0  0
  152.5070  143.5057  157.1525 H   0  0  0  0  0  0  0  0  0  0  0  0
  151.9449  142.1062  158.0103 H   0  0  0  0  0  0  0  0  0  0  0  0
  150.1638  143.8154  156.3127 H   0  0  0  0  0  0  0  0  0  0  0  0
  148.8981  142.9810  155.0702 H   0  0  0  0  0  0  0  0  0  0  0  0
  148.0769  138.0176  153.3454 H   0  0  0  0  0  0  0  0  0  0  0  0
  146.0316  139.5156  152.4380 H   0  0  0  0  0  0  0  0  0  0  0  0
  1  2  1  0  0  0  0
  1 15  1  0  0  0  0
  1 16  1  0  0  0  0
  1 17  1  0  0  0  0
  2  4  1  0  0  0  0
  2  3  1  0  0  0  0
  2 18  1  0  0  0  0
  3  4  1  0  0  0  0
  3 19  1  0  0  0  0
  3 20  1  0  0  0  0
  4  5  1  0  0  0  0
  4 21  1  0  0  0  0
  5  6  1  0  0  0  0
  5 22  1  0  0  0  0
  5 23  1  0  0  0  0
  6  7  1  0  0  0  0
  6 24  1  0  0  0  0
  7  8  2  0  0  0  0
  7  9  1  0  0  0  0
  9 10  1  0  0  0  0
  9 25  1  0  0  0  0
 10 14  1  0  0  0  0
 10 11  2  0  0  0  0
 11 12  1  0  0  0  0
 12 13  2  0  0  0  0
 12 26  1  0  0  0  0
 13 14  1  0  0  0  0
 13 27  1  0  0  0  0
M  END
> <s_m_source_file>
AV-unprocessed.smi

> <i_m_source_file_index>
554

> <i_lp_mmshare_version>
43012

> <i_f3d_flags>
0

> <s_epik_input>
W0NIM11bQ0BASF0xW0NIMl1bQ0BIXTFbQ0gyXVtOSF1DKD1PKVtOSF1jMm5bY0hdW2NIXXMy

> <s_epik_cmdline>
J2VwaWtfcHl0aG9uJywgJy1waCcsICc3LjAnLCAnLXRuJywgJzgnLCAnLW1hJywgJzIwMCcsICctbWV0YWxfYmluZGluZycsICctaW1hZScsICc8aW5maWxlLm1hZT4nLCAnLW9tYWUnLCAnPG91dGZpbGUubWFlPic=

> <r_lp_tautomer_probability>
0.999

> <r_epik_Ionization_Penalty>
0.00042678

> <r_epik_Ionization_Penalty_Charging>
0

> <r_epik_Ionization_Penalty_Neutral>
0.00042678

> <r_epik_State_Penalty>
0.000177984

> <r_epik_Charging_Adjusted_Penalty>
0.000177984

> <i_epik_Tot_Q>
0

> <i_epik_Tot_abs_Q>
0

> <r_epik_Metal_State_Penalty>
-0

> <b_epik_Metal_Only>
0

> <s_lp_Force_Field>
OPLS_2005

> <r_lp_Energy>
14.702

> <b_lp_Chiralities_Consistent>
1

> <s_lp_Variant>
AV-unprocessed.smi:554-2

> <Gold.Version>
5.8.1

> <Gold.Id.Protein>
6NUR|6NUR_protein|mol2

> <Gold.PLP.Fitness>
43.0931

> <Gold.PLP.PLP>
-31.9213

> <Gold.PLP.part.hbond>
-2.0000

> <Gold.PLP.part.metal>
0.0000

> <Gold.PLP.part.buried>
-4.2698

> <Gold.PLP.part.nonpolar>
-26.5922

> <Gold.PLP.part.repulsive>
0.3928

> <Gold.PLP.ligand.clash>
0.0000

> <Gold.PLP.ligand.torsion>
0.5595

> <Gold.PLP.Chemscore.Hbond>
2.0000

> <Gold.PLP.Chemscore.CHOScore>
1.9236

> <Gold.PLP.Chemscore.Metal>
0.0000

> <Gold.Chemscore.Hbonds>
donor molecule, donor type, donor heavy atom, donor atom, acceptor molecule, acceptor atom, score
      L1  H     6    24       P1  8028  1.00
      L1  H     9    25       P1  8028  1.00
      L1  C    12    26       P1  7948  1.00
      L1  C    13    27       P1 10175  0.93

> <Gold.PLP.Chemscore.Internal.Correction>
0.5200

> <Gold.Rescore>
     Score         DG    S(hbond)    S(metal)    S(lipo)     H(rot)  DE(clash)    DE(int)     intcor
     16.39     -18.25       1.94        0.00      81.83       1.28       0.04       1.83       ----

> <Gold.Chemscore.Fitness>
16.3871

> <Gold.Chemscore.DG>
-18.2533

> <Gold.Chemscore.ZeroCoef>
-5.4800

> <Gold.Chemscore.Hbond>
1.9380

> <Gold.Chemscore.Metal>
0.0000

> <Gold.Chemscore.Lipo>
81.8305

> <Gold.Chemscore.Internal_Hbond>
0.0000

> <Gold.Chemscore.DEClash>
0.0380

> <Gold.Chemscore.DEInternal>
1.8282

> <Gold.Chemscore.Rot>
1.2788

> <Gold.Chemscore.Internal.Correction>
   9.000000E+99

> <Gold.Chemscore.Hbonds>
donor molecule, donor type, donor heavy atom, donor atom, acceptor molecule, acceptor atom, score
      L1  H     6    24       P1  8028  0.98
      L1  H     9    25       P1  8028  0.94

> <Gold.Chemscore.Hbond.Weighted>
-6.4730

> <Gold.Chemscore.Metal.Weighted>
-0.0000

> <Gold.Chemscore.Lipo.Weighted>
-9.5742

> <Gold.Chemscore.Internal_Hbond.Weighted>
0.0000

> <Gold.Chemscore.DEClash.Weighted>
0.0380

> <Gold.Chemscore.DEInternal.Weighted>
1.8282

> <Gold.Chemscore.Rot.Weighted>
3.2738

> <Gold.Chemscore.Internal.Correction.Weighted>
   9.000000E+99

> <Gold.Protein.RotatedTorsions>
[ 6907 6896 6895 6894 ] final -105.61 input  -60.11 | X-H torsion
[ 7974 7965 7964 7962 ] final  -62.60 input  175.53 | X-H torsion
[ 8008 7997 7996 7995 ] final -132.62 input   59.86 | X-H torsion
[ 10167 10162 10161 10158 ] final  -83.00 input  -65.29 | X-H torsion
[ 10718 10713 10712 10709 ] final   26.97 input   66.30 | X-H torsion
[ 10763 10752 10751 10750 ] final  -14.21 input  -60.55 | X-H torsion
[ 11005 11000 10999 10996 ] final   16.22 input  -57.11 | X-H torsion

> <Gold.Protein.ActiveResidues>
 VAL166  LYS551  ARG553  GLY616  TRP617  ASP618  TYR619  PRO620  LYS621  CYS622 
 ASP623  PHE694  ASN695  SER759  ASP760  ASP761  ALA762  ILE779  LEU786  VAL792 
 PHE793  MET794  SER795  GLU796  ALA797  LYS798  CYS799  TRP800  GLU811  SER814 

> <Gold.Protein.RotatedAtoms>
  150.7345  134.0101  159.3666 H   0  0  0  0  0  0  0  0  0  0  0  0  # atno 6907 bound_to 6896
  151.8060  135.0692  160.0416 H   0  0  0  0  0  0  0  0  0  0  0  0  # atno 6908 bound_to 6896
  152.3106  133.5713  159.5715 H   0  0  0  0  0  0  0  0  0  0  0  0  # atno 6909 bound_to 6896
  145.7893  140.8718  143.0289 H   0  0  0  0  0  0  0  0  0  0  0  0  # atno 7974 bound_to 7965
  155.3320  140.0467  157.3043 H   0  0  0  0  0  0  0  0  0  0  0  0  # atno 8008 bound_to 7997
  154.5323  140.2261  155.8748 H   0  0  0  0  0  0  0  0  0  0  0  0  # atno 8009 bound_to 7997
  156.1801  140.3076  155.9138 H   0  0  0  0  0  0  0  0  0  0  0  0  # atno 8010 bound_to 7997
  140.4267  143.2564  151.8815 H   0  0  0  0  0  0  0  0  0  0  0  0  # atno 10167 bound_to 10162
  157.2140  130.6947  149.6241 H   0  0  0  0  0  0  0  0  0  0  0  0  # atno 10718 bound_to 10713
  153.5248  135.7015  153.5713 H   0  0  0  0  0  0  0  0  0  0  0  0  # atno 10763 bound_to 10752
  153.3746  135.3936  155.1813 H   0  0  0  0  0  0  0  0  0  0  0  0  # atno 10764 bound_to 10752
  154.8691  135.3820  154.4740 H   0  0  0  0  0  0  0  0  0  0  0  0  # atno 10765 bound_to 10752
  140.4495  134.1238  155.7700 H   0  0  0  0  0  0  0  0  0  0  0  0  # atno 11005 bound_to 11000
  144.6784  140.0101  143.7484 LP  0  0  0  0  0  0  0  0  0  0  0  0  # atno 17320 bound_to 7965
  145.9993  139.3078  143.0937 LP  0  0  0  0  0  0  0  0  0  0  0  0  # atno 17321 bound_to 7965
  139.4783  144.5379  151.8572 LP  0  0  0  0  0  0  0  0  0  0  0  0  # atno 17342 bound_to 10162
  140.4473  144.1904  150.5895 LP  0  0  0  0  0  0  0  0  0  0  0  0  # atno 17343 bound_to 10162
  155.9688  130.4542  150.5840 LP  0  0  0  0  0  0  0  0  0  0  0  0  # atno 17370 bound_to 10713
  157.3643  131.0755  151.1610 LP  0  0  0  0  0  0  0  0  0  0  0  0  # atno 17371 bound_to 10713
  141.1670  133.8683  157.1684 LP  0  0  0  0  0  0  0  0  0  0  0  0  # atno 17394 bound_to 11000
  140.0016  135.0025  157.0202 LP  0  0  0  0  0  0  0  0  0  0  0  0  # atno 17395 bound_to 11000

$$$$
