AV-unprocessed.smi:599|AV-procd|sdf|3029|dock9
  -GOLD-   2262023543D 1   1.00000     0.00000
 Structure written by MMmdl.
 36 37  0  0  0  0  0  0  0  0  1 V2000
  150.4336  139.8455  154.2566 N   0  0  0  0  0  0  0  0  0  0  0  0
  149.8088  140.4881  154.9884 C   0  0  0  0  0  0  0  0  0  0  0  0
  149.0120  141.3072  155.9227 C   0  0  0  0  0  0  0  0  0  0  0  0
  149.8175  142.3518  156.5551 N   0  0  0  0  0  0  0  0  0  0  0  0
  151.0325  142.1864  157.1011 C   0  0  0  0  0  0  0  0  0  0  0  0
  151.6228  141.1060  157.1173 O   0  0  0  0  0  0  0  0  0  0  0  0
  151.6794  143.4416  157.7025 C   0  0  0  0  0  0  0  0  0  0  0  0
  152.0633  143.2714  159.1138 N   0  0  0  0  0  0  0  0  0  0  0  0
  152.8610  142.1551  159.4336 C   0  0  0  0  0  0  0  0  0  0  0  0
  153.2869  141.8927  160.6843 C   0  0  0  0  0  0  0  0  0  0  0  0
  154.0936  140.6456  161.0109 C   0  0  0  0  0  0  0  0  0  0  0  0
  154.3416  140.5638  162.3181 F   0  0  0  0  0  0  0  0  0  0  0  0
  153.4472  139.5407  160.6370 F   0  0  0  0  0  0  0  0  0  0  0  0
  155.2605  140.6808  160.3690 F   0  0  0  0  0  0  0  0  0  0  0  0
  152.8555  142.8123  161.7188 C   0  0  0  0  0  0  0  0  0  0  0  0
  152.0806  143.8766  161.4323 C   0  0  0  0  0  0  0  0  0  0  0  0
  151.6383  144.1567  160.0645 C   0  0  0  0  0  0  0  0  0  0  0  0
  150.9302  145.1259  159.7899 O   0  0  0  0  0  0  0  0  0  0  0  0
  147.8347  141.9506  155.1778 C   0  0  0  0  0  0  0  0  0  0  0  0
  146.7732  140.8544  155.0976 C   0  0  0  0  0  0  0  0  0  0  0  0
  146.9318  140.0457  156.3880 C   0  0  0  0  0  0  0  0  0  0  0  0
  148.3048  140.4186  156.9677 C   0  0  0  0  0  0  0  0  0  0  0  0
  149.4135  143.2768  156.5818 H   0  0  0  0  0  0  0  0  0  0  0  0
  152.5491  143.6982  157.0965 H   0  0  0  0  0  0  0  0  0  0  0  0
  151.0002  144.2902  157.5994 H   0  0  0  0  0  0  0  0  0  0  0  0
  153.0958  141.5160  158.5947 H   0  0  0  0  0  0  0  0  0  0  0  0
  153.1613  142.6474  162.7415 H   0  0  0  0  0  0  0  0  0  0  0  0
  151.7791  144.5413  162.2286 H   0  0  0  0  0  0  0  0  0  0  0  0
  147.4348  142.7886  155.7515 H   0  0  0  0  0  0  0  0  0  0  0  0
  148.1139  142.3321  154.1948 H   0  0  0  0  0  0  0  0  0  0  0  0
  145.7668  141.2565  154.9770 H   0  0  0  0  0  0  0  0  0  0  0  0
  146.9763  140.2135  154.2387 H   0  0  0  0  0  0  0  0  0  0  0  0
  146.1440  140.2954  157.0998 H   0  0  0  0  0  0  0  0  0  0  0  0
  146.8604  138.9766  156.1853 H   0  0  0  0  0  0  0  0  0  0  0  0
  148.8938  139.5356  157.2192 H   0  0  0  0  0  0  0  0  0  0  0  0
  148.1514  140.9706  157.8966 H   0  0  0  0  0  0  0  0  0  0  0  0
  1  2  3  0  0  0  0
  2  3  1  0  0  0  0
  3 22  1  0  0  0  0
  3  4  1  0  0  0  0
  3 19  1  0  0  0  0
  4  5  1  0  0  0  0
  4 23  1  0  0  0  0
  5  6  2  0  0  0  0
  5  7  1  0  0  0  0
  7  8  1  0  0  0  0
  7 24  1  0  0  0  0
  7 25  1  0  0  0  0
  8 17  1  0  0  0  0
  8  9  1  0  0  0  0
  9 10  2  0  0  0  0
  9 26  1  0  0  0  0
 10 11  1  0  0  0  0
 10 15  1  0  0  0  0
 11 12  1  0  0  0  0
 11 13  1  0  0  0  0
 11 14  1  0  0  0  0
 15 16  2  0  0  0  0
 15 27  1  0  0  0  0
 16 17  1  0  0  0  0
 16 28  1  0  0  0  0
 17 18  2  0  0  0  0
 19 20  1  0  0  0  0
 19 29  1  0  0  0  0
 19 30  1  0  0  0  0
 20 21  1  0  0  0  0
 20 31  1  0  0  0  0
 20 32  1  0  0  0  0
 21 22  1  0  0  0  0
 21 33  1  0  0  0  0
 21 34  1  0  0  0  0
 22 35  1  0  0  0  0
 22 36  1  0  0  0  0
M  END
> <s_m_source_file>
AV-unprocessed.smi

> <i_m_source_file_index>
599

> <i_lp_mmshare_version>
43012

> <i_f3d_flags>
0

> <s_epik_input>
W0NIMl0xW0NIMl1bQ0gyXVtDSDJdQzEoQyNOKVtOSF1DKD1PKVtDSDJdbjJbY0hdYyhDKEYpKEYpRilbY0hdW2NIXWMyPU8=

> <s_epik_cmdline>
J2VwaWtfcHl0aG9uJywgJy1waCcsICc3LjAnLCAnLXRuJywgJzgnLCAnLW1hJywgJzIwMCcsICctbWV0YWxfYmluZGluZycsICctaW1hZScsICc8aW5maWxlLm1hZT4nLCAnLW9tYWUnLCAnPG91dGZpbGUubWFlPic=

> <r_lp_tautomer_probability>
1

> <r_epik_Ionization_Penalty>
4.74739e-07

> <r_epik_Ionization_Penalty_Charging>
1.48482e-08

> <r_epik_Ionization_Penalty_Neutral>
4.59891e-07

> <r_epik_State_Penalty>
-0

> <r_epik_Charging_Adjusted_Penalty>
1.48482e-08

> <i_epik_Tot_Q>
0

> <i_epik_Tot_abs_Q>
0

> <r_epik_Metal_State_Penalty>
-0

> <b_epik_Metal_Only>
0

> <s_lp_Force_Field>
OPLS_2005

> <r_lp_Energy>
29.4695

> <b_lp_Chiralities_Consistent>
1

> <s_lp_Variant>
AV-unprocessed.smi:599-1

> <Gold.Version>
5.8.1

> <Gold.Id.Protein>
6NUR|6NUR_protein|mol2

> <Gold.PLP.Fitness>
51.8807

> <Gold.PLP.PLP>
-47.0391

> <Gold.PLP.part.hbond>
-2.0000

> <Gold.PLP.part.metal>
0.0000

> <Gold.PLP.part.buried>
-3.7308

> <Gold.PLP.part.nonpolar>
-41.6625

> <Gold.PLP.part.repulsive>
0.6596

> <Gold.PLP.ligand.clash>
0.0000

> <Gold.PLP.ligand.torsion>
0.3590

> <Gold.PLP.Chemscore.Hbond>
1.8320

> <Gold.PLP.Chemscore.CHOScore>
0.0000

> <Gold.PLP.Chemscore.Metal>
0.0000

> <Gold.Chemscore.Hbonds>
donor molecule, donor type, donor heavy atom, donor atom, acceptor molecule, acceptor atom, score
      L1  H     4    23       P1  8028  0.96
      P1  H  7989  7998       L1     1  1.00

> <Gold.PLP.Chemscore.Internal.Correction>
0.0636

> <Gold.Rescore>
     Score         DG    S(hbond)    S(metal)    S(lipo)     H(rot)  DE(clash)    DE(int)     intcor
     13.09     -16.25       1.64        0.00      81.64       1.66       0.14       3.02       ----

> <Gold.Chemscore.Fitness>
13.0902

> <Gold.Chemscore.DG>
-16.2486

> <Gold.Chemscore.ZeroCoef>
-5.4800

> <Gold.Chemscore.Hbond>
1.6366

> <Gold.Chemscore.Metal>
0.0000

> <Gold.Chemscore.Lipo>
81.6377

> <Gold.Chemscore.Internal_Hbond>
0.0000

> <Gold.Chemscore.DEClash>
0.1430

> <Gold.Chemscore.DEInternal>
3.0154

> <Gold.Chemscore.Rot>
1.6599

> <Gold.Chemscore.Internal.Correction>
   9.000000E+99

> <Gold.Chemscore.Hbonds>
donor molecule, donor type, donor heavy atom, donor atom, acceptor molecule, acceptor atom, score
      L1  H     4    23       P1  8028  0.92
      P1  H  7989  7998       L1     1  0.70

> <Gold.Chemscore.Hbond.Weighted>
-5.4662

> <Gold.Chemscore.Metal.Weighted>
-0.0000

> <Gold.Chemscore.Lipo.Weighted>
-9.5516

> <Gold.Chemscore.Internal_Hbond.Weighted>
0.0000

> <Gold.Chemscore.DEClash.Weighted>
0.1430

> <Gold.Chemscore.DEInternal.Weighted>
3.0154

> <Gold.Chemscore.Rot.Weighted>
4.2492

> <Gold.Chemscore.Internal.Correction.Weighted>
   9.000000E+99

> <Gold.Protein.RotatedTorsions>
[ 6907 6896 6895 6894 ] final -165.15 input  -60.11 | X-H torsion
[ 7974 7965 7964 7962 ] final  -35.81 input  175.53 | X-H torsion
[ 8008 7997 7996 7995 ] final -128.49 input   59.86 | X-H torsion
[ 10167 10162 10161 10158 ] final  -35.40 input  -65.29 | X-H torsion
[ 10718 10713 10712 10709 ] final   55.50 input   66.30 | X-H torsion
[ 10763 10752 10751 10750 ] final  176.58 input  -60.55 | X-H torsion
[ 11005 11000 10999 10996 ] final   75.83 input  -57.11 | X-H torsion

> <Gold.Protein.ActiveResidues>
 VAL166  LYS551  ARG553  GLY616  TRP617  ASP618  TYR619  PRO620  LYS621  CYS622 
 ASP623  PHE694  ASN695  SER759  ASP760  ASP761  ALA762  ILE779  LEU786  VAL792 
 PHE793  MET794  SER795  GLU796  ALA797  LYS798  CYS799  TRP800  GLU811  SER814 

> <Gold.Protein.RotatedAtoms>
  151.4231  133.3692  159.2758 H   0  0  0  0  0  0  0  0  0  0  0  0  # atno 6907 bound_to 6896
  150.9279  134.8697  159.7543 H   0  0  0  0  0  0  0  0  0  0  0  0  # atno 6908 bound_to 6896
  152.5014  134.4173  159.9521 H   0  0  0  0  0  0  0  0  0  0  0  0  # atno 6909 bound_to 6896
  146.0715  140.6203  142.8950 H   0  0  0  0  0  0  0  0  0  0  0  0  # atno 7974 bound_to 7965
  155.2635  140.0437  157.3000 H   0  0  0  0  0  0  0  0  0  0  0  0  # atno 8008 bound_to 7997
  154.5696  140.2370  155.8180 H   0  0  0  0  0  0  0  0  0  0  0  0  # atno 8009 bound_to 7997
  156.2112  140.2998  155.9745 H   0  0  0  0  0  0  0  0  0  0  0  0  # atno 8010 bound_to 7997
  140.7166  143.3480  151.2216 H   0  0  0  0  0  0  0  0  0  0  0  0  # atno 10167 bound_to 10162
  157.5350  130.8657  149.8741 H   0  0  0  0  0  0  0  0  0  0  0  0  # atno 10718 bound_to 10713
  154.4830  135.2775  155.1556 H   0  0  0  0  0  0  0  0  0  0  0  0  # atno 10763 bound_to 10752
  154.3258  135.6200  153.5532 H   0  0  0  0  0  0  0  0  0  0  0  0  # atno 10764 bound_to 10752
  152.9877  135.5754  154.5235 H   0  0  0  0  0  0  0  0  0  0  0  0  # atno 10765 bound_to 10752
  139.9326  134.7550  156.1320 H   0  0  0  0  0  0  0  0  0  0  0  0  # atno 11005 bound_to 11000
  144.7235  140.4449  143.6991 LP  0  0  0  0  0  0  0  0  0  0  0  0  # atno 17320 bound_to 7965
  145.6382  139.1546  143.2930 LP  0  0  0  0  0  0  0  0  0  0  0  0  # atno 17321 bound_to 7965
  139.7004  143.9543  152.2902 LP  0  0  0  0  0  0  0  0  0  0  0  0  # atno 17342 bound_to 10162
  139.9234  144.6786  150.8438 LP  0  0  0  0  0  0  0  0  0  0  0  0  # atno 17343 bound_to 10162
  156.0452  130.3729  150.1336 LP  0  0  0  0  0  0  0  0  0  0  0  0  # atno 17370 bound_to 10713
  156.9519  130.9777  151.3496 LP  0  0  0  0  0  0  0  0  0  0  0  0  # atno 17371 bound_to 10713
  141.0922  133.6709  156.2566 LP  0  0  0  0  0  0  0  0  0  0  0  0  # atno 17394 bound_to 11000
  140.6162  134.5408  157.5541 LP  0  0  0  0  0  0  0  0  0  0  0  0  # atno 17395 bound_to 11000

$$$$
