#       Name:                AV-unprocessed.smi:2710
#       Creating user name   scv26
#       Creation time:       Fri Mar 27 14:50:48 2020


#       File generated by GOLD software.
#

@<TRIPOS>MOLECULE
AV-unprocessed.smi:2710
    57    58     1
SMALL
NO_CHARGES


@<TRIPOS>ATOM
      1 ****        -6.1866  -3.8803   1.4528 C.3            1 S1                 0.0000
      2 ****        -5.9250  -3.1030   0.1540 C.3            1 S1                 0.0000
      3 ****        -4.5020  -2.7031  -0.0177 N.4            1 S1                 1.0000
      4 ****        -4.2179  -2.2289  -1.3989 C.3            1 S1                 0.0000
      5 ****        -2.7111  -2.0241  -1.6255 C.3            1 S1                 0.0000
      6 ****        -2.1212  -1.0552  -0.5909 C.3            1 S1                 0.0000
      7 ****        -0.6794  -0.9321  -0.7865 N.am           1 S1                 0.0000
      8 ****         0.0686   0.0997  -0.3690 C.2            1 S1                 0.0000
      9 ****        -0.3910   1.0631   0.2428 O.2            1 S1                 0.0000
     10 ****         1.3568  -0.0652  -0.7149 N.am           1 S1                 0.0000
     11 ****         2.4668   0.7871  -0.4646 C.ar           1 S1                 0.0000
     12 ****         2.4643   1.9227   0.3815 C.ar           1 S1                 0.0000
     13 ****         3.5725   2.6721   0.5643 N.ar           1 S1                 0.0000
     14 ****         4.6971   2.2890  -0.0542 C.ar           1 S1                 0.0000
     15 ****         5.9089   3.2325   0.0408 C.3            1 S1                 0.0000
     16 ****         7.2361   2.4508  -0.1061 C.3            1 S1                 0.0000
     17 ****         5.9704   3.9220   1.4241 C.3            1 S1                 0.0000
     18 ****         5.8146   4.3007  -1.0639 C.3            1 S1                 0.0000
     19 ****         4.7947   1.2550  -0.8999 N.ar           1 S1                 0.0000
     20 ****         3.6955   0.4965  -1.0909 C.ar           1 S1                 0.0000
     21 ****        -2.4435  -1.5679   0.8255 C.3            1 S1                 0.0000
     22 ****        -3.9558  -1.7920   1.0368 C.3            1 S1                 0.0000
     23 ****        -4.7274  -0.4609   1.1678 C.3            1 S1                 0.0000
     24 ****        -7.2087  -4.2597   1.4705 H              1 S1                 0.0000
     25 ****        -6.0641  -3.2539   2.3363 H              1 S1                 0.0000
     26 ****        -5.5162  -4.7351   1.5448 H              1 S1                 0.0000
     27 ****        -6.2018  -3.7513  -0.6784 H              1 S1                 0.0000
     28 ****        -6.5814  -2.2353   0.0869 H              1 S1                 0.0000
     29 ****        -4.5836  -2.9619  -2.1189 H              1 S1                 0.0000
     30 ****        -4.7612  -1.3044  -1.5969 H              1 S1                 0.0000
     31 ****        -2.2023  -2.9875  -1.5653 H              1 S1                 0.0000
     32 ****        -2.5394  -1.6461  -2.6339 H              1 S1                 0.0000
     33 ****        -2.5781  -0.0749  -0.7381 H              1 S1                 0.0000
     34 ****        -0.2191  -1.6816  -1.2823 H              1 S1                 0.0000
     35 ****         1.5672  -0.8952  -1.2497 H              1 S1                 0.0000
     36 ****         1.5936   2.2517   0.9257 H              1 S1                 0.0000
     37 ****         8.0988   3.1077   0.0098 H              1 S1                 0.0000
     38 ****         7.3290   1.9816  -1.0862 H              1 S1                 0.0000
     39 ****         7.3195   1.6651   0.6457 H              1 S1                 0.0000
     40 ****         6.0084   3.1899   2.2316 H              1 S1                 0.0000
     41 ****         5.1069   4.5645   1.6001 H              1 S1                 0.0000
     42 ****         6.8546   4.5540   1.5135 H              1 S1                 0.0000
     43 ****         6.6598   4.9888  -1.0259 H              1 S1                 0.0000
     44 ****         4.9038   4.8925  -0.9654 H              1 S1                 0.0000
     45 ****         5.8050   3.8456  -2.0550 H              1 S1                 0.0000
     46 ****         3.7979  -0.3461  -1.7590 H              1 S1                 0.0000
     47 ****        -1.9192  -2.5100   0.9937 H              1 S1                 0.0000
     48 ****        -2.0628  -0.8749   1.5771 H              1 S1                 0.0000
     49 ****        -4.0459  -2.3042   1.9940 H              1 S1                 0.0000
     50 ****        -4.2701   0.1740   1.9274 H              1 S1                 0.0000
     51 ****        -5.7608  -0.6197   1.4749 H              1 S1                 0.0000
     52 ****        -4.7395   0.1071   0.2382 H              1 S1                 0.0000
     53 ****        -3.9765  -3.5606   0.0760 H              1 S1                 0.0000
     54 ****        -1.3681   1.1028   0.4517 LP             1 S1                 0.0000
     55 ****         0.2126   1.8065   0.5312 LP             1 S1                 0.0000
     56 ****         3.5542   3.4874   1.1432 LP             1 S1                 0.0000
     57 ****         5.6521   1.0524  -1.3730 LP             1 S1                 0.0000
@<TRIPOS>BOND
    1    1    2 1     
    2    1   24 1     
    3    1   25 1     
    4    1   26 1     
    5    2    3 1     
    6    2   27 1     
    7    2   28 1     
    8    3   22 1     
    9    3    4 1     
   10    3   53 1     
   11    4    5 1     
   12    4   29 1     
   13    4   30 1     
   14    5    6 1     
   15    5   31 1     
   16    5   32 1     
   17    6    7 1     
   18    6   21 1     
   19    6   33 1     
   20    7    8 am    
   21    7   34 1     
   22    8    9 2     
   23    8   10 am    
   24   10   11 1     
   25   10   35 1     
   26   11   20 ar    
   27   11   12 ar    
   28   12   13 ar    
   29   12   36 1     
   30   13   14 ar    
   31   14   15 1     
   32   14   19 ar    
   33   15   16 1     
   34   15   17 1     
   35   15   18 1     
   36   16   37 1     
   37   16   38 1     
   38   16   39 1     
   39   17   40 1     
   40   17   41 1     
   41   17   42 1     
   42   18   43 1     
   43   18   44 1     
   44   18   45 1     
   45   19   20 ar    
   46   20   46 1     
   47   21   22 1     
   48   21   47 1     
   49   21   48 1     
   50   22   23 1     
   51   22   49 1     
   52   23   50 1     
   53   23   51 1     
   54   23   52 1     
   55    9   54 1     
   56    9   55 1     
   57   13   56 1     
   58   19   57 1     
@<TRIPOS>SUBSTRUCTURE
      1 S1             1
@<TRIPOS>SET
LONE_PAIRS      STATIC     ATOMS    <user>   **** ""
4 54 55 56 57
DONOR_HYDROGENS      STATIC     ATOMS    <user>   **** ""
3 53 34 35
ATOM$BLUE        STATIC     ATOMS    COLORGROUP SYSTEM
4 54 55 56 57
ATOM$RED        STATIC     ATOMS    COLORGROUP SYSTEM
3 53 34 35
