AV-unprocessed.smi:2693|AV-procd|sdf|10397|dock7
  -GOLD-   2272014433D 1   1.00000     0.00000
 Structure written by MMmdl.
 45 47  0  0  0  0  0  0  0  0  1 V2000
  151.5974  140.9716  158.4459 C   0  0  0  0  0  0  0  0  0  0  0  0
  151.0040  141.2834  157.1491 N   0  0  0  0  0  0  0  0  0  0  0  0
  151.1462  142.6491  156.6528 C   0  0  0  0  0  0  0  0  0  0  0  0
  150.3208  140.3117  156.4119 C   0  0  0  0  0  0  0  0  0  0  0  0
  150.3602  140.4093  155.0765 N   0  0  0  0  0  0  0  0  0  0  0  0
  149.7038  139.4720  154.3610 C   0  0  0  0  0  0  0  0  0  0  0  0
  148.9902  138.4253  154.9780 C   0  0  0  0  0  0  0  0  0  0  0  0
  148.3373  137.4622  154.1633 N   0  0  0  0  0  0  0  0  0  0  0  0
  147.1897  136.8071  154.4050 C   0  0  0  0  0  0  0  0  0  0  0  0
  146.4680  136.9721  155.3878 O   0  0  0  0  0  0  0  0  0  0  0  0
  146.9030  135.9529  153.4143 N   0  0  0  0  0  0  0  0  0  0  0  0
  145.7046  135.1085  153.3650 C   0  0  2  0  0  0  0  0  0  0  0  0
  146.0269  133.6194  153.5097 C   0  0  2  0  0  0  0  0  0  0  0  0
  147.1801  132.8221  154.0021 C   0  0  0  0  0  0  0  0  0  0  0  0
  147.1566  131.7411  152.8873 C   0  0  0  0  0  0  0  0  0  0  0  0
  146.2279  132.2232  151.8821 O   0  0  0  0  0  0  0  0  0  0  0  0
  146.2804  133.6297  152.0162 C   0  0  1  0  0  0  0  0  0  0  0  0
  145.2000  134.7299  151.9158 C   0  0  0  0  0  0  0  0  0  0  0  0
  143.7379  134.2690  151.7765 C   0  0  0  0  0  0  0  0  0  0  0  0
  145.4173  135.7670  150.8083 C   0  0  0  0  0  0  0  0  0  0  0  0
  149.0201  138.4111  156.3928 C   0  0  0  0  0  0  0  0  0  0  0  0
  149.6827  139.3536  157.0967 N   0  0  0  0  0  0  0  0  0  0  0  0
  150.8187  140.7328  159.1704 H   0  0  0  0  0  0  0  0  0  0  0  0
  152.1770  141.8066  158.8394 H   0  0  0  0  0  0  0  0  0  0  0  0
  152.2674  140.1152  158.3645 H   0  0  0  0  0  0  0  0  0  0  0  0
  150.1712  143.0703  156.4056 H   0  0  0  0  0  0  0  0  0  0  0  0
  151.7651  142.6633  155.7554 H   0  0  0  0  0  0  0  0  0  0  0  0
  151.6093  143.3039  157.3910 H   0  0  0  0  0  0  0  0  0  0  0  0
  149.7487  139.5620  153.2856 H   0  0  0  0  0  0  0  0  0  0  0  0
  148.7763  137.2784  153.2729 H   0  0  0  0  0  0  0  0  0  0  0  0
  147.5463  135.8819  152.6398 H   0  0  0  0  0  0  0  0  0  0  0  0
  144.9040  135.4338  154.0316 H   0  0  0  0  0  0  0  0  0  0  0  0
  145.1060  133.0963  153.7787 H   0  0  0  0  0  0  0  0  0  0  0  0
  148.1093  133.3931  153.9999 H   0  0  0  0  0  0  0  0  0  0  0  0
  147.0159  132.4052  154.9960 H   0  0  0  0  0  0  0  0  0  0  0  0
  148.1492  131.6081  152.4551 H   0  0  0  0  0  0  0  0  0  0  0  0
  146.8186  130.7752  153.2633 H   0  0  0  0  0  0  0  0  0  0  0  0
  147.2712  134.0008  151.7337 H   0  0  0  0  0  0  0  0  0  0  0  0
  143.5681  133.7811  150.8162 H   0  0  0  0  0  0  0  0  0  0  0  0
  143.0505  135.1135  151.8373 H   0  0  0  0  0  0  0  0  0  0  0  0
  143.4283  133.5622  152.5443 H   0  0  0  0  0  0  0  0  0  0  0  0
  145.1369  135.3748  149.8300 H   0  0  0  0  0  0  0  0  0  0  0  0
  146.4602  136.0752  150.7339 H   0  0  0  0  0  0  0  0  0  0  0  0
  144.8271  136.6667  150.9849 H   0  0  0  0  0  0  0  0  0  0  0  0
  148.5399  137.6451  156.9810 H   0  0  0  0  0  0  0  0  0  0  0  0
  1  2  1  0  0  0  0
  1 23  1  0  0  0  0
  1 24  1  0  0  0  0
  1 25  1  0  0  0  0
  2  3  1  0  0  0  0
  2  4  1  0  0  0  0
  3 26  1  0  0  0  0
  3 27  1  0  0  0  0
  3 28  1  0  0  0  0
  4 22  1  0  0  0  0
  4  5  2  0  0  0  0
  5  6  1  0  0  0  0
  6  7  2  0  0  0  0
  6 29  1  0  0  0  0
  7  8  1  0  0  0  0
  7 21  1  0  0  0  0
  8  9  1  0  0  0  0
  8 30  1  0  0  0  0
  9 10  2  0  0  0  0
  9 11  1  0  0  0  0
 11 12  1  0  0  0  0
 11 31  1  0  0  0  0
 12 18  1  0  0  0  0
 12 13  1  0  0  0  0
 12 32  1  0  0  0  0
 13 17  1  0  0  0  0
 13 14  1  0  0  0  0
 13 33  1  0  0  0  0
 14 15  1  0  0  0  0
 14 34  1  0  0  0  0
 14 35  1  0  0  0  0
 15 16  1  0  0  0  0
 15 36  1  0  0  0  0
 15 37  1  0  0  0  0
 16 17  1  0  0  0  0
 17 18  1  0  0  0  0
 17 38  1  0  0  0  0
 18 19  1  0  0  0  0
 18 20  1  0  0  0  0
 19 39  1  0  0  0  0
 19 40  1  0  0  0  0
 19 41  1  0  0  0  0
 20 42  1  0  0  0  0
 20 43  1  0  0  0  0
 20 44  1  0  0  0  0
 21 22  2  0  0  0  0
 21 45  1  0  0  0  0
M  END
> <s_m_source_file>
AV-unprocessed.smi

> <i_m_source_file_index>
2693

> <i_lp_mmshare_version>
43012

> <i_f3d_flags>
0

> <s_epik_input>
W0NIM11OKFtDSDNdKWMxbltjSF1jKFtjSF1uMSlbTkhdQyg9TylbTkhdW0NASF0yQyhbQ0gzXSkoW0NIM10pW0NAQEhdKFtDQEhdMjMpT1tDSDJdW0NIMl0z

> <s_epik_cmdline>
J2VwaWtfcHl0aG9uJywgJy1waCcsICc3LjAnLCAnLXRuJywgJzgnLCAnLW1hJywgJzIwMCcsICctbWV0YWxfYmluZGluZycsICctaW1hZScsICc8aW5maWxlLm1hZT4nLCAnLW9tYWUnLCAnPG91dGZpbGUubWFlPic=

> <r_lp_tautomer_probability>
1

> <r_epik_Ionization_Penalty>
0.00031779

> <r_epik_Ionization_Penalty_Charging>
0

> <r_epik_Ionization_Penalty_Neutral>
0.00031779

> <r_epik_State_Penalty>
-0

> <r_epik_Charging_Adjusted_Penalty>
0

> <i_epik_Tot_Q>
0

> <i_epik_Tot_abs_Q>
0

> <r_epik_Metal_State_Penalty>
-0

> <b_epik_Metal_Only>
0

> <s_lp_Force_Field>
OPLS_2005

> <r_lp_Energy>
57.3168

> <b_lp_Chiralities_Consistent>
1

> <s_lp_Variant>
AV-unprocessed.smi:2693-1

> <Gold.Version>
5.8.1

> <Gold.Id.Protein>
6NUR|6NUR_protein|mol2

> <Gold.PLP.Fitness>
36.4904

> <Gold.PLP.PLP>
-26.8553

> <Gold.PLP.part.hbond>
-3.0000

> <Gold.PLP.part.metal>
0.0000

> <Gold.PLP.part.buried>
-3.7831

> <Gold.PLP.part.nonpolar>
-20.3424

> <Gold.PLP.part.repulsive>
0.2148

> <Gold.PLP.ligand.clash>
0.0000

> <Gold.PLP.ligand.torsion>
0.8521

> <Gold.PLP.Chemscore.Hbond>
2.6920

> <Gold.PLP.Chemscore.CHOScore>
1.0000

> <Gold.PLP.Chemscore.Metal>
0.0000

> <Gold.Chemscore.Hbonds>
donor molecule, donor type, donor heavy atom, donor atom, acceptor molecule, acceptor atom, score
      L1  H     8    30       P1  7948  1.00
      L1  H    11    31       P1  7948  1.00
      P1  H  7989  7998       L1     5  0.58
      L1  C     6    29       P1  7957  1.00

> <Gold.PLP.Chemscore.Internal.Correction>
0.2633

> <Gold.Rescore>
     Score         DG    S(hbond)    S(metal)    S(lipo)     H(rot)  DE(clash)    DE(int)     intcor
     15.62     -16.68       1.91        0.00      63.07       1.00       0.15       0.91       ----

> <Gold.Chemscore.Fitness>
15.6193

> <Gold.Chemscore.DG>
-16.6804

> <Gold.Chemscore.ZeroCoef>
-5.4800

> <Gold.Chemscore.Hbond>
1.9106

> <Gold.Chemscore.Metal>
0.0000

> <Gold.Chemscore.Lipo>
63.0695

> <Gold.Chemscore.Internal_Hbond>
0.0000

> <Gold.Chemscore.DEClash>
0.1525

> <Gold.Chemscore.DEInternal>
0.9087

> <Gold.Chemscore.Rot>
1.0000

> <Gold.Chemscore.Internal.Correction>
   9.000000E+99

> <Gold.Chemscore.Hbonds>
donor molecule, donor type, donor heavy atom, donor atom, acceptor molecule, acceptor atom, score
      L1  H     8    30       P1  7948  0.94
      L1  H    11    31       P1  7948  0.98
      P1  H  7989  7998       L1     5  0.05

> <Gold.Chemscore.Hbond.Weighted>
-6.3813

> <Gold.Chemscore.Metal.Weighted>
-0.0000

> <Gold.Chemscore.Lipo.Weighted>
-7.3791

> <Gold.Chemscore.Internal_Hbond.Weighted>
0.0000

> <Gold.Chemscore.DEClash.Weighted>
0.1525

> <Gold.Chemscore.DEInternal.Weighted>
0.9087

> <Gold.Chemscore.Rot.Weighted>
2.5600

> <Gold.Chemscore.Internal.Correction.Weighted>
   9.000000E+99

> <Gold.Protein.RotatedTorsions>
[ 6907 6896 6895 6894 ] final  -87.62 input  -60.11 | X-H torsion
[ 7974 7965 7964 7962 ] final  -57.88 input  175.53 | X-H torsion
[ 8008 7997 7996 7995 ] final -154.01 input   59.86 | X-H torsion
[ 10167 10162 10161 10158 ] final  142.79 input  -65.29 | X-H torsion
[ 10718 10713 10712 10709 ] final -107.87 input   66.30 | X-H torsion
[ 10763 10752 10751 10750 ] final -145.87 input  -60.55 | X-H torsion
[ 11005 11000 10999 10996 ] final   33.94 input  -57.11 | X-H torsion

> <Gold.Protein.ActiveResidues>
 VAL166  LYS551  ARG553  GLY616  TRP617  ASP618  TYR619  PRO620  LYS621  CYS622 
 ASP623  PHE694  ASN695  SER759  ASP760  ASP761  ALA762  ILE779  LEU786  VAL792 
 PHE793  MET794  SER795  GLU796  ALA797  LYS798  CYS799  TRP800  GLU811  SER814 

> <Gold.Protein.RotatedAtoms>
  150.6867  134.2868  159.4649 H   0  0  0  0  0  0  0  0  0  0  0  0  # atno 6907 bound_to 6896
  152.0776  134.9489  160.0583 H   0  0  0  0  0  0  0  0  0  0  0  0  # atno 6908 bound_to 6896
  152.0855  133.4139  159.4557 H   0  0  0  0  0  0  0  0  0  0  0  0  # atno 6909 bound_to 6896
  145.8459  140.8385  143.0010 H   0  0  0  0  0  0  0  0  0  0  0  0  # atno 7974 bound_to 7965
  155.6797  140.0743  157.2489 H   0  0  0  0  0  0  0  0  0  0  0  0  # atno 8008 bound_to 7997
  154.4108  140.1684  156.2021 H   0  0  0  0  0  0  0  0  0  0  0  0  # atno 8009 bound_to 7997
  155.9545  140.3374  155.6440 H   0  0  0  0  0  0  0  0  0  0  0  0  # atno 8010 bound_to 7997
  139.4985  144.6084  151.6327 H   0  0  0  0  0  0  0  0  0  0  0  0  # atno 10167 bound_to 10162
  156.0457  130.5684  150.7882 H   0  0  0  0  0  0  0  0  0  0  0  0  # atno 10718 bound_to 10713
  154.8363  135.3401  154.6572 H   0  0  0  0  0  0  0  0  0  0  0  0  # atno 10763 bound_to 10752
  153.7187  135.6959  153.5023 H   0  0  0  0  0  0  0  0  0  0  0  0  # atno 10764 bound_to 10752
  153.2398  135.4388  155.0638 H   0  0  0  0  0  0  0  0  0  0  0  0  # atno 10765 bound_to 10752
  140.2579  134.3226  155.7867 H   0  0  0  0  0  0  0  0  0  0  0  0  # atno 11005 bound_to 11000
  144.6731  140.0881  143.7466 LP  0  0  0  0  0  0  0  0  0  0  0  0  # atno 17320 bound_to 7965
  145.9412  139.2670  143.1267 LP  0  0  0  0  0  0  0  0  0  0  0  0  # atno 17321 bound_to 7965
  140.5752  144.0041  150.6237 LP  0  0  0  0  0  0  0  0  0  0  0  0  # atno 17342 bound_to 10162
  140.3172  143.3160  152.0820 LP  0  0  0  0  0  0  0  0  0  0  0  0  # atno 17343 bound_to 10162
  157.5330  131.0937  150.9930 LP  0  0  0  0  0  0  0  0  0  0  0  0  # atno 17370 bound_to 10713
  157.0231  130.5682  149.5334 LP  0  0  0  0  0  0  0  0  0  0  0  0  # atno 17371 bound_to 10713
  141.2194  133.7392  156.9141 LP  0  0  0  0  0  0  0  0  0  0  0  0  # atno 17394 bound_to 11000
  140.1493  134.9241  157.2571 LP  0  0  0  0  0  0  0  0  0  0  0  0  # atno 17395 bound_to 11000

$$$$
