AV-unprocessed.smi:2547|AV-procd|sdf|10001|dock3
  -GOLD-   2272014 53D 1   1.00000     0.00000
 Structure written by MMmdl.
 44 45  0  0  0  0  0  0  0  0  2 V2000
  146.8071  138.7059  151.9982 C   0  0  0  0  0  0  0  0  0  0  0  0
  147.5219  139.7131  152.8113 N   0  3  2  0  0  0  0  0  0  0  0  0
  148.3565  139.0945  153.8711 C   0  0  0  0  0  0  0  0  0  0  0  0
  149.1834  140.1572  154.6139 C   0  0  0  0  0  0  0  0  0  0  0  0
  148.2775  141.2557  155.2019 C   0  0  1  0  0  0  0  0  0  0  0  0
  149.0726  142.3110  155.8235 N   0  0  0  0  0  0  0  0  0  0  0  0
  149.6445  142.2320  157.0342 C   0  0  0  0  0  0  0  0  0  0  0  0
  149.5621  141.2384  157.7572 O   0  0  0  0  0  0  0  0  0  0  0  0
  150.3086  143.3622  157.3346 N   0  0  0  0  0  0  0  0  0  0  0  0
  151.0204  143.6695  158.5248 C   0  0  0  0  0  0  0  0  0  0  0  0
  150.9204  145.0086  158.9564 C   0  0  0  0  0  0  0  0  0  0  0  0
  151.5903  145.4036  160.1281 C   0  0  0  0  0  0  0  0  0  0  0  0
  152.3418  144.4506  160.8386 C   0  0  0  0  0  0  0  0  0  0  0  0
  152.4000  143.1227  160.3514 C   0  0  0  0  0  0  0  0  0  0  0  0
  153.1356  142.1199  161.0230 N   0  0  0  0  0  0  0  0  0  0  0  0
  153.4854  142.2963  162.4291 C   0  0  0  0  0  0  0  0  0  0  0  0
  153.4703  140.8756  160.3415 C   0  0  0  0  0  0  0  0  0  0  0  0
  151.7475  142.7615  159.2198 N   0  0  0  0  0  0  0  0  0  0  0  0
  147.3983  141.8495  154.0887 C   0  0  0  0  0  0  0  0  0  0  0  0
  146.6105  140.7499  153.3565 C   0  0  0  0  0  0  0  0  0  0  0  0
  146.0934  138.1470  152.6052 H   0  0  0  0  0  0  0  0  0  0  0  0
  147.5093  137.9979  151.5567 H   0  0  0  0  0  0  0  0  0  0  0  0
  146.2630  139.1848  151.1836 H   0  0  0  0  0  0  0  0  0  0  0  0
  147.7178  138.5570  154.5739 H   0  0  0  0  0  0  0  0  0  0  0  0
  149.0271  138.3589  153.4254 H   0  0  0  0  0  0  0  0  0  0  0  0
  149.7631  139.6801  155.4051 H   0  0  0  0  0  0  0  0  0  0  0  0
  149.9059  140.6000  153.9266 H   0  0  0  0  0  0  0  0  0  0  0  0
  147.6225  140.8128  155.9550 H   0  0  0  0  0  0  0  0  0  0  0  0
  149.1893  143.1651  155.2978 H   0  0  0  0  0  0  0  0  0  0  0  0
  150.3010  144.0890  156.6347 H   0  0  0  0  0  0  0  0  0  0  0  0
  150.3385  145.7291  158.4000 H   0  0  0  0  0  0  0  0  0  0  0  0
  151.5271  146.4234  160.4778 H   0  0  0  0  0  0  0  0  0  0  0  0
  152.8525  144.7547  161.7399 H   0  0  0  0  0  0  0  0  0  0  0  0
  154.0335  143.2276  162.5764 H   0  0  0  0  0  0  0  0  0  0  0  0
  154.1158  141.4821  162.7870 H   0  0  0  0  0  0  0  0  0  0  0  0
  152.5866  142.3222  163.0460 H   0  0  0  0  0  0  0  0  0  0  0  0
  154.1381  141.0666  159.5009 H   0  0  0  0  0  0  0  0  0  0  0  0
  152.5690  140.3866  159.9699 H   0  0  0  0  0  0  0  0  0  0  0  0
  153.9715  140.1789  161.0133 H   0  0  0  0  0  0  0  0  0  0  0  0
  146.7059  142.5804  154.5083 H   0  0  0  0  0  0  0  0  0  0  0  0
  148.0193  142.3881  153.3711 H   0  0  0  0  0  0  0  0  0  0  0  0
  146.0349  141.1950  152.5438 H   0  0  0  0  0  0  0  0  0  0  0  0
  145.8937  140.2858  154.0361 H   0  0  0  0  0  0  0  0  0  0  0  0
  148.1571  140.1875  152.1852 H   0  0  0  0  0  0  0  0  0  0  0  0
  1  2  1  0  0  0  0
  1 21  1  0  0  0  0
  1 22  1  0  0  0  0
  1 23  1  0  0  0  0
  2 20  1  0  0  0  0
  2  3  1  0  0  0  0
  2 44  1  0  0  0  0
  3  4  1  0  0  0  0
  3 24  1  0  0  0  0
  3 25  1  0  0  0  0
  4  5  1  0  0  0  0
  4 26  1  0  0  0  0
  4 27  1  0  0  0  0
  5  6  1  0  0  0  0
  5 19  1  0  0  0  0
  5 28  1  0  0  0  0
  6  7  1  0  0  0  0
  6 29  1  0  0  0  0
  7  8  2  0  0  0  0
  7  9  1  0  0  0  0
  9 10  1  0  0  0  0
  9 30  1  0  0  0  0
 10 18  1  0  0  0  0
 10 11  2  0  0  0  0
 11 12  1  0  0  0  0
 11 31  1  0  0  0  0
 12 13  2  0  0  0  0
 12 32  1  0  0  0  0
 13 14  1  0  0  0  0
 13 33  1  0  0  0  0
 14 15  1  0  0  0  0
 14 18  2  0  0  0  0
 15 16  1  0  0  0  0
 15 17  1  0  0  0  0
 16 34  1  0  0  0  0
 16 35  1  0  0  0  0
 16 36  1  0  0  0  0
 17 37  1  0  0  0  0
 17 38  1  0  0  0  0
 17 39  1  0  0  0  0
 19 20  1  0  0  0  0
 19 40  1  0  0  0  0
 19 41  1  0  0  0  0
 20 42  1  0  0  0  0
 20 43  1  0  0  0  0
M  CHG  1   2   1
M  END
> <s_m_source_file>
AV-unprocessed.smi

> <i_m_source_file_index>
2547

> <i_lp_mmshare_version>
43012

> <i_f3d_flags>
0

> <s_epik_input>
W0NIM11OMVtDSDJdW0NIMl1bQ0hdKFtDSDJdW0NIMl0xKVtOSF1DKD1PKVtOSF1jMltjSF1bY0hdW2NIXWMobjIpTihbQ0gzXSlbQ0gzXQ==

> <s_epik_cmdline>
J2VwaWtfcHl0aG9uJywgJy1waCcsICc3LjAnLCAnLXRuJywgJzgnLCAnLW1hJywgJzIwMCcsICctbWV0YWxfYmluZGluZycsICctaW1hZScsICc8aW5maWxlLm1hZT4nLCAnLW9tYWUnLCAnPG91dGZpbGUubWFlPic=

> <r_lp_tautomer_probability>
1

> <r_epik_Ionization_Penalty>
0.0212039

> <r_epik_Ionization_Penalty_Charging>
0.00366825

> <r_epik_Ionization_Penalty_Neutral>
0.0175357

> <r_epik_State_Penalty>
0.0137702

> <r_epik_Charging_Adjusted_Penalty>
0.0174385

> <i_epik_Tot_Q>
1

> <i_epik_Tot_abs_Q>
1

> <r_epik_Metal_State_Penalty>
0.0148742

> <b_epik_Metal_Only>
0

> <s_lp_Force_Field>
OPLS_2005

> <r_lp_Energy>
17.9869

> <b_lp_Chiralities_Consistent>
1

> <s_lp_Variant>
AV-unprocessed.smi:2547-1

> <Gold.Version>
5.8.1

> <Gold.Id.Protein>
6NUR|6NUR_protein|mol2

> <Gold.PLP.Fitness>
51.9513

> <Gold.PLP.PLP>
-46.7257

> <Gold.PLP.part.hbond>
-2.6521

> <Gold.PLP.part.metal>
0.0000

> <Gold.PLP.part.buried>
-3.4198

> <Gold.PLP.part.nonpolar>
-41.5894

> <Gold.PLP.part.repulsive>
0.2361

> <Gold.PLP.ligand.clash>
0.0000

> <Gold.PLP.ligand.torsion>
0.6798

> <Gold.PLP.Chemscore.Hbond>
2.1920

> <Gold.PLP.Chemscore.CHOScore>
0.0000

> <Gold.PLP.Chemscore.Metal>
0.0000

> <Gold.Chemscore.Hbonds>
donor molecule, donor type, donor heavy atom, donor atom, acceptor molecule, acceptor atom, score
      L1  H     2    44       P1  7957  0.93
      L1  H     6    29       P1  8028  0.66
      L1  H     9    30       P1  8028  0.59

> <Gold.PLP.Chemscore.Internal.Correction>
0.0092

> <Gold.Rescore>
     Score         DG    S(hbond)    S(metal)    S(lipo)     H(rot)  DE(clash)    DE(int)     intcor
     20.87     -22.45       2.64        0.00      91.56       1.00       0.13       1.45       ----

> <Gold.Chemscore.Fitness>
20.8729

> <Gold.Chemscore.DG>
-22.4503

> <Gold.Chemscore.ZeroCoef>
-5.4800

> <Gold.Chemscore.Hbond>
2.6401

> <Gold.Chemscore.Metal>
0.0000

> <Gold.Chemscore.Lipo>
91.5581

> <Gold.Chemscore.Internal_Hbond>
0.0000

> <Gold.Chemscore.DEClash>
0.1257

> <Gold.Chemscore.DEInternal>
1.4518

> <Gold.Chemscore.Rot>
1.0000

> <Gold.Chemscore.Internal.Correction>
   9.000000E+99

> <Gold.Chemscore.Hbonds>
donor molecule, donor type, donor heavy atom, donor atom, acceptor molecule, acceptor atom, score
      L1  H     2    44       P1  7957  0.91
      L1  H     6    29       P1  8028  0.65
      L1  H     9    30       P1  8028  0.60

> <Gold.Chemscore.Hbond.Weighted>
-8.8180

> <Gold.Chemscore.Metal.Weighted>
-0.0000

> <Gold.Chemscore.Lipo.Weighted>
-10.7123

> <Gold.Chemscore.Internal_Hbond.Weighted>
0.0000

> <Gold.Chemscore.DEClash.Weighted>
0.1257

> <Gold.Chemscore.DEInternal.Weighted>
1.4518

> <Gold.Chemscore.Rot.Weighted>
2.5600

> <Gold.Chemscore.Internal.Correction.Weighted>
   9.000000E+99

> <Gold.Protein.RotatedTorsions>
[ 6907 6896 6895 6894 ] final  116.24 input  -60.11 | X-H torsion
[ 7974 7965 7964 7962 ] final  131.92 input  175.53 | X-H torsion
[ 8008 7997 7996 7995 ] final  -48.81 input   59.86 | X-H torsion
[ 10167 10162 10161 10158 ] final   58.15 input  -65.29 | X-H torsion
[ 10718 10713 10712 10709 ] final   -6.56 input   66.30 | X-H torsion
[ 10763 10752 10751 10750 ] final   78.87 input  -60.55 | X-H torsion
[ 11005 11000 10999 10996 ] final -150.26 input  -57.11 | X-H torsion

> <Gold.Protein.ActiveResidues>
 VAL166  LYS551  ARG553  GLY616  TRP617  ASP618  TYR619  PRO620  LYS621  CYS622 
 ASP623  PHE694  ASN695  SER759  ASP760  ASP761  ALA762  ILE779  LEU786  VAL792 
 PHE793  MET794  SER795  GLU796  ALA797  LYS798  CYS799  TRP800  GLU811  SER814 

> <Gold.Protein.RotatedAtoms>
  152.4691  133.7989  159.6941 H   0  0  0  0  0  0  0  0  0  0  0  0  # atno 6907 bound_to 6896
  150.8670  133.7550  159.2980 H   0  0  0  0  0  0  0  0  0  0  0  0  # atno 6908 bound_to 6896
  151.5097  135.1068  159.9903 H   0  0  0  0  0  0  0  0  0  0  0  0  # atno 6909 bound_to 6896
  145.0022  139.4301  143.5286 H   0  0  0  0  0  0  0  0  0  0  0  0  # atno 7974 bound_to 7965
  154.4034  140.1312  156.4399 H   0  0  0  0  0  0  0  0  0  0  0  0  # atno 8008 bound_to 7997
  155.7468  140.3489  155.5111 H   0  0  0  0  0  0  0  0  0  0  0  0  # atno 8009 bound_to 7997
  155.8987  140.1015  157.1356 H   0  0  0  0  0  0  0  0  0  0  0  0  # atno 8010 bound_to 7997
  140.1903  144.4092  150.6574 H   0  0  0  0  0  0  0  0  0  0  0  0  # atno 10167 bound_to 10162
  156.7300  130.5177  149.5848 H   0  0  0  0  0  0  0  0  0  0  0  0  # atno 10718 bound_to 10713
  153.0908  135.4861  154.8686 H   0  0  0  0  0  0  0  0  0  0  0  0  # atno 10763 bound_to 10752
  154.7267  135.3051  154.8962 H   0  0  0  0  0  0  0  0  0  0  0  0  # atno 10764 bound_to 10752
  153.9610  135.6812  153.4798 H   0  0  0  0  0  0  0  0  0  0  0  0  # atno 10765 bound_to 10752
  140.7421  134.3502  157.5145 H   0  0  0  0  0  0  0  0  0  0  0  0  # atno 11005 bound_to 11000
  146.3454  139.9417  142.8740 LP  0  0  0  0  0  0  0  0  0  0  0  0  # atno 17320 bound_to 7965
  145.2137  140.9906  143.4085 LP  0  0  0  0  0  0  0  0  0  0  0  0  # atno 17321 bound_to 7965
  140.6460  143.2213  151.6184 LP  0  0  0  0  0  0  0  0  0  0  0  0  # atno 17342 bound_to 10162
  139.5259  144.3062  152.1032 LP  0  0  0  0  0  0  0  0  0  0  0  0  # atno 17343 bound_to 10162
  156.1535  130.6326  151.0627 LP  0  0  0  0  0  0  0  0  0  0  0  0  # atno 17370 bound_to 10713
  157.6862  131.0824  150.7234 LP  0  0  0  0  0  0  0  0  0  0  0  0  # atno 17371 bound_to 10713
  139.8804  134.9087  156.2975 LP  0  0  0  0  0  0  0  0  0  0  0  0  # atno 17394 bound_to 11000
  140.9827  133.7257  156.0696 LP  0  0  0  0  0  0  0  0  0  0  0  0  # atno 17395 bound_to 11000

$$$$
