AV-unprocessed.smi:2392|AV-procd|sdf|9487|dock1
  -GOLD-   2272013113D 1   1.00000     0.00000
 Structure written by MMmdl.
 42 43  0  0  0  0  0  0  0  0  2 V2000
  153.7025  141.2582  159.8091 C   0  0  0  0  0  0  0  0  0  0  0  0
  152.8350  142.3996  159.3221 C   0  0  0  0  0  0  0  0  0  0  0  0
  152.8919  143.6661  159.9363 C   0  0  0  0  0  0  0  0  0  0  0  0
  152.0561  144.6819  159.4391 C   0  0  0  0  0  0  0  0  0  0  0  0
  151.2023  144.3911  158.3574 C   0  0  0  0  0  0  0  0  0  0  0  0
  151.2057  143.0933  157.7990 C   0  0  0  0  0  0  0  0  0  0  0  0
  150.3050  142.9002  156.7179 N   0  0  0  0  0  0  0  0  0  0  0  0
  150.0958  141.7816  156.0018 C   0  0  0  0  0  0  0  0  0  0  0  0
  150.6948  140.7157  156.1488 O   0  0  0  0  0  0  0  0  0  0  0  0
  149.1396  141.9652  155.0797 N   0  0  0  0  0  0  0  0  0  0  0  0
  148.6740  140.9424  154.1507 C   0  0  0  0  0  0  0  0  0  0  0  0
  147.2817  141.2841  153.5872 C   0  0  0  0  0  0  0  0  0  0  0  0
  146.4785  140.0694  153.3009 N   0  3  0  0  0  0  0  0  0  0  0  0
  147.0464  139.2676  152.1857 C   0  0  0  0  0  0  0  0  0  0  0  0
  146.1208  138.0963  151.8158 C   0  0  0  0  0  0  0  0  0  0  0  0
  145.8448  137.2080  153.0355 C   0  0  0  0  0  0  0  0  0  0  0  0
  145.2950  138.0579  154.1884 C   0  0  0  0  0  0  0  0  0  0  0  0
  146.2366  139.2320  154.5069 C   0  0  0  0  0  0  0  0  0  0  0  0
  152.0167  142.1206  158.2845 N   0  0  0  0  0  0  0  0  0  0  0  0
  154.4637  141.6106  160.5060 H   0  0  0  0  0  0  0  0  0  0  0  0
  154.2076  140.7761  158.9714 H   0  0  0  0  0  0  0  0  0  0  0  0
  153.0921  140.5119  160.3182 H   0  0  0  0  0  0  0  0  0  0  0  0
  153.5563  143.8563  160.7663 H   0  0  0  0  0  0  0  0  0  0  0  0
  152.0676  145.6674  159.8806 H   0  0  0  0  0  0  0  0  0  0  0  0
  150.5524  145.1600  157.9649 H   0  0  0  0  0  0  0  0  0  0  0  0
  149.7470  143.7039  156.4708 H   0  0  0  0  0  0  0  0  0  0  0  0
  148.6974  142.8713  155.0241 H   0  0  0  0  0  0  0  0  0  0  0  0
  149.4097  140.8194  153.3553 H   0  0  0  0  0  0  0  0  0  0  0  0
  148.6353  139.9928  154.6852 H   0  0  0  0  0  0  0  0  0  0  0  0
  146.7630  141.8959  154.3268 H   0  0  0  0  0  0  0  0  0  0  0  0
  147.3569  141.8934  152.6853 H   0  0  0  0  0  0  0  0  0  0  0  0
  147.1861  139.9005  151.3085 H   0  0  0  0  0  0  0  0  0  0  0  0
  148.0326  138.8957  152.4690 H   0  0  0  0  0  0  0  0  0  0  0  0
  145.1795  138.4830  151.4231 H   0  0  0  0  0  0  0  0  0  0  0  0
  146.5686  137.5040  151.0173 H   0  0  0  0  0  0  0  0  0  0  0  0
  145.1378  136.4192  152.7767 H   0  0  0  0  0  0  0  0  0  0  0  0
  146.7656  136.7137  153.3477 H   0  0  0  0  0  0  0  0  0  0  0  0
  144.3083  138.4407  153.9242 H   0  0  0  0  0  0  0  0  0  0  0  0
  145.1591  137.4379  155.0751 H   0  0  0  0  0  0  0  0  0  0  0  0
  147.1880  138.8554  154.8862 H   0  0  0  0  0  0  0  0  0  0  0  0
  145.7966  139.8303  155.3039 H   0  0  0  0  0  0  0  0  0  0  0  0
  145.5772  140.3935  152.9806 H   0  0  0  0  0  0  0  0  0  0  0  0
  1  2  1  0  0  0  0
  1 20  1  0  0  0  0
  1 21  1  0  0  0  0
  1 22  1  0  0  0  0
  2 19  1  0  0  0  0
  2  3  2  0  0  0  0
  3  4  1  0  0  0  0
  3 23  1  0  0  0  0
  4  5  2  0  0  0  0
  4 24  1  0  0  0  0
  5  6  1  0  0  0  0
  5 25  1  0  0  0  0
  6  7  1  0  0  0  0
  6 19  2  0  0  0  0
  7  8  1  0  0  0  0
  7 26  1  0  0  0  0
  8  9  2  0  0  0  0
  8 10  1  0  0  0  0
 10 11  1  0  0  0  0
 10 27  1  0  0  0  0
 11 12  1  0  0  0  0
 11 28  1  0  0  0  0
 11 29  1  0  0  0  0
 12 13  1  0  0  0  0
 12 30  1  0  0  0  0
 12 31  1  0  0  0  0
 13 18  1  0  0  0  0
 13 14  1  0  0  0  0
 13 42  1  0  0  0  0
 14 15  1  0  0  0  0
 14 32  1  0  0  0  0
 14 33  1  0  0  0  0
 15 16  1  0  0  0  0
 15 34  1  0  0  0  0
 15 35  1  0  0  0  0
 16 17  1  0  0  0  0
 16 36  1  0  0  0  0
 16 37  1  0  0  0  0
 17 18  1  0  0  0  0
 17 38  1  0  0  0  0
 17 39  1  0  0  0  0
 18 40  1  0  0  0  0
 18 41  1  0  0  0  0
M  CHG  1  13   1
M  END
> <s_m_source_file>
AV-unprocessed.smi

> <i_m_source_file_index>
2392

> <i_lp_mmshare_version>
43012

> <i_f3d_flags>
0

> <s_epik_input>
W0NIM11jMVtjSF1bY0hdW2NIXWMobjEpW05IXUMoPU8pW05IXVtDSDJdW0NIMl1OMltDSDJdW0NIMl1bQ0gyXVtDSDJdW0NIMl0y

> <s_epik_cmdline>
J2VwaWtfcHl0aG9uJywgJy1waCcsICc3LjAnLCAnLXRuJywgJzgnLCAnLW1hJywgJzIwMCcsICctbWV0YWxfYmluZGluZycsICctaW1hZScsICc8aW5maWxlLm1hZT4nLCAnLW9tYWUnLCAnPG91dGZpbGUubWFlPic=

> <r_epik_Ionization_Penalty>
0.00217954

> <r_epik_Ionization_Penalty_Charging>
0.00211816

> <r_epik_Ionization_Penalty_Neutral>
6.13832e-05

> <r_epik_State_Penalty>
0.00145254

> <r_epik_Charging_Adjusted_Penalty>
0.0035707

> <i_epik_Tot_Q>
1

> <i_epik_Tot_abs_Q>
1

> <r_epik_Metal_State_Penalty>
-0

> <b_epik_Metal_Only>
0

> <s_lp_Force_Field>
OPLS_2005

> <r_lp_Energy>
16.6108

> <b_lp_Chiralities_Consistent>
1

> <s_lp_Variant>
AV-unprocessed.smi:2392-1

> <Gold.Version>
5.8.1

> <Gold.Id.Protein>
6NUR|6NUR_protein|mol2

> <Gold.PLP.Fitness>
52.0047

> <Gold.PLP.PLP>
-41.1014

> <Gold.PLP.part.hbond>
-3.0000

> <Gold.PLP.part.metal>
0.0000

> <Gold.PLP.part.buried>
-1.2740

> <Gold.PLP.part.nonpolar>
-37.7003

> <Gold.PLP.part.repulsive>
0.2824

> <Gold.PLP.ligand.clash>
0.0000

> <Gold.PLP.ligand.torsion>
0.3603

> <Gold.PLP.Chemscore.Hbond>
3.8640

> <Gold.PLP.Chemscore.CHOScore>
0.0000

> <Gold.PLP.Chemscore.Metal>
0.0000

> <Gold.Chemscore.Hbonds>
donor molecule, donor type, donor heavy atom, donor atom, acceptor molecule, acceptor atom, score
      L1  H     7    26       P1  8028  1.00
      L1  H    10    27       P1  8028  0.86
      L1  H    13    42       P1 10175  2.00

> <Gold.PLP.Chemscore.Internal.Correction>
0.0319

> <Gold.Rescore>
     Score         DG    S(hbond)    S(metal)    S(lipo)     H(rot)  DE(clash)    DE(int)     intcor
     20.68     -22.50       2.81        0.00      97.36       1.47       0.14       1.68       ----

> <Gold.Chemscore.Fitness>
20.6834

> <Gold.Chemscore.DG>
-22.4983

> <Gold.Chemscore.ZeroCoef>
-5.4800

> <Gold.Chemscore.Hbond>
2.8112

> <Gold.Chemscore.Metal>
0.0000

> <Gold.Chemscore.Lipo>
97.3635

> <Gold.Chemscore.Internal_Hbond>
0.0000

> <Gold.Chemscore.DEClash>
0.1367

> <Gold.Chemscore.DEInternal>
1.6782

> <Gold.Chemscore.Rot>
1.4698

> <Gold.Chemscore.Internal.Correction>
   9.000000E+99

> <Gold.Chemscore.Hbonds>
donor molecule, donor type, donor heavy atom, donor atom, acceptor molecule, acceptor atom, score
      L1  H     7    26       P1  8028  0.95
      L1  H    10    27       P1  8028  0.84
      L1  H    13    42       P1 10175  0.89

> <Gold.Chemscore.Hbond.Weighted>
-9.3893

> <Gold.Chemscore.Metal.Weighted>
-0.0000

> <Gold.Chemscore.Lipo.Weighted>
-11.3915

> <Gold.Chemscore.Internal_Hbond.Weighted>
0.0000

> <Gold.Chemscore.DEClash.Weighted>
0.1367

> <Gold.Chemscore.DEInternal.Weighted>
1.6782

> <Gold.Chemscore.Rot.Weighted>
3.7626

> <Gold.Chemscore.Internal.Correction.Weighted>
   9.000000E+99

> <Gold.Protein.RotatedTorsions>
[ 6907 6896 6895 6894 ] final  171.73 input  -60.11 | X-H torsion
[ 7974 7965 7964 7962 ] final  -94.90 input  175.53 | X-H torsion
[ 8008 7997 7996 7995 ] final    0.75 input   59.86 | X-H torsion
[ 10167 10162 10161 10158 ] final -152.05 input  -65.29 | X-H torsion
[ 10718 10713 10712 10709 ] final  -41.36 input   66.30 | X-H torsion
[ 10763 10752 10751 10750 ] final  -77.91 input  -60.55 | X-H torsion
[ 11005 11000 10999 10996 ] final  -48.10 input  -57.11 | X-H torsion

> <Gold.Protein.ActiveResidues>
 VAL166  LYS551  ARG553  GLY616  TRP617  ASP618  TYR619  PRO620  LYS621  CYS622 
 ASP623  PHE694  ASN695  SER759  ASP760  ASP761  ALA762  ILE779  LEU786  VAL792 
 PHE793  MET794  SER795  GLU796  ALA797  LYS798  CYS799  TRP800  GLU811  SER814 

> <Gold.Protein.RotatedAtoms>
  151.7955  133.3364  159.3511 H   0  0  0  0  0  0  0  0  0  0  0  0  # atno 6907 bound_to 6896
  150.7377  134.5802  159.5944 H   0  0  0  0  0  0  0  0  0  0  0  0  # atno 6908 bound_to 6896
  152.3180  134.7417  160.0372 H   0  0  0  0  0  0  0  0  0  0  0  0  # atno 6909 bound_to 6896
  145.3672  140.9500  143.2467 H   0  0  0  0  0  0  0  0  0  0  0  0  # atno 7974 bound_to 7965
  154.6716  140.2613  155.7001 H   0  0  0  0  0  0  0  0  0  0  0  0  # atno 8008 bound_to 7997
  156.2661  140.2828  156.1150 H   0  0  0  0  0  0  0  0  0  0  0  0  # atno 8009 bound_to 7997
  155.1160  140.0376  157.2727 H   0  0  0  0  0  0  0  0  0  0  0  0  # atno 8010 bound_to 7997
  139.7214  143.8951  152.2504 H   0  0  0  0  0  0  0  0  0  0  0  0  # atno 10167 bound_to 10162
  156.2712  130.4207  149.8436 H   0  0  0  0  0  0  0  0  0  0  0  0  # atno 10718 bound_to 10713
  154.5190  135.5748  153.6666 H   0  0  0  0  0  0  0  0  0  0  0  0  # atno 10763 bound_to 10752
  152.9913  135.6177  154.2779 H   0  0  0  0  0  0  0  0  0  0  0  0  # atno 10764 bound_to 10752
  154.2698  135.2853  155.2722 H   0  0  0  0  0  0  0  0  0  0  0  0  # atno 10765 bound_to 10752
  141.0680  133.6687  156.3392 H   0  0  0  0  0  0  0  0  0  0  0  0  # atno 11005 bound_to 11000
  144.8603  139.5188  143.6815 LP  0  0  0  0  0  0  0  0  0  0  0  0  # atno 17320 bound_to 7965
  146.2901  139.7116  142.9167 LP  0  0  0  0  0  0  0  0  0  0  0  0  # atno 17321 bound_to 7965
  139.8848  144.6998  150.8837 LP  0  0  0  0  0  0  0  0  0  0  0  0  # atno 17342 bound_to 10162
  140.7754  143.3633  151.1787 LP  0  0  0  0  0  0  0  0  0  0  0  0  # atno 17343 bound_to 10162
  156.5916  130.8509  151.3409 LP  0  0  0  0  0  0  0  0  0  0  0  0  # atno 17370 bound_to 10713
  157.7284  130.9657  150.1742 LP  0  0  0  0  0  0  0  0  0  0  0  0  # atno 17371 bound_to 10713
  140.5732  134.5819  157.5462 LP  0  0  0  0  0  0  0  0  0  0  0  0  # atno 17394 bound_to 11000
  139.9495  134.7642  156.0481 LP  0  0  0  0  0  0  0  0  0  0  0  0  # atno 17395 bound_to 11000

$$$$
