AV-unprocessed.smi:2252|AV-procd|sdf|9104|dock6
  -GOLD-   2272012303D 1   1.00000     0.00000
 Structure written by MMmdl.
 46 48  0  0  0  0  0  0  0  0  3 V2000
  152.8774  142.2285  160.0700 C   0  0  0  0  0  0  0  0  0  0  0  0
  152.1946  143.3118  159.3591 N   0  0  0  0  0  0  0  0  0  0  0  0
  152.1908  144.6379  159.7085 C   0  0  0  0  0  0  0  0  0  0  0  0
  151.4272  145.2882  158.7750 C   0  0  0  0  0  0  0  0  0  0  0  0
  150.9980  144.3333  157.8940 N   0  3  0  0  0  0  0  0  0  0  0  0
  151.4648  143.1292  158.2453 C   0  0  0  0  0  0  0  0  0  0  0  0
  151.1859  141.8477  157.5158 C   0  0  0  0  0  0  0  0  0  0  0  0
  150.5531  142.0524  156.1297 C   0  0  0  0  0  0  0  0  0  0  0  0
  149.2346  141.4313  156.0421 N   0  0  0  0  0  0  0  0  0  0  0  0
  148.5620  141.2089  154.9022 C   0  0  0  0  0  0  0  0  0  0  0  0
  148.9968  141.5137  153.7913 O   0  0  0  0  0  0  0  0  0  0  0  0
  147.1737  140.5623  155.0347 C   0  0  1  0  0  0  0  0  0  0  0  0
  146.1083  141.6048  154.6292 C   0  0  0  0  0  0  0  0  0  0  0  0
  146.4655  142.7746  153.7368 C   0  0  0  0  0  0  0  0  0  0  0  0
  146.1273  143.0127  155.1850 C   0  0  0  0  0  0  0  0  0  0  0  0
  147.0572  139.3232  154.2131 N   0  3  0  0  0  0  0  0  0  0  0  0
  145.7516  138.6311  154.2851 C   0  0  0  0  0  0  0  0  0  0  0  0
  145.7418  137.6957  153.0818 C   0  0  0  0  0  0  0  0  0  0  0  0
  146.4751  138.4916  152.0051 C   0  0  0  0  0  0  0  0  0  0  0  0
  147.3626  139.4847  152.7703 C   0  0  0  0  0  0  0  0  0  0  0  0
  153.2836  142.6072  161.0086 H   0  0  0  0  0  0  0  0  0  0  0  0
  153.6905  141.8490  159.4504 H   0  0  0  0  0  0  0  0  0  0  0  0
  152.1684  141.4283  160.2841 H   0  0  0  0  0  0  0  0  0  0  0  0
  152.7175  145.0128  160.5744 H   0  0  0  0  0  0  0  0  0  0  0  0
  151.1643  146.3313  158.6741 H   0  0  0  0  0  0  0  0  0  0  0  0
  152.1388  141.3256  157.4243 H   0  0  0  0  0  0  0  0  0  0  0  0
  150.5470  141.2283  158.1452 H   0  0  0  0  0  0  0  0  0  0  0  0
  150.4850  143.1227  155.9270 H   0  0  0  0  0  0  0  0  0  0  0  0
  151.1966  141.6274  155.3589 H   0  0  0  0  0  0  0  0  0  0  0  0
  148.8049  141.1480  156.9110 H   0  0  0  0  0  0  0  0  0  0  0  0
  147.0203  140.2862  156.0800 H   0  0  0  0  0  0  0  0  0  0  0  0
  145.1230  141.1752  154.4537 H   0  0  0  0  0  0  0  0  0  0  0  0
  147.5060  142.8971  153.4470 H   0  0  0  0  0  0  0  0  0  0  0  0
  145.7345  143.0795  152.9906 H   0  0  0  0  0  0  0  0  0  0  0  0
  145.1687  143.4764  155.4084 H   0  0  0  0  0  0  0  0  0  0  0  0
  146.9447  143.2907  155.8477 H   0  0  0  0  0  0  0  0  0  0  0  0
  145.6203  138.0897  155.2226 H   0  0  0  0  0  0  0  0  0  0  0  0
  144.9425  139.3582  154.1956 H   0  0  0  0  0  0  0  0  0  0  0  0
  146.3016  136.7890  153.3159 H   0  0  0  0  0  0  0  0  0  0  0  0
  144.7357  137.4009  152.7817 H   0  0  0  0  0  0  0  0  0  0  0  0
  147.0513  137.8449  151.3425 H   0  0  0  0  0  0  0  0  0  0  0  0
  145.7571  139.0363  151.3909 H   0  0  0  0  0  0  0  0  0  0  0  0
  147.1375  140.4975  152.4338 H   0  0  0  0  0  0  0  0  0  0  0  0
  148.4228  139.3017  152.5920 H   0  0  0  0  0  0  0  0  0  0  0  0
  147.7375  138.6671  154.5703 H   0  0  0  0  0  0  0  0  0  0  0  0
  150.4110  144.5107  157.0882 H   0  0  0  0  0  0  0  0  0  0  0  0
  1  2  1  0  0  0  0
  1 21  1  0  0  0  0
  1 22  1  0  0  0  0
  1 23  1  0  0  0  0
  2  6  1  0  0  0  0
  2  3  1  0  0  0  0
  3  4  2  0  0  0  0
  3 24  1  0  0  0  0
  4  5  1  0  0  0  0
  4 25  1  0  0  0  0
  5  6  2  0  0  0  0
  5 46  1  0  0  0  0
  6  7  1  0  0  0  0
  7  8  1  0  0  0  0
  7 26  1  0  0  0  0
  7 27  1  0  0  0  0
  8  9  1  0  0  0  0
  8 28  1  0  0  0  0
  8 29  1  0  0  0  0
  9 10  1  0  0  0  0
  9 30  1  0  0  0  0
 10 11  2  0  0  0  0
 10 12  1  0  0  0  0
 12 13  1  0  0  0  0
 12 16  1  0  0  0  0
 12 31  1  0  0  0  0
 13 15  1  0  0  0  0
 13 14  1  0  0  0  0
 13 32  1  0  0  0  0
 14 15  1  0  0  0  0
 14 33  1  0  0  0  0
 14 34  1  0  0  0  0
 15 35  1  0  0  0  0
 15 36  1  0  0  0  0
 16 20  1  0  0  0  0
 16 17  1  0  0  0  0
 16 45  1  0  0  0  0
 17 18  1  0  0  0  0
 17 37  1  0  0  0  0
 17 38  1  0  0  0  0
 18 19  1  0  0  0  0
 18 39  1  0  0  0  0
 18 40  1  0  0  0  0
 19 20  1  0  0  0  0
 19 41  1  0  0  0  0
 19 42  1  0  0  0  0
 20 43  1  0  0  0  0
 20 44  1  0  0  0  0
M  CHG  1   5   1
M  CHG  1  16   1
M  END
> <s_m_source_file>
AV-unprocessed.smi

> <i_m_source_file_index>
2252

> <i_lp_mmshare_version>
43012

> <i_f3d_flags>
0

> <s_epik_input>
W0NIM11uMVtjSF1bY0hdbmMxW0NIMl1bQ0gyXVtOSF1DKD1PKVtDQEhdKFtDSF0yW0NIMl1bQ0gyXTIpTjNbQ0gyXVtDSDJdW0NIMl1bQ0gyXTM=

> <s_epik_cmdline>
J2VwaWtfcHl0aG9uJywgJy1waCcsICc3LjAnLCAnLXRuJywgJzgnLCAnLW1hJywgJzIwMCcsICctbWV0YWxfYmluZGluZycsICctaW1hZScsICc8aW5maWxlLm1hZT4nLCAnLW9tYWUnLCAnPG91dGZpbGUubWFlPic=

> <r_lp_tautomer_probability>
1

> <r_epik_Ionization_Penalty>
0.116886

> <r_epik_Ionization_Penalty_Charging>
0.00955009

> <r_epik_Ionization_Penalty_Neutral>
0.107336

> <r_epik_State_Penalty>
0.0956868

> <r_epik_Charging_Adjusted_Penalty>
0.105237

> <i_epik_Tot_Q>
2

> <i_epik_Tot_abs_Q>
2

> <r_epik_Metal_State_Penalty>
0.438836

> <b_epik_Metal_Only>
0

> <s_lp_Force_Field>
OPLS_2005

> <r_lp_Energy>
43.7014

> <b_lp_Chiralities_Consistent>
1

> <s_lp_Variant>
AV-unprocessed.smi:2252-2

> <Gold.Version>
5.8.1

> <Gold.Id.Protein>
6NUR|6NUR_protein|mol2

> <Gold.PLP.Fitness>
49.6281

> <Gold.PLP.PLP>
-42.8975

> <Gold.PLP.part.hbond>
-2.3866

> <Gold.PLP.part.metal>
0.0000

> <Gold.PLP.part.buried>
-3.3766

> <Gold.PLP.part.nonpolar>
-38.1899

> <Gold.PLP.part.repulsive>
0.5281

> <Gold.PLP.ligand.clash>
0.0000

> <Gold.PLP.ligand.torsion>
1.2848

> <Gold.PLP.Chemscore.Hbond>
2.7200

> <Gold.PLP.Chemscore.CHOScore>
0.0000

> <Gold.PLP.Chemscore.Metal>
0.0000

> <Gold.Chemscore.Hbonds>
donor molecule, donor type, donor heavy atom, donor atom, acceptor molecule, acceptor atom, score
      L1  H     5    46       P1  8028  1.82
      P1  H  8011  8017       L1    11  0.74

> <Gold.PLP.Chemscore.Internal.Correction>
1.1402

> <Gold.Rescore>
     Score         DG    S(hbond)    S(metal)    S(lipo)     H(rot)  DE(clash)    DE(int)     intcor
     12.83     -16.77       1.62        0.00      95.04       2.05       0.20       3.74       ----

> <Gold.Chemscore.Fitness>
12.8329

> <Gold.Chemscore.DG>
-16.7660

> <Gold.Chemscore.ZeroCoef>
-5.4800

> <Gold.Chemscore.Hbond>
1.6179

> <Gold.Chemscore.Metal>
0.0000

> <Gold.Chemscore.Lipo>
95.0357

> <Gold.Chemscore.Internal_Hbond>
0.0000

> <Gold.Chemscore.DEClash>
0.1980

> <Gold.Chemscore.DEInternal>
3.7351

> <Gold.Chemscore.Rot>
2.0456

> <Gold.Chemscore.Internal.Correction>
   9.000000E+99

> <Gold.Chemscore.Hbonds>
donor molecule, donor type, donor heavy atom, donor atom, acceptor molecule, acceptor atom, score
      L1  H     5    46       P1  8028  0.65
      P1  H  8011  8017       L1    11  0.74

> <Gold.Chemscore.Hbond.Weighted>
-5.4036

> <Gold.Chemscore.Metal.Weighted>
-0.0000

> <Gold.Chemscore.Lipo.Weighted>
-11.1192

> <Gold.Chemscore.Internal_Hbond.Weighted>
0.0000

> <Gold.Chemscore.DEClash.Weighted>
0.1980

> <Gold.Chemscore.DEInternal.Weighted>
3.7351

> <Gold.Chemscore.Rot.Weighted>
5.2368

> <Gold.Chemscore.Internal.Correction.Weighted>
   9.000000E+99

> <Gold.Protein.RotatedTorsions>
[ 6907 6896 6895 6894 ] final  -52.85 input  -60.11 | X-H torsion
[ 7974 7965 7964 7962 ] final -122.85 input  175.53 | X-H torsion
[ 8008 7997 7996 7995 ] final  -90.10 input   59.86 | X-H torsion
[ 10167 10162 10161 10158 ] final   55.62 input  -65.29 | X-H torsion
[ 10718 10713 10712 10709 ] final  -63.62 input   66.30 | X-H torsion
[ 10763 10752 10751 10750 ] final  -67.82 input  -60.55 | X-H torsion
[ 11005 11000 10999 10996 ] final -101.29 input  -57.11 | X-H torsion

> <Gold.Protein.ActiveResidues>
 VAL166  LYS551  ARG553  GLY616  TRP617  ASP618  TYR619  PRO620  LYS621  CYS622 
 ASP623  PHE694  ASN695  SER759  ASP760  ASP761  ALA762  ILE779  LEU786  VAL792 
 PHE793  MET794  SER795  GLU796  ALA797  LYS798  CYS799  TRP800  GLU811  SER814 

> <Gold.Protein.RotatedAtoms>
  150.8480  134.7796  159.6985 H   0  0  0  0  0  0  0  0  0  0  0  0  # atno 6907 bound_to 6896
  152.4552  134.5304  159.9819 H   0  0  0  0  0  0  0  0  0  0  0  0  # atno 6908 bound_to 6896
  151.5430  133.3391  159.2974 H   0  0  0  0  0  0  0  0  0  0  0  0  # atno 6909 bound_to 6896
  145.0250  140.8020  143.4358 H   0  0  0  0  0  0  0  0  0  0  0  0  # atno 7974 bound_to 7965
  154.6945  140.0534  157.0397 H   0  0  0  0  0  0  0  0  0  0  0  0  # atno 8008 bound_to 7997
  155.0770  140.3205  155.4594 H   0  0  0  0  0  0  0  0  0  0  0  0  # atno 8009 bound_to 7997
  156.2739  140.2071  156.5898 H   0  0  0  0  0  0  0  0  0  0  0  0  # atno 8010 bound_to 7997
  140.2175  144.3823  150.6463 H   0  0  0  0  0  0  0  0  0  0  0  0  # atno 10167 bound_to 10162
  156.0780  130.4223  150.1303 H   0  0  0  0  0  0  0  0  0  0  0  0  # atno 10718 bound_to 10713
  154.3801  135.6076  153.5786 H   0  0  0  0  0  0  0  0  0  0  0  0  # atno 10763 bound_to 10752
  152.9788  135.5859  154.4420 H   0  0  0  0  0  0  0  0  0  0  0  0  # atno 10764 bound_to 10752
  154.4188  135.2845  155.1967 H   0  0  0  0  0  0  0  0  0  0  0  0  # atno 10765 bound_to 10752
  141.1237  133.8466  157.1212 H   0  0  0  0  0  0  0  0  0  0  0  0  # atno 11005 bound_to 11000
  145.1845  139.2334  143.5275 LP  0  0  0  0  0  0  0  0  0  0  0  0  # atno 17320 bound_to 7965
  146.3491  140.1627  142.8590 LP  0  0  0  0  0  0  0  0  0  0  0  0  # atno 17321 bound_to 7965
  140.6279  143.2183  151.6558 LP  0  0  0  0  0  0  0  0  0  0  0  0  # atno 17342 bound_to 10162
  139.5156  144.3372  152.0773 LP  0  0  0  0  0  0  0  0  0  0  0  0  # atno 17343 bound_to 10162
  156.9340  130.9723  151.3528 LP  0  0  0  0  0  0  0  0  0  0  0  0  # atno 17370 bound_to 10713
  157.5884  130.8426  149.8623 LP  0  0  0  0  0  0  0  0  0  0  0  0  # atno 17371 bound_to 10713
  140.0216  134.9943  157.0602 LP  0  0  0  0  0  0  0  0  0  0  0  0  # atno 17394 bound_to 11000
  140.4431  134.1660  155.7175 LP  0  0  0  0  0  0  0  0  0  0  0  0  # atno 17395 bound_to 11000

$$$$
