AV-unprocessed.smi:260|AV-procd|sdf|1981|dock4
  -GOLD-   2262021153D 1   1.00000     0.00000
 Structure written by MMmdl.
 53 56  0  0  0  0  0  0  0  0  1 V2000
  145.8426  143.3308  153.8901 C   0  0  0  0  0  0  0  0  0  0  0  0
  145.8052  141.8840  154.0310 N   0  0  0  0  0  0  0  0  0  0  0  0
  146.5891  141.1780  154.8622 C   0  0  0  0  0  0  0  0  0  0  0  0
  147.4332  141.7168  155.5796 O   0  0  0  0  0  0  0  0  0  0  0  0
  146.4132  139.6369  154.9135 C   0  0  1  0  0  0  0  0  0  0  0  0
  144.9827  139.3070  155.3822 C   0  0  0  0  0  0  0  0  0  0  0  0
  146.7220  139.0299  153.5335 C   0  0  0  0  0  0  0  0  0  0  0  0
  148.2488  138.8963  153.5189 C   0  0  0  0  0  0  0  0  0  0  0  0
  148.6444  138.7403  154.9133 N   0  0  0  0  0  0  0  0  0  0  0  0
  149.9007  139.0819  155.3108 C   0  0  0  0  0  0  0  0  0  0  0  0
  150.9199  139.0056  154.4137 N   0  0  0  0  0  0  0  0  0  0  0  0
  152.1682  139.3219  154.7679 C   0  0  0  0  0  0  0  0  0  0  0  0
  152.6178  139.7402  155.9510 N   0  0  0  0  0  0  0  0  0  0  0  0
  151.6030  139.8362  156.8558 C   0  0  0  0  0  0  0  0  0  0  0  0
  150.2297  139.5330  156.6248 C   0  0  0  0  0  0  0  0  0  0  0  0
  149.5026  139.7663  157.7884 N   0  0  0  0  0  0  0  0  0  0  0  0
  150.3911  140.1740  158.6524 C   0  0  0  0  0  0  0  0  0  0  0  0
  151.6785  140.2458  158.1746 N   0  0  0  0  0  0  0  0  0  0  0  0
  152.8592  140.6673  158.9071 C   0  0  0  0  0  0  0  0  0  0  0  0
  152.5429  141.7563  159.9503 C   0  0  1  0  0  0  0  0  0  0  0  0
  153.7225  142.1686  160.6147 O   0  0  0  0  0  0  0  0  0  0  0  0
  151.8118  142.9705  159.3439 C   0  0  1  0  0  0  0  0  0  0  0  0
  151.4144  144.0828  160.3180 C   0  0  0  0  0  0  0  0  0  0  0  0
  151.3022  145.2662  159.3831 C   0  0  0  0  0  0  0  0  0  0  0  0
  152.4587  145.0119  158.4193 C   0  0  0  0  0  0  0  0  0  0  0  0
  152.5775  143.5954  158.3160 O   0  0  0  0  0  0  0  0  0  0  0  0
  147.4735  138.9145  155.7740 C   0  0  0  0  0  0  0  0  0  0  0  0
  145.0907  143.6518  153.1693 H   0  0  0  0  0  0  0  0  0  0  0  0
  146.8195  143.6614  153.5354 H   0  0  0  0  0  0  0  0  0  0  0  0
  145.6326  143.8191  154.8426 H   0  0  0  0  0  0  0  0  0  0  0  0
  145.1286  141.3838  153.4723 H   0  0  0  0  0  0  0  0  0  0  0  0
  144.8177  138.2301  155.4269 H   0  0  0  0  0  0  0  0  0  0  0  0
  144.2321  139.7201  154.7070 H   0  0  0  0  0  0  0  0  0  0  0  0
  144.7906  139.7070  156.3786 H   0  0  0  0  0  0  0  0  0  0  0  0
  146.2713  138.0397  153.4521 H   0  0  0  0  0  0  0  0  0  0  0  0
  146.3524  139.6203  152.6938 H   0  0  0  0  0  0  0  0  0  0  0  0
  148.5685  138.0461  152.9159 H   0  0  0  0  0  0  0  0  0  0  0  0
  148.6980  139.8004  153.1055 H   0  0  0  0  0  0  0  0  0  0  0  0
  152.9131  139.2254  153.9917 H   0  0  0  0  0  0  0  0  0  0  0  0
  150.1290  140.4398  159.6662 H   0  0  0  0  0  0  0  0  0  0  0  0
  153.3031  139.7929  159.3849 H   0  0  0  0  0  0  0  0  0  0  0  0
  153.5916  141.0357  158.1880 H   0  0  0  0  0  0  0  0  0  0  0  0
  151.8930  141.3249  160.7126 H   0  0  0  0  0  0  0  0  0  0  0  0
  154.3448  141.4581  160.5829 H   0  0  0  0  0  0  0  0  0  0  0  0
  150.9010  142.6140  158.8599 H   0  0  0  0  0  0  0  0  0  0  0  0
  150.4880  143.8689  160.8517 H   0  0  0  0  0  0  0  0  0  0  0  0
  152.1957  144.2731  161.0544 H   0  0  0  0  0  0  0  0  0  0  0  0
  150.3519  145.2334  158.8483 H   0  0  0  0  0  0  0  0  0  0  0  0
  151.3755  146.2266  159.8940 H   0  0  0  0  0  0  0  0  0  0  0  0
  152.2986  145.4721  157.4441 H   0  0  0  0  0  0  0  0  0  0  0  0
  153.3883  145.4064  158.8318 H   0  0  0  0  0  0  0  0  0  0  0  0
  147.6640  139.4386  156.7101 H   0  0  0  0  0  0  0  0  0  0  0  0
  147.1216  137.9202  156.0508 H   0  0  0  0  0  0  0  0  0  0  0  0
  1  2  1  0  0  0  0
  1 28  1  0  0  0  0
  1 29  1  0  0  0  0
  1 30  1  0  0  0  0
  2  3  1  0  0  0  0
  2 31  1  0  0  0  0
  3  4  2  0  0  0  0
  3  5  1  0  0  0  0
  5 27  1  0  0  0  0
  5  6  1  0  0  0  0
  5  7  1  0  0  0  0
  6 32  1  0  0  0  0
  6 33  1  0  0  0  0
  6 34  1  0  0  0  0
  7  8  1  0  0  0  0
  7 35  1  0  0  0  0
  7 36  1  0  0  0  0
  8  9  1  0  0  0  0
  8 37  1  0  0  0  0
  8 38  1  0  0  0  0
  9 10  1  0  0  0  0
  9 27  1  0  0  0  0
 10 15  1  0  0  0  0
 10 11  2  0  0  0  0
 11 12  1  0  0  0  0
 12 13  2  0  0  0  0
 12 39  1  0  0  0  0
 13 14  1  0  0  0  0
 14 18  1  0  0  0  0
 14 15  2  0  0  0  0
 15 16  1  0  0  0  0
 16 17  2  0  0  0  0
 17 18  1  0  0  0  0
 17 40  1  0  0  0  0
 18 19  1  0  0  0  0
 19 20  1  0  0  0  0
 19 41  1  0  0  0  0
 19 42  1  0  0  0  0
 20 21  1  0  0  0  0
 20 22  1  0  0  0  0
 20 43  1  0  0  0  0
 21 44  1  0  0  0  0
 22 26  1  0  0  0  0
 22 23  1  0  0  0  0
 22 45  1  0  0  0  0
 23 24  1  0  0  0  0
 23 46  1  0  0  0  0
 23 47  1  0  0  0  0
 24 25  1  0  0  0  0
 24 48  1  0  0  0  0
 24 49  1  0  0  0  0
 25 26  1  0  0  0  0
 25 50  1  0  0  0  0
 25 51  1  0  0  0  0
 27 52  1  0  0  0  0
 27 53  1  0  0  0  0
M  END
> <s_m_source_file>
AV-unprocessed.smi

> <i_m_source_file_index>
260

> <i_lp_mmshare_version>
43012

> <i_f3d_flags>
0

> <s_epik_input>
W0NIM11bTkhdQyg9TylbQ0BAXTEoW0NIM10pW0NIMl1bQ0gyXU4oW0NIMl0xKWMobltjSF1uMiljKGMyMyluW2NIXW4zW0NIMl1bQ0BIXShbT0hdKVtDQEBIXTRbQ0gyXVtDSDJdW0NIMl1PNA==

> <s_epik_cmdline>
J2VwaWtfcHl0aG9uJywgJy1waCcsICc3LjAnLCAnLXRuJywgJzgnLCAnLW1hJywgJzIwMCcsICctbWV0YWxfYmluZGluZycsICctaW1hZScsICc8aW5maWxlLm1hZT4nLCAnLW9tYWUnLCAnPG91dGZpbGUubWFlPic=

> <r_lp_tautomer_probability>
1

> <r_epik_Ionization_Penalty>
0.00115068

> <r_epik_Ionization_Penalty_Charging>
0

> <r_epik_Ionization_Penalty_Neutral>
0.00115068

> <r_epik_State_Penalty>
0.000668876

> <r_epik_Charging_Adjusted_Penalty>
0.000668876

> <i_epik_Tot_Q>
0

> <i_epik_Tot_abs_Q>
0

> <r_epik_Metal_State_Penalty>
-0

> <b_epik_Metal_Only>
0

> <s_lp_Force_Field>
OPLS_2005

> <r_lp_Energy>
50.9621

> <b_lp_Chiralities_Consistent>
1

> <s_lp_Variant>
AV-unprocessed.smi:260-7

> <Gold.Version>
5.8.1

> <Gold.Id.Protein>
6NUR|6NUR_protein|mol2

> <Gold.PLP.Fitness>
43.6116

> <Gold.PLP.PLP>
-38.4013

> <Gold.PLP.part.hbond>
-2.5478

> <Gold.PLP.part.metal>
0.0000

> <Gold.PLP.part.buried>
-3.5217

> <Gold.PLP.part.nonpolar>
-33.7410

> <Gold.PLP.part.repulsive>
0.2924

> <Gold.PLP.ligand.clash>
0.0000

> <Gold.PLP.ligand.torsion>
0.6128

> <Gold.PLP.Chemscore.Hbond>
2.0000

> <Gold.PLP.Chemscore.CHOScore>
0.0000

> <Gold.PLP.Chemscore.Metal>
0.0000

> <Gold.Chemscore.Hbonds>
donor molecule, donor type, donor heavy atom, donor atom, acceptor molecule, acceptor atom, score
      L1  H     2    31       P1 10175  0.90
      P1  H  7997  8010       L1    13  1.00

> <Gold.PLP.Chemscore.Internal.Correction>
0.4359

> <Gold.Rescore>
     Score         DG    S(hbond)    S(metal)    S(lipo)     H(rot)  DE(clash)    DE(int)     intcor
     13.17     -14.97       1.87        0.00      83.08       2.53       0.06       1.74       ----

> <Gold.Chemscore.Fitness>
13.1728

> <Gold.Chemscore.DG>
-14.9726

> <Gold.Chemscore.ZeroCoef>
-5.4800

> <Gold.Chemscore.Hbond>
1.8678

> <Gold.Chemscore.Metal>
0.0000

> <Gold.Chemscore.Lipo>
83.0814

> <Gold.Chemscore.Internal_Hbond>
0.0000

> <Gold.Chemscore.DEClash>
0.0622

> <Gold.Chemscore.DEInternal>
1.7376

> <Gold.Chemscore.Rot>
2.5259

> <Gold.Chemscore.Internal.Correction>
   9.000000E+99

> <Gold.Chemscore.Hbonds>
donor molecule, donor type, donor heavy atom, donor atom, acceptor molecule, acceptor atom, score
      L1  H     2    31       P1 10175  0.18
      P1  H  7997  8010       L1    13  0.98

> <Gold.Chemscore.Hbond.Weighted>
-6.2384

> <Gold.Chemscore.Metal.Weighted>
-0.0000

> <Gold.Chemscore.Lipo.Weighted>
-9.7205

> <Gold.Chemscore.Internal_Hbond.Weighted>
0.0000

> <Gold.Chemscore.DEClash.Weighted>
0.0622

> <Gold.Chemscore.DEInternal.Weighted>
1.7376

> <Gold.Chemscore.Rot.Weighted>
6.4663

> <Gold.Chemscore.Internal.Correction.Weighted>
   9.000000E+99

> <Gold.Protein.RotatedTorsions>
[ 6907 6896 6895 6894 ] final   47.29 input  -60.11 | X-H torsion
[ 7974 7965 7964 7962 ] final -121.38 input  175.53 | X-H torsion
[ 8008 7997 7996 7995 ] final   87.65 input   59.86 | X-H torsion
[ 10167 10162 10161 10158 ] final   12.90 input  -65.29 | X-H torsion
[ 10718 10713 10712 10709 ] final  -15.67 input   66.30 | X-H torsion
[ 10763 10752 10751 10750 ] final   76.56 input  -60.55 | X-H torsion
[ 11005 11000 10999 10996 ] final -172.89 input  -57.11 | X-H torsion

> <Gold.Protein.ActiveResidues>
 VAL166  LYS551  ARG553  GLY616  TRP617  ASP618  TYR619  PRO620  LYS621  CYS622 
 ASP623  PHE694  ASN695  SER759  ASP760  ASP761  ALA762  ILE779  LEU786  VAL792 
 PHE793  MET794  SER795  GLU796  ALA797  LYS798  CYS799  TRP800  GLU811  SER814 

> <Gold.Protein.RotatedAtoms>
  152.2664  134.7980  160.0421 H   0  0  0  0  0  0  0  0  0  0  0  0  # atno 6907 bound_to 6896
  151.8608  133.3451  159.3711 H   0  0  0  0  0  0  0  0  0  0  0  0  # atno 6908 bound_to 6896
  150.7135  134.5135  159.5663 H   0  0  0  0  0  0  0  0  0  0  0  0  # atno 6909 bound_to 6896
  145.0410  140.8144  143.4266 H   0  0  0  0  0  0  0  0  0  0  0  0  # atno 7974 bound_to 7965
  155.9780  140.3380  155.6637 H   0  0  0  0  0  0  0  0  0  0  0  0  # atno 8008 bound_to 7997
  155.6586  140.0713  157.2580 H   0  0  0  0  0  0  0  0  0  0  0  0  # atno 8009 bound_to 7997
  154.4184  140.1712  156.1739 H   0  0  0  0  0  0  0  0  0  0  0  0  # atno 8010 bound_to 7997
  140.6038  143.8550  150.6992 H   0  0  0  0  0  0  0  0  0  0  0  0  # atno 10167 bound_to 10162
  156.5985  130.4817  149.6250 H   0  0  0  0  0  0  0  0  0  0  0  0  # atno 10718 bound_to 10713
  153.0734  135.4947  154.8353 H   0  0  0  0  0  0  0  0  0  0  0  0  # atno 10763 bound_to 10752
  154.7054  135.3009  154.9280 H   0  0  0  0  0  0  0  0  0  0  0  0  # atno 10764 bound_to 10752
  153.9991  135.6768  153.4811 H   0  0  0  0  0  0  0  0  0  0  0  0  # atno 10765 bound_to 10752
  140.4919  134.5976  157.4957 H   0  0  0  0  0  0  0  0  0  0  0  0  # atno 11005 bound_to 11000
  145.1648  139.2437  143.5372 LP  0  0  0  0  0  0  0  0  0  0  0  0  # atno 17320 bound_to 7965
  146.3509  140.1384  142.8595 LP  0  0  0  0  0  0  0  0  0  0  0  0  # atno 17321 bound_to 7965
  140.2102  143.3889  152.1724 LP  0  0  0  0  0  0  0  0  0  0  0  0  # atno 17342 bound_to 10162
  139.5310  144.7159  151.5057 LP  0  0  0  0  0  0  0  0  0  0  0  0  # atno 17343 bound_to 10162
  156.2489  130.6895  151.1626 LP  0  0  0  0  0  0  0  0  0  0  0  0  # atno 17370 bound_to 10713
  157.7286  131.0631  150.5814 LP  0  0  0  0  0  0  0  0  0  0  0  0  # atno 17371 bound_to 10713
  139.9764  134.7208  155.9942 LP  0  0  0  0  0  0  0  0  0  0  0  0  # atno 17394 bound_to 11000
  141.1479  133.6553  156.3925 LP  0  0  0  0  0  0  0  0  0  0  0  0  # atno 17395 bound_to 11000

$$$$
