AV-unprocessed.smi:1870|AV-procd|sdf|7595|dock6
  -GOLD-   22720 9313D 1   1.00000     0.00000
 Structure written by MMmdl.
 48 50  0  0  0  0  0  0  0  0  2 V2000
  147.5099  136.5813  163.0508 C   0  0  0  0  0  0  0  0  0  0  0  0
  147.9951  135.8684  161.8172 C   0  0  0  0  0  0  0  0  0  0  0  0
  148.4829  136.6064  160.8746 N   0  0  0  0  0  0  0  0  0  0  0  0
  148.9592  136.0537  159.7015 N   0  0  0  0  0  0  0  0  0  0  0  0
  149.4643  137.0402  158.7390 C   0  0  0  0  0  0  0  0  0  0  0  0
  150.9292  136.7595  158.3393 C   0  0  2  0  0  0  0  0  0  0  0  0
  151.7200  136.7190  159.5117 O   0  0  0  0  0  0  0  0  0  0  0  0
  151.4944  137.8791  157.4406 C   0  0  0  0  0  0  0  0  0  0  0  0
  151.4021  139.2256  158.0637 N   0  3  2  0  0  0  0  0  0  0  0  0
  151.1474  140.2937  157.0684 C   0  0  0  0  0  0  0  0  0  0  0  0
  150.7320  141.5894  157.7767 C   0  0  0  0  0  0  0  0  0  0  0  0
  151.6833  141.9637  158.8981 C   0  0  0  0  0  0  0  0  0  0  0  0
  151.6891  143.2805  159.4027 C   0  0  0  0  0  0  0  0  0  0  0  0
  152.5412  143.6257  160.4688 C   0  0  0  0  0  0  0  0  0  0  0  0
  153.3875  142.6544  161.0361 C   0  0  0  0  0  0  0  0  0  0  0  0
  153.3842  141.3382  160.5354 C   0  0  0  0  0  0  0  0  0  0  0  0
  152.5349  140.9855  159.4657 C   0  0  0  0  0  0  0  0  0  0  0  0
  152.5685  139.5608  158.9249 C   0  0  0  0  0  0  0  0  0  0  0  0
  148.9649  134.7200  159.4175 C   0  0  0  0  0  0  0  0  0  0  0  0
  149.3945  134.2703  158.3543 O   0  0  0  0  0  0  0  0  0  0  0  0
  148.4126  133.8895  160.4903 C   0  0  0  0  0  0  0  0  0  0  0  0
  148.4069  132.4845  160.2378 C   0  0  0  0  0  0  0  0  0  0  0  0
  148.4057  131.3416  160.0532 N   0  0  0  0  0  0  0  0  0  0  0  0
  147.9395  134.4203  161.6456 C   0  0  0  0  0  0  0  0  0  0  0  0
  147.3557  133.6008  162.7885 C   0  0  0  0  0  0  0  0  0  0  0  0
  147.9930  136.1848  163.9438 H   0  0  0  0  0  0  0  0  0  0  0  0
  146.4325  136.4618  163.1669 H   0  0  0  0  0  0  0  0  0  0  0  0
  147.7210  137.6510  163.0125 H   0  0  0  0  0  0  0  0  0  0  0  0
  148.8338  136.9819  157.8496 H   0  0  0  0  0  0  0  0  0  0  0  0
  149.3423  138.0652  159.0946 H   0  0  0  0  0  0  0  0  0  0  0  0
  150.9898  135.7979  157.8305 H   0  0  0  0  0  0  0  0  0  0  0  0
  152.5183  137.2016  159.3580 H   0  0  0  0  0  0  0  0  0  0  0  0
  152.5365  137.6771  157.1883 H   0  0  0  0  0  0  0  0  0  0  0  0
  150.9476  137.8713  156.4962 H   0  0  0  0  0  0  0  0  0  0  0  0
  152.0469  140.4538  156.4715 H   0  0  0  0  0  0  0  0  0  0  0  0
  150.3559  139.9994  156.3783 H   0  0  0  0  0  0  0  0  0  0  0  0
  150.6747  142.4055  157.0552 H   0  0  0  0  0  0  0  0  0  0  0  0
  149.7349  141.4752  158.2036 H   0  0  0  0  0  0  0  0  0  0  0  0
  151.0353  144.0283  158.9777 H   0  0  0  0  0  0  0  0  0  0  0  0
  152.5428  144.6347  160.8542 H   0  0  0  0  0  0  0  0  0  0  0  0
  154.0401  142.9192  161.8551 H   0  0  0  0  0  0  0  0  0  0  0  0
  154.0406  140.6003  160.9732 H   0  0  0  0  0  0  0  0  0  0  0  0
  152.6163  138.8761  159.7709 H   0  0  0  0  0  0  0  0  0  0  0  0
  153.4922  139.4371  158.3577 H   0  0  0  0  0  0  0  0  0  0  0  0
  147.2416  132.5499  162.5246 H   0  0  0  0  0  0  0  0  0  0  0  0
  146.3695  133.9723  163.0684 H   0  0  0  0  0  0  0  0  0  0  0  0
  148.0044  133.6539  163.6633 H   0  0  0  0  0  0  0  0  0  0  0  0
  150.5886  139.2049  158.6626 H   0  0  0  0  0  0  0  0  0  0  0  0
  1  2  1  0  0  0  0
  1 26  1  0  0  0  0
  1 27  1  0  0  0  0
  1 28  1  0  0  0  0
  2 24  1  0  0  0  0
  2  3  2  0  0  0  0
  3  4  1  0  0  0  0
  4  5  1  0  0  0  0
  4 19  1  0  0  0  0
  5  6  1  0  0  0  0
  5 29  1  0  0  0  0
  5 30  1  0  0  0  0
  6  7  1  0  0  0  0
  6  8  1  0  0  0  0
  6 31  1  0  0  0  0
  7 32  1  0  0  0  0
  8  9  1  0  0  0  0
  8 33  1  0  0  0  0
  8 34  1  0  0  0  0
  9 18  1  0  0  0  0
  9 10  1  0  0  0  0
  9 48  1  0  0  0  0
 10 11  1  0  0  0  0
 10 35  1  0  0  0  0
 10 36  1  0  0  0  0
 11 12  1  0  0  0  0
 11 37  1  0  0  0  0
 11 38  1  0  0  0  0
 12 17  2  0  0  0  0
 12 13  1  0  0  0  0
 13 14  2  0  0  0  0
 13 39  1  0  0  0  0
 14 15  1  0  0  0  0
 14 40  1  0  0  0  0
 15 16  2  0  0  0  0
 15 41  1  0  0  0  0
 16 17  1  0  0  0  0
 16 42  1  0  0  0  0
 17 18  1  0  0  0  0
 18 43  1  0  0  0  0
 18 44  1  0  0  0  0
 19 20  2  0  0  0  0
 19 21  1  0  0  0  0
 21 22  1  0  0  0  0
 21 24  2  0  0  0  0
 22 23  3  0  0  0  0
 24 25  1  0  0  0  0
 25 45  1  0  0  0  0
 25 46  1  0  0  0  0
 25 47  1  0  0  0  0
M  CHG  1   9   1
M  END
> <s_m_source_file>
AV-unprocessed.smi

> <i_m_source_file_index>
1870

> <i_lp_mmshare_version>
43012

> <i_f3d_flags>
0

> <s_epik_input>
TiNDYyhjMVtDSDNdKWMoPU8pbihuYzFbQ0gzXSlbQ0gyXVtDQEhdKFtPSF0pW0NIMl1OKFtDSDJdW0NIMl0yKVtDSDJdYyhjMjMpW2NIXVtjSF1bY0hdW2NIXTM=

> <s_epik_cmdline>
J2VwaWtfcHl0aG9uJywgJy1waCcsICc3LjAnLCAnLXRuJywgJzgnLCAnLW1hJywgJzIwMCcsICctbWV0YWxfYmluZGluZycsICctaW1hZScsICc8aW5maWxlLm1hZT4nLCAnLW9tYWUnLCAnPG91dGZpbGUubWFlPic=

> <r_epik_Ionization_Penalty>
0.0122865

> <r_epik_Ionization_Penalty_Charging>
0.0122864

> <r_epik_Ionization_Penalty_Neutral>
1.48087e-07

> <r_epik_State_Penalty>
0.00950248

> <r_epik_Charging_Adjusted_Penalty>
0.0217889

> <i_epik_Tot_Q>
1

> <i_epik_Tot_abs_Q>
1

> <r_epik_Metal_State_Penalty>
0.00950248

> <b_epik_Metal_Only>
0

> <s_lp_Force_Field>
OPLS_2005

> <r_lp_Energy>
38.404

> <b_lp_Chiralities_Consistent>
1

> <s_lp_Variant>
AV-unprocessed.smi:1870-3

> <Gold.Version>
5.8.1

> <Gold.Id.Protein>
6NUR|6NUR_protein|mol2

> <Gold.PLP.Fitness>
58.2550

> <Gold.PLP.PLP>
-48.2535

> <Gold.PLP.part.hbond>
-4.0000

> <Gold.PLP.part.metal>
0.0000

> <Gold.PLP.part.buried>
-5.2302

> <Gold.PLP.part.nonpolar>
-40.3596

> <Gold.PLP.part.repulsive>
0.0952

> <Gold.PLP.ligand.clash>
0.0000

> <Gold.PLP.ligand.torsion>
0.4181

> <Gold.PLP.Chemscore.Hbond>
3.6056

> <Gold.PLP.Chemscore.CHOScore>
0.0000

> <Gold.PLP.Chemscore.Metal>
0.0000

> <Gold.Chemscore.Hbonds>
donor molecule, donor type, donor heavy atom, donor atom, acceptor molecule, acceptor atom, score
      P1  H  6896  6907       L1     7  1.00
      P1  H  6931  6943       L1     3  1.00

> <Gold.PLP.Chemscore.Internal.Correction>
0.0208

> <Gold.Rescore>
     Score         DG    S(hbond)    S(metal)    S(lipo)     H(rot)  DE(clash)    DE(int)     intcor
     18.63     -21.64       2.00        0.00     128.39       2.16       0.00       3.00       ----

> <Gold.Chemscore.Fitness>
18.6293

> <Gold.Chemscore.DG>
-21.6367

> <Gold.Chemscore.ZeroCoef>
-5.4800

> <Gold.Chemscore.Hbond>
1.9977

> <Gold.Chemscore.Metal>
0.0000

> <Gold.Chemscore.Lipo>
128.3857

> <Gold.Chemscore.Internal_Hbond>
0.0000

> <Gold.Chemscore.DEClash>
0.0038

> <Gold.Chemscore.DEInternal>
3.0036

> <Gold.Chemscore.Rot>
2.1628

> <Gold.Chemscore.Internal.Correction>
   9.000000E+99

> <Gold.Chemscore.Hbonds>
donor molecule, donor type, donor heavy atom, donor atom, acceptor molecule, acceptor atom, score
      P1  H  6896  6907       L1     7  0.58
      P1  H  6931  6943       L1     3  0.32

> <Gold.Chemscore.Hbond.Weighted>
-6.6723

> <Gold.Chemscore.Metal.Weighted>
-0.0000

> <Gold.Chemscore.Lipo.Weighted>
-15.0211

> <Gold.Chemscore.Internal_Hbond.Weighted>
0.0000

> <Gold.Chemscore.DEClash.Weighted>
0.0038

> <Gold.Chemscore.DEInternal.Weighted>
3.0036

> <Gold.Chemscore.Rot.Weighted>
5.5367

> <Gold.Chemscore.Internal.Correction.Weighted>
   9.000000E+99

> <Gold.Protein.RotatedTorsions>
[ 6907 6896 6895 6894 ] final   12.31 input  -60.11 | X-H torsion
[ 7974 7965 7964 7962 ] final   -8.59 input  175.53 | X-H torsion
[ 8008 7997 7996 7995 ] final  -19.07 input   59.86 | X-H torsion
[ 10167 10162 10161 10158 ] final  -65.04 input  -65.29 | X-H torsion
[ 10718 10713 10712 10709 ] final -152.60 input   66.30 | X-H torsion
[ 10763 10752 10751 10750 ] final  156.23 input  -60.55 | X-H torsion
[ 11005 11000 10999 10996 ] final  -39.07 input  -57.11 | X-H torsion

> <Gold.Protein.ActiveResidues>
 VAL166  LYS551  ARG553  GLY616  TRP617  ASP618  TYR619  PRO620  LYS621  CYS622 
 ASP623  PHE694  ASN695  SER759  ASP760  ASP761  ALA762  ILE779  LEU786  VAL792 
 PHE793  MET794  SER795  GLU796  ALA797  LYS798  CYS799  TRP800  GLU811  SER814 

> <Gold.Protein.RotatedAtoms>
  151.7683  135.0793  160.0355 H   0  0  0  0  0  0  0  0  0  0  0  0  # atno 6907 bound_to 6896
  152.3306  133.5949  159.5815 H   0  0  0  0  0  0  0  0  0  0  0  0  # atno 6908 bound_to 6896
  150.7420  133.9790  159.3612 H   0  0  0  0  0  0  0  0  0  0  0  0  # atno 6909 bound_to 6896
  146.2276  140.2491  142.8346 H   0  0  0  0  0  0  0  0  0  0  0  0  # atno 7974 bound_to 7965
  154.4862  140.2098  155.9651 H   0  0  0  0  0  0  0  0  0  0  0  0  # atno 8008 bound_to 7997
  156.1239  140.3208  155.8217 H   0  0  0  0  0  0  0  0  0  0  0  0  # atno 8009 bound_to 7997
  155.4419  140.0511  157.3000 H   0  0  0  0  0  0  0  0  0  0  0  0  # atno 8010 bound_to 7997
  140.5758  143.2322  151.6445 H   0  0  0  0  0  0  0  0  0  0  0  0  # atno 10167 bound_to 10162
  156.4747  130.8275  151.2503 H   0  0  0  0  0  0  0  0  0  0  0  0  # atno 10718 bound_to 10713
  154.1810  135.2799  155.3052 H   0  0  0  0  0  0  0  0  0  0  0  0  # atno 10763 bound_to 10752
  154.6002  135.5532  153.7370 H   0  0  0  0  0  0  0  0  0  0  0  0  # atno 10764 bound_to 10752
  153.0138  135.6390  154.1949 H   0  0  0  0  0  0  0  0  0  0  0  0  # atno 10765 bound_to 10752
  141.0075  133.6924  156.2137 H   0  0  0  0  0  0  0  0  0  0  0  0  # atno 11005 bound_to 11000
  144.9426  140.8094  143.5621 LP  0  0  0  0  0  0  0  0  0  0  0  0  # atno 17320 bound_to 7965
  145.2444  139.2058  143.4976 LP  0  0  0  0  0  0  0  0  0  0  0  0  # atno 17321 bound_to 7965
  139.5142  144.3418  152.0733 LP  0  0  0  0  0  0  0  0  0  0  0  0  # atno 17342 bound_to 10162
  140.2562  144.4116  150.6203 LP  0  0  0  0  0  0  0  0  0  0  0  0  # atno 17343 bound_to 10162
  157.7488  131.0065  150.3153 LP  0  0  0  0  0  0  0  0  0  0  0  0  # atno 17370 bound_to 10713
  156.3583  130.3842  149.7272 LP  0  0  0  0  0  0  0  0  0  0  0  0  # atno 17371 bound_to 10713
  140.6789  134.4788  157.5588 LP  0  0  0  0  0  0  0  0  0  0  0  0  # atno 17394 bound_to 11000
  139.9071  134.8425  156.1665 LP  0  0  0  0  0  0  0  0  0  0  0  0  # atno 17395 bound_to 11000

$$$$
