#       Name:                AV-unprocessed.smi:72
#       Creating user name   scv26
#       Creation time:       Thu Mar 26 16:59:37 2020


#       File generated by GOLD software.
#

@<TRIPOS>MOLECULE
AV-unprocessed.smi:72
    41    42     1
SMALL
NO_CHARGES


@<TRIPOS>ATOM
      1 ****        -4.0197   3.0231   1.7054 N.2            1 S1                 0.0000
      2 ****        -3.1011   2.4251   1.0350 C.2            1 S1                 0.0000
      3 ****        -2.8103   2.6448  -0.3193 N.2            1 S1                 0.0000
      4 ****        -1.8605   1.9537  -0.8703 C.2            1 S1                 0.0000
      5 ****        -1.0993   0.9511  -0.1418 N.am           1 S1                 0.0000
      6 ****         0.0133   0.2097  -0.8669 C.3            1 S1                 0.0000
      7 ****         1.2061   0.3138  -0.1443 O.3            1 S1                 0.0000
      8 ****         1.7178  -0.9808   0.1752 C.3            1 S1                 0.0000
      9 ****         3.2554  -0.9644   0.2484 C.3            1 S1                 0.0000
     10 ****         3.6795  -0.5005   1.5123 O.3            1 S1                 0.0000
     11 ****         1.1129  -1.9067  -0.8912 C.3            1 S1                 0.0000
     12 ****         1.8940  -1.9064  -2.0733 O.3            1 S1                 0.0000
     13 ****        -0.2479  -1.2837  -1.1681 C.3            1 S1                 0.0000
     14 ****        -1.2550  -1.8856  -0.3773 O.3            1 S1                 0.0000
     15 ****        -1.3576   0.7468   1.2405 C.2            1 S1                 0.0000
     16 ****        -0.7272  -0.0511   1.9304 O.2            1 S1                 0.0000
     17 ****        -2.3576   1.4890   1.7632 N.am           1 S1                 0.0000
     18 ****         0.1793   0.7654  -1.7909 H              1 S1                 0.0000
     19 ****         1.3158  -1.2918   1.1395 H              1 S1                 0.0000
     20 ****         1.0384  -2.9368  -0.5398 H              1 S1                 0.0000
     21 ****        -0.5464  -1.3935  -2.2117 H              1 S1                 0.0000
     22 ****        -4.0262   2.6898   2.6589 H              1 S1                 0.0000
     23 ****        -1.5773   2.0777  -1.9165 H              1 S1                 0.0000
     24 ****         3.6481  -1.9745   0.1280 H              1 S1                 0.0000
     25 ****         3.6856  -0.3493  -0.5427 H              1 S1                 0.0000
     26 ****         4.6243  -0.5040   1.5328 H              1 S1                 0.0000
     27 ****         2.7411  -2.2743  -1.8734 H              1 S1                 0.0000
     28 ****        -2.0711  -1.4381  -0.5387 H              1 S1                 0.0000
     29 ****        -2.5724   1.3611   2.7413 H              1 S1                 0.0000
     30 ****        -4.6380   3.7173   1.3369 LP             1 S1                 0.0000
     31 ****        -3.3240   3.3197  -0.8490 LP             1 S1                 0.0000
     32 ****         1.0339   0.8169   0.7026 LP             1 S1                 0.0000
     33 ****         1.8807   0.8069  -0.6937 LP             1 S1                 0.0000
     34 ****         3.3247  -1.1016   2.2284 LP             1 S1                 0.0000
     35 ****         3.3427   0.4293   1.6604 LP             1 S1                 0.0000
     36 ****         2.0031  -0.9694  -2.4052 LP             1 S1                 0.0000
     37 ****         1.4437  -2.4583  -2.7752 LP             1 S1                 0.0000
     38 ****        -1.0144  -1.8095   0.5903 LP             1 S1                 0.0000
     39 ****        -1.3452  -2.8506  -0.6234 LP             1 S1                 0.0000
     40 ****         0.0070  -0.5938   1.5224 LP             1 S1                 0.0000
     41 ****        -0.9484  -0.1577   2.8998 LP             1 S1                 0.0000
@<TRIPOS>BOND
    1    1    2 2     
    2    1   22 1     
    3    2   17 1     
    4    2    3 1     
    5    3    4 2     
    6    4    5 1     
    7    4   23 1     
    8    5    6 1     
    9    5   15 am    
   10    6   18 1     
   11    6   13 1     
   12    6    7 1     
   13    7    8 1     
   14    8   19 1     
   15    8    9 1     
   16    8   11 1     
   17    9   10 1     
   18    9   24 1     
   19    9   25 1     
   20   10   26 1     
   21   11   20 1     
   22   11   12 1     
   23   11   13 1     
   24   12   27 1     
   25   13   21 1     
   26   13   14 1     
   27   14   28 1     
   28   15   16 2     
   29   15   17 am    
   30   17   29 1     
   31    1   30 1     
   32    3   31 1     
   33    7   32 1     
   34    7   33 1     
   35   10   34 1     
   36   10   35 1     
   37   12   36 1     
   38   12   37 1     
   39   14   38 1     
   40   14   39 1     
   41   16   40 1     
   42   16   41 1     
@<TRIPOS>SUBSTRUCTURE
      1 S1             1
@<TRIPOS>SET
LONE_PAIRS      STATIC     ATOMS    <user>   **** ""
12 30 31 32 33 34 35 36 37 38 39 40 41
DONOR_HYDROGENS      STATIC     ATOMS    <user>   **** ""
5 22 26 27 28 29
ATOM$BLUE        STATIC     ATOMS    COLORGROUP SYSTEM
12 30 31 32 33 34 35 36 37 38 39 40 41
ATOM$RED        STATIC     ATOMS    COLORGROUP SYSTEM
5 22 26 27 28 29
