#       Name:                AV-unprocessed.smi:719
#       Creating user name   scv26
#       Creation time:       Fri Mar 27 00:49:01 2020


#       File generated by GOLD software.
#

@<TRIPOS>MOLECULE
AV-unprocessed.smi:719
    44    46     1
SMALL
NO_CHARGES


@<TRIPOS>ATOM
      1 ****        -5.6935  -2.5447  -0.5854 C.3            1 S1                 0.0000
      2 ****        -5.4631  -1.9823   0.8215 C.3            1 S1                 0.0000
      3 ****        -4.4562  -0.8698   0.8320 C.2            1 S1                 0.0000
      4 ****        -3.0927  -1.1796   0.8161 N.2            1 S1                 0.0000
      5 ****        -2.3169  -0.0940   0.8364 C.2            1 S1                 0.0000
      6 ****        -0.8266  -0.1452   0.7972 C.3            1 S1                 0.0000
      7 ****        -0.2789  -0.1307  -0.6392 C.3            1 S1                 0.0000
      8 ****         1.1765  -0.2214  -0.6661 N.am           1 S1                 0.0000
      9 ****         2.0186   0.7926  -0.4151 C.2            1 S1                 0.0000
     10 ****         1.6353   1.9252  -0.1189 O.2            1 S1                 0.0000
     11 ****         3.4618   0.4227  -0.5242 C.3            1 S1                 0.0000
     12 ****         4.4218   1.0599   0.4642 C.3            1 S1                 0.0000
     13 ****         5.7681   0.4538   0.7871 C.3            1 S1                 0.0000
     14 ****         6.4510   0.2058  -0.5692 C.3            1 S1                 0.0000
     15 ****         5.7869   1.1816  -1.5562 C.3            1 S1                 0.0000
     16 ****         4.4327   1.5035  -0.9670 C.3            1 S1                 0.0000
     17 ****        -3.2303   1.4077   0.8395 S.3            1 S1                 0.0000
     18 ****        -4.7099   0.4822   0.8403 C.2            1 S1                 0.0000
     19 ****        -6.0378   1.1642   0.8458 C.3            1 S1                 0.0000
     20 ****        -6.4332  -3.3452  -0.5673 H              1 S1                 0.0000
     21 ****        -4.7723  -2.9521  -1.0029 H              1 S1                 0.0000
     22 ****        -6.0561  -1.7712  -1.2630 H              1 S1                 0.0000
     23 ****        -6.4133  -1.6375   1.2301 H              1 S1                 0.0000
     24 ****        -5.1345  -2.7881   1.4789 H              1 S1                 0.0000
     25 ****        -0.4401   0.7038   1.3620 H              1 S1                 0.0000
     26 ****        -0.4936  -1.0437   1.3180 H              1 S1                 0.0000
     27 ****        -0.6791  -0.9784  -1.1961 H              1 S1                 0.0000
     28 ****        -0.6058   0.7684  -1.1645 H              1 S1                 0.0000
     29 ****         1.5732  -1.1206  -0.8984 H              1 S1                 0.0000
     30 ****         3.6770  -0.5985  -0.8359 H              1 S1                 0.0000
     31 ****         4.0115   1.7355   1.2131 H              1 S1                 0.0000
     32 ****         6.3425   1.1699   1.3757 H              1 S1                 0.0000
     33 ****         5.6566  -0.4590   1.3727 H              1 S1                 0.0000
     34 ****         7.5331   0.3305  -0.5212 H              1 S1                 0.0000
     35 ****         6.2551  -0.8185  -0.8889 H              1 S1                 0.0000
     36 ****         6.3662   2.1030  -1.6260 H              1 S1                 0.0000
     37 ****         5.6886   0.7624  -2.5579 H              1 S1                 0.0000
     38 ****         4.0320   2.4871  -1.2070 H              1 S1                 0.0000
     39 ****        -6.6656   0.7948   0.0346 H              1 S1                 0.0000
     40 ****        -5.9299   2.2420   0.7211 H              1 S1                 0.0000
     41 ****        -6.5595   0.9853   1.7860 H              1 S1                 0.0000
     42 ****        -2.7373  -2.1140   0.7921 LP             1 S1                 0.0000
     43 ****         0.6568   2.1215  -0.0567 LP             1 S1                 0.0000
     44 ****         2.3027   2.6482   0.0592 LP             1 S1                 0.0000
@<TRIPOS>BOND
    1    1    2 1     
    2    1   20 1     
    3    1   21 1     
    4    1   22 1     
    5    2    3 1     
    6    2   23 1     
    7    2   24 1     
    8    3   18 2     
    9    3    4 1     
   10    4    5 2     
   11    5    6 1     
   12    5   17 1     
   13    6    7 1     
   14    6   25 1     
   15    6   26 1     
   16    7    8 1     
   17    7   27 1     
   18    7   28 1     
   19    8    9 am    
   20    8   29 1     
   21    9   10 2     
   22    9   11 1     
   23   11   16 1     
   24   11   12 1     
   25   11   30 1     
   26   12   16 1     
   27   12   13 1     
   28   12   31 1     
   29   13   14 1     
   30   13   32 1     
   31   13   33 1     
   32   14   15 1     
   33   14   34 1     
   34   14   35 1     
   35   15   16 1     
   36   15   36 1     
   37   15   37 1     
   38   16   38 1     
   39   17   18 1     
   40   18   19 1     
   41   19   39 1     
   42   19   40 1     
   43   19   41 1     
   44    4   42 1     
   45   10   43 1     
   46   10   44 1     
@<TRIPOS>SUBSTRUCTURE
      1 S1             1
@<TRIPOS>SET
LONE_PAIRS      STATIC     ATOMS    <user>   **** ""
3 42 43 44
DONOR_HYDROGENS      STATIC     ATOMS    <user>   **** ""
1 29
ATOM$BLUE        STATIC     ATOMS    COLORGROUP SYSTEM
3 42 43 44
ATOM$RED        STATIC     ATOMS    COLORGROUP SYSTEM
1 29
