AV-unprocessed.smi:1219|AV-procd|sdf|5112|dock10
  -GOLD-   22720 4173D 1   1.00000     0.00000
 Structure written by MMmdl.
 43 44  0  0  0  0  0  0  0  0  2 V2000
  146.6332  139.4436  153.9357 O   0  0  0  0  0  0  0  0  0  0  0  0
  147.4538  138.7166  153.3754 C   0  0  0  0  0  0  0  0  0  0  0  0
  147.1250  137.8348  152.4205 N   0  0  0  0  0  0  0  0  0  0  0  0
  145.7698  137.5857  151.9399 C   0  0  0  0  0  0  0  0  0  0  0  0
  145.6772  136.2969  151.0957 C   0  0  2  0  0  0  0  0  0  0  0  0
  145.1147  136.6233  149.8398 O   0  0  0  0  0  0  0  0  0  0  0  0
  144.7417  135.2607  151.7524 C   0  0  0  0  0  0  0  0  0  0  0  0
  145.0967  133.8607  151.4028 N   0  3  0  0  0  0  0  0  0  0  0  0
  144.1006  133.2401  150.4910 C   0  0  0  0  0  0  0  0  0  0  0  0
  144.5612  131.8482  150.0269 C   0  0  0  0  0  0  0  0  0  0  0  0
  144.8435  130.9340  151.2258 C   0  0  0  0  0  0  0  0  0  0  0  0
  145.8470  131.6067  152.1713 C   0  0  0  0  0  0  0  0  0  0  0  0
  145.3596  133.0040  152.5906 C   0  0  0  0  0  0  0  0  0  0  0  0
  148.7745  138.6936  153.6268 N   0  0  0  0  0  0  0  0  0  0  0  0
  149.4998  139.4581  154.5793 C   0  0  0  0  0  0  0  0  0  0  0  0
  150.7568  138.9243  154.9430 C   0  0  0  0  0  0  0  0  0  0  0  0
  151.5521  139.6049  155.8852 C   0  0  0  0  0  0  0  0  0  0  0  0
  151.0701  140.8041  156.4391 C   0  0  0  0  0  0  0  0  0  0  0  0
  149.8092  141.2677  156.0210 C   0  0  0  0  0  0  0  0  0  0  0  0
  149.0450  140.6168  155.1186 N   0  0  0  0  0  0  0  0  0  0  0  0
  147.8621  137.2775  152.0138 H   0  0  0  0  0  0  0  0  0  0  0  0
  145.1561  137.4778  152.8345 H   0  0  0  0  0  0  0  0  0  0  0  0
  145.3701  138.4501  151.4059 H   0  0  0  0  0  0  0  0  0  0  0  0
  146.6732  135.8789  150.9519 H   0  0  0  0  0  0  0  0  0  0  0  0
  145.4872  136.0498  149.1854 H   0  0  0  0  0  0  0  0  0  0  0  0
  144.7475  135.3690  152.8380 H   0  0  0  0  0  0  0  0  0  0  0  0
  143.7193  135.4721  151.4340 H   0  0  0  0  0  0  0  0  0  0  0  0
  143.1366  133.1698  150.9976 H   0  0  0  0  0  0  0  0  0  0  0  0
  143.9541  133.8753  149.6166 H   0  0  0  0  0  0  0  0  0  0  0  0
  143.8021  131.3984  149.3864 H   0  0  0  0  0  0  0  0  0  0  0  0
  145.4616  131.9449  149.4186 H   0  0  0  0  0  0  0  0  0  0  0  0
  143.9149  130.7263  151.7592 H   0  0  0  0  0  0  0  0  0  0  0  0
  145.2306  129.9732  150.8852 H   0  0  0  0  0  0  0  0  0  0  0  0
  146.0003  130.9848  153.0537 H   0  0  0  0  0  0  0  0  0  0  0  0
  146.8169  131.6896  151.6789 H   0  0  0  0  0  0  0  0  0  0  0  0
  146.1127  133.4610  153.2313 H   0  0  0  0  0  0  0  0  0  0  0  0
  144.4497  132.9184  153.1867 H   0  0  0  0  0  0  0  0  0  0  0  0
  149.3238  138.0424  153.0860 H   0  0  0  0  0  0  0  0  0  0  0  0
  151.1119  138.0012  154.5084 H   0  0  0  0  0  0  0  0  0  0  0  0
  152.5147  139.2125  156.1780 H   0  0  0  0  0  0  0  0  0  0  0  0
  151.6508  141.3541  157.1648 H   0  0  0  0  0  0  0  0  0  0  0  0
  149.4021  142.1840  156.4223 H   0  0  0  0  0  0  0  0  0  0  0  0
  145.9597  133.9158  150.8796 H   0  0  0  0  0  0  0  0  0  0  0  0
  1  2  2  0  0  0  0
  2  3  1  0  0  0  0
  2 14  1  0  0  0  0
  3  4  1  0  0  0  0
  3 21  1  0  0  0  0
  4  5  1  0  0  0  0
  4 22  1  0  0  0  0
  4 23  1  0  0  0  0
  5  6  1  0  0  0  0
  5  7  1  0  0  0  0
  5 24  1  0  0  0  0
  6 25  1  0  0  0  0
  7  8  1  0  0  0  0
  7 26  1  0  0  0  0
  7 27  1  0  0  0  0
  8 13  1  0  0  0  0
  8  9  1  0  0  0  0
  8 43  1  0  0  0  0
  9 10  1  0  0  0  0
  9 28  1  0  0  0  0
  9 29  1  0  0  0  0
 10 11  1  0  0  0  0
 10 30  1  0  0  0  0
 10 31  1  0  0  0  0
 11 12  1  0  0  0  0
 11 32  1  0  0  0  0
 11 33  1  0  0  0  0
 12 13  1  0  0  0  0
 12 34  1  0  0  0  0
 12 35  1  0  0  0  0
 13 36  1  0  0  0  0
 13 37  1  0  0  0  0
 14 15  1  0  0  0  0
 14 38  1  0  0  0  0
 15 20  1  0  0  0  0
 15 16  2  0  0  0  0
 16 17  1  0  0  0  0
 16 39  1  0  0  0  0
 17 18  2  0  0  0  0
 17 40  1  0  0  0  0
 18 19  1  0  0  0  0
 18 41  1  0  0  0  0
 19 20  2  0  0  0  0
 19 42  1  0  0  0  0
M  CHG  1   8   1
M  END
> <s_m_source_file>
AV-unprocessed.smi

> <i_m_source_file_index>
1219

> <i_lp_mmshare_version>
43012

> <i_f3d_flags>
0

> <s_epik_input>
bjFbY0hdW2NIXVtjSF1bY0hdYzFbTkhdQyg9TylbTkhdW0NIMl1bQ0BIXShbT0hdKVtDSDJdTjJbQ0gyXVtDSDJdW0NIMl1bQ0gyXVtDSDJdMg==

> <s_epik_cmdline>
J2VwaWtfcHl0aG9uJywgJy1waCcsICc3LjAnLCAnLXRuJywgJzgnLCAnLW1hJywgJzIwMCcsICctbWV0YWxfYmluZGluZycsICctaW1hZScsICc8aW5maWxlLm1hZT4nLCAnLW9tYWUnLCAnPG91dGZpbGUubWFlPic=

> <r_epik_Ionization_Penalty>
0.00510026

> <r_epik_Ionization_Penalty_Charging>
0.00506051

> <r_epik_Ionization_Penalty_Neutral>
3.97538e-05

> <r_epik_State_Penalty>
0.00368188

> <r_epik_Charging_Adjusted_Penalty>
0.0087424

> <i_epik_Tot_Q>
1

> <i_epik_Tot_abs_Q>
1

> <r_epik_Metal_State_Penalty>
-0

> <b_epik_Metal_Only>
0

> <s_lp_Force_Field>
OPLS_2005

> <r_lp_Energy>
20.5821

> <b_lp_Chiralities_Consistent>
1

> <s_lp_Variant>
AV-unprocessed.smi:1219-1

> <Gold.Version>
5.8.1

> <Gold.Id.Protein>
6NUR|6NUR_protein|mol2

> <Gold.PLP.Fitness>
45.6993

> <Gold.PLP.PLP>
-39.4333

> <Gold.PLP.part.hbond>
-4.3062

> <Gold.PLP.part.metal>
0.0000

> <Gold.PLP.part.buried>
-2.8243

> <Gold.PLP.part.nonpolar>
-33.6319

> <Gold.PLP.part.repulsive>
0.4383

> <Gold.PLP.ligand.clash>
0.0000

> <Gold.PLP.ligand.torsion>
1.9803

> <Gold.PLP.Chemscore.Hbond>
2.3979

> <Gold.PLP.Chemscore.CHOScore>
1.0000

> <Gold.PLP.Chemscore.Metal>
0.0000

> <Gold.Chemscore.Hbonds>
donor molecule, donor type, donor heavy atom, donor atom, acceptor molecule, acceptor atom, score
      L1  H     3    21       P1  7948  0.91
      L1  H     6    25       P1  7921  0.91
      L1  H    14    38       P1  7948  0.47
      L1  C    19    42       P1  8028  0.58

> <Gold.PLP.Chemscore.Internal.Correction>
0.0330

> <Gold.Rescore>
     Score         DG    S(hbond)    S(metal)    S(lipo)     H(rot)  DE(clash)    DE(int)     intcor
     13.88     -17.10       2.16        0.00      90.20       2.41       0.29       2.93       ----

> <Gold.Chemscore.Fitness>
13.8774

> <Gold.Chemscore.DG>
-17.1019

> <Gold.Chemscore.ZeroCoef>
-5.4800

> <Gold.Chemscore.Hbond>
2.1648

> <Gold.Chemscore.Metal>
0.0000

> <Gold.Chemscore.Lipo>
90.1952

> <Gold.Chemscore.Internal_Hbond>
0.0000

> <Gold.Chemscore.DEClash>
0.2899

> <Gold.Chemscore.DEInternal>
2.9347

> <Gold.Chemscore.Rot>
2.4067

> <Gold.Chemscore.Internal.Correction>
   9.000000E+99

> <Gold.Chemscore.Hbonds>
donor molecule, donor type, donor heavy atom, donor atom, acceptor molecule, acceptor atom, score
      L1  H     3    21       P1  7948  0.88
      L1  H     6    25       P1  7921  0.87
      L1  H    14    38       P1  7948  0.45

> <Gold.Chemscore.Hbond.Weighted>
-7.2303

> <Gold.Chemscore.Metal.Weighted>
-0.0000

> <Gold.Chemscore.Lipo.Weighted>
-10.5528

> <Gold.Chemscore.Internal_Hbond.Weighted>
0.0000

> <Gold.Chemscore.DEClash.Weighted>
0.2899

> <Gold.Chemscore.DEInternal.Weighted>
2.9347

> <Gold.Chemscore.Rot.Weighted>
6.1612

> <Gold.Chemscore.Internal.Correction.Weighted>
   9.000000E+99

> <Gold.Protein.RotatedTorsions>
[ 6907 6896 6895 6894 ] final   16.36 input  -60.11 | X-H torsion
[ 7974 7965 7964 7962 ] final -115.90 input  175.53 | X-H torsion
[ 8008 7997 7996 7995 ] final  148.65 input   59.86 | X-H torsion
[ 10167 10162 10161 10158 ] final  -43.66 input  -65.29 | X-H torsion
[ 10718 10713 10712 10709 ] final -145.74 input   66.30 | X-H torsion
[ 10763 10752 10751 10750 ] final   54.08 input  -60.55 | X-H torsion
[ 11005 11000 10999 10996 ] final  -39.60 input  -57.11 | X-H torsion

> <Gold.Protein.ActiveResidues>
 VAL166  LYS551  ARG553  GLY616  TRP617  ASP618  TYR619  PRO620  LYS621  CYS622 
 ASP623  PHE694  ASN695  SER759  ASP760  ASP761  ALA762  ILE779  LEU786  VAL792 
 PHE793  MET794  SER795  GLU796  ALA797  LYS798  CYS799  TRP800  GLU811  SER814 

> <Gold.Protein.RotatedAtoms>
  151.8326  135.0616  160.0438 H   0  0  0  0  0  0  0  0  0  0  0  0  # atno 6907 bound_to 6896
  152.2869  133.5519  159.5541 H   0  0  0  0  0  0  0  0  0  0  0  0  # atno 6908 bound_to 6896
  150.7213  134.0400  159.3805 H   0  0  0  0  0  0  0  0  0  0  0  0  # atno 6909 bound_to 6896
  145.1030  140.8564  143.3915 H   0  0  0  0  0  0  0  0  0  0  0  0  # atno 7974 bound_to 7965
  156.2783  140.2123  156.5732 H   0  0  0  0  0  0  0  0  0  0  0  0  # atno 8008 bound_to 7997
  154.7119  140.0511  157.0581 H   0  0  0  0  0  0  0  0  0  0  0  0  # atno 8009 bound_to 7997
  155.0595  140.3165  155.4668 H   0  0  0  0  0  0  0  0  0  0  0  0  # atno 8010 bound_to 7997
  140.6926  143.2971  151.3384 H   0  0  0  0  0  0  0  0  0  0  0  0  # atno 10167 bound_to 10162
  156.3863  130.7862  151.2060 H   0  0  0  0  0  0  0  0  0  0  0  0  # atno 10718 bound_to 10713
  152.9801  135.5757  154.4847 H   0  0  0  0  0  0  0  0  0  0  0  0  # atno 10763 bound_to 10752
  154.4390  135.2775  155.1862 H   0  0  0  0  0  0  0  0  0  0  0  0  # atno 10764 bound_to 10752
  154.3538  135.6203  153.5710 H   0  0  0  0  0  0  0  0  0  0  0  0  # atno 10765 bound_to 10752
  141.0114  133.6906  156.2208 H   0  0  0  0  0  0  0  0  0  0  0  0  # atno 11005 bound_to 11000
  145.0934  139.2874  143.5723 LP  0  0  0  0  0  0  0  0  0  0  0  0  # atno 17320 bound_to 7965
  146.3529  140.0478  142.8638 LP  0  0  0  0  0  0  0  0  0  0  0  0  # atno 17321 bound_to 7965
  139.6344  144.0658  152.2503 LP  0  0  0  0  0  0  0  0  0  0  0  0  # atno 17342 bound_to 10162
  140.0143  144.6200  150.7620 LP  0  0  0  0  0  0  0  0  0  0  0  0  # atno 17343 bound_to 10162
  157.7496  131.0329  150.4248 LP  0  0  0  0  0  0  0  0  0  0  0  0  # atno 17370 bound_to 10713
  156.4501  130.4009  149.6641 LP  0  0  0  0  0  0  0  0  0  0  0  0  # atno 17371 bound_to 10713
  140.6728  134.4850  157.5587 LP  0  0  0  0  0  0  0  0  0  0  0  0  # atno 17394 bound_to 11000
  139.9092  134.8382  156.1592 LP  0  0  0  0  0  0  0  0  0  0  0  0  # atno 17395 bound_to 11000

$$$$
