AV-unprocessed.smi:3337|AV-procd|sdf|12866|dock2
  -GOLD-   2272019263D 1   1.00000     0.00000
 Structure written by MMmdl.
 46 47  0  0  0  0  0  0  0  0  2 V2000
  153.4910  141.3611  161.2825 C   0  0  0  0  0  0  0  0  0  0  0  0
  152.5965  142.2225  160.3800 C   0  0  1  0  0  0  0  0  0  0  0  0
  152.5253  143.6746  160.8849 C   0  0  0  0  0  0  0  0  0  0  0  0
  151.6691  144.5449  159.9484 C   0  0  1  0  0  0  0  0  0  0  0  0
  151.6156  146.0015  160.4301 C   0  0  0  0  0  0  0  0  0  0  0  0
  152.2029  144.4488  158.5033 C   0  0  0  0  0  0  0  0  0  0  0  0
  152.2543  143.0443  158.0185 N   0  3  2  0  0  0  0  0  0  0  0  0
  150.9165  142.4923  157.6736 C   0  0  0  0  0  0  0  0  0  0  0  0
  150.9681  141.4826  156.5114 C   0  0  0  0  0  0  0  0  0  0  0  0
  149.6902  141.4166  155.8127 N   0  0  0  0  0  0  0  0  0  0  0  0
  149.4573  140.7000  154.7010 C   0  0  0  0  0  0  0  0  0  0  0  0
  150.3268  140.0216  154.1528 O   0  0  0  0  0  0  0  0  0  0  0  0
  148.0348  140.7805  154.1196 C   0  0  1  0  0  0  0  0  0  0  0  0
  147.4387  139.3960  153.7923 C   0  0  0  0  0  0  0  0  0  0  0  0
  147.1619  141.5541  154.9950 N   0  0  0  0  0  0  0  0  0  0  0  0
  146.3533  142.5783  154.7135 C   0  0  0  0  0  0  0  0  0  0  0  0
  145.7261  143.0754  155.7699 N   0  0  0  0  0  0  0  0  0  0  0  0
  146.2330  142.2594  156.7412 C   0  0  0  0  0  0  0  0  0  0  0  0
  147.1065  141.3391  156.3331 N   0  0  0  0  0  0  0  0  0  0  0  0
  153.0802  142.1876  158.9134 C   0  0  0  0  0  0  0  0  0  0  0  0
  154.5186  141.7265  161.2891 H   0  0  0  0  0  0  0  0  0  0  0  0
  153.5086  140.3245  160.9444 H   0  0  0  0  0  0  0  0  0  0  0  0
  153.1304  141.3647  162.3115 H   0  0  0  0  0  0  0  0  0  0  0  0
  151.5940  141.7971  160.4281 H   0  0  0  0  0  0  0  0  0  0  0  0
  152.1123  143.6968  161.8942 H   0  0  0  0  0  0  0  0  0  0  0  0
  153.5319  144.0897  160.9534 H   0  0  0  0  0  0  0  0  0  0  0  0
  150.6475  144.1629  159.9682 H   0  0  0  0  0  0  0  0  0  0  0  0
  152.6076  146.4546  160.4387 H   0  0  0  0  0  0  0  0  0  0  0  0
  151.2115  146.0657  161.4408 H   0  0  0  0  0  0  0  0  0  0  0  0
  150.9788  146.6056  159.7830 H   0  0  0  0  0  0  0  0  0  0  0  0
  151.5987  145.0556  157.8276 H   0  0  0  0  0  0  0  0  0  0  0  0
  153.2111  144.8632  158.4574 H   0  0  0  0  0  0  0  0  0  0  0  0
  150.4475  142.0410  158.5475 H   0  0  0  0  0  0  0  0  0  0  0  0
  150.2693  143.3190  157.3773 H   0  0  0  0  0  0  0  0  0  0  0  0
  151.7661  141.7403  155.8126 H   0  0  0  0  0  0  0  0  0  0  0  0
  151.1844  140.4791  156.8753 H   0  0  0  0  0  0  0  0  0  0  0  0
  148.9259  141.9480  156.2043 H   0  0  0  0  0  0  0  0  0  0  0  0
  148.1105  141.3284  153.1791 H   0  0  0  0  0  0  0  0  0  0  0  0
  148.0653  138.8545  153.0828 H   0  0  0  0  0  0  0  0  0  0  0  0
  146.4502  139.4947  153.3430 H   0  0  0  0  0  0  0  0  0  0  0  0
  147.3352  138.7750  154.6833 H   0  0  0  0  0  0  0  0  0  0  0  0
  146.2236  142.9713  153.7158 H   0  0  0  0  0  0  0  0  0  0  0  0
  145.9547  142.3504  157.7809 H   0  0  0  0  0  0  0  0  0  0  0  0
  154.1079  142.5506  158.8659 H   0  0  0  0  0  0  0  0  0  0  0  0
  153.1144  141.1628  158.5464 H   0  0  0  0  0  0  0  0  0  0  0  0
  152.7490  143.0857  157.1387 H   0  0  0  0  0  0  0  0  0  0  0  0
  1  2  1  0  0  0  0
  1 21  1  0  0  0  0
  1 22  1  0  0  0  0
  1 23  1  0  0  0  0
  2 20  1  0  0  0  0
  2  3  1  0  0  0  0
  2 24  1  0  0  0  0
  3  4  1  0  0  0  0
  3 25  1  0  0  0  0
  3 26  1  0  0  0  0
  4  5  1  0  0  0  0
  4  6  1  0  0  0  0
  4 27  1  0  0  0  0
  5 28  1  0  0  0  0
  5 29  1  0  0  0  0
  5 30  1  0  0  0  0
  6  7  1  0  0  0  0
  6 31  1  0  0  0  0
  6 32  1  0  0  0  0
  7  8  1  0  0  0  0
  7 20  1  0  0  0  0
  7 46  1  0  0  0  0
  8  9  1  0  0  0  0
  8 33  1  0  0  0  0
  8 34  1  0  0  0  0
  9 10  1  0  0  0  0
  9 35  1  0  0  0  0
  9 36  1  0  0  0  0
 10 11  1  0  0  0  0
 10 37  1  0  0  0  0
 11 12  2  0  0  0  0
 11 13  1  0  0  0  0
 13 14  1  0  0  0  0
 13 15  1  0  0  0  0
 13 38  1  0  0  0  0
 14 39  1  0  0  0  0
 14 40  1  0  0  0  0
 14 41  1  0  0  0  0
 15 19  1  0  0  0  0
 15 16  1  0  0  0  0
 16 17  2  0  0  0  0
 16 42  1  0  0  0  0
 17 18  1  0  0  0  0
 18 19  2  0  0  0  0
 18 43  1  0  0  0  0
 20 44  1  0  0  0  0
 20 45  1  0  0  0  0
M  CHG  1   7   1
M  END
> <s_m_source_file>
AV-unprocessed.smi

> <i_m_source_file_index>
3337

> <i_lp_mmshare_version>
43012

> <i_f3d_flags>
0

> <s_epik_input>
W0NIM11bQ0BASF0xW0NIMl1bQ0BASF0oW0NIM10pW0NIMl1OKFtDSDJdMSlbQ0gyXVtDSDJdW05IXUMoPU8pW0NASF0oW0NIM10pbjJbY0hdbltjSF1uMg==

> <s_epik_cmdline>
J2VwaWtfcHl0aG9uJywgJy1waCcsICc3LjAnLCAnLXRuJywgJzgnLCAnLW1hJywgJzIwMCcsICctbWV0YWxfYmluZGluZycsICctaW1hZScsICc8aW5maWxlLm1hZT4nLCAnLW9tYWUnLCAnPG91dGZpbGUubWFlPic=

> <r_lp_tautomer_probability>
1

> <r_epik_Ionization_Penalty>
0.00175613

> <r_epik_Ionization_Penalty_Charging>
0.00174812

> <r_epik_Ionization_Penalty_Neutral>
8.01354e-06

> <r_epik_State_Penalty>
0.00118332

> <r_epik_Charging_Adjusted_Penalty>
0.00293143

> <i_epik_Tot_Q>
1

> <i_epik_Tot_abs_Q>
1

> <r_epik_Metal_State_Penalty>
-0

> <b_epik_Metal_Only>
0

> <s_lp_Force_Field>
OPLS_2005

> <r_lp_Energy>
23.9818

> <b_lp_Chiralities_Consistent>
1

> <s_lp_Variant>
AV-unprocessed.smi:3337-6

> <Gold.Version>
5.8.1

> <Gold.Id.Protein>
6NUR|6NUR_protein|mol2

> <Gold.PLP.Fitness>
43.8196

> <Gold.PLP.PLP>
-42.5799

> <Gold.PLP.part.hbond>
-0.9576

> <Gold.PLP.part.metal>
0.0000

> <Gold.PLP.part.buried>
-0.5913

> <Gold.PLP.part.nonpolar>
-41.5076

> <Gold.PLP.part.repulsive>
1.1536

> <Gold.PLP.ligand.clash>
0.0000

> <Gold.PLP.ligand.torsion>
0.9696

> <Gold.PLP.Chemscore.Hbond>
1.0000

> <Gold.PLP.Chemscore.CHOScore>
0.0000

> <Gold.PLP.Chemscore.Metal>
0.0000

> <Gold.Chemscore.Hbonds>
donor molecule, donor type, donor heavy atom, donor atom, acceptor molecule, acceptor atom, score
      P1  H  7989  7998       L1    12  1.00

> <Gold.PLP.Chemscore.Internal.Correction>
0.1788

> <Gold.Rescore>
     Score         DG    S(hbond)    S(metal)    S(lipo)     H(rot)  DE(clash)    DE(int)     intcor
     11.40     -15.08       0.95        0.00     110.08       2.51       1.22       2.46       ----

> <Gold.Chemscore.Fitness>
11.3987

> <Gold.Chemscore.DG>
-15.0842

> <Gold.Chemscore.ZeroCoef>
-5.4800

> <Gold.Chemscore.Hbond>
0.9455

> <Gold.Chemscore.Metal>
0.0000

> <Gold.Chemscore.Lipo>
110.0812

> <Gold.Chemscore.Internal_Hbond>
0.0000

> <Gold.Chemscore.DEClash>
1.2237

> <Gold.Chemscore.DEInternal>
2.4619

> <Gold.Chemscore.Rot>
2.5129

> <Gold.Chemscore.Internal.Correction>
   9.000000E+99

> <Gold.Chemscore.Hbonds>
donor molecule, donor type, donor heavy atom, donor atom, acceptor molecule, acceptor atom, score
      P1  H  7989  7998       L1    12  0.90

> <Gold.Chemscore.Hbond.Weighted>
-3.1578

> <Gold.Chemscore.Metal.Weighted>
-0.0000

> <Gold.Chemscore.Lipo.Weighted>
-12.8795

> <Gold.Chemscore.Internal_Hbond.Weighted>
0.0000

> <Gold.Chemscore.DEClash.Weighted>
1.2237

> <Gold.Chemscore.DEInternal.Weighted>
2.4619

> <Gold.Chemscore.Rot.Weighted>
6.4331

> <Gold.Chemscore.Internal.Correction.Weighted>
   9.000000E+99

> <Gold.Protein.RotatedTorsions>
[ 6907 6896 6895 6894 ] final -137.59 input  -60.11 | X-H torsion
[ 7974 7965 7964 7962 ] final -175.23 input  175.53 | X-H torsion
[ 8008 7997 7996 7995 ] final   45.14 input   59.86 | X-H torsion
[ 10167 10162 10161 10158 ] final -175.76 input  -65.29 | X-H torsion
[ 10718 10713 10712 10709 ] final -159.58 input   66.30 | X-H torsion
[ 10763 10752 10751 10750 ] final  -84.82 input  -60.55 | X-H torsion
[ 11005 11000 10999 10996 ] final -119.84 input  -57.11 | X-H torsion

> <Gold.Protein.ActiveResidues>
 VAL166  LYS551  ARG553  GLY616  TRP617  ASP618  TYR619  PRO620  LYS621  CYS622 
 ASP623  PHE694  ASN695  SER759  ASP760  ASP761  ALA762  ILE779  LEU786  VAL792 
 PHE793  MET794  SER795  GLU796  ALA797  LYS798  CYS799  TRP800  GLU811  SER814 

> <Gold.Protein.RotatedAtoms>
  151.0244  133.5847  159.2667 H   0  0  0  0  0  0  0  0  0  0  0  0  # atno 6907 bound_to 6896
  151.2952  135.0752  159.9228 H   0  0  0  0  0  0  0  0  0  0  0  0  # atno 6908 bound_to 6896
  152.5330  133.9935  159.7916 H   0  0  0  0  0  0  0  0  0  0  0  0  # atno 6909 bound_to 6896
  144.7129  140.1352  143.6396 H   0  0  0  0  0  0  0  0  0  0  0  0  # atno 7974 bound_to 7965
  155.3310  140.3402  155.4239 H   0  0  0  0  0  0  0  0  0  0  0  0  # atno 8008 bound_to 7997
  156.1861  140.1681  156.8218 H   0  0  0  0  0  0  0  0  0  0  0  0  # atno 8009 bound_to 7997
  154.5388  140.0729  156.8458 H   0  0  0  0  0  0  0  0  0  0  0  0  # atno 8010 bound_to 7997
  139.5564  144.1978  152.1166 H   0  0  0  0  0  0  0  0  0  0  0  0  # atno 10167 bound_to 10162
  156.5701  130.8685  151.2835 H   0  0  0  0  0  0  0  0  0  0  0  0  # atno 10718 bound_to 10713
  154.6040  135.5507  153.7403 H   0  0  0  0  0  0  0  0  0  0  0  0  # atno 10763 bound_to 10752
  153.0166  135.6373  154.1674 H   0  0  0  0  0  0  0  0  0  0  0  0  # atno 10764 bound_to 10752
  154.1613  135.2897  155.3088 H   0  0  0  0  0  0  0  0  0  0  0  0  # atno 10765 bound_to 10752
  141.0186  134.0157  157.3314 H   0  0  0  0  0  0  0  0  0  0  0  0  # atno 11005 bound_to 11000
  145.9251  139.2570  143.1358 LP  0  0  0  0  0  0  0  0  0  0  0  0  # atno 17320 bound_to 7965
  145.9581  140.8857  143.0225 LP  0  0  0  0  0  0  0  0  0  0  0  0  # atno 17321 bound_to 7965
  140.1483  144.5138  150.6702 LP  0  0  0  0  0  0  0  0  0  0  0  0  # atno 17342 bound_to 10162
  140.6837  143.2339  151.5316 LP  0  0  0  0  0  0  0  0  0  0  0  0  # atno 17343 bound_to 10162
  157.7350  130.9755  150.2058 LP  0  0  0  0  0  0  0  0  0  0  0  0  # atno 17370 bound_to 10713
  156.2722  130.3723  149.8020 LP  0  0  0  0  0  0  0  0  0  0  0  0  # atno 17371 bound_to 10713
  139.9132  135.0193  156.7777 LP  0  0  0  0  0  0  0  0  0  0  0  0  # atno 17394 bound_to 11000
  140.6611  133.9644  155.7805 LP  0  0  0  0  0  0  0  0  0  0  0  0  # atno 17395 bound_to 11000

$$$$
