#       Name:                AV-unprocessed.smi:16
#       Creating user name   scv26
#       Creation time:       Thu Mar 26 15:22:56 2020


#       File generated by GOLD software.
#

@<TRIPOS>MOLECULE
AV-unprocessed.smi:16
    70    74     1
SMALL
NO_CHARGES


@<TRIPOS>ATOM
      1 ****        -1.4703   0.9120  -3.7351 C.3            1 S1                 0.0000
      2 ****        -2.6582   0.0093  -3.3709 C.3            1 S1                 0.0000
      3 ****        -3.3403   0.4350  -2.1222 N.4            1 S1                 1.0000
      4 ****        -4.7260  -0.0960  -2.0356 C.3            1 S1                 0.0000
      5 ****        -5.4590   0.4494  -0.7995 C.3            1 S1                 0.0000
      6 ****        -4.6721   0.1262   0.4748 C.3            1 S1                 0.0000
      7 ****        -5.3351   0.6870   1.6022 O.3            1 S1                 0.0000
      8 ****        -4.6723   0.3583   2.8189 C.3            1 S1                 0.0000
      9 ****        -3.2440   0.9252   2.7904 C.3            1 S1                 0.0000
     10 ****        -2.5255   0.4385   1.6148 N.3            1 S1                 0.0000
     11 ****        -1.2227   0.8020   1.6051 C.ar           1 S1                 0.0000
     12 ****        -0.8783   2.1144   1.6851 N.ar           1 S1                 0.0000
     13 ****         0.4101   2.4682   1.6506 C.ar           1 S1                 0.0000
     14 ****         1.4868   1.6883   1.5285 N.ar           1 S1                 0.0000
     15 ****         1.1400   0.3723   1.4336 C.ar           1 S1                 0.0000
     16 ****        -0.1813  -0.1524   1.4698 C.ar           1 S1                 0.0000
     17 ****        -0.1514  -1.5357   1.3536 N.2            1 S1                 0.0000
     18 ****         1.1208  -1.8156   1.2639 C.2            1 S1                 0.0000
     19 ****         1.9646  -0.7269   1.2721 N.pl3          1 S1                 0.0000
     20 ****         3.3969  -0.7489   1.2226 C.3            1 S1                 0.0000
     21 ****         4.1730   0.2567   0.3662 C.3            1 S1                 0.0000
     22 ****         5.2585  -0.8145   0.1150 C.3            1 S1                 0.0000
     23 ****         5.8618  -0.8651  -1.3025 C.3            1 S1                 0.0000
     24 ****         4.8744  -0.8694  -2.3144 O.3            1 S1                 0.0000
     25 ****         6.4345  -0.7612   1.1090 C.3            1 S1                 0.0000
     26 ****         7.1660  -1.9704   1.1131 O.3            1 S1                 0.0000
     27 ****         4.1494  -1.8383   0.4521 C.3            1 S1                 0.0000
     28 ****        -3.2471   0.7086   0.3682 C.3            1 S1                 0.0000
     29 ****        -2.5555   0.1363  -0.8936 C.3            1 S1                 0.0000
     30 ****        -4.6257  -0.9586   0.5929 H              1 S1                 0.0000
     31 ****        -3.3214   1.7921   0.2574 H              1 S1                 0.0000
     32 ****        -1.0641   0.6334  -4.7078 H              1 S1                 0.0000
     33 ****        -0.6565   0.8331  -3.0149 H              1 S1                 0.0000
     34 ****        -1.7721   1.9582  -3.7915 H              1 S1                 0.0000
     35 ****        -3.3686   0.0511  -4.1976 H              1 S1                 0.0000
     36 ****        -2.3407  -1.0312  -3.2894 H              1 S1                 0.0000
     37 ****        -5.2839   0.1804  -2.9310 H              1 S1                 0.0000
     38 ****        -4.6964  -1.1864  -2.0040 H              1 S1                 0.0000
     39 ****        -5.5885   1.5286  -0.8928 H              1 S1                 0.0000
     40 ****        -6.4595   0.0196  -0.7398 H              1 S1                 0.0000
     41 ****        -5.2290   0.7836   3.6539 H              1 S1                 0.0000
     42 ****        -4.6599  -0.7234   2.9616 H              1 S1                 0.0000
     43 ****        -3.2884   2.0152   2.7754 H              1 S1                 0.0000
     44 ****        -2.7107   0.6361   3.6970 H              1 S1                 0.0000
     45 ****         0.6076   3.5274   1.7271 H              1 S1                 0.0000
     46 ****         1.4796  -2.8314   1.1803 H              1 S1                 0.0000
     47 ****         3.7323  -0.7110   2.2605 H              1 S1                 0.0000
     48 ****         3.6207   0.5464  -0.5293 H              1 S1                 0.0000
     49 ****         4.5153   1.1381   0.9095 H              1 S1                 0.0000
     50 ****         6.5143  -0.0090  -1.4763 H              1 S1                 0.0000
     51 ****         6.4720  -1.7584  -1.4376 H              1 S1                 0.0000
     52 ****         5.3061  -0.9103  -3.1540 H              1 S1                 0.0000
     53 ****         7.1134   0.0582   0.8704 H              1 S1                 0.0000
     54 ****         6.0871  -0.5802   2.1264 H              1 S1                 0.0000
     55 ****         7.8632  -1.8977   1.7469 H              1 S1                 0.0000
     56 ****         4.4689  -2.6814   1.0655 H              1 S1                 0.0000
     57 ****         3.5973  -2.1846  -0.4231 H              1 S1                 0.0000
     58 ****        -2.4192  -0.9423  -0.7972 H              1 S1                 0.0000
     59 ****        -1.5632   0.5725  -0.9968 H              1 S1                 0.0000
     60 ****        -3.4282   1.4400  -2.1750 H              1 S1                 0.0000
     61 ****        -6.2703   0.3345   1.6369 LP             1 S1                 0.0000
     62 ****        -5.3573   1.6819   1.5035 LP             1 S1                 0.0000
     63 ****        -2.4989  -0.5589   1.6823 LP             1 S1                 0.0000
     64 ****        -1.5877   2.8141   1.7696 LP             1 S1                 0.0000
     65 ****         2.4279   2.0259   1.5090 LP             1 S1                 0.0000
     66 ****        -0.9244  -2.1700   1.3414 LP             1 S1                 0.0000
     67 ****         4.3281  -0.0339  -2.2563 LP             1 S1                 0.0000
     68 ****         4.2794  -1.6652  -2.2019 LP             1 S1                 0.0000
     69 ****         7.5515  -2.1343   0.2050 LP             1 S1                 0.0000
     70 ****         6.5628  -2.7285   1.3609 LP             1 S1                 0.0000
@<TRIPOS>BOND
    1    1    2 1     
    2    1   32 1     
    3    1   33 1     
    4    1   34 1     
    5    2    3 1     
    6    2   35 1     
    7    2   36 1     
    8    3   29 1     
    9    3    4 1     
   10    3   60 1     
   11    4    5 1     
   12    4   37 1     
   13    4   38 1     
   14    5    6 1     
   15    5   39 1     
   16    5   40 1     
   17    6   30 1     
   18    6   28 1     
   19    6    7 1     
   20    7    8 1     
   21    8    9 1     
   22    8   41 1     
   23    8   42 1     
   24    9   10 1     
   25    9   43 1     
   26    9   44 1     
   27   10   11 1     
   28   10   28 1     
   29   11   16 ar    
   30   11   12 ar    
   31   12   13 ar    
   32   13   14 ar    
   33   13   45 1     
   34   14   15 ar    
   35   15   19 1     
   36   15   16 ar    
   37   16   17 1     
   38   17   18 2     
   39   18   19 1     
   40   18   46 1     
   41   19   20 1     
   42   20   27 1     
   43   20   21 1     
   44   20   47 1     
   45   21   22 1     
   46   21   48 1     
   47   21   49 1     
   48   22   23 1     
   49   22   25 1     
   50   22   27 1     
   51   23   24 1     
   52   23   50 1     
   53   23   51 1     
   54   24   52 1     
   55   25   26 1     
   56   25   53 1     
   57   25   54 1     
   58   26   55 1     
   59   27   56 1     
   60   27   57 1     
   61   28   31 1     
   62   28   29 1     
   63   29   58 1     
   64   29   59 1     
   65    7   61 1     
   66    7   62 1     
   67   10   63 1     
   68   12   64 1     
   69   14   65 1     
   70   17   66 1     
   71   24   67 1     
   72   24   68 1     
   73   26   69 1     
   74   26   70 1     
@<TRIPOS>SUBSTRUCTURE
      1 S1             1
@<TRIPOS>SET
LONE_PAIRS      STATIC     ATOMS    <user>   **** ""
10 61 62 63 64 65 66 67 68 69 70
DONOR_HYDROGENS      STATIC     ATOMS    <user>   **** ""
3 60 52 55
ATOM$BLUE        STATIC     ATOMS    COLORGROUP SYSTEM
10 61 62 63 64 65 66 67 68 69 70
ATOM$RED        STATIC     ATOMS    COLORGROUP SYSTEM
3 60 52 55
