AV-unprocessed.smi:2448|AV-procd|sdf|9655|dock5
  -GOLD-   2272013293D 1   1.00000     0.00000
 Structure written by MMmdl.
 38 39  0  0  0  0  0  0  0  0  2 V2000
  151.1730  144.1116  156.7615 O   0  0  0  0  0  0  0  0  0  0  0  0
  150.8765  143.2357  157.8364 C   0  0  1  0  0  0  0  0  0  0  0  0
  150.4762  141.8648  157.2550 C   0  0  0  0  0  0  0  0  0  0  0  0
  149.7778  141.9927  155.9561 N   0  3  0  0  0  0  0  0  0  0  0  0
  148.8579  140.8799  155.6201 C   0  0  2  0  0  0  0  0  0  0  0  0
  149.3819  140.0730  154.4102 C   0  0  0  0  0  0  0  0  0  0  0  0
  150.4277  139.0359  154.7770 C   0  0  0  0  0  0  0  0  0  0  0  0
  151.7347  139.4254  155.1372 C   0  0  0  0  0  0  0  0  0  0  0  0
  152.6597  138.4236  155.4939 C   0  0  0  0  0  0  0  0  0  0  0  0
  152.3575  137.1078  155.5079 N   0  0  0  0  0  0  0  0  0  0  0  0
  151.1066  136.7416  155.1556 C   0  0  0  0  0  0  0  0  0  0  0  0
  150.1067  137.6631  154.7841 C   0  0  0  0  0  0  0  0  0  0  0  0
  147.4453  141.4373  155.3591 C   0  0  0  0  0  0  0  0  0  0  0  0
  147.0412  142.1462  156.4134 F   0  0  0  0  0  0  0  0  0  0  0  0
  147.4430  142.2264  154.2842 F   0  0  0  0  0  0  0  0  0  0  0  0
  146.5824  140.4396  155.1686 F   0  0  0  0  0  0  0  0  0  0  0  0
  152.1360  143.1363  158.7128 C   0  0  0  0  0  0  0  0  0  0  0  0
  152.2704  144.4486  159.4918 C   0  0  0  0  0  0  0  0  0  0  0  0
  150.5985  145.0398  159.8566 S   0  0  0  0  0  0  0  0  0  0  0  0
  149.7963  143.8630  158.7359 C   0  0  0  0  0  0  0  0  0  0  0  0
  150.3644  144.4300  156.3912 H   0  0  0  0  0  0  0  0  0  0  0  0
  151.3645  141.2432  157.1424 H   0  0  0  0  0  0  0  0  0  0  0  0
  149.8183  141.3428  157.9513 H   0  0  0  0  0  0  0  0  0  0  0  0
  149.2347  142.8440  155.9878 H   0  0  0  0  0  0  0  0  0  0  0  0
  148.7836  140.2122  156.4807 H   0  0  0  0  0  0  0  0  0  0  0  0
  148.5548  139.5539  153.9248 H   0  0  0  0  0  0  0  0  0  0  0  0
  149.7946  140.7475  153.6587 H   0  0  0  0  0  0  0  0  0  0  0  0
  152.0260  140.4656  155.1479 H   0  0  0  0  0  0  0  0  0  0  0  0
  153.6675  138.6870  155.7794 H   0  0  0  0  0  0  0  0  0  0  0  0
  150.8941  135.6829  155.1748 H   0  0  0  0  0  0  0  0  0  0  0  0
  149.1182  137.3201  154.5154 H   0  0  0  0  0  0  0  0  0  0  0  0
  152.0174  142.3190  159.4257 H   0  0  0  0  0  0  0  0  0  0  0  0
  153.0326  142.9193  158.1301 H   0  0  0  0  0  0  0  0  0  0  0  0
  152.8516  144.3262  160.4060 H   0  0  0  0  0  0  0  0  0  0  0  0
  152.7708  145.1995  158.8792 H   0  0  0  0  0  0  0  0  0  0  0  0
  149.0005  144.3459  158.1674 H   0  0  0  0  0  0  0  0  0  0  0  0
  149.3323  143.0943  159.3553 H   0  0  0  0  0  0  0  0  0  0  0  0
  150.4615  142.0763  155.2175 H   0  0  0  0  0  0  0  0  0  0  0  0
  1  2  1  0  0  0  0
  1 21  1  0  0  0  0
  2 20  1  0  0  0  0
  2  3  1  0  0  0  0
  2 17  1  0  0  0  0
  3  4  1  0  0  0  0
  3 22  1  0  0  0  0
  3 23  1  0  0  0  0
  4  5  1  0  0  0  0
  4 24  1  0  0  0  0
  4 38  1  0  0  0  0
  5  6  1  0  0  0  0
  5 13  1  0  0  0  0
  5 25  1  0  0  0  0
  6  7  1  0  0  0  0
  6 26  1  0  0  0  0
  6 27  1  0  0  0  0
  7 12  1  0  0  0  0
  7  8  2  0  0  0  0
  8  9  1  0  0  0  0
  8 28  1  0  0  0  0
  9 10  2  0  0  0  0
  9 29  1  0  0  0  0
 10 11  1  0  0  0  0
 11 12  2  0  0  0  0
 11 30  1  0  0  0  0
 12 31  1  0  0  0  0
 13 14  1  0  0  0  0
 13 15  1  0  0  0  0
 13 16  1  0  0  0  0
 17 18  1  0  0  0  0
 17 32  1  0  0  0  0
 17 33  1  0  0  0  0
 18 19  1  0  0  0  0
 18 34  1  0  0  0  0
 18 35  1  0  0  0  0
 19 20  1  0  0  0  0
 20 36  1  0  0  0  0
 20 37  1  0  0  0  0
M  CHG  1   4   1
M  END
> <s_m_source_file>
AV-unprocessed.smi

> <i_m_source_file_index>
2448

> <i_lp_mmshare_version>
43012

> <i_f3d_flags>
0

> <s_epik_input>
W0NIMl0xU1tDSDJdW0NIMl1bQ0BAXTEoW09IXSlbQ0gyXVtOSF1bQ0BASF0oQyhGKShGKUYpW0NIMl1jMltjSF1bY0hdbltjSF1bY0hdMg==

> <s_epik_cmdline>
J2VwaWtfcHl0aG9uJywgJy1waCcsICc3LjAnLCAnLXRuJywgJzgnLCAnLW1hJywgJzIwMCcsICctbWV0YWxfYmluZGluZycsICctaW1hZScsICc8aW5maWxlLm1hZT4nLCAnLW9tYWUnLCAnPG91dGZpbGUubWFlPic=

> <r_epik_Ionization_Penalty>
1.19945

> <r_epik_Ionization_Penalty_Charging>
1.19892

> <r_epik_Ionization_Penalty_Neutral>
0.000532129

> <r_epik_State_Penalty>
0.752927

> <r_epik_Charging_Adjusted_Penalty>
1.95185

> <i_epik_Tot_Q>
1

> <i_epik_Tot_abs_Q>
1

> <r_epik_Metal_State_Penalty>
0.804507

> <b_epik_Metal_Only>
0

> <s_lp_Force_Field>
OPLS_2005

> <r_lp_Energy>
24.3965

> <b_lp_Chiralities_Consistent>
1

> <s_lp_Variant>
AV-unprocessed.smi:2448-5

> <Gold.Version>
5.8.1

> <Gold.Id.Protein>
6NUR|6NUR_protein|mol2

> <Gold.PLP.Fitness>
49.9259

> <Gold.PLP.PLP>
-41.6638

> <Gold.PLP.part.hbond>
-3.0000

> <Gold.PLP.part.metal>
0.0000

> <Gold.PLP.part.buried>
-2.8117

> <Gold.PLP.part.nonpolar>
-36.5877

> <Gold.PLP.part.repulsive>
0.1630

> <Gold.PLP.ligand.clash>
0.0000

> <Gold.PLP.ligand.torsion>
1.8286

> <Gold.PLP.Chemscore.Hbond>
3.7680

> <Gold.PLP.Chemscore.CHOScore>
0.0000

> <Gold.PLP.Chemscore.Metal>
0.0000

> <Gold.Chemscore.Hbonds>
donor molecule, donor type, donor heavy atom, donor atom, acceptor molecule, acceptor atom, score
      L1  H     1    21       P1  8028  1.00
      L1  H     4    24       P1  8028  2.00
      P1  H 10752 10765       L1    10  0.56

> <Gold.PLP.Chemscore.Internal.Correction>
0.6153

> <Gold.Rescore>
     Score         DG    S(hbond)    S(metal)    S(lipo)     H(rot)  DE(clash)    DE(int)     intcor
     19.37     -21.38       2.78        0.00     108.82       2.39       0.13       1.88       ----

> <Gold.Chemscore.Fitness>
19.3733

> <Gold.Chemscore.DG>
-21.3825

> <Gold.Chemscore.ZeroCoef>
-5.4800

> <Gold.Chemscore.Hbond>
2.7785

> <Gold.Chemscore.Metal>
0.0000

> <Gold.Chemscore.Lipo>
108.8203

> <Gold.Chemscore.Internal_Hbond>
0.0000

> <Gold.Chemscore.DEClash>
0.1334

> <Gold.Chemscore.DEInternal>
1.8757

> <Gold.Chemscore.Rot>
2.3866

> <Gold.Chemscore.Internal.Correction>
   9.000000E+99

> <Gold.Chemscore.Hbonds>
donor molecule, donor type, donor heavy atom, donor atom, acceptor molecule, acceptor atom, score
      L1  H     1    21       P1  8028  0.99
      L1  H     4    24       P1  8028  0.97
      P1  H 10752 10765       L1    10  0.07

> <Gold.Chemscore.Hbond.Weighted>
-9.2802

> <Gold.Chemscore.Metal.Weighted>
-0.0000

> <Gold.Chemscore.Lipo.Weighted>
-12.7320

> <Gold.Chemscore.Internal_Hbond.Weighted>
0.0000

> <Gold.Chemscore.DEClash.Weighted>
0.1334

> <Gold.Chemscore.DEInternal.Weighted>
1.8757

> <Gold.Chemscore.Rot.Weighted>
6.1096

> <Gold.Chemscore.Internal.Correction.Weighted>
   9.000000E+99

> <Gold.Protein.RotatedTorsions>
[ 6907 6896 6895 6894 ] final  -89.94 input  -60.11 | X-H torsion
[ 7974 7965 7964 7962 ] final -128.60 input  175.53 | X-H torsion
[ 8008 7997 7996 7995 ] final  -52.05 input   59.86 | X-H torsion
[ 10167 10162 10161 10158 ] final -179.90 input  -65.29 | X-H torsion
[ 10718 10713 10712 10709 ] final   92.48 input   66.30 | X-H torsion
[ 10763 10752 10751 10750 ] final -153.90 input  -60.55 | X-H torsion
[ 11005 11000 10999 10996 ] final  -48.06 input  -57.11 | X-H torsion

> <Gold.Protein.ActiveResidues>
 VAL166  LYS551  ARG553  GLY616  TRP617  ASP618  TYR619  PRO620  LYS621  CYS622 
 ASP623  PHE694  ASN695  SER759  ASP760  ASP761  ALA762  ILE779  LEU786  VAL792 
 PHE793  MET794  SER795  GLU796  ALA797  LYS798  CYS799  TRP800  GLU811  SER814 

> <Gold.Protein.RotatedAtoms>
  150.6877  134.2509  159.4510 H   0  0  0  0  0  0  0  0  0  0  0  0  # atno 6907 bound_to 6896
  152.0447  134.9688  160.0583 H   0  0  0  0  0  0  0  0  0  0  0  0  # atno 6908 bound_to 6896
  152.1176  133.4300  159.4697 H   0  0  0  0  0  0  0  0  0  0  0  0  # atno 6909 bound_to 6896
  144.9654  140.7490  143.4703 H   0  0  0  0  0  0  0  0  0  0  0  0  # atno 7974 bound_to 7965
  154.4097  140.1233  156.4928 H   0  0  0  0  0  0  0  0  0  0  0  0  # atno 8008 bound_to 7997
  155.6973  140.3495  155.4899 H   0  0  0  0  0  0  0  0  0  0  0  0  # atno 8009 bound_to 7997
  155.9416  140.1088  157.1041 H   0  0  0  0  0  0  0  0  0  0  0  0  # atno 8010 bound_to 7997
  139.5365  144.2482  152.0806 H   0  0  0  0  0  0  0  0  0  0  0  0  # atno 10167 bound_to 10162
  157.6958  131.0444  150.3887 H   0  0  0  0  0  0  0  0  0  0  0  0  # atno 10718 bound_to 10713
  154.7896  135.3202  154.7807 H   0  0  0  0  0  0  0  0  0  0  0  0  # atno 10763 bound_to 10752
  153.8499  135.6863  153.4798 H   0  0  0  0  0  0  0  0  0  0  0  0  # atno 10764 bound_to 10752
  153.1561  135.4679  154.9646 H   0  0  0  0  0  0  0  0  0  0  0  0  # atno 10765 bound_to 10752
  141.0678  133.6688  156.3387 H   0  0  0  0  0  0  0  0  0  0  0  0  # atno 11005 bound_to 11000
  145.2637  139.1982  143.4878 LP  0  0  0  0  0  0  0  0  0  0  0  0  # atno 17320 bound_to 7965
  146.3366  140.2572  142.8600 LP  0  0  0  0  0  0  0  0  0  0  0  0  # atno 17321 bound_to 7965
  140.1953  144.4711  150.6458 LP  0  0  0  0  0  0  0  0  0  0  0  0  # atno 17342 bound_to 10162
  140.6575  143.2242  151.5935 LP  0  0  0  0  0  0  0  0  0  0  0  0  # atno 17343 bound_to 10162
  156.4293  130.3969  149.6771 LP  0  0  0  0  0  0  0  0  0  0  0  0  # atno 17370 bound_to 10713
  156.3994  130.7667  151.2674 LP  0  0  0  0  0  0  0  0  0  0  0  0  # atno 17371 bound_to 10713
  140.5736  134.5815  157.5463 LP  0  0  0  0  0  0  0  0  0  0  0  0  # atno 17394 bound_to 11000
  139.9493  134.7645  156.0485 LP  0  0  0  0  0  0  0  0  0  0  0  0  # atno 17395 bound_to 11000

$$$$
