AV-unprocessed.smi:2492|AV-procd|sdf|9816|dock10
  -GOLD-   2272013443D 1   1.00000     0.00000
 Structure written by MMmdl.
 32 33  0  0  0  0  0  0  0  0  2 V2000
  152.1611  145.0237  158.6455 C   0  0  0  0  0  0  0  0  0  0  0  0
  151.7345  144.2637  160.2342 S   0  0  0  0  0  0  0  0  0  0  0  0
  153.1199  143.1037  160.4217 C   0  0  1  0  0  0  0  0  0  0  0  0
  153.1226  142.3769  161.7654 C   0  0  0  0  0  0  0  0  0  0  0  0
  154.0096  141.1547  161.5252 C   0  0  0  0  0  0  0  0  0  0  0  0
  153.8342  140.7865  160.0403 C   0  0  1  0  0  0  0  0  0  0  0  0
  153.0971  139.5319  159.9057 N   0  0  0  0  0  0  0  0  0  0  0  0
  152.6341  139.0133  158.7590 C   0  0  0  0  0  0  0  0  0  0  0  0
  152.8218  139.6087  157.6953 O   0  0  0  0  0  0  0  0  0  0  0  0
  151.9799  137.8402  158.9168 N   0  5  0  0  0  0  0  0  0  0  0  0
  151.7191  137.0683  157.8489 C   0  0  0  0  0  0  0  0  0  0  0  0
  151.0032  135.9429  157.8505 N   0  0  0  0  0  0  0  0  0  0  0  0
  151.0421  135.5852  156.5391 C   0  0  0  0  0  0  0  0  0  0  0  0
  150.3714  134.3628  156.0130 C   0  0  0  0  0  0  0  0  0  0  0  0
  151.7116  136.4001  155.7378 N   0  0  0  0  0  0  0  0  0  0  0  0
  152.1648  137.4003  156.6091 O   0  0  0  0  0  0  0  0  0  0  0  0
  153.0813  141.9687  159.3947 C   0  0  0  0  0  0  0  0  0  0  0  0
  151.3875  145.7320  158.3496 H   0  0  0  0  0  0  0  0  0  0  0  0
  152.2480  144.2631  157.8697 H   0  0  0  0  0  0  0  0  0  0  0  0
  153.1074  145.5596  158.7175 H   0  0  0  0  0  0  0  0  0  0  0  0
  154.0567  143.6507  160.3063 H   0  0  0  0  0  0  0  0  0  0  0  0
  153.4868  142.9989  162.5831 H   0  0  0  0  0  0  0  0  0  0  0  0
  152.1121  142.0509  162.0164 H   0  0  0  0  0  0  0  0  0  0  0  0
  155.0506  141.4259  161.7063 H   0  0  0  0  0  0  0  0  0  0  0  0
  153.7697  140.3368  162.2060 H   0  0  0  0  0  0  0  0  0  0  0  0
  154.8215  140.6758  159.5878 H   0  0  0  0  0  0  0  0  0  0  0  0
  152.9211  139.0130  160.7534 H   0  0  0  0  0  0  0  0  0  0  0  0
  149.3708  134.6082  155.6572 H   0  0  0  0  0  0  0  0  0  0  0  0
  150.2866  133.6073  156.7945 H   0  0  0  0  0  0  0  0  0  0  0  0
  150.9404  133.9382  155.1855 H   0  0  0  0  0  0  0  0  0  0  0  0
  152.0440  141.6927  159.1973 H   0  0  0  0  0  0  0  0  0  0  0  0
  153.5212  142.2632  158.4414 H   0  0  0  0  0  0  0  0  0  0  0  0
  1  2  1  0  0  0  0
  1 18  1  0  0  0  0
  1 19  1  0  0  0  0
  1 20  1  0  0  0  0
  2  3  1  0  0  0  0
  3 17  1  0  0  0  0
  3  4  1  0  0  0  0
  3 21  1  0  0  0  0
  4  5  1  0  0  0  0
  4 22  1  0  0  0  0
  4 23  1  0  0  0  0
  5  6  1  0  0  0  0
  5 24  1  0  0  0  0
  5 25  1  0  0  0  0
  6  7  1  0  0  0  0
  6 17  1  0  0  0  0
  6 26  1  0  0  0  0
  7  8  1  0  0  0  0
  7 27  1  0  0  0  0
  8  9  2  0  0  0  0
  8 10  1  0  0  0  0
 10 11  1  0  0  0  0
 11 16  1  0  0  0  0
 11 12  2  0  0  0  0
 12 13  1  0  0  0  0
 13 14  1  0  0  0  0
 13 15  2  0  0  0  0
 14 28  1  0  0  0  0
 14 29  1  0  0  0  0
 14 30  1  0  0  0  0
 15 16  1  0  0  0  0
 17 31  1  0  0  0  0
 17 32  1  0  0  0  0
M  CHG  1  10  -1
M  END
> <s_m_source_file>
AV-unprocessed.smi

> <i_m_source_file_index>
2492

> <i_lp_mmshare_version>
43012

> <i_f3d_flags>
0

> <s_epik_input>
W0NIM11TW0NAQEhdMVtDSDJdW0NIMl1bQ0BIXShbQ0gyXTEpW05IXUMoPU8pW05IXWMybmMoW0NIM10pbm8y

> <s_epik_cmdline>
J2VwaWtfcHl0aG9uJywgJy1waCcsICc3LjAnLCAnLXRuJywgJzgnLCAnLW1hJywgJzIwMCcsICctbWV0YWxfYmluZGluZycsICctaW1hZScsICc8aW5maWxlLm1hZT4nLCAnLW9tYWUnLCAnPG91dGZpbGUubWFlPic=

> <r_lp_tautomer_probability>
1

> <r_epik_Ionization_Penalty>
6.26454

> <r_epik_Ionization_Penalty_Charging>
6.26445

> <r_epik_Ionization_Penalty_Neutral>
9.05726e-05

> <r_epik_State_Penalty>
6.26444

> <r_epik_Charging_Adjusted_Penalty>
12.5289

> <i_epik_Tot_Q>
-1

> <i_epik_Tot_abs_Q>
1

> <r_epik_Metal_State_Penalty>
2.20125

> <b_epik_Metal_Only>
1

> <s_lp_Force_Field>
OPLS_2005

> <r_lp_Energy>
11.8534

> <b_lp_Chiralities_Consistent>
1

> <s_lp_Variant>
AV-unprocessed.smi:2492-6

> <Gold.Version>
5.8.1

> <Gold.Id.Protein>
6NUR|6NUR_protein|mol2

> <Gold.PLP.Fitness>
41.4358

> <Gold.PLP.PLP>
-34.7856

> <Gold.PLP.part.hbond>
-3.0000

> <Gold.PLP.part.metal>
0.0000

> <Gold.PLP.part.buried>
-5.1299

> <Gold.PLP.part.nonpolar>
-27.0360

> <Gold.PLP.part.repulsive>
0.1421

> <Gold.PLP.ligand.clash>
0.0000

> <Gold.PLP.ligand.torsion>
0.1308

> <Gold.PLP.Chemscore.Hbond>
2.3019

> <Gold.PLP.Chemscore.CHOScore>
0.0000

> <Gold.PLP.Chemscore.Metal>
0.0000

> <Gold.Chemscore.Hbonds>
donor molecule, donor type, donor heavy atom, donor atom, acceptor molecule, acceptor atom, score
      P1  H  6896  6908       L1    12  0.35
      P1  H  7997  8008       L1     9  1.00
      P1  H 10752 10763       L1    15  1.00

> <Gold.PLP.Chemscore.Internal.Correction>
0.0061

> <Gold.Rescore>
     Score         DG    S(hbond)    S(metal)    S(lipo)     H(rot)  DE(clash)    DE(int)     intcor
     17.54     -20.61       2.50        0.00      85.86       1.27       0.01       3.06       ----

> <Gold.Chemscore.Fitness>
17.5407

> <Gold.Chemscore.DG>
-20.6104

> <Gold.Chemscore.ZeroCoef>
-5.4800

> <Gold.Chemscore.Hbond>
2.4965

> <Gold.Chemscore.Metal>
0.0000

> <Gold.Chemscore.Lipo>
85.8650

> <Gold.Chemscore.Internal_Hbond>
0.0000

> <Gold.Chemscore.DEClash>
0.0050

> <Gold.Chemscore.DEInternal>
3.0647

> <Gold.Chemscore.Rot>
1.2712

> <Gold.Chemscore.Internal.Correction>
   9.000000E+99

> <Gold.Chemscore.Hbonds>
donor molecule, donor type, donor heavy atom, donor atom, acceptor molecule, acceptor atom, score
      P1  H  6896  6908       L1    12  0.32
      P1  H  7997  8008       L1     9  1.00
      P1  H 10752 10763       L1    15  0.86

> <Gold.Chemscore.Hbond.Weighted>
-8.3384

> <Gold.Chemscore.Metal.Weighted>
-0.0000

> <Gold.Chemscore.Lipo.Weighted>
-10.0462

> <Gold.Chemscore.Internal_Hbond.Weighted>
0.0000

> <Gold.Chemscore.DEClash.Weighted>
0.0050

> <Gold.Chemscore.DEInternal.Weighted>
3.0647

> <Gold.Chemscore.Rot.Weighted>
3.2542

> <Gold.Chemscore.Internal.Correction.Weighted>
   9.000000E+99

> <Gold.Protein.RotatedTorsions>
[ 6907 6896 6895 6894 ] final -170.26 input  -60.11 | X-H torsion
[ 7974 7965 7964 7962 ] final   66.31 input  175.53 | X-H torsion
[ 8008 7997 7996 7995 ] final  -73.12 input   59.86 | X-H torsion
[ 10167 10162 10161 10158 ] final -110.14 input  -65.29 | X-H torsion
[ 10718 10713 10712 10709 ] final  146.32 input   66.30 | X-H torsion
[ 10763 10752 10751 10750 ] final   61.61 input  -60.55 | X-H torsion
[ 11005 11000 10999 10996 ] final -146.47 input  -57.11 | X-H torsion

> <Gold.Protein.ActiveResidues>
 VAL166  LYS551  ARG553  GLY616  TRP617  ASP618  TYR619  PRO620  LYS621  CYS622 
 ASP623  PHE694  ASN695  SER759  ASP760  ASP761  ALA762  ILE779  LEU786  VAL792 
 PHE793  MET794  SER795  GLU796  ALA797  LYS798  CYS799  TRP800  GLU811  SER814 

> <Gold.Protein.RotatedAtoms>
  151.5049  133.3497  159.2874 H   0  0  0  0  0  0  0  0  0  0  0  0  # atno 6907 bound_to 6896
  150.8749  134.8133  159.7193 H   0  0  0  0  0  0  0  0  0  0  0  0  # atno 6908 bound_to 6896
  152.4724  134.4938  159.9755 H   0  0  0  0  0  0  0  0  0  0  0  0  # atno 6909 bound_to 6896
  145.8281  139.3123  143.1003 H   0  0  0  0  0  0  0  0  0  0  0  0  # atno 7974 bound_to 7965
  154.5221  140.0785  156.8191 H   0  0  0  0  0  0  0  0  0  0  0  0  # atno 8008 bound_to 7997
  155.3554  140.3415  155.4221 H   0  0  0  0  0  0  0  0  0  0  0  0  # atno 8009 bound_to 7997
  156.1692  140.1614  156.8464 H   0  0  0  0  0  0  0  0  0  0  0  0  # atno 8010 bound_to 7997
  140.1477  143.4226  152.1517 H   0  0  0  0  0  0  0  0  0  0  0  0  # atno 10167 bound_to 10162
  157.3346  131.0926  151.1134 H   0  0  0  0  0  0  0  0  0  0  0  0  # atno 10718 bound_to 10713
  152.9956  135.5494  154.6062 H   0  0  0  0  0  0  0  0  0  0  0  0  # atno 10763 bound_to 10752
  154.5392  135.2818  155.1113 H   0  0  0  0  0  0  0  0  0  0  0  0  # atno 10764 bound_to 10752
  154.2397  135.6418  153.5255 H   0  0  0  0  0  0  0  0  0  0  0  0  # atno 10765 bound_to 10752
  140.7816  134.3072  157.5043 H   0  0  0  0  0  0  0  0  0  0  0  0  # atno 11005 bound_to 11000
  145.9601  140.8842  143.0215 LP  0  0  0  0  0  0  0  0  0  0  0  0  # atno 17320 bound_to 7965
  144.6742  140.1800  143.7406 LP  0  0  0  0  0  0  0  0  0  0  0  0  # atno 17321 bound_to 7965
  139.5441  144.7283  151.4639 LP  0  0  0  0  0  0  0  0  0  0  0  0  # atno 17342 bound_to 10162
  140.6722  143.8269  150.7013 LP  0  0  0  0  0  0  0  0  0  0  0  0  # atno 17343 bound_to 10162
  157.2369  130.6551  149.5873 LP  0  0  0  0  0  0  0  0  0  0  0  0  # atno 17370 bound_to 10713
  155.9700  130.4581  150.5986 LP  0  0  0  0  0  0  0  0  0  0  0  0  # atno 17371 bound_to 10713
  139.8742  134.9322  156.3547 LP  0  0  0  0  0  0  0  0  0  0  0  0  # atno 17394 bound_to 11000
  140.9477  133.7472  156.0230 LP  0  0  0  0  0  0  0  0  0  0  0  0  # atno 17395 bound_to 11000

$$$$
