AV-unprocessed.smi:933|AV-procd|sdf|4201|dock1
  -GOLD-   22720 2103D 1   1.00000     0.00000
 Structure written by MMmdl.
 42 43  0  0  0  0  0  0  0  0  1 V2000
  153.0806  142.5002  161.9742 C   0  0  0  0  0  0  0  0  0  0  0  0
  152.1638  143.6795  161.6326 C   0  0  0  0  0  0  0  0  0  0  0  0
  151.8611  143.7664  160.1740 C   0  0  0  0  0  0  0  0  0  0  0  0
  151.4807  142.7195  159.4370 N   0  0  0  0  0  0  0  0  0  0  0  0
  151.2252  143.0617  158.1054 C   0  0  0  0  0  0  0  0  0  0  0  0
  150.7897  142.0078  157.1331 C   0  0  0  0  0  0  0  0  0  0  0  0
  149.3986  141.4518  157.4661 C   0  0  0  0  0  0  0  0  0  0  0  0
  148.4293  142.5360  157.6008 N   0  0  0  0  0  0  0  0  0  0  0  0
  147.2270  142.4805  158.1988 C   0  0  0  0  0  0  0  0  0  0  0  0
  146.8050  141.4480  158.7163 O   0  0  0  0  0  0  0  0  0  0  0  0
  146.5390  143.6342  158.1763 N   0  0  0  0  0  0  0  0  0  0  0  0
  145.2189  143.8388  158.7661 C   0  0  2  0  0  0  0  0  0  0  0  0
  144.2296  144.4469  157.7494 C   0  0  0  0  0  0  0  0  0  0  0  0
  143.8910  145.8467  158.2649 C   0  0  0  0  0  0  0  0  0  0  0  0
  144.0743  145.7461  159.7754 C   0  0  0  0  0  0  0  0  0  0  0  0
  145.2954  144.8372  159.9406 C   0  0  1  0  0  0  0  0  0  0  0  0
  145.3828  144.1676  161.3189 C   0  0  0  0  0  0  0  0  0  0  0  0
  151.4062  144.3974  157.8459 C   0  0  0  0  0  0  0  0  0  0  0  0
  151.9026  145.2742  159.2672 S   0  0  0  0  0  0  0  0  0  0  0  0
  153.2824  142.4629  163.0449 H   0  0  0  0  0  0  0  0  0  0  0  0
  154.0371  142.5833  161.4570 H   0  0  0  0  0  0  0  0  0  0  0  0
  152.6250  141.5521  161.6872 H   0  0  0  0  0  0  0  0  0  0  0  0
  151.2245  143.5900  162.1792 H   0  0  0  0  0  0  0  0  0  0  0  0
  152.6239  144.6147  161.9538 H   0  0  0  0  0  0  0  0  0  0  0  0
  150.7850  142.4165  156.1217 H   0  0  0  0  0  0  0  0  0  0  0  0
  151.5147  141.1927  157.1226 H   0  0  0  0  0  0  0  0  0  0  0  0
  149.0740  140.7689  156.6792 H   0  0  0  0  0  0  0  0  0  0  0  0
  149.4400  140.8827  158.3962 H   0  0  0  0  0  0  0  0  0  0  0  0
  148.6926  143.4204  157.1906 H   0  0  0  0  0  0  0  0  0  0  0  0
  146.9645  144.4308  157.7251 H   0  0  0  0  0  0  0  0  0  0  0  0
  144.8233  142.8834  159.1172 H   0  0  0  0  0  0  0  0  0  0  0  0
  144.6178  144.4780  156.7304 H   0  0  0  0  0  0  0  0  0  0  0  0
  143.3232  143.8406  157.7258 H   0  0  0  0  0  0  0  0  0  0  0  0
  144.5990  146.5695  157.8572 H   0  0  0  0  0  0  0  0  0  0  0  0
  142.8875  146.1665  157.9828 H   0  0  0  0  0  0  0  0  0  0  0  0
  144.2097  146.7203  160.2461 H   0  0  0  0  0  0  0  0  0  0  0  0
  143.1930  145.2803  160.2193 H   0  0  0  0  0  0  0  0  0  0  0  0
  146.1781  145.4669  159.8119 H   0  0  0  0  0  0  0  0  0  0  0  0
  144.5131  143.5386  161.5120 H   0  0  0  0  0  0  0  0  0  0  0  0
  145.4381  144.9130  162.1125 H   0  0  0  0  0  0  0  0  0  0  0  0
  146.2711  143.5391  161.3907 H   0  0  0  0  0  0  0  0  0  0  0  0
  151.2726  144.9181  156.9093 H   0  0  0  0  0  0  0  0  0  0  0  0
  1  2  1  0  0  0  0
  1 20  1  0  0  0  0
  1 21  1  0  0  0  0
  1 22  1  0  0  0  0
  2  3  1  0  0  0  0
  2 23  1  0  0  0  0
  2 24  1  0  0  0  0
  3 19  1  0  0  0  0
  3  4  2  0  0  0  0
  4  5  1  0  0  0  0
  5  6  1  0  0  0  0
  5 18  2  0  0  0  0
  6  7  1  0  0  0  0
  6 25  1  0  0  0  0
  6 26  1  0  0  0  0
  7  8  1  0  0  0  0
  7 27  1  0  0  0  0
  7 28  1  0  0  0  0
  8  9  1  0  0  0  0
  8 29  1  0  0  0  0
  9 10  2  0  0  0  0
  9 11  1  0  0  0  0
 11 12  1  0  0  0  0
 11 30  1  0  0  0  0
 12 16  1  0  0  0  0
 12 13  1  0  0  0  0
 12 31  1  0  0  0  0
 13 14  1  0  0  0  0
 13 32  1  0  0  0  0
 13 33  1  0  0  0  0
 14 15  1  0  0  0  0
 14 34  1  0  0  0  0
 14 35  1  0  0  0  0
 15 16  1  0  0  0  0
 15 36  1  0  0  0  0
 15 37  1  0  0  0  0
 16 17  1  0  0  0  0
 16 38  1  0  0  0  0
 17 39  1  0  0  0  0
 17 40  1  0  0  0  0
 17 41  1  0  0  0  0
 18 19  1  0  0  0  0
 18 42  1  0  0  0  0
M  END
> <s_m_source_file>
AV-unprocessed.smi

> <i_m_source_file_index>
933

> <i_lp_mmshare_version>
43012

> <i_f3d_flags>
0

> <s_epik_input>
W0NIM11bQ0gyXWMxbmMoW2NIXXMxKVtDSDJdW0NIMl1bTkhdQyg9TylbTkhdW0NAQEhdMltDSDJdW0NIMl1bQ0gyXVtDQEhdMltDSDNd

> <s_epik_cmdline>
J2VwaWtfcHl0aG9uJywgJy1waCcsICc3LjAnLCAnLXRuJywgJzgnLCAnLW1hJywgJzIwMCcsICctbWV0YWxfYmluZGluZycsICctaW1hZScsICc8aW5maWxlLm1hZT4nLCAnLW9tYWUnLCAnPG91dGZpbGUubWFlPic=

> <r_epik_Ionization_Penalty>
0.00203408

> <r_epik_Ionization_Penalty_Charging>
0

> <r_epik_Ionization_Penalty_Neutral>
0.00203408

> <r_epik_State_Penalty>
0.0013452

> <r_epik_Charging_Adjusted_Penalty>
0.0013452

> <i_epik_Tot_Q>
0

> <i_epik_Tot_abs_Q>
0

> <r_epik_Metal_State_Penalty>
-0

> <b_epik_Metal_Only>
0

> <s_lp_Force_Field>
OPLS_2005

> <r_lp_Energy>
18.2024

> <b_lp_Chiralities_Consistent>
1

> <s_lp_Variant>
AV-unprocessed.smi:933-1

> <Gold.Version>
5.8.1

> <Gold.Id.Protein>
6NUR|6NUR_protein|mol2

> <Gold.PLP.Fitness>
47.0059

> <Gold.PLP.PLP>
-38.8645

> <Gold.PLP.part.hbond>
-3.0000

> <Gold.PLP.part.metal>
0.0000

> <Gold.PLP.part.buried>
-5.5554

> <Gold.PLP.part.nonpolar>
-32.1398

> <Gold.PLP.part.repulsive>
0.0993

> <Gold.PLP.ligand.clash>
0.0000

> <Gold.PLP.ligand.torsion>
0.3966

> <Gold.PLP.Chemscore.Hbond>
2.3575

> <Gold.PLP.Chemscore.CHOScore>
0.6002

> <Gold.PLP.Chemscore.Metal>
0.0000

> <Gold.Chemscore.Hbonds>
donor molecule, donor type, donor heavy atom, donor atom, acceptor molecule, acceptor atom, score
      L1  H     8    29       P1  8028  1.00
      L1  H    11    30       P1  8029  0.80
      P1  H  6934  6946       L1    10  0.46
      L1  C    18    42       P1  8028  0.54

> <Gold.PLP.Chemscore.Internal.Correction>
0.0615

> <Gold.Rescore>
     Score         DG    S(hbond)    S(metal)    S(lipo)     H(rot)  DE(clash)    DE(int)     intcor
     17.71     -18.28       1.23        0.00     108.32       1.55       0.21       0.36       ----

> <Gold.Chemscore.Fitness>
17.7141

> <Gold.Chemscore.DG>
-18.2820

> <Gold.Chemscore.ZeroCoef>
-5.4800

> <Gold.Chemscore.Hbond>
1.2253

> <Gold.Chemscore.Metal>
0.0000

> <Gold.Chemscore.Lipo>
108.3153

> <Gold.Chemscore.Internal_Hbond>
0.0000

> <Gold.Chemscore.DEClash>
0.2121

> <Gold.Chemscore.DEInternal>
0.3558

> <Gold.Chemscore.Rot>
1.5482

> <Gold.Chemscore.Internal.Correction>
   9.000000E+99

> <Gold.Chemscore.Hbonds>
donor molecule, donor type, donor heavy atom, donor atom, acceptor molecule, acceptor atom, score
      L1  H     8    29       P1  8028  0.24
      L1  H    11    30       P1  8029  0.12
      P1  H  6934  6946       L1    10  0.44

> <Gold.Chemscore.Hbond.Weighted>
-4.0926

> <Gold.Chemscore.Metal.Weighted>
-0.0000

> <Gold.Chemscore.Lipo.Weighted>
-12.6729

> <Gold.Chemscore.Internal_Hbond.Weighted>
0.0000

> <Gold.Chemscore.DEClash.Weighted>
0.2121

> <Gold.Chemscore.DEInternal.Weighted>
0.3558

> <Gold.Chemscore.Rot.Weighted>
3.9635

> <Gold.Chemscore.Internal.Correction.Weighted>
   9.000000E+99

> <Gold.Protein.RotatedTorsions>
[ 6907 6896 6895 6894 ] final  -51.60 input  -60.11 | X-H torsion
[ 7974 7965 7964 7962 ] final -101.75 input  175.53 | X-H torsion
[ 8008 7997 7996 7995 ] final   79.43 input   59.86 | X-H torsion
[ 10167 10162 10161 10158 ] final -141.38 input  -65.29 | X-H torsion
[ 10718 10713 10712 10709 ] final  157.41 input   66.30 | X-H torsion
[ 10763 10752 10751 10750 ] final  -89.05 input  -60.55 | X-H torsion
[ 11005 11000 10999 10996 ] final -132.21 input  -57.11 | X-H torsion

> <Gold.Protein.ActiveResidues>
 VAL166  LYS551  ARG553  GLY616  TRP617  ASP618  TYR619  PRO620  LYS621  CYS622 
 ASP623  PHE694  ASN695  SER759  ASP760  ASP761  ALA762  ILE779  LEU786  VAL792 
 PHE793  MET794  SER795  GLU796  ALA797  LYS798  CYS799  TRP800  GLU811  SER814 

> <Gold.Protein.RotatedAtoms>
  150.8596  134.7944  159.7072 H   0  0  0  0  0  0  0  0  0  0  0  0  # atno 6907 bound_to 6896
  152.4637  134.5122  159.9767 H   0  0  0  0  0  0  0  0  0  0  0  0  # atno 6908 bound_to 6896
  151.5228  133.3425  159.2940 H   0  0  0  0  0  0  0  0  0  0  0  0  # atno 6909 bound_to 6896
  145.2775  140.9317  143.2951 H   0  0  0  0  0  0  0  0  0  0  0  0  # atno 7974 bound_to 7965
  155.8695  140.3450  155.5811 H   0  0  0  0  0  0  0  0  0  0  0  0  # atno 8008 bound_to 7997
  155.7843  140.0863  157.2062 H   0  0  0  0  0  0  0  0  0  0  0  0  # atno 8009 bound_to 7997
  154.4016  140.1495  156.3076 H   0  0  0  0  0  0  0  0  0  0  0  0  # atno 8010 bound_to 7997
  139.8190  143.7600  152.2665 H   0  0  0  0  0  0  0  0  0  0  0  0  # atno 10167 bound_to 10162
  157.1918  131.0656  151.2075 H   0  0  0  0  0  0  0  0  0  0  0  0  # atno 10718 bound_to 10713
  154.6512  135.5355  153.7903 H   0  0  0  0  0  0  0  0  0  0  0  0  # atno 10763 bound_to 10752
  153.0387  135.6483  154.1014 H   0  0  0  0  0  0  0  0  0  0  0  0  # atno 10764 bound_to 10752
  154.0931  135.2938  155.3247 H   0  0  0  0  0  0  0  0  0  0  0  0  # atno 10765 bound_to 10752
  140.9191  134.1468  157.4329 H   0  0  0  0  0  0  0  0  0  0  0  0  # atno 11005 bound_to 11000
  144.9281  139.4331  143.6508 LP  0  0  0  0  0  0  0  0  0  0  0  0  # atno 17320 bound_to 7965
  146.3227  139.8178  142.8933 LP  0  0  0  0  0  0  0  0  0  0  0  0  # atno 17321 bound_to 7965
  139.7772  144.7457  151.0140 LP  0  0  0  0  0  0  0  0  0  0  0  0  # atno 17342 bound_to 10162
  140.7814  143.4581  151.0317 LP  0  0  0  0  0  0  0  0  0  0  0  0  # atno 17343 bound_to 10162
  157.3853  130.7253  149.6659 LP  0  0  0  0  0  0  0  0  0  0  0  0  # atno 17370 bound_to 10713
  155.9711  130.4161  150.4215 LP  0  0  0  0  0  0  0  0  0  0  0  0  # atno 17371 bound_to 10713
  139.8772  134.9964  156.5795 LP  0  0  0  0  0  0  0  0  0  0  0  0  # atno 17394 bound_to 11000
  140.8011  133.8504  155.8728 LP  0  0  0  0  0  0  0  0  0  0  0  0  # atno 17395 bound_to 11000

$$$$
