AV-unprocessed.smi:373|AV-procd|sdf|2450|dock10
  -GOLD-   2262022393D 1   1.00000     0.00000
 Structure written by MMmdl.
 40 41  0  0  0  0  0  0  0  0  1 V2000
  145.4820  144.1117  161.2466 C   0  0  0  0  0  0  0  0  0  0  0  0
  146.9474  144.2563  161.6743 C   0  0  0  0  0  0  0  0  0  0  0  0
  147.8505  144.7826  160.5517 C   0  0  0  0  0  0  0  0  0  0  0  0
  149.1182  144.1469  160.6368 O   0  0  0  0  0  0  0  0  0  0  0  0
  149.8554  144.1324  159.4216 C   0  0  1  0  0  0  0  0  0  0  0  0
  151.1599  144.9109  159.6643 C   0  0  0  0  0  0  0  0  0  0  0  0
  152.0578  144.8577  158.4184 C   0  0  0  0  0  0  0  0  0  0  0  0
  152.3139  143.4040  157.9892 C   0  0  0  0  0  0  0  0  0  0  0  0
  151.0532  142.6886  157.8070 N   0  0  0  0  0  0  0  0  0  0  0  0
  151.2067  141.4617  157.1356 C   0  0  0  0  0  0  0  0  0  0  0  0
  150.5181  141.2840  155.9820 N   0  0  0  0  0  0  0  0  0  0  0  0
  150.6285  140.1058  155.3334 C   0  0  0  0  0  0  0  0  0  0  0  0
  151.4219  139.0326  155.7965 C   0  0  0  0  0  0  0  0  0  0  0  0
  151.5355  137.7453  155.0325 C   0  0  0  0  0  0  0  0  0  0  0  0
  150.9763  137.7271  153.8186 N   0  0  0  0  0  0  0  0  0  0  0  0
  152.0663  136.7532  155.5282 O   0  0  0  0  0  0  0  0  0  0  0  0
  152.1512  139.2259  156.9886 C   0  0  0  0  0  0  0  0  0  0  0  0
  152.0426  140.4518  157.6738 C   0  0  0  0  0  0  0  0  0  0  0  0
  152.9476  140.6927  159.1282 Cl  0  0  0  0  0  0  0  0  0  0  0  0
  150.1716  142.6890  158.9743 C   0  0  0  0  0  0  0  0  0  0  0  0
  144.8713  143.7486  162.0735 H   0  0  0  0  0  0  0  0  0  0  0  0
  145.3783  143.4052  160.4228 H   0  0  0  0  0  0  0  0  0  0  0  0
  145.0696  145.0676  160.9227 H   0  0  0  0  0  0  0  0  0  0  0  0
  147.0018  144.9374  162.5241 H   0  0  0  0  0  0  0  0  0  0  0  0
  147.3238  143.2955  162.0274 H   0  0  0  0  0  0  0  0  0  0  0  0
  147.3847  144.6018  159.5827 H   0  0  0  0  0  0  0  0  0  0  0  0
  147.9706  145.8614  160.6602 H   0  0  0  0  0  0  0  0  0  0  0  0
  149.2907  144.6452  158.6406 H   0  0  0  0  0  0  0  0  0  0  0  0
  150.9380  145.9469  159.9227 H   0  0  0  0  0  0  0  0  0  0  0  0
  151.6919  144.4834  160.5155 H   0  0  0  0  0  0  0  0  0  0  0  0
  151.5818  145.4004  157.6006 H   0  0  0  0  0  0  0  0  0  0  0  0
  153.0044  145.3611  158.6161 H   0  0  0  0  0  0  0  0  0  0  0  0
  152.9022  143.3896  157.0713 H   0  0  0  0  0  0  0  0  0  0  0  0
  152.9044  142.8900  158.7489 H   0  0  0  0  0  0  0  0  0  0  0  0
  150.0633  140.0278  154.4159 H   0  0  0  0  0  0  0  0  0  0  0  0
  151.0228  136.8932  153.2515 H   0  0  0  0  0  0  0  0  0  0  0  0
  150.5123  138.5536  153.4701 H   0  0  0  0  0  0  0  0  0  0  0  0
  152.7878  138.4456  157.3805 H   0  0  0  0  0  0  0  0  0  0  0  0
  150.6501  142.1466  159.7912 H   0  0  0  0  0  0  0  0  0  0  0  0
  149.2531  142.1564  158.7271 H   0  0  0  0  0  0  0  0  0  0  0  0
  1  2  1  0  0  0  0
  1 21  1  0  0  0  0
  1 22  1  0  0  0  0
  1 23  1  0  0  0  0
  2  3  1  0  0  0  0
  2 24  1  0  0  0  0
  2 25  1  0  0  0  0
  3  4  1  0  0  0  0
  3 26  1  0  0  0  0
  3 27  1  0  0  0  0
  4  5  1  0  0  0  0
  5 20  1  0  0  0  0
  5  6  1  0  0  0  0
  5 28  1  0  0  0  0
  6  7  1  0  0  0  0
  6 29  1  0  0  0  0
  6 30  1  0  0  0  0
  7  8  1  0  0  0  0
  7 31  1  0  0  0  0
  7 32  1  0  0  0  0
  8  9  1  0  0  0  0
  8 33  1  0  0  0  0
  8 34  1  0  0  0  0
  9 10  1  0  0  0  0
  9 20  1  0  0  0  0
 10 18  1  0  0  0  0
 10 11  2  0  0  0  0
 11 12  1  0  0  0  0
 12 13  2  0  0  0  0
 12 35  1  0  0  0  0
 13 14  1  0  0  0  0
 13 17  1  0  0  0  0
 14 15  1  0  0  0  0
 14 16  2  0  0  0  0
 15 36  1  0  0  0  0
 15 37  1  0  0  0  0
 17 18  2  0  0  0  0
 17 38  1  0  0  0  0
 18 19  1  0  0  0  0
 20 39  1  0  0  0  0
 20 40  1  0  0  0  0
M  END
> <s_m_source_file>
AV-unprocessed.smi

> <i_m_source_file_index>
373

> <i_lp_mmshare_version>
43012

> <i_f3d_flags>
0

> <s_epik_input>
W0NIM11bQ0gyXVtDSDJdT1tDQEBIXTFbQ0gyXVtDSDJdW0NIMl1OKFtDSDJdMSljMm5bY0hdYyhDKD1PKVtOSDJdKVtjSF1jMkNs

> <s_epik_cmdline>
J2VwaWtfcHl0aG9uJywgJy1waCcsICc3LjAnLCAnLXRuJywgJzgnLCAnLW1hJywgJzIwMCcsICctbWV0YWxfYmluZGluZycsICctaW1hZScsICc8aW5maWxlLm1hZT4nLCAnLW9tYWUnLCAnPG91dGZpbGUubWFlPic=

> <r_lp_tautomer_probability>
1

> <r_epik_Ionization_Penalty>
3.23666e-05

> <r_epik_Ionization_Penalty_Charging>
0

> <r_epik_Ionization_Penalty_Neutral>
3.23666e-05

> <r_epik_State_Penalty>
-0

> <r_epik_Charging_Adjusted_Penalty>
0

> <i_epik_Tot_Q>
0

> <i_epik_Tot_abs_Q>
0

> <r_epik_Metal_State_Penalty>
-0

> <b_epik_Metal_Only>
0

> <s_lp_Force_Field>
OPLS_2005

> <r_lp_Energy>
19.6268

> <b_lp_Chiralities_Consistent>
1

> <s_lp_Variant>
AV-unprocessed.smi:373-2

> <Gold.Version>
5.8.1

> <Gold.Id.Protein>
6NUR|6NUR_protein|mol2

> <Gold.PLP.Fitness>
46.1942

> <Gold.PLP.PLP>
-41.3240

> <Gold.PLP.part.hbond>
-3.4908

> <Gold.PLP.part.metal>
0.0000

> <Gold.PLP.part.buried>
-6.7342

> <Gold.PLP.part.nonpolar>
-32.1733

> <Gold.PLP.part.repulsive>
0.4934

> <Gold.PLP.ligand.clash>
0.0000

> <Gold.PLP.ligand.torsion>
1.4054

> <Gold.PLP.Chemscore.Hbond>
2.4662

> <Gold.PLP.Chemscore.CHOScore>
0.0000

> <Gold.PLP.Chemscore.Metal>
0.0000

> <Gold.Chemscore.Hbonds>
donor molecule, donor type, donor heavy atom, donor atom, acceptor molecule, acceptor atom, score
      L1  H    15    36       P1  7949  1.00
      P1  H  6933  6944       L1     4  0.59
      P1  H 10752 10763       L1    16  0.98

> <Gold.PLP.Chemscore.Internal.Correction>
0.2823

> <Gold.Rescore>
     Score         DG    S(hbond)    S(metal)    S(lipo)     H(rot)  DE(clash)    DE(int)     intcor
     16.85     -19.79       2.08        0.00      97.26       1.57       0.73       2.21       ----

> <Gold.Chemscore.Fitness>
16.8469

> <Gold.Chemscore.DG>
-19.7903

> <Gold.Chemscore.ZeroCoef>
-5.4800

> <Gold.Chemscore.Hbond>
2.0799

> <Gold.Chemscore.Metal>
0.0000

> <Gold.Chemscore.Lipo>
97.2594

> <Gold.Chemscore.Internal_Hbond>
0.0000

> <Gold.Chemscore.DEClash>
0.7286

> <Gold.Chemscore.DEInternal>
2.2148

> <Gold.Chemscore.Rot>
1.5687

> <Gold.Chemscore.Internal.Correction>
   9.000000E+99

> <Gold.Chemscore.Hbonds>
donor molecule, donor type, donor heavy atom, donor atom, acceptor molecule, acceptor atom, score
      L1  H    15    36       P1  7949  0.28
      P1  H  6933  6944       L1     4  0.14
      P1  H 10752 10763       L1    16  0.93

> <Gold.Chemscore.Hbond.Weighted>
-6.9468

> <Gold.Chemscore.Metal.Weighted>
-0.0000

> <Gold.Chemscore.Lipo.Weighted>
-11.3794

> <Gold.Chemscore.Internal_Hbond.Weighted>
0.0000

> <Gold.Chemscore.DEClash.Weighted>
0.7286

> <Gold.Chemscore.DEInternal.Weighted>
2.2148

> <Gold.Chemscore.Rot.Weighted>
4.0158

> <Gold.Chemscore.Internal.Correction.Weighted>
   9.000000E+99

> <Gold.Protein.RotatedTorsions>
[ 6907 6896 6895 6894 ] final  147.41 input  -60.11 | X-H torsion
[ 7974 7965 7964 7962 ] final -153.34 input  175.53 | X-H torsion
[ 8008 7997 7996 7995 ] final  -47.07 input   59.86 | X-H torsion
[ 10167 10162 10161 10158 ] final   35.16 input  -65.29 | X-H torsion
[ 10718 10713 10712 10709 ] final  179.99 input   66.30 | X-H torsion
[ 10763 10752 10751 10750 ] final   61.22 input  -60.55 | X-H torsion
[ 11005 11000 10999 10996 ] final  -83.29 input  -57.11 | X-H torsion

> <Gold.Protein.ActiveResidues>
 VAL166  LYS551  ARG553  GLY616  TRP617  ASP618  TYR619  PRO620  LYS621  CYS622 
 ASP623  PHE694  ASN695  SER759  ASP760  ASP761  ALA762  ILE779  LEU786  VAL792 
 PHE793  MET794  SER795  GLU796  ALA797  LYS798  CYS799  TRP800  GLU811  SER814 

> <Gold.Protein.RotatedAtoms>
  152.1551  133.4546  159.4832 H   0  0  0  0  0  0  0  0  0  0  0  0  # atno 6907 bound_to 6896
  150.6900  134.2141  159.4380 H   0  0  0  0  0  0  0  0  0  0  0  0  # atno 6908 bound_to 6896
  152.0040  134.9912  160.0616 H   0  0  0  0  0  0  0  0  0  0  0  0  # atno 6909 bound_to 6896
  144.7746  140.4539  143.5883 H   0  0  0  0  0  0  0  0  0  0  0  0  # atno 7974 bound_to 7965
  154.4013  140.1355  156.4114 H   0  0  0  0  0  0  0  0  0  0  0  0  # atno 8008 bound_to 7997
  155.7729  140.3483  155.5236 H   0  0  0  0  0  0  0  0  0  0  0  0  # atno 8009 bound_to 7997
  155.8749  140.0978  157.1515 H   0  0  0  0  0  0  0  0  0  0  0  0  # atno 8010 bound_to 7997
  140.4247  144.1409  150.6152 H   0  0  0  0  0  0  0  0  0  0  0  0  # atno 10167 bound_to 10162
  156.8676  130.9773  151.3077 H   0  0  0  0  0  0  0  0  0  0  0  0  # atno 10718 bound_to 10713
  152.9944  135.5508  154.5999 H   0  0  0  0  0  0  0  0  0  0  0  0  # atno 10763 bound_to 10752
  154.5342  135.2815  155.1155 H   0  0  0  0  0  0  0  0  0  0  0  0  # atno 10764 bound_to 10752
  154.2458  135.6408  153.5275 H   0  0  0  0  0  0  0  0  0  0  0  0  # atno 10765 bound_to 10752
  141.1658  133.7287  156.8699 H   0  0  0  0  0  0  0  0  0  0  0  0  # atno 11005 bound_to 11000
  145.6224  139.1526  143.3015 LP  0  0  0  0  0  0  0  0  0  0  0  0  # atno 17320 bound_to 7965
  146.1916  140.6333  142.9143 LP  0  0  0  0  0  0  0  0  0  0  0  0  # atno 17321 bound_to 7965
  140.4494  143.2493  151.9368 LP  0  0  0  0  0  0  0  0  0  0  0  0  # atno 17342 bound_to 10162
  139.4783  144.5577  151.8288 LP  0  0  0  0  0  0  0  0  0  0  0  0  # atno 17343 bound_to 10162
  157.6214  130.8658  149.9115 LP  0  0  0  0  0  0  0  0  0  0  0  0  # atno 17370 bound_to 10713
  156.0743  130.3681  150.0710 LP  0  0  0  0  0  0  0  0  0  0  0  0  # atno 17371 bound_to 10713
  140.1789  134.9047  157.2924 LP  0  0  0  0  0  0  0  0  0  0  0  0  # atno 17394 bound_to 11000
  140.2417  134.3787  155.7478 LP  0  0  0  0  0  0  0  0  0  0  0  0  # atno 17395 bound_to 11000

$$$$
