AV-unprocessed.smi:2658|AV-procd|sdf|10308|dock1
  -GOLD-   2272014323D 1   1.00000     0.00000
 Structure written by MMmdl.
 46 48  0  0  0  0  0  0  0  0  1 V2000
  153.1756  142.5206  161.5792 C   0  0  0  0  0  0  0  0  0  0  0  0
  152.5377  142.2622  160.2255 C   0  0  0  0  0  0  0  0  0  0  0  0
  152.8858  141.0919  159.5141 C   0  0  0  0  0  0  0  0  0  0  0  0
  152.3145  140.8140  158.2531 C   0  0  0  0  0  0  0  0  0  0  0  0
  152.5088  139.7455  157.3945 N   0  0  0  0  0  0  0  0  0  0  0  0
  151.6970  140.0590  156.3889 C   0  0  0  0  0  0  0  0  0  0  0  0
  151.0002  141.2067  156.4939 N   0  0  0  0  0  0  0  0  0  0  0  0
  150.0594  141.7472  155.5284 C   0  0  0  0  0  0  0  0  0  0  0  0
  149.2758  140.6476  154.7859 C   0  0  2  0  0  0  0  0  0  0  0  0
  150.0917  140.1123  153.7620 O   0  0  0  0  0  0  0  0  0  0  0  0
  147.9888  141.1960  154.1501 C   0  0  0  0  0  0  0  0  0  0  0  0
  147.0544  141.5002  155.1816 O   0  0  0  0  0  0  0  0  0  0  0  0
  146.1175  142.4856  154.9486 C   0  0  0  0  0  0  0  0  0  0  0  0
  146.1603  143.1907  153.7309 C   0  0  0  0  0  0  0  0  0  0  0  0
  145.1915  144.1887  153.5158 C   0  0  0  0  0  0  0  0  0  0  0  0
  145.1748  144.9885  152.2268 C   0  0  0  0  0  0  0  0  0  0  0  0
  144.2483  144.4037  154.5458 C   0  0  0  0  0  0  0  0  0  0  0  0
  143.1582  145.4522  154.4237 C   0  0  0  0  0  0  0  0  0  0  0  0
  144.2587  143.6924  155.6973 N   0  0  0  0  0  0  0  0  0  0  0  0
  145.1807  142.7452  155.8974 N   0  0  0  0  0  0  0  0  0  0  0  0
  151.3772  141.7460  157.7191 C   0  0  0  0  0  0  0  0  0  0  0  0
  151.0238  142.9145  158.4165 C   0  0  0  0  0  0  0  0  0  0  0  0
  151.6036  143.1767  159.6754 C   0  0  0  0  0  0  0  0  0  0  0  0
  151.2134  144.4402  160.4217 C   0  0  0  0  0  0  0  0  0  0  0  0
  153.8840  141.7347  161.8425 H   0  0  0  0  0  0  0  0  0  0  0  0
  152.4140  142.5599  162.3582 H   0  0  0  0  0  0  0  0  0  0  0  0
  153.7155  143.4676  161.5734 H   0  0  0  0  0  0  0  0  0  0  0  0
  153.5968  140.3948  159.9325 H   0  0  0  0  0  0  0  0  0  0  0  0
  151.6037  139.4182  155.5244 H   0  0  0  0  0  0  0  0  0  0  0  0
  149.3713  142.4059  156.0599 H   0  0  0  0  0  0  0  0  0  0  0  0
  150.6036  142.3740  154.8208 H   0  0  0  0  0  0  0  0  0  0  0  0
  149.0258  139.8539  155.4912 H   0  0  0  0  0  0  0  0  0  0  0  0
  149.6256  140.1784  152.9424 H   0  0  0  0  0  0  0  0  0  0  0  0
  148.2180  142.1184  153.6132 H   0  0  0  0  0  0  0  0  0  0  0  0
  147.5790  140.4876  153.4274 H   0  0  0  0  0  0  0  0  0  0  0  0
  146.9132  142.9681  152.9893 H   0  0  0  0  0  0  0  0  0  0  0  0
  144.2492  144.8080  151.6800 H   0  0  0  0  0  0  0  0  0  0  0  0
  146.0085  144.7134  151.5805 H   0  0  0  0  0  0  0  0  0  0  0  0
  145.2502  146.0553  152.4380 H   0  0  0  0  0  0  0  0  0  0  0  0
  143.5964  146.4469  154.3375 H   0  0  0  0  0  0  0  0  0  0  0  0
  142.5003  145.4481  155.2938 H   0  0  0  0  0  0  0  0  0  0  0  0
  142.5471  145.2655  153.5405 H   0  0  0  0  0  0  0  0  0  0  0  0
  150.3131  143.6036  157.9846 H   0  0  0  0  0  0  0  0  0  0  0  0
  150.4892  145.0283  159.8572 H   0  0  0  0  0  0  0  0  0  0  0  0
  152.0884  145.0664  160.5971 H   0  0  0  0  0  0  0  0  0  0  0  0
  150.7653  144.1920  161.3842 H   0  0  0  0  0  0  0  0  0  0  0  0
  1  2  1  0  0  0  0
  1 25  1  0  0  0  0
  1 26  1  0  0  0  0
  1 27  1  0  0  0  0
  2 23  1  0  0  0  0
  2  3  2  0  0  0  0
  3  4  1  0  0  0  0
  3 28  1  0  0  0  0
  4 21  2  0  0  0  0
  4  5  1  0  0  0  0
  5  6  2  0  0  0  0
  6  7  1  0  0  0  0
  6 29  1  0  0  0  0
  7  8  1  0  0  0  0
  7 21  1  0  0  0  0
  8  9  1  0  0  0  0
  8 30  1  0  0  0  0
  8 31  1  0  0  0  0
  9 10  1  0  0  0  0
  9 11  1  0  0  0  0
  9 32  1  0  0  0  0
 10 33  1  0  0  0  0
 11 12  1  0  0  0  0
 11 34  1  0  0  0  0
 11 35  1  0  0  0  0
 12 13  1  0  0  0  0
 13 20  1  0  0  0  0
 13 14  2  0  0  0  0
 14 15  1  0  0  0  0
 14 36  1  0  0  0  0
 15 16  1  0  0  0  0
 15 17  2  0  0  0  0
 16 37  1  0  0  0  0
 16 38  1  0  0  0  0
 16 39  1  0  0  0  0
 17 18  1  0  0  0  0
 17 19  1  0  0  0  0
 18 40  1  0  0  0  0
 18 41  1  0  0  0  0
 18 42  1  0  0  0  0
 19 20  2  0  0  0  0
 21 22  1  0  0  0  0
 22 23  2  0  0  0  0
 22 43  1  0  0  0  0
 23 24  1  0  0  0  0
 24 44  1  0  0  0  0
 24 45  1  0  0  0  0
 24 46  1  0  0  0  0
M  END
> <s_m_source_file>
AV-unprocessed.smi

> <i_m_source_file_index>
2658

> <i_lp_mmshare_version>
43012

> <i_f3d_flags>
0

> <s_epik_input>
W0NIM11jKFtjSF0xKWMoW0NIM10pW2NIXWMoYzEyKW4oW2NIXW4yKVtDSDJdW0NASF0oW09IXSlbQ0gyXU9jM1tjSF1jKFtDSDNdKWMoW0NIM10pbm4z

> <s_epik_cmdline>
J2VwaWtfcHl0aG9uJywgJy1waCcsICc3LjAnLCAnLXRuJywgJzgnLCAnLW1hJywgJzIwMCcsICctbWV0YWxfYmluZGluZycsICctaW1hZScsICc8aW5maWxlLm1hZT4nLCAnLW9tYWUnLCAnPG91dGZpbGUubWFlPic=

> <r_lp_tautomer_probability>
1

> <r_epik_Ionization_Penalty>
0.110663

> <r_epik_Ionization_Penalty_Charging>
0

> <r_epik_Ionization_Penalty_Neutral>
0.110663

> <r_epik_State_Penalty>
0.100267

> <r_epik_Charging_Adjusted_Penalty>
0.100267

> <i_epik_Tot_Q>
0

> <i_epik_Tot_abs_Q>
0

> <r_epik_Metal_State_Penalty>
0.0843924

> <b_epik_Metal_Only>
0

> <s_lp_Force_Field>
OPLS_2005

> <r_lp_Energy>
14.8885

> <b_lp_Chiralities_Consistent>
1

> <s_lp_Variant>
AV-unprocessed.smi:2658-1

> <Gold.Version>
5.8.1

> <Gold.Id.Protein>
6NUR|6NUR_protein|mol2

> <Gold.PLP.Fitness>
63.1998

> <Gold.PLP.PLP>
-56.3665

> <Gold.PLP.part.hbond>
-3.0000

> <Gold.PLP.part.metal>
0.0000

> <Gold.PLP.part.buried>
-7.5407

> <Gold.PLP.part.nonpolar>
-44.0697

> <Gold.PLP.part.repulsive>
0.3341

> <Gold.PLP.ligand.clash>
0.4266

> <Gold.PLP.ligand.torsion>
0.7696

> <Gold.PLP.Chemscore.Hbond>
2.8960

> <Gold.PLP.Chemscore.CHOScore>
0.0000

> <Gold.PLP.Chemscore.Metal>
0.0000

> <Gold.Chemscore.Hbonds>
donor molecule, donor type, donor heavy atom, donor atom, acceptor molecule, acceptor atom, score
      L1  H    10    33       P1  7957  0.99
      P1  H  7989  7998       L1    10  0.78
      P1  H  7997  8008       L1     5  0.99

> <Gold.PLP.Chemscore.Internal.Correction>
0.1112

> <Gold.Rescore>
     Score         DG    S(hbond)    S(metal)    S(lipo)     H(rot)  DE(clash)    DE(int)     intcor
     21.45     -22.38       2.09        0.00     137.27       2.40       0.20       0.74       ----

> <Gold.Chemscore.Fitness>
21.4463

> <Gold.Chemscore.DG>
-22.3768

> <Gold.Chemscore.ZeroCoef>
-5.4800

> <Gold.Chemscore.Hbond>
2.0888

> <Gold.Chemscore.Metal>
0.0000

> <Gold.Chemscore.Lipo>
137.2654

> <Gold.Chemscore.Internal_Hbond>
0.0000

> <Gold.Chemscore.DEClash>
0.1954

> <Gold.Chemscore.DEInternal>
0.7351

> <Gold.Chemscore.Rot>
2.3983

> <Gold.Chemscore.Internal.Correction>
   9.000000E+99

> <Gold.Chemscore.Hbonds>
donor molecule, donor type, donor heavy atom, donor atom, acceptor molecule, acceptor atom, score
      L1  H    10    33       P1  7957  0.93
      P1  H  7989  7998       L1    10  0.34
      P1  H  7997  8008       L1     5  0.18

> <Gold.Chemscore.Hbond.Weighted>
-6.9764

> <Gold.Chemscore.Metal.Weighted>
-0.0000

> <Gold.Chemscore.Lipo.Weighted>
-16.0601

> <Gold.Chemscore.Internal_Hbond.Weighted>
0.0000

> <Gold.Chemscore.DEClash.Weighted>
0.1954

> <Gold.Chemscore.DEInternal.Weighted>
0.7351

> <Gold.Chemscore.Rot.Weighted>
6.1397

> <Gold.Chemscore.Internal.Correction.Weighted>
   9.000000E+99

> <Gold.Protein.RotatedTorsions>
[ 6907 6896 6895 6894 ] final -118.84 input  -60.11 | X-H torsion
[ 7974 7965 7964 7962 ] final  -93.98 input  175.53 | X-H torsion
[ 8008 7997 7996 7995 ] final  -64.86 input   59.86 | X-H torsion
[ 10167 10162 10161 10158 ] final -106.03 input  -65.29 | X-H torsion
[ 10718 10713 10712 10709 ] final   17.28 input   66.30 | X-H torsion
[ 10763 10752 10751 10750 ] final  169.81 input  -60.55 | X-H torsion
[ 11005 11000 10999 10996 ] final   -9.92 input  -57.11 | X-H torsion

> <Gold.Protein.ActiveResidues>
 VAL166  LYS551  ARG553  GLY616  TRP617  ASP618  TYR619  PRO620  LYS621  CYS622 
 ASP623  PHE694  ASN695  SER759  ASP760  ASP761  ALA762  ILE779  LEU786  VAL792 
 PHE793  MET794  SER795  GLU796  ALA797  LYS798  CYS799  TRP800  GLU811  SER814 

> <Gold.Protein.RotatedAtoms>
  150.8254  133.8181  159.3120 H   0  0  0  0  0  0  0  0  0  0  0  0  # atno 6907 bound_to 6896
  151.5926  135.1051  160.0052 H   0  0  0  0  0  0  0  0  0  0  0  0  # atno 6908 bound_to 6896
  152.4340  133.7286  159.6631 H   0  0  0  0  0  0  0  0  0  0  0  0  # atno 6909 bound_to 6896
  145.3794  140.9515  143.2402 H   0  0  0  0  0  0  0  0  0  0  0  0  # atno 7974 bound_to 7965
  154.4637  140.0945  156.6962 H   0  0  0  0  0  0  0  0  0  0  0  0  # atno 8008 bound_to 7997
  155.4920  140.3471  155.4338 H   0  0  0  0  0  0  0  0  0  0  0  0  # atno 8009 bound_to 7997
  156.0917  140.1399  156.9572 H   0  0  0  0  0  0  0  0  0  0  0  0  # atno 8010 bound_to 7997
  140.1922  143.3883  152.1197 H   0  0  0  0  0  0  0  0  0  0  0  0  # atno 10167 bound_to 10162
  157.0799  130.6383  149.5824 H   0  0  0  0  0  0  0  0  0  0  0  0  # atno 10718 bound_to 10713
  154.3886  135.2754  155.2169 H   0  0  0  0  0  0  0  0  0  0  0  0  # atno 10763 bound_to 10752
  154.4245  135.5992  153.6033 H   0  0  0  0  0  0  0  0  0  0  0  0  # atno 10764 bound_to 10752
  152.9832  135.5980  154.4137 H   0  0  0  0  0  0  0  0  0  0  0  0  # atno 10765 bound_to 10752
  140.7393  133.8684  155.8954 H   0  0  0  0  0  0  0  0  0  0  0  0  # atno 11005 bound_to 11000
  144.8519  139.5309  143.6852 LP  0  0  0  0  0  0  0  0  0  0  0  0  # atno 17320 bound_to 7965
  146.2849  139.6977  142.9203 LP  0  0  0  0  0  0  0  0  0  0  0  0  # atno 17321 bound_to 7965
  139.5251  144.7092  151.5259 LP  0  0  0  0  0  0  0  0  0  0  0  0  # atno 17342 bound_to 10162
  140.6448  143.8816  150.6726 LP  0  0  0  0  0  0  0  0  0  0  0  0  # atno 17343 bound_to 10162
  155.9926  130.4985  150.7349 LP  0  0  0  0  0  0  0  0  0  0  0  0  # atno 17370 bound_to 10713
  157.4809  131.0902  151.0537 LP  0  0  0  0  0  0  0  0  0  0  0  0  # atno 17371 bound_to 10713
  140.9851  134.1353  157.4459 LP  0  0  0  0  0  0  0  0  0  0  0  0  # atno 17394 bound_to 11000
  139.8809  135.0023  156.6118 LP  0  0  0  0  0  0  0  0  0  0  0  0  # atno 17395 bound_to 11000

$$$$
