#       Name:                AV-unprocessed.smi:2030
#       Creating user name   scv26
#       Creation time:       Fri Mar 27 10:49:50 2020


#       File generated by GOLD software.
#

@<TRIPOS>MOLECULE
AV-unprocessed.smi:2030
    41    42     1
SMALL
NO_CHARGES


@<TRIPOS>ATOM
      1 ****        -3.3796  -1.0692   0.6265 C.3            1 S1                 0.0000
      2 ****        -2.9986   0.3307   0.8108 N.am           1 S1                 0.0000
      3 ****        -1.6342   0.5327   0.8268 N.2            1 S1                 0.0000
      4 ****        -1.1039   1.7136   0.7469 C.2            1 S1                 0.0000
      5 ****         0.3828   1.8544   0.7337 C.2            1 S1                 0.0000
      6 ****         0.8027   2.9972   0.5146 O.2            1 S1                 0.0000
      7 ****         1.1465   0.7415   0.9470 N.pl3          1 S1                -1.0000
      8 ****         2.6073   0.6957   0.8865 C.3            1 S1                 0.0000
      9 ****         3.0820  -0.7692   0.7703 C.3            1 S1                 0.0000
     10 ****         2.6249  -1.4858  -0.4968 C.ar           1 S1                 0.0000
     11 ****         1.4932  -2.3331  -0.5105 C.ar           1 S1                 0.0000
     12 ****         1.1129  -2.9615  -1.7139 C.ar           1 S1                 0.0000
     13 ****         1.8743  -2.7384  -2.8796 C.ar           1 S1                 0.0000
     14 ****         2.9984  -1.8905  -2.8117 C.ar           1 S1                 0.0000
     15 ****         3.3299  -1.3053  -1.6402 N.pl3          1 S1                 1.0000
     16 ****        -1.9872   2.9418   0.6241 C.3            1 S1                 0.0000
     17 ****        -3.3799   2.7183   1.2437 C.3            1 S1                 0.0000
     18 ****        -3.9219   1.3146   0.9613 C.2            1 S1                 0.0000
     19 ****        -5.1386   1.1355   0.9064 O.2            1 S1                 0.0000
     20 ****        -4.4527  -1.2479   0.7038 H              1 S1                 0.0000
     21 ****        -2.8935  -1.6929   1.3778 H              1 S1                 0.0000
     22 ****        -3.0574  -1.4163  -0.3558 H              1 S1                 0.0000
     23 ****         3.0016   1.2588   0.0394 H              1 S1                 0.0000
     24 ****         3.0550   1.1407   1.7753 H              1 S1                 0.0000
     25 ****         4.1718  -0.7948   0.8041 H              1 S1                 0.0000
     26 ****         2.7452  -1.3362   1.6393 H              1 S1                 0.0000
     27 ****         0.9150  -2.4853   0.3895 H              1 S1                 0.0000
     28 ****         0.2458  -3.6048  -1.7419 H              1 S1                 0.0000
     29 ****         1.5984  -3.2084  -3.8121 H              1 S1                 0.0000
     30 ****         3.6359  -1.6610  -3.6528 H              1 S1                 0.0000
     31 ****        -1.5300   3.7987   1.1200 H              1 S1                 0.0000
     32 ****        -2.0856   3.2102  -0.4283 H              1 S1                 0.0000
     33 ****        -3.3211   2.8339   2.3265 H              1 S1                 0.0000
     34 ****        -4.0806   3.4726   0.8842 H              1 S1                 0.0000
     35 ****         4.1427  -0.6895  -1.6152 H              1 S1                 0.0000
     36 ****        -1.0312  -0.2614   0.9029 LP             1 S1                 0.0000
     37 ****         0.1578   3.7461   0.3622 LP             1 S1                 0.0000
     38 ****         1.7869   3.1720   0.4899 LP             1 S1                 0.0000
     39 ****         0.6682  -0.1101   1.1617 LP             1 S1                 0.0000
     40 ****        -5.5021   0.2185   0.7418 LP             1 S1                 0.0000
     41 ****        -5.7635   1.9069   1.0264 LP             1 S1                 0.0000
@<TRIPOS>BOND
    1    1    2 1     
    2    1   20 1     
    3    1   21 1     
    4    1   22 1     
    5    2   18 am    
    6    2    3 1     
    7    3    4 2     
    8    4    5 1     
    9    4   16 1     
   10    5    6 2     
   11    5    7 1     
   12    7    8 1     
   13    8    9 1     
   14    8   23 1     
   15    8   24 1     
   16    9   10 1     
   17    9   25 1     
   18    9   26 1     
   19   10   15 ar    
   20   10   11 ar    
   21   11   12 ar    
   22   11   27 1     
   23   12   13 ar    
   24   12   28 1     
   25   13   14 ar    
   26   13   29 1     
   27   14   15 ar    
   28   14   30 1     
   29   15   35 1     
   30   16   17 1     
   31   16   31 1     
   32   16   32 1     
   33   17   18 1     
   34   17   33 1     
   35   17   34 1     
   36   18   19 2     
   37    3   36 1     
   38    6   37 1     
   39    6   38 1     
   40    7   39 1     
   41   19   40 1     
   42   19   41 1     
@<TRIPOS>SUBSTRUCTURE
      1 S1             1
@<TRIPOS>SET
LONE_PAIRS      STATIC     ATOMS    <user>   **** ""
6 36 37 38 39 40 41
DONOR_HYDROGENS      STATIC     ATOMS    <user>   **** ""
1 35
ATOM$BLUE        STATIC     ATOMS    COLORGROUP SYSTEM
6 36 37 38 39 40 41
ATOM$RED        STATIC     ATOMS    COLORGROUP SYSTEM
1 35
