AV-unprocessed.smi:92|AV-procd|sdf|846|dock7
  -GOLD-   2262017283D 1   1.00000     0.00000
 Structure written by MMmdl.
 61 64  0  0  0  0  0  0  0  0  2 V2000
  152.0078  143.8229  157.8771 C   0  0  0  0  0  0  0  0  0  0  0  0
  151.6571  142.7617  156.8245 C   0  0  0  0  0  0  0  0  0  0  0  0
  151.5281  141.4001  157.4092 N   0  3  1  0  0  0  0  0  0  0  0  0
  150.1815  141.1224  157.9702 C   0  0  0  0  0  0  0  0  0  0  0  0
  149.1450  140.8762  156.8626 C   0  0  0  0  0  0  0  0  0  0  0  0
  149.5858  139.7219  155.9390 C   0  0  1  0  0  0  0  0  0  0  0  0
  148.5976  139.4670  154.8807 N   0  0  0  0  0  0  0  0  0  0  0  0
  147.9598  140.5791  154.1800 C   0  0  0  0  0  0  0  0  0  0  0  0
  147.9865  138.2525  154.7959 C   0  0  0  0  0  0  0  0  0  0  0  0
  148.1543  137.3504  155.7999 N   0  0  0  0  0  0  0  0  0  0  0  0
  147.5594  136.1558  155.7486 C   0  0  0  0  0  0  0  0  0  0  0  0
  146.7669  135.6607  154.7984 N   0  0  0  0  0  0  0  0  0  0  0  0
  146.5961  136.5504  153.7796 C   0  0  0  0  0  0  0  0  0  0  0  0
  147.1642  137.8554  153.6993 C   0  0  0  0  0  0  0  0  0  0  0  0
  146.7775  138.4597  152.5084 N   0  0  0  0  0  0  0  0  0  0  0  0
  146.0199  137.5719  151.9260 C   0  0  0  0  0  0  0  0  0  0  0  0
  145.8544  136.3942  152.6187 N   0  0  0  0  0  0  0  0  0  0  0  0
  145.0754  135.2624  152.1969 C   0  0  0  0  0  0  0  0  0  0  0  0
  145.6296  133.8360  152.2780 C   0  0  0  0  0  0  0  0  0  0  0  0
  144.9118  133.4779  150.9548 C   0  0  0  0  0  0  0  0  0  0  0  0
  145.7385  132.6902  149.9210 C   0  0  0  0  0  0  0  0  0  0  0  0
  146.1045  131.4023  150.3748 O   0  0  0  0  0  0  0  0  0  0  0  0
  143.5883  132.6945  151.0881 C   0  0  0  0  0  0  0  0  0  0  0  0
  142.9246  132.4941  149.8562 O   0  0  0  0  0  0  0  0  0  0  0  0
  144.7827  135.0012  150.7155 C   0  0  0  0  0  0  0  0  0  0  0  0
  151.0054  139.9853  155.3764 C   0  0  2  0  0  0  0  0  0  0  0  0
  151.5233  138.7986  154.5447 C   0  0  0  0  0  0  0  0  0  0  0  0
  151.9904  140.2925  156.5291 C   0  0  0  0  0  0  0  0  0  0  0  0
  151.9973  144.8185  157.4331 H   0  0  0  0  0  0  0  0  0  0  0  0
  153.0000  143.6705  158.3001 H   0  0  0  0  0  0  0  0  0  0  0  0
  151.2869  143.8200  158.6951 H   0  0  0  0  0  0  0  0  0  0  0  0
  150.7036  143.0458  156.3775 H   0  0  0  0  0  0  0  0  0  0  0  0
  152.3858  142.7735  156.0143 H   0  0  0  0  0  0  0  0  0  0  0  0
  150.2476  140.2399  158.6082 H   0  0  0  0  0  0  0  0  0  0  0  0
  149.8640  141.9403  158.6178 H   0  0  0  0  0  0  0  0  0  0  0  0
  148.1814  140.6444  157.3169 H   0  0  0  0  0  0  0  0  0  0  0  0
  148.9965  141.7925  156.2910 H   0  0  0  0  0  0  0  0  0  0  0  0
  149.6746  138.8247  156.5529 H   0  0  0  0  0  0  0  0  0  0  0  0
  146.8759  140.4608  154.1537 H   0  0  0  0  0  0  0  0  0  0  0  0
  148.3261  140.6372  153.1550 H   0  0  0  0  0  0  0  0  0  0  0  0
  148.1700  141.5336  154.6607 H   0  0  0  0  0  0  0  0  0  0  0  0
  147.7438  135.5034  156.5892 H   0  0  0  0  0  0  0  0  0  0  0  0
  145.5597  137.7555  150.9660 H   0  0  0  0  0  0  0  0  0  0  0  0
  144.1367  135.3201  152.7499 H   0  0  0  0  0  0  0  0  0  0  0  0
  146.7173  133.8022  152.2088 H   0  0  0  0  0  0  0  0  0  0  0  0
  145.2863  133.2752  153.1478 H   0  0  0  0  0  0  0  0  0  0  0  0
  145.1807  132.5668  148.9920 H   0  0  0  0  0  0  0  0  0  0  0  0
  146.6549  133.2249  149.6687 H   0  0  0  0  0  0  0  0  0  0  0  0
  147.0473  131.3387  150.3727 H   0  0  0  0  0  0  0  0  0  0  0  0
  143.7635  131.7129  151.5300 H   0  0  0  0  0  0  0  0  0  0  0  0
  142.8973  133.2157  151.7516 H   0  0  0  0  0  0  0  0  0  0  0  0
  142.3821  133.2477  149.6805 H   0  0  0  0  0  0  0  0  0  0  0  0
  143.7935  135.3290  150.3943 H   0  0  0  0  0  0  0  0  0  0  0  0
  145.5506  135.4073  150.0566 H   0  0  0  0  0  0  0  0  0  0  0  0
  150.9759  140.8522  154.7172 H   0  0  0  0  0  0  0  0  0  0  0  0
  151.5529  137.8824  155.1353 H   0  0  0  0  0  0  0  0  0  0  0  0
  152.5315  138.9885  154.1753 H   0  0  0  0  0  0  0  0  0  0  0  0
  150.8920  138.6121  153.6756 H   0  0  0  0  0  0  0  0  0  0  0  0
  152.9829  140.5083  156.1353 H   0  0  0  0  0  0  0  0  0  0  0  0
  152.1071  139.4026  157.1491 H   0  0  0  0  0  0  0  0  0  0  0  0
  152.1512  141.4017  158.2042 H   0  0  0  0  0  0  0  0  0  0  0  0
  1  2  1  0  0  0  0
  1 29  1  0  0  0  0
  1 30  1  0  0  0  0
  1 31  1  0  0  0  0
  2  3  1  0  0  0  0
  2 32  1  0  0  0  0
  2 33  1  0  0  0  0
  3 28  1  0  0  0  0
  3  4  1  0  0  0  0
  3 61  1  0  0  0  0
  4  5  1  0  0  0  0
  4 34  1  0  0  0  0
  4 35  1  0  0  0  0
  5  6  1  0  0  0  0
  5 36  1  0  0  0  0
  5 37  1  0  0  0  0
  6  7  1  0  0  0  0
  6 26  1  0  0  0  0
  6 38  1  0  0  0  0
  7  8  1  0  0  0  0
  7  9  1  0  0  0  0
  8 39  1  0  0  0  0
  8 40  1  0  0  0  0
  8 41  1  0  0  0  0
  9 14  1  0  0  0  0
  9 10  2  0  0  0  0
 10 11  1  0  0  0  0
 11 12  2  0  0  0  0
 11 42  1  0  0  0  0
 12 13  1  0  0  0  0
 13 17  1  0  0  0  0
 13 14  2  0  0  0  0
 14 15  1  0  0  0  0
 15 16  2  0  0  0  0
 16 17  1  0  0  0  0
 16 43  1  0  0  0  0
 17 18  1  0  0  0  0
 18 25  1  0  0  0  0
 18 19  1  0  0  0  0
 18 44  1  0  0  0  0
 19 20  1  0  0  0  0
 19 45  1  0  0  0  0
 19 46  1  0  0  0  0
 20 21  1  0  0  0  0
 20 23  1  0  0  0  0
 20 25  1  0  0  0  0
 21 22  1  0  0  0  0
 21 47  1  0  0  0  0
 21 48  1  0  0  0  0
 22 49  1  0  0  0  0
 23 24  1  0  0  0  0
 23 50  1  0  0  0  0
 23 51  1  0  0  0  0
 24 52  1  0  0  0  0
 25 53  1  0  0  0  0
 25 54  1  0  0  0  0
 26 27  1  0  0  0  0
 26 28  1  0  0  0  0
 26 55  1  0  0  0  0
 27 56  1  0  0  0  0
 27 57  1  0  0  0  0
 27 58  1  0  0  0  0
 28 59  1  0  0  0  0
 28 60  1  0  0  0  0
M  CHG  1   3   1
M  END
> <s_m_source_file>
AV-unprocessed.smi

> <i_m_source_file_index>
92

> <i_lp_mmshare_version>
43012

> <i_f3d_flags>
0

> <s_epik_input>
W0NIM11bQ0gyXU4xW0NIMl1bQ0gyXVtDQEhdKFtDQEBIXShbQ0gzXSlbQ0gyXTEpTihbQ0gzXSljKG5bY0hdbjIpYyhjMjMpbltjSF1uM1tDSF0oW0NIMl00KVtDSDJdQzQoW0NIMl1bT0hdKVtDSDJdW09IXQ==

> <s_epik_cmdline>
J2VwaWtfcHl0aG9uJywgJy1waCcsICc3LjAnLCAnLXRuJywgJzgnLCAnLW1hJywgJzIwMCcsICctbWV0YWxfYmluZGluZycsICctaW1hZScsICc8aW5maWxlLm1hZT4nLCAnLW9tYWUnLCAnPG91dGZpbGUubWFlPic=

> <r_lp_tautomer_probability>
1

> <r_epik_Ionization_Penalty>
0.00235514

> <r_epik_Ionization_Penalty_Charging>
0.00137877

> <r_epik_Ionization_Penalty_Neutral>
0.000976366

> <r_epik_State_Penalty>
-0

> <r_epik_Charging_Adjusted_Penalty>
0.00137877

> <i_epik_Tot_Q>
1

> <i_epik_Tot_abs_Q>
1

> <r_epik_Metal_State_Penalty>
-0

> <b_epik_Metal_Only>
0

> <s_lp_Force_Field>
OPLS_2005

> <r_lp_Energy>
55.2069

> <b_lp_Chiralities_Consistent>
1

> <s_lp_Variant>
AV-unprocessed.smi:92-6

> <Gold.Version>
5.8.1

> <Gold.Id.Protein>
6NUR|6NUR_protein|mol2

> <Gold.PLP.Fitness>
47.9770

> <Gold.PLP.PLP>
-41.1027

> <Gold.PLP.part.hbond>
-2.9261

> <Gold.PLP.part.metal>
0.0000

> <Gold.PLP.part.buried>
-4.6100

> <Gold.PLP.part.nonpolar>
-33.6866

> <Gold.PLP.part.repulsive>
0.4519

> <Gold.PLP.ligand.clash>
0.0000

> <Gold.PLP.ligand.torsion>
1.4832

> <Gold.PLP.Chemscore.Hbond>
2.0000

> <Gold.PLP.Chemscore.CHOScore>
1.0000

> <Gold.PLP.Chemscore.Metal>
0.0000

> <Gold.Chemscore.Hbonds>
donor molecule, donor type, donor heavy atom, donor atom, acceptor molecule, acceptor atom, score
      L1  H    22    49       P1 10747  1.00
      L1  H    24    52       P1 10186  1.00
      L1  C    16    43       P1 10171  1.00

> <Gold.PLP.Chemscore.Internal.Correction>
0.8407

> <Gold.Rescore>
     Score         DG    S(hbond)    S(metal)    S(lipo)     H(rot)  DE(clash)    DE(int)     intcor
     13.29     -15.55       1.99        0.00      99.60       3.22       0.03       2.23       ----

> <Gold.Chemscore.Fitness>
13.2857

> <Gold.Chemscore.DG>
-15.5468

> <Gold.Chemscore.ZeroCoef>
-5.4800

> <Gold.Chemscore.Hbond>
1.9945

> <Gold.Chemscore.Metal>
0.0000

> <Gold.Chemscore.Lipo>
99.6002

> <Gold.Chemscore.Internal_Hbond>
0.0000

> <Gold.Chemscore.DEClash>
0.0318

> <Gold.Chemscore.DEInternal>
2.2293

> <Gold.Chemscore.Rot>
3.2219

> <Gold.Chemscore.Internal.Correction>
   9.000000E+99

> <Gold.Chemscore.Hbonds>
donor molecule, donor type, donor heavy atom, donor atom, acceptor molecule, acceptor atom, score
      L1  H    22    49       P1 10747  0.97
      L1  H    24    52       P1 10186  1.00

> <Gold.Chemscore.Hbond.Weighted>
-6.6617

> <Gold.Chemscore.Metal.Weighted>
-0.0000

> <Gold.Chemscore.Lipo.Weighted>
-11.6532

> <Gold.Chemscore.Internal_Hbond.Weighted>
0.0000

> <Gold.Chemscore.DEClash.Weighted>
0.0318

> <Gold.Chemscore.DEInternal.Weighted>
2.2293

> <Gold.Chemscore.Rot.Weighted>
8.2482

> <Gold.Chemscore.Internal.Correction.Weighted>
   9.000000E+99

> <Gold.Protein.RotatedTorsions>
[ 6907 6896 6895 6894 ] final  -89.61 input  -60.11 | X-H torsion
[ 7974 7965 7964 7962 ] final  110.82 input  175.53 | X-H torsion
[ 8008 7997 7996 7995 ] final   51.33 input   59.86 | X-H torsion
[ 10167 10162 10161 10158 ] final  125.05 input  -65.29 | X-H torsion
[ 10718 10713 10712 10709 ] final -172.55 input   66.30 | X-H torsion
[ 10763 10752 10751 10750 ] final   87.21 input  -60.55 | X-H torsion
[ 11005 11000 10999 10996 ] final  -16.89 input  -57.11 | X-H torsion

> <Gold.Protein.ActiveResidues>
 VAL166  LYS551  ARG553  GLY616  TRP617  ASP618  TYR619  PRO620  LYS621  CYS622 
 ASP623  PHE694  ASN695  SER759  ASP760  ASP761  ALA762  ILE779  LEU786  VAL792 
 PHE793  MET794  SER795  GLU796  ALA797  LYS798  CYS799  TRP800  GLU811  SER814 

> <Gold.Protein.RotatedAtoms>
  150.6875  134.2560  159.4529 H   0  0  0  0  0  0  0  0  0  0  0  0  # atno 6907 bound_to 6896
  152.0494  134.9660  160.0584 H   0  0  0  0  0  0  0  0  0  0  0  0  # atno 6908 bound_to 6896
  152.1131  133.4277  159.4677 H   0  0  0  0  0  0  0  0  0  0  0  0  # atno 6909 bound_to 6896
  145.2501  139.2743  143.4072 H   0  0  0  0  0  0  0  0  0  0  0  0  # atno 7974 bound_to 7965
  155.4336  140.3451  155.4282 H   0  0  0  0  0  0  0  0  0  0  0  0  # atno 8008 bound_to 7997
  156.1321  140.1517  156.9079 H   0  0  0  0  0  0  0  0  0  0  0  0  # atno 8009 bound_to 7997
  154.4903  140.0843  156.7560 H   0  0  0  0  0  0  0  0  0  0  0  0  # atno 8010 bound_to 7997
  139.5707  144.6937  151.3786 H   0  0  0  0  0  0  0  0  0  0  0  0  # atno 10167 bound_to 10162
  156.7572  130.9400  151.3117 H   0  0  0  0  0  0  0  0  0  0  0  0  # atno 10718 bound_to 10713
  153.1646  135.4552  154.9819 H   0  0  0  0  0  0  0  0  0  0  0  0  # atno 10763 bound_to 10752
  154.7922  135.3225  154.7753 H   0  0  0  0  0  0  0  0  0  0  0  0  # atno 10764 bound_to 10752
  153.8237  135.6944  153.4878 H   0  0  0  0  0  0  0  0  0  0  0  0  # atno 10765 bound_to 10752
  140.8114  133.8138  155.9567 H   0  0  0  0  0  0  0  0  0  0  0  0  # atno 11005 bound_to 11000
  146.3305  140.2889  142.8614 LP  0  0  0  0  0  0  0  0  0  0  0  0  # atno 17320 bound_to 7965
  144.9510  140.8178  143.5572 LP  0  0  0  0  0  0  0  0  0  0  0  0  # atno 17321 bound_to 7965
  140.6991  143.7675  150.7374 LP  0  0  0  0  0  0  0  0  0  0  0  0  # atno 17342 bound_to 10162
  140.1180  143.4638  152.2330 LP  0  0  0  0  0  0  0  0  0  0  0  0  # atno 17343 bound_to 10162
  157.6751  130.9086  150.0130 LP  0  0  0  0  0  0  0  0  0  0  0  0  # atno 17370 bound_to 10713
  156.1362  130.3642  149.9653 LP  0  0  0  0  0  0  0  0  0  0  0  0  # atno 17371 bound_to 10713
  140.9194  134.2160  157.4936 LP  0  0  0  0  0  0  0  0  0  0  0  0  # atno 17394 bound_to 11000
  139.8714  134.9785  156.5002 LP  0  0  0  0  0  0  0  0  0  0  0  0  # atno 17395 bound_to 11000

$$$$
