#       Name:                AV-unprocessed.smi:3136
#       Creating user name   scv26
#       Creation time:       Fri Mar 27 17:34:15 2020


#       File generated by GOLD software.
#

@<TRIPOS>MOLECULE
AV-unprocessed.smi:3136
    43    43     1
SMALL
NO_CHARGES


@<TRIPOS>ATOM
      1 ****        -4.8474   4.0359   2.0349 C.3            1 S1                 0.0000
      2 ****        -4.6664   3.6623   0.5576 C.3            1 S1                 0.0000
      3 ****        -3.2996   3.2396   0.2738 N.am           1 S1                 0.0000
      4 ****        -2.8071   2.0125   0.5020 C.2            1 S1                 0.0000
      5 ****        -3.4740   1.0972   0.9854 O.2            1 S1                 0.0000
      6 ****        -1.3365   1.8014   0.1258 C.3            1 S1                 0.0000
      7 ****        -0.8660   0.3434   0.2736 C.3            1 S1                 0.0000
      8 ****         0.5496   0.2034  -0.1285 N.4            1 S1                 1.0000
      9 ****         1.0953  -1.1726  -0.0660 C.3            1 S1                 0.0000
     10 ****         1.4324  -1.5463   1.3933 C.3            1 S1                 0.0000
     11 ****         2.3176  -1.2952  -1.0157 C.3            1 S1                 0.0000
     12 ****         1.9444  -1.0620  -2.4928 C.3            1 S1                 0.0000
     13 ****         3.0036  -2.5735  -0.8729 N.pl3          1 S1                 0.0000
     14 ****         4.3069  -2.8054  -0.4832 C.2            1 S1                 0.0000
     15 ****         4.5035  -4.1565  -0.4969 C.2            1 S1                 0.0000
     16 ****         3.2484  -4.6770  -0.9181 C.2            1 S1                 0.0000
     17 ****         2.3539  -3.7285  -1.1435 N.2            1 S1                 0.0000
     18 ****        -5.8608   4.3910   2.2225 H              1 S1                 0.0000
     19 ****        -4.1587   4.8287   2.3289 H              1 S1                 0.0000
     20 ****        -4.6723   3.1792   2.6864 H              1 S1                 0.0000
     21 ****        -5.3726   2.8805   0.2736 H              1 S1                 0.0000
     22 ****        -4.8914   4.5254  -0.0692 H              1 S1                 0.0000
     23 ****        -2.6840   3.9336  -0.1250 H              1 S1                 0.0000
     24 ****        -1.1933   2.1314  -0.9041 H              1 S1                 0.0000
     25 ****        -0.7256   2.4517   0.7535 H              1 S1                 0.0000
     26 ****        -0.9886   0.0175   1.3065 H              1 S1                 0.0000
     27 ****        -1.4777  -0.3120  -0.3484 H              1 S1                 0.0000
     28 ****         0.6165   0.5114  -1.0882 H              1 S1                 0.0000
     29 ****         0.3257  -1.8588  -0.4233 H              1 S1                 0.0000
     30 ****         1.7756  -2.5773   1.4792 H              1 S1                 0.0000
     31 ****         0.5650  -1.4566   2.0462 H              1 S1                 0.0000
     32 ****         2.2163  -0.9024   1.7937 H              1 S1                 0.0000
     33 ****         3.0379  -0.5249  -0.7343 H              1 S1                 0.0000
     34 ****         1.5496  -0.0590  -2.6549 H              1 S1                 0.0000
     35 ****         1.1903  -1.7728  -2.8325 H              1 S1                 0.0000
     36 ****         2.8168  -1.1726  -3.1378 H              1 S1                 0.0000
     37 ****         4.9800  -1.9995  -0.2298 H              1 S1                 0.0000
     38 ****         5.4070  -4.6922  -0.2461 H              1 S1                 0.0000
     39 ****         2.9631  -5.7082  -1.0657 H              1 S1                 0.0000
     40 ****         1.1228   0.8086   0.4419 H              1 S1                 0.0000
     41 ****        -4.4318   1.2507   1.2282 LP             1 S1                 0.0000
     42 ****        -3.0578   0.2003   1.1351 LP             1 S1                 0.0000
     43 ****         1.4076  -3.8407  -1.4467 LP             1 S1                 0.0000
@<TRIPOS>BOND
    1    1    2 1     
    2    1   18 1     
    3    1   19 1     
    4    1   20 1     
    5    2    3 1     
    6    2   21 1     
    7    2   22 1     
    8    3    4 am    
    9    3   23 1     
   10    4    5 2     
   11    4    6 1     
   12    6    7 1     
   13    6   24 1     
   14    6   25 1     
   15    7    8 1     
   16    7   26 1     
   17    7   27 1     
   18    8    9 1     
   19    8   28 1     
   20    8   40 1     
   21    9   10 1     
   22    9   11 1     
   23    9   29 1     
   24   10   30 1     
   25   10   31 1     
   26   10   32 1     
   27   11   12 1     
   28   11   13 1     
   29   11   33 1     
   30   12   34 1     
   31   12   35 1     
   32   12   36 1     
   33   13   17 1     
   34   13   14 1     
   35   14   15 2     
   36   14   37 1     
   37   15   16 1     
   38   15   38 1     
   39   16   17 2     
   40   16   39 1     
   41    5   41 1     
   42    5   42 1     
   43   17   43 1     
@<TRIPOS>SUBSTRUCTURE
      1 S1             1
@<TRIPOS>SET
LONE_PAIRS      STATIC     ATOMS    <user>   **** ""
3 41 42 43
DONOR_HYDROGENS      STATIC     ATOMS    <user>   **** ""
3 23 28 40
ATOM$BLUE        STATIC     ATOMS    COLORGROUP SYSTEM
3 41 42 43
ATOM$RED        STATIC     ATOMS    COLORGROUP SYSTEM
3 23 28 40
