AV-unprocessed.smi:95|AV-procd|sdf|855|dock10
  -GOLD-   2262017303D 1   1.00000     0.00000
 Structure written by MMmdl.
 41 44  0  0  0  0  0  0  0  0  1 V2000
  150.0032  140.5497  154.0626 O   0  0  0  0  0  0  0  0  0  0  0  0
  149.8615  139.3600  154.3518 C   0  0  0  0  0  0  0  0  0  0  0  0
  148.6367  138.6106  154.0956 C   0  0  0  0  0  0  0  0  0  0  0  0
  147.6057  139.2122  153.4786 F   0  0  0  0  0  0  0  0  0  0  0  0
  148.5199  137.3181  154.4688 C   0  0  0  0  0  0  0  0  0  0  0  0
  149.5247  136.6240  155.1180 N   0  0  0  0  0  0  0  0  0  0  0  0
  149.3052  135.1733  155.4796 C   0  0  2  0  0  0  0  0  0  0  0  0
  150.2659  134.2063  154.7608 C   0  0  0  0  0  0  0  0  0  0  0  0
  149.3198  133.2774  154.0176 C   0  0  0  0  0  0  0  0  0  0  0  0
  148.0119  133.4417  154.7836 C   0  0  0  0  0  0  0  0  0  0  0  0
  148.0039  134.8187  155.1267 O   0  0  0  0  0  0  0  0  0  0  0  0
  150.7656  137.2560  155.3655 C   0  0  0  0  0  0  0  0  0  0  0  0
  151.6910  136.6495  155.9079 O   0  0  0  0  0  0  0  0  0  0  0  0
  150.8892  138.6115  154.9748 N   0  0  0  0  0  0  0  0  0  0  0  0
  152.1215  139.3164  155.2960 C   0  0  0  0  0  0  0  0  0  0  0  0
  152.0270  140.2882  156.4668 C   0  0  0  0  0  0  0  0  0  0  0  0
  151.2112  141.4329  156.3695 C   0  0  0  0  0  0  0  0  0  0  0  0
  151.1557  142.3122  157.4661 C   0  0  0  0  0  0  0  0  0  0  0  0
  151.9199  142.0182  158.6139 C   0  0  0  0  0  0  0  0  0  0  0  0
  151.8854  142.8796  159.7297 C   0  0  0  0  0  0  0  0  0  0  0  0
  152.6526  142.5823  160.8711 C   0  0  0  0  0  0  0  0  0  0  0  0
  153.4521  141.4251  160.8955 C   0  0  0  0  0  0  0  0  0  0  0  0
  153.4839  140.5660  159.7801 C   0  0  0  0  0  0  0  0  0  0  0  0
  152.7231  140.8448  158.6247 C   0  0  0  0  0  0  0  0  0  0  0  0
  152.7680  140.0083  157.5637 N   0  0  0  0  0  0  0  0  0  0  0  0
  147.5904  136.8119  154.2523 H   0  0  0  0  0  0  0  0  0  0  0  0
  149.4110  135.1136  156.5639 H   0  0  0  0  0  0  0  0  0  0  0  0
  150.9643  134.7209  154.1000 H   0  0  0  0  0  0  0  0  0  0  0  0
  150.8391  133.6631  155.5127 H   0  0  0  0  0  0  0  0  0  0  0  0
  149.1918  133.6139  152.9884 H   0  0  0  0  0  0  0  0  0  0  0  0
  149.6692  132.2450  153.9929 H   0  0  0  0  0  0  0  0  0  0  0  0
  147.1387  133.1685  154.1912 H   0  0  0  0  0  0  0  0  0  0  0  0
  148.0155  132.8389  155.6931 H   0  0  0  0  0  0  0  0  0  0  0  0
  152.9079  138.5843  155.4809 H   0  0  0  0  0  0  0  0  0  0  0  0
  152.4363  139.8309  154.3861 H   0  0  0  0  0  0  0  0  0  0  0  0
  150.6377  141.6331  155.4763 H   0  0  0  0  0  0  0  0  0  0  0  0
  150.5370  143.1966  157.4224 H   0  0  0  0  0  0  0  0  0  0  0  0
  151.2725  143.7690  159.7146 H   0  0  0  0  0  0  0  0  0  0  0  0
  152.6281  143.2412  161.7267 H   0  0  0  0  0  0  0  0  0  0  0  0
  154.0420  141.1954  161.7706 H   0  0  0  0  0  0  0  0  0  0  0  0
  154.1020  139.6806  159.8120 H   0  0  0  0  0  0  0  0  0  0  0  0
  1  2  2  0  0  0  0
  2 14  1  0  0  0  0
  2  3  1  0  0  0  0
  3  4  1  0  0  0  0
  3  5  2  0  0  0  0
  5  6  1  0  0  0  0
  5 26  1  0  0  0  0
  6  7  1  0  0  0  0
  6 12  1  0  0  0  0
  7 11  1  0  0  0  0
  7  8  1  0  0  0  0
  7 27  1  0  0  0  0
  8  9  1  0  0  0  0
  8 28  1  0  0  0  0
  8 29  1  0  0  0  0
  9 10  1  0  0  0  0
  9 30  1  0  0  0  0
  9 31  1  0  0  0  0
 10 11  1  0  0  0  0
 10 32  1  0  0  0  0
 10 33  1  0  0  0  0
 12 13  2  0  0  0  0
 12 14  1  0  0  0  0
 14 15  1  0  0  0  0
 15 16  1  0  0  0  0
 15 34  1  0  0  0  0
 15 35  1  0  0  0  0
 16 25  1  0  0  0  0
 16 17  2  0  0  0  0
 17 18  1  0  0  0  0
 17 36  1  0  0  0  0
 18 19  2  0  0  0  0
 18 37  1  0  0  0  0
 19 24  1  0  0  0  0
 19 20  1  0  0  0  0
 20 21  2  0  0  0  0
 20 38  1  0  0  0  0
 21 22  1  0  0  0  0
 21 39  1  0  0  0  0
 22 23  2  0  0  0  0
 22 40  1  0  0  0  0
 23 24  1  0  0  0  0
 23 41  1  0  0  0  0
 24 25  2  0  0  0  0
M  END
> <s_m_source_file>
AV-unprocessed.smi

> <i_m_source_file_index>
95

> <i_lp_mmshare_version>
43012

> <i_f3d_flags>
0

> <s_epik_input>
TzFbQ0gyXVtDSDJdW0NIMl1bQ0BIXTFuKFtjSF1jKEYpYzI9TyljKD1PKW4yW0NIMl1jKFtjSF1bY0hdMyluYyhjMzQpW2NIXVtjSF1bY0hdW2NIXTQ=

> <s_epik_cmdline>
J2VwaWtfcHl0aG9uJywgJy1waCcsICc3LjAnLCAnLXRuJywgJzgnLCAnLW1hJywgJzIwMCcsICctbWV0YWxfYmluZGluZycsICctaW1hZScsICc8aW5maWxlLm1hZT4nLCAnLW9tYWUnLCAnPG91dGZpbGUubWFlPic=

> <r_lp_tautomer_probability>
1

> <r_epik_Ionization_Penalty>
0.0274176

> <r_epik_Ionization_Penalty_Charging>
1.11818e-08

> <r_epik_Ionization_Penalty_Neutral>
0.0274176

> <r_epik_State_Penalty>
0.0224396

> <r_epik_Charging_Adjusted_Penalty>
0.0224396

> <i_epik_Tot_Q>
0

> <i_epik_Tot_abs_Q>
0

> <r_epik_Metal_State_Penalty>
2.28695e-05

> <b_epik_Metal_Only>
0

> <s_epik_Chemistry_Notes>
This compound contains an acetal/aminal-like group ( X-CH(R)-Y where X, Y are N, S, or O) that may be acid/base labile, releasing an aldehyde.

> <s_lp_Force_Field>
OPLS_2005

> <r_lp_Energy>
29.0351

> <b_lp_Chiralities_Consistent>
1

> <s_lp_Variant>
AV-unprocessed.smi:95-1

> <Gold.Version>
5.8.1

> <Gold.Id.Protein>
6NUR|6NUR_protein|mol2

> <Gold.PLP.Fitness>
52.0406

> <Gold.PLP.PLP>
-44.3255

> <Gold.PLP.part.hbond>
-3.0000

> <Gold.PLP.part.metal>
0.0000

> <Gold.PLP.part.buried>
-3.3659

> <Gold.PLP.part.nonpolar>
-38.3514

> <Gold.PLP.part.repulsive>
0.7527

> <Gold.PLP.ligand.clash>
0.0080

> <Gold.PLP.ligand.torsion>
0.2157

> <Gold.PLP.Chemscore.Hbond>
2.7113

> <Gold.PLP.Chemscore.CHOScore>
0.0001

> <Gold.PLP.Chemscore.Metal>
0.0000

> <Gold.Chemscore.Hbonds>
donor molecule, donor type, donor heavy atom, donor atom, acceptor molecule, acceptor atom, score
      P1  H  7989  7998       L1     1  0.72
      P1  H  7997  8008       L1    25  0.95
      P1  H 10752 10764       L1    13  0.89
      L1  C     5    26       P1  7948  0.01

> <Gold.PLP.Chemscore.Internal.Correction>
0.0205

> <Gold.Rescore>
     Score         DG    S(hbond)    S(metal)    S(lipo)     H(rot)  DE(clash)    DE(int)     intcor
     17.43     -19.30       1.46        0.00     109.12       1.50       0.19       1.68       ----

> <Gold.Chemscore.Fitness>
17.4332

> <Gold.Chemscore.DG>
-19.3036

> <Gold.Chemscore.ZeroCoef>
-5.4800

> <Gold.Chemscore.Hbond>
1.4648

> <Gold.Chemscore.Metal>
0.0000

> <Gold.Chemscore.Lipo>
109.1218

> <Gold.Chemscore.Internal_Hbond>
0.0000

> <Gold.Chemscore.DEClash>
0.1932

> <Gold.Chemscore.DEInternal>
1.6772

> <Gold.Chemscore.Rot>
1.4985

> <Gold.Chemscore.Internal.Correction>
   9.000000E+99

> <Gold.Chemscore.Hbonds>
donor molecule, donor type, donor heavy atom, donor atom, acceptor molecule, acceptor atom, score
      P1  H  7989  7998       L1     1  0.59
      P1  H  7997  8008       L1    25  0.15
      P1  H 10752 10764       L1    13  0.79

> <Gold.Chemscore.Hbond.Weighted>
-4.8925

> <Gold.Chemscore.Metal.Weighted>
-0.0000

> <Gold.Chemscore.Lipo.Weighted>
-12.7673

> <Gold.Chemscore.Internal_Hbond.Weighted>
0.0000

> <Gold.Chemscore.DEClash.Weighted>
0.1932

> <Gold.Chemscore.DEInternal.Weighted>
1.6772

> <Gold.Chemscore.Rot.Weighted>
3.8362

> <Gold.Chemscore.Internal.Correction.Weighted>
   9.000000E+99

> <Gold.Protein.RotatedTorsions>
[ 6907 6896 6895 6894 ] final   68.24 input  -60.11 | X-H torsion
[ 7974 7965 7964 7962 ] final  106.36 input  175.53 | X-H torsion
[ 8008 7997 7996 7995 ] final  -70.91 input   59.86 | X-H torsion
[ 10167 10162 10161 10158 ] final  -96.14 input  -65.29 | X-H torsion
[ 10718 10713 10712 10709 ] final  143.91 input   66.30 | X-H torsion
[ 10763 10752 10751 10750 ] final  -57.05 input  -60.55 | X-H torsion
[ 11005 11000 10999 10996 ] final -110.76 input  -57.11 | X-H torsion

> <Gold.Protein.ActiveResidues>
 VAL166  LYS551  ARG553  GLY616  TRP617  ASP618  TYR619  PRO620  LYS621  CYS622 
 ASP623  PHE694  ASN695  SER759  ASP760  ASP761  ALA762  ILE779  LEU786  VAL792 
 PHE793  MET794  SER795  GLU796  ALA797  LYS798  CYS799  TRP800  GLU811  SER814 

> <Gold.Protein.RotatedAtoms>
  152.4607  134.5191  159.9776 H   0  0  0  0  0  0  0  0  0  0  0  0  # atno 6907 bound_to 6896
  151.5241  133.3455  159.2914 H   0  0  0  0  0  0  0  0  0  0  0  0  # atno 6908 bound_to 6896
  150.8568  134.7939  159.7114 H   0  0  0  0  0  0  0  0  0  0  0  0  # atno 6909 bound_to 6896
  145.3076  139.2550  143.3780 H   0  0  0  0  0  0  0  0  0  0  0  0  # atno 7974 bound_to 7965
  154.5048  140.0825  156.7871 H   0  0  0  0  0  0  0  0  0  0  0  0  # atno 8008 bound_to 7997
  155.3919  140.3433  155.4233 H   0  0  0  0  0  0  0  0  0  0  0  0  # atno 8009 bound_to 7997
  156.1501  140.1556  156.8770 H   0  0  0  0  0  0  0  0  0  0  0  0  # atno 8010 bound_to 7997
  140.2968  143.3187  152.0289 H   0  0  0  0  0  0  0  0  0  0  0  0  # atno 10167 bound_to 10162
  157.3634  131.0968  151.0895 H   0  0  0  0  0  0  0  0  0  0  0  0  # atno 10718 bound_to 10713
  154.2164  135.6385  153.5131 H   0  0  0  0  0  0  0  0  0  0  0  0  # atno 10763 bound_to 10752
  152.9978  135.5486  154.6161 H   0  0  0  0  0  0  0  0  0  0  0  0  # atno 10764 bound_to 10752
  154.5610  135.2909  155.0893 H   0  0  0  0  0  0  0  0  0  0  0  0  # atno 10765 bound_to 10752
  141.0773  133.9279  157.2362 H   0  0  0  0  0  0  0  0  0  0  0  0  # atno 11005 bound_to 11000
  146.3129  140.3605  142.8664 LP  0  0  0  0  0  0  0  0  0  0  0  0  # atno 17320 bound_to 7965
  144.9042  140.7680  143.5848 LP  0  0  0  0  0  0  0  0  0  0  0  0  # atno 17321 bound_to 7965
  139.4924  144.6485  151.6727 LP  0  0  0  0  0  0  0  0  0  0  0  0  # atno 17342 bound_to 10162
  140.5685  144.0149  150.6204 LP  0  0  0  0  0  0  0  0  0  0  0  0  # atno 17343 bound_to 10162
  157.2026  130.6401  149.5744 LP  0  0  0  0  0  0  0  0  0  0  0  0  # atno 17370 bound_to 10713
  155.9741  130.4686  150.6365 LP  0  0  0  0  0  0  0  0  0  0  0  0  # atno 17371 bound_to 10713
  139.9586  135.0160  156.9197 LP  0  0  0  0  0  0  0  0  0  0  0  0  # atno 17394 bound_to 11000
  140.5545  134.0595  155.7379 LP  0  0  0  0  0  0  0  0  0  0  0  0  # atno 17395 bound_to 11000

$$$$
