#       Name:                AV-unprocessed.smi:1683
#       Creating user name   scv26
#       Creation time:       Fri Mar 27 07:51:02 2020


#       File generated by GOLD software.
#

@<TRIPOS>MOLECULE
AV-unprocessed.smi:1683
    40    41     1
SMALL
NO_CHARGES


@<TRIPOS>ATOM
      1 ****        -2.6810   0.5424  -2.1093 O.2            1 S1                 0.0000
      2 ****        -2.1933   1.2043  -1.1931 C.2            1 S1                 0.0000
      3 ****        -1.3521   0.7000  -0.2792 N.am           1 S1                 0.0000
      4 ****        -0.8899  -0.6836  -0.2327 C.3            1 S1                 0.0000
      5 ****         0.6075  -0.7545   0.1086 C.3            1 S1                 0.0000
      6 ****         0.9814  -0.2055   1.4867 C.3            1 S1                 0.0000
      7 ****         2.2895  -0.9231   1.8481 C.3            1 S1                 0.0000
      8 ****         2.4285  -2.0642   0.9106 N.4            1 S1                 1.0000
      9 ****         2.8940  -3.3362   1.5148 C.3            1 S1                 0.0000
     10 ****         4.3904  -3.3081   1.8714 C.3            1 S1                 0.0000
     11 ****         4.7580  -4.5131   2.3040 F              1 S1                 0.0000
     12 ****         5.1104  -3.0032   0.7918 F              1 S1                 0.0000
     13 ****         4.6404  -2.4190   2.8318 F              1 S1                 0.0000
     14 ****         1.1584  -2.1780   0.1675 C.3            1 S1                 0.0000
     15 ****        -2.4270   2.5090  -0.9750 N.am           1 S1                 0.0000
     16 ****        -3.2529   3.3741  -1.7372 C.2            1 S1                 0.0000
     17 ****        -3.4593   4.7522  -1.4566 C.2            1 S1                 0.0000
     18 ****        -4.2794   5.3078  -2.3373 N.2            1 S1                 0.0000
     19 ****        -4.5985   4.2975  -3.1774 N.pl3          1 S1                 0.0000
     20 ****        -3.9969   3.1021  -2.8511 C.2            1 S1                 0.0000
     21 ****        -5.2213   4.4377  -3.9603 H              1 S1                 0.0000
     22 ****        -1.0066   1.3202   0.4386 H              1 S1                 0.0000
     23 ****        -1.4775  -1.2197   0.5135 H              1 S1                 0.0000
     24 ****        -1.0617  -1.1873  -1.1855 H              1 S1                 0.0000
     25 ****         1.1715  -0.2039  -0.6468 H              1 S1                 0.0000
     26 ****         1.0855   0.8801   1.4916 H              1 S1                 0.0000
     27 ****         0.2118  -0.4666   2.2146 H              1 S1                 0.0000
     28 ****         3.1477  -0.2617   1.7250 H              1 S1                 0.0000
     29 ****         2.2665  -1.2455   2.8900 H              1 S1                 0.0000
     30 ****         2.2894  -3.5822   2.3891 H              1 S1                 0.0000
     31 ****         2.7305  -4.1367   0.7915 H              1 S1                 0.0000
     32 ****         0.4699  -2.8246   0.7152 H              1 S1                 0.0000
     33 ****         1.3119  -2.6086  -0.8226 H              1 S1                 0.0000
     34 ****        -1.9647   2.9295  -0.1824 H              1 S1                 0.0000
     35 ****        -3.0492   5.3555  -0.6600 H              1 S1                 0.0000
     36 ****        -4.1519   2.2010  -3.4260 H              1 S1                 0.0000
     37 ****         3.1211  -1.7884   0.2288 H              1 S1                 0.0000
     38 ****        -2.4547  -0.4273  -2.2011 LP             1 S1                 0.0000
     39 ****        -3.3036   0.9744  -2.7619 LP             1 S1                 0.0000
     40 ****        -4.5910   6.2574  -2.3724 LP             1 S1                 0.0000
@<TRIPOS>BOND
    1    1    2 2     
    2    2    3 am    
    3    2   15 am    
    4    3    4 1     
    5    3   22 1     
    6    4    5 1     
    7    4   23 1     
    8    4   24 1     
    9    5   14 1     
   10    5    6 1     
   11    5   25 1     
   12    6    7 1     
   13    6   26 1     
   14    6   27 1     
   15    7    8 1     
   16    7   28 1     
   17    7   29 1     
   18    8    9 1     
   19    8   14 1     
   20    8   37 1     
   21    9   10 1     
   22    9   30 1     
   23    9   31 1     
   24   10   11 1     
   25   10   12 1     
   26   10   13 1     
   27   14   32 1     
   28   14   33 1     
   29   15   16 1     
   30   15   34 1     
   31   16   20 2     
   32   16   17 1     
   33   17   18 2     
   34   17   35 1     
   35   18   19 1     
   36   19   21 1     
   37   19   20 1     
   38   20   36 1     
   39    1   38 1     
   40    1   39 1     
   41   18   40 1     
@<TRIPOS>SUBSTRUCTURE
      1 S1             1
@<TRIPOS>SET
LONE_PAIRS      STATIC     ATOMS    <user>   **** ""
3 38 39 40
DONOR_HYDROGENS      STATIC     ATOMS    <user>   **** ""
4 22 37 34 21
ATOM$BLUE        STATIC     ATOMS    COLORGROUP SYSTEM
3 38 39 40
ATOM$RED        STATIC     ATOMS    COLORGROUP SYSTEM
4 22 37 34 21
