#       Name:                AV-unprocessed.smi:3097
#       Creating user name   scv26
#       Creation time:       Fri Mar 27 17:17:27 2020


#       File generated by GOLD software.
#

@<TRIPOS>MOLECULE
AV-unprocessed.smi:3097
    36    36     1
SMALL
NO_CHARGES


@<TRIPOS>ATOM
      1 ****        -4.5145   0.2474   0.6378 C.3            1 S1                 0.0000
      2 ****        -3.4226  -0.6753   0.0813 C.3            1 S1                 0.0000
      3 ****        -2.8302  -0.1791  -1.2461 C.3            1 S1                 0.0000
      4 ****        -2.0162   1.0317  -1.0620 N.pl3          1 S1                 0.0000
      5 ****        -0.7343   1.0748  -0.6477 C.cat          1 S1                 0.0000
      6 ****        -0.1179   2.2633  -0.4958 N.pl3          1 S1                 1.0000
      7 ****        -0.7218   3.5776  -0.7463 C.3            1 S1                 0.0000
      8 ****        -0.0688  -0.0665  -0.3833 N.pl3          1 S1                 0.0000
      9 ****         1.3210  -0.1605   0.0819 C.3            1 S1                 0.0000
     10 ****         1.7678  -1.6233   0.2020 C.3            1 S1                 0.0000
     11 ****         3.1379  -1.7266   0.6645 N.pl3          1 S1                 0.0000
     12 ****         4.2690  -2.0366  -0.0613 C.2            1 S1                 0.0000
     13 ****         5.3252  -2.0136   0.8038 C.2            1 S1                 0.0000
     14 ****         4.7321  -1.6776   2.0530 C.2            1 S1                 0.0000
     15 ****         3.4227  -1.5053   1.9661 N.2            1 S1                 0.0000
     16 ****        -4.9212  -0.1514   1.5674 H              1 S1                 0.0000
     17 ****        -5.3393   0.3518  -0.0678 H              1 S1                 0.0000
     18 ****        -4.1244   1.2435   0.8484 H              1 S1                 0.0000
     19 ****        -2.6305  -0.7873   0.8225 H              1 S1                 0.0000
     20 ****        -3.8394  -1.6720  -0.0668 H              1 S1                 0.0000
     21 ****        -2.2136  -0.9564  -1.6982 H              1 S1                 0.0000
     22 ****        -3.6289   0.0358  -1.9565 H              1 S1                 0.0000
     23 ****        -2.4889   1.9102  -1.2207 H              1 S1                 0.0000
     24 ****        -0.0041   4.3687  -0.5298 H              1 S1                 0.0000
     25 ****        -1.5969   3.7222  -0.1127 H              1 S1                 0.0000
     26 ****        -1.0267   3.6641  -1.7893 H              1 S1                 0.0000
     27 ****        -0.5629  -0.9401  -0.4961 H              1 S1                 0.0000
     28 ****         1.9665   0.3716  -0.6177 H              1 S1                 0.0000
     29 ****         1.4032   0.3424   1.0461 H              1 S1                 0.0000
     30 ****         1.1243  -2.1657   0.8966 H              1 S1                 0.0000
     31 ****         1.6881  -2.1256  -0.7631 H              1 S1                 0.0000
     32 ****         4.2298  -2.2448  -1.1206 H              1 S1                 0.0000
     33 ****         6.3635  -2.2083   0.5791 H              1 S1                 0.0000
     34 ****         5.2108  -1.5533   3.0133 H              1 S1                 0.0000
     35 ****         0.8419   2.2646  -0.1809 H              1 S1                 0.0000
     36 ****         2.7868  -1.2652   2.6996 LP             1 S1                 0.0000
@<TRIPOS>BOND
    1    1    2 1     
    2    1   16 1     
    3    1   17 1     
    4    1   18 1     
    5    2    3 1     
    6    2   19 1     
    7    2   20 1     
    8    3    4 1     
    9    3   21 1     
   10    3   22 1     
   11    4    5 ar    
   12    4   23 1     
   13    5    6 ar    
   14    5    8 ar    
   15    6    7 1     
   16    6   35 1     
   17    7   24 1     
   18    7   25 1     
   19    7   26 1     
   20    8    9 1     
   21    8   27 1     
   22    9   10 1     
   23    9   28 1     
   24    9   29 1     
   25   10   11 1     
   26   10   30 1     
   27   10   31 1     
   28   11   15 1     
   29   11   12 1     
   30   12   13 2     
   31   12   32 1     
   32   13   14 1     
   33   13   33 1     
   34   14   15 2     
   35   14   34 1     
   36   15   36 1     
@<TRIPOS>SUBSTRUCTURE
      1 S1             1
@<TRIPOS>SET
LONE_PAIRS      STATIC     ATOMS    <user>   **** ""
1 36
DONOR_HYDROGENS      STATIC     ATOMS    <user>   **** ""
3 23 35 27
ATOM$BLUE        STATIC     ATOMS    COLORGROUP SYSTEM
1 36
ATOM$RED        STATIC     ATOMS    COLORGROUP SYSTEM
3 23 35 27
