AV-unprocessed.smi:128|AV-procd|sdf|1156|dock2
  -GOLD-   2262018293D 1   1.00000     0.00000
 Structure written by MMmdl.
 41 44  0  0  0  0  0  0  0  0  1 V2000
  150.6804  139.3265  154.1570 O   0  0  0  0  0  0  0  0  0  0  0  0
  150.8424  140.0010  155.1753 C   0  0  0  0  0  0  0  0  0  0  0  0
  150.0186  141.1567  155.5131 C   0  0  0  0  0  0  0  0  0  0  0  0
  149.0441  141.5466  154.6740 F   0  0  0  0  0  0  0  0  0  0  0  0
  150.2203  141.8457  156.6569 C   0  0  0  0  0  0  0  0  0  0  0  0
  151.1983  141.5127  157.5777 N   0  0  0  0  0  0  0  0  0  0  0  0
  151.3743  142.3184  158.8434 C   0  0  1  0  0  0  0  0  0  0  0  0
  152.7617  142.9699  158.8846 C   0  0  0  0  0  0  0  0  0  0  0  0
  152.4413  144.3402  159.4412 C   0  0  0  0  0  0  0  0  0  0  0  0
  151.0700  144.6061  158.8332 C   0  0  0  0  0  0  0  0  0  0  0  0
  150.4188  143.3401  158.8743 O   0  0  0  0  0  0  0  0  0  0  0  0
  152.0563  140.4198  157.3255 C   0  0  0  0  0  0  0  0  0  0  0  0
  152.9404  140.1089  158.1270 O   0  0  0  0  0  0  0  0  0  0  0  0
  151.8524  139.7015  156.1223 N   0  0  0  0  0  0  0  0  0  0  0  0
  152.7010  138.5504  155.8551 C   0  0  0  0  0  0  0  0  0  0  0  0
  152.0562  137.2782  156.3170 C   0  0  0  0  0  0  0  0  0  0  0  0
  151.7378  136.9502  157.5698 N   0  0  0  0  0  0  0  0  0  0  0  0
  151.1705  135.6984  157.4966 N   0  0  0  0  0  0  0  0  0  0  0  0
  151.1869  135.3560  156.2038 C   0  0  0  0  0  0  0  0  0  0  0  0
  150.7105  134.1204  155.5850 C   0  0  0  0  0  0  0  0  0  0  0  0
  150.9692  132.8647  156.1814 C   0  0  0  0  0  0  0  0  0  0  0  0
  150.5030  131.6805  155.5777 C   0  0  0  0  0  0  0  0  0  0  0  0
  149.7785  131.7408  154.3721 C   0  0  0  0  0  0  0  0  0  0  0  0
  149.1479  130.1404  153.5580 Br  0  0  0  0  0  0  0  0  0  0  0  0
  149.5211  132.9867  153.7695 C   0  0  0  0  0  0  0  0  0  0  0  0
  149.9853  134.1714  154.3733 C   0  0  0  0  0  0  0  0  0  0  0  0
  151.7283  136.3195  155.4113 O   0  0  0  0  0  0  0  0  0  0  0  0
  149.5834  142.6947  156.8515 H   0  0  0  0  0  0  0  0  0  0  0  0
  151.1779  141.6586  159.6892 H   0  0  0  0  0  0  0  0  0  0  0  0
  153.4518  142.3920  159.4999 H   0  0  0  0  0  0  0  0  0  0  0  0
  153.1675  143.0560  157.8754 H   0  0  0  0  0  0  0  0  0  0  0  0
  152.3688  144.2975  160.5288 H   0  0  0  0  0  0  0  0  0  0  0  0
  153.1811  145.0954  159.1743 H   0  0  0  0  0  0  0  0  0  0  0  0
  150.5068  145.3617  159.3814 H   0  0  0  0  0  0  0  0  0  0  0  0
  151.1670  144.9380  157.7990 H   0  0  0  0  0  0  0  0  0  0  0  0
  152.9001  138.5216  154.7823 H   0  0  0  0  0  0  0  0  0  0  0  0
  153.6680  138.6908  156.3391 H   0  0  0  0  0  0  0  0  0  0  0  0
  151.5214  132.7969  157.1074 H   0  0  0  0  0  0  0  0  0  0  0  0
  150.7010  130.7252  156.0412 H   0  0  0  0  0  0  0  0  0  0  0  0
  148.9671  133.0352  152.8437 H   0  0  0  0  0  0  0  0  0  0  0  0
  149.7798  135.1196  153.8981 H   0  0  0  0  0  0  0  0  0  0  0  0
  1  2  2  0  0  0  0
  2 14  1  0  0  0  0
  2  3  1  0  0  0  0
  3  4  1  0  0  0  0
  3  5  2  0  0  0  0
  5  6  1  0  0  0  0
  5 28  1  0  0  0  0
  6  7  1  0  0  0  0
  6 12  1  0  0  0  0
  7 11  1  0  0  0  0
  7  8  1  0  0  0  0
  7 29  1  0  0  0  0
  8  9  1  0  0  0  0
  8 30  1  0  0  0  0
  8 31  1  0  0  0  0
  9 10  1  0  0  0  0
  9 32  1  0  0  0  0
  9 33  1  0  0  0  0
 10 11  1  0  0  0  0
 10 34  1  0  0  0  0
 10 35  1  0  0  0  0
 12 13  2  0  0  0  0
 12 14  1  0  0  0  0
 14 15  1  0  0  0  0
 15 16  1  0  0  0  0
 15 36  1  0  0  0  0
 15 37  1  0  0  0  0
 16 27  1  0  0  0  0
 16 17  2  0  0  0  0
 17 18  1  0  0  0  0
 18 19  2  0  0  0  0
 19 20  1  0  0  0  0
 19 27  1  0  0  0  0
 20 26  1  0  0  0  0
 20 21  2  0  0  0  0
 21 22  1  0  0  0  0
 21 38  1  0  0  0  0
 22 23  2  0  0  0  0
 22 39  1  0  0  0  0
 23 24  1  0  0  0  0
 23 25  1  0  0  0  0
 25 26  2  0  0  0  0
 25 40  1  0  0  0  0
 26 41  1  0  0  0  0
M  END
> <s_m_source_file>
AV-unprocessed.smi

> <i_m_source_file_index>
128

> <i_lp_mmshare_version>
43012

> <i_f3d_flags>
0

> <s_epik_input>
TzFbQ0gyXVtDSDJdW0NIMl1bQ0BIXTFuKFtjSF1jKEYpYzI9TyljKD1PKW4yW0NIMl1jM25uYyhvMyktYzRbY0hdW2NIXWMoQnIpW2NIXVtjSF00

> <s_epik_cmdline>
J2VwaWtfcHl0aG9uJywgJy1waCcsICc3LjAnLCAnLXRuJywgJzgnLCAnLW1hJywgJzIwMCcsICctbWV0YWxfYmluZGluZycsICctaW1hZScsICc8aW5maWxlLm1hZT4nLCAnLW9tYWUnLCAnPG91dGZpbGUubWFlPic=

> <r_lp_tautomer_probability>
1

> <r_epik_Ionization_Penalty>
2.55537e-09

> <r_epik_Ionization_Penalty_Charging>
2.54231e-09

> <r_epik_Ionization_Penalty_Neutral>
1.30653e-11

> <r_epik_State_Penalty>
-0

> <r_epik_Charging_Adjusted_Penalty>
2.54231e-09

> <i_epik_Tot_Q>
0

> <i_epik_Tot_abs_Q>
0

> <r_epik_Metal_State_Penalty>
-0

> <b_epik_Metal_Only>
0

> <s_epik_Chemistry_Notes>
This compound contains an acetal/aminal-like group ( X-CH(R)-Y where X, Y are N, S, or O) that may be acid/base labile, releasing an aldehyde.

> <s_lp_Force_Field>
OPLS_2005

> <r_lp_Energy>
32.2768

> <b_lp_Chiralities_Consistent>
1

> <s_lp_Variant>
AV-unprocessed.smi:128-2

> <Gold.Version>
5.8.1

> <Gold.Id.Protein>
6NUR|6NUR_protein|mol2

> <Gold.PLP.Fitness>
60.7101

> <Gold.PLP.PLP>
-53.5062

> <Gold.PLP.part.hbond>
-4.0000

> <Gold.PLP.part.metal>
0.0000

> <Gold.PLP.part.buried>
-4.2098

> <Gold.PLP.part.nonpolar>
-46.4696

> <Gold.PLP.part.repulsive>
0.3778

> <Gold.PLP.ligand.clash>
0.0000

> <Gold.PLP.ligand.torsion>
1.0452

> <Gold.PLP.Chemscore.Hbond>
2.0897

> <Gold.PLP.Chemscore.CHOScore>
1.0000

> <Gold.PLP.Chemscore.Metal>
0.0000

> <Gold.Chemscore.Hbonds>
donor molecule, donor type, donor heavy atom, donor atom, acceptor molecule, acceptor atom, score
      P1  H  6896  6908       L1    18  0.05
      P1  H  7997  8009       L1    13  0.99
      P1  H 10752 10763       L1    27  1.00
      L1  C     5    28       P1  8028  1.00

> <Gold.PLP.Chemscore.Internal.Correction>
0.0253

> <Gold.Rescore>
     Score         DG    S(hbond)    S(metal)    S(lipo)     H(rot)  DE(clash)    DE(int)     intcor
     16.81     -17.80       1.80        0.00      91.14       1.70       0.06       0.93       ----

> <Gold.Chemscore.Fitness>
16.8072

> <Gold.Chemscore.DG>
-17.7989

> <Gold.Chemscore.ZeroCoef>
-5.4800

> <Gold.Chemscore.Hbond>
1.7972

> <Gold.Chemscore.Metal>
0.0000

> <Gold.Chemscore.Lipo>
91.1377

> <Gold.Chemscore.Internal_Hbond>
0.0000

> <Gold.Chemscore.DEClash>
0.0599

> <Gold.Chemscore.DEInternal>
0.9319

> <Gold.Chemscore.Rot>
1.6980

> <Gold.Chemscore.Internal.Correction>
   9.000000E+99

> <Gold.Chemscore.Hbonds>
donor molecule, donor type, donor heavy atom, donor atom, acceptor molecule, acceptor atom, score
      P1  H  6896  6908       L1    18  0.05
      P1  H  7997  8009       L1    13  0.46
      P1  H 10752 10763       L1    27  0.47

> <Gold.Chemscore.Hbond.Weighted>
-6.0027

> <Gold.Chemscore.Metal.Weighted>
-0.0000

> <Gold.Chemscore.Lipo.Weighted>
-10.6631

> <Gold.Chemscore.Internal_Hbond.Weighted>
0.0000

> <Gold.Chemscore.DEClash.Weighted>
0.0599

> <Gold.Chemscore.DEInternal.Weighted>
0.9319

> <Gold.Chemscore.Rot.Weighted>
4.3469

> <Gold.Chemscore.Internal.Correction.Weighted>
   9.000000E+99

> <Gold.Protein.RotatedTorsions>
[ 6907 6896 6895 6894 ] final  168.38 input  -60.11 | X-H torsion
[ 7974 7965 7964 7962 ] final   27.71 input  175.53 | X-H torsion
[ 8008 7997 7996 7995 ] final  152.96 input   59.86 | X-H torsion
[ 10167 10162 10161 10158 ] final   81.96 input  -65.29 | X-H torsion
[ 10718 10713 10712 10709 ] final   13.02 input   66.30 | X-H torsion
[ 10763 10752 10751 10750 ] final   61.62 input  -60.55 | X-H torsion
[ 11005 11000 10999 10996 ] final   71.36 input  -57.11 | X-H torsion

> <Gold.Protein.ActiveResidues>
 VAL166  LYS551  ARG553  GLY616  TRP617  ASP618  TYR619  PRO620  LYS621  CYS622 
 ASP623  PHE694  ASN695  SER759  ASP760  ASP761  ALA762  ILE779  LEU786  VAL792 
 PHE793  MET794  SER795  GLU796  ALA797  LYS798  CYS799  TRP800  GLU811  SER814 

> <Gold.Protein.RotatedAtoms>
  151.8486  133.3436  159.3665 H   0  0  0  0  0  0  0  0  0  0  0  0  # atno 6907 bound_to 6896
  150.7213  134.5321  159.5715 H   0  0  0  0  0  0  0  0  0  0  0  0  # atno 6908 bound_to 6896
  152.2810  134.7829  160.0447 H   0  0  0  0  0  0  0  0  0  0  0  0  # atno 6909 bound_to 6896
  146.1769  139.7154  142.8928 H   0  0  0  0  0  0  0  0  0  0  0  0  # atno 7974 bound_to 7965
  156.2604  140.2006  156.6416 H   0  0  0  0  0  0  0  0  0  0  0  0  # atno 8008 bound_to 7997
  154.6605  140.0561  157.0082 H   0  0  0  0  0  0  0  0  0  0  0  0  # atno 8009 bound_to 7997
  155.1283  140.3231  155.4483 H   0  0  0  0  0  0  0  0  0  0  0  0  # atno 8010 bound_to 7997
  139.9338  144.6134  150.8318 H   0  0  0  0  0  0  0  0  0  0  0  0  # atno 10167 bound_to 10162
  157.0187  130.6146  149.5718 H   0  0  0  0  0  0  0  0  0  0  0  0  # atno 10718 bound_to 10713
  152.9956  135.5494  154.6063 H   0  0  0  0  0  0  0  0  0  0  0  0  # atno 10763 bound_to 10752
  154.5393  135.2819  155.1112 H   0  0  0  0  0  0  0  0  0  0  0  0  # atno 10764 bound_to 10752
  154.2396  135.6419  153.5255 H   0  0  0  0  0  0  0  0  0  0  0  0  # atno 10765 bound_to 10752
  139.9548  134.7164  156.0779 H   0  0  0  0  0  0  0  0  0  0  0  0  # atno 11005 bound_to 11000
  145.4186  141.0404  143.2976 LP  0  0  0  0  0  0  0  0  0  0  0  0  # atno 17320 bound_to 7965
  144.8251  139.5725  143.6969 LP  0  0  0  0  0  0  0  0  0  0  0  0  # atno 17321 bound_to 7965
  140.7630  143.3212  151.2618 LP  0  0  0  0  0  0  0  0  0  0  0  0  # atno 17342 bound_to 10162
  139.6760  143.9937  152.2781 LP  0  0  0  0  0  0  0  0  0  0  0  0  # atno 17343 bound_to 10162
  156.0110  130.5201  150.7988 LP  0  0  0  0  0  0  0  0  0  0  0  0  # atno 17370 bound_to 10713
  157.5266  131.0934  151.0009 LP  0  0  0  0  0  0  0  0  0  0  0  0  # atno 17371 bound_to 10713
  141.1217  133.6611  156.3232 LP  0  0  0  0  0  0  0  0  0  0  0  0  # atno 17394 bound_to 11000
  140.5635  134.5911  157.5440 LP  0  0  0  0  0  0  0  0  0  0  0  0  # atno 17395 bound_to 11000

$$$$
