AV-unprocessed.smi:3246|AV-procd|sdf|12411|dock9
  -GOLD-   2272018293D 1   1.00000     0.00000
 Structure written by MMmdl.
 36 37  0  0  0  0  0  0  0  0  2 V2000
  149.7008  142.8683  159.3696 O   0  0  0  0  0  0  0  0  0  0  0  0
  150.6659  142.9854  158.6150 C   0  0  0  0  0  0  0  0  0  0  0  0
  151.8805  143.8046  159.0823 C   0  0  0  0  0  0  0  0  0  0  0  0
  152.6597  143.1975  160.1645 N   0  0  0  0  0  0  0  0  0  0  0  0
  152.5356  143.6840  161.5288 C   0  0  0  0  0  0  0  0  0  0  0  0
  153.3156  142.6754  162.3842 C   0  0  0  0  0  0  0  0  0  0  0  0
  154.1466  141.8471  161.3983 C   0  0  0  0  0  0  0  0  0  0  0  0
  153.5438  142.1984  160.0490 C   0  0  0  0  0  0  0  0  0  0  0  0
  153.8454  141.6141  159.0096 O   0  0  0  0  0  0  0  0  0  0  0  0
  150.7041  142.4189  157.3964 N   0  0  0  0  0  0  0  0  0  0  0  0
  149.6372  141.6174  156.8106 C   0  0  0  0  0  0  0  0  0  0  0  0
  149.6946  141.6399  155.2746 C   0  0  0  0  0  0  0  0  0  0  0  0
  150.5784  140.5399  154.7206 C   0  0  0  0  0  0  0  0  0  0  0  0
  151.9289  140.4302  155.1196 C   0  0  0  0  0  0  0  0  0  0  0  0
  152.7263  139.3975  154.5834 C   0  0  0  0  0  0  0  0  0  0  0  0
  152.1549  138.4978  153.6600 C   0  0  0  0  0  0  0  0  0  0  0  0
  150.8595  138.6351  153.3008 N   0  3  0  0  0  0  0  0  0  0  0  0
  150.0630  139.6104  153.7913 C   0  0  0  0  0  0  0  0  0  0  0  0
  152.5298  143.9845  158.2239 H   0  0  0  0  0  0  0  0  0  0  0  0
  151.5279  144.7851  159.4049 H   0  0  0  0  0  0  0  0  0  0  0  0
  152.9768  144.6793  161.5979 H   0  0  0  0  0  0  0  0  0  0  0  0
  151.4904  143.7505  161.8341 H   0  0  0  0  0  0  0  0  0  0  0  0
  153.9401  143.1744  163.1260 H   0  0  0  0  0  0  0  0  0  0  0  0
  152.6236  142.0258  162.9218 H   0  0  0  0  0  0  0  0  0  0  0  0
  155.1960  142.1425  161.4149 H   0  0  0  0  0  0  0  0  0  0  0  0
  154.0794  140.7774  161.5992 H   0  0  0  0  0  0  0  0  0  0  0  0
  151.5302  142.5631  156.8336 H   0  0  0  0  0  0  0  0  0  0  0  0
  149.6945  140.5926  157.1823 H   0  0  0  0  0  0  0  0  0  0  0  0
  148.6836  142.0189  157.1544 H   0  0  0  0  0  0  0  0  0  0  0  0
  148.6904  141.5354  154.8613 H   0  0  0  0  0  0  0  0  0  0  0  0
  150.0721  142.6012  154.9232 H   0  0  0  0  0  0  0  0  0  0  0  0
  152.3511  141.1290  155.8274 H   0  0  0  0  0  0  0  0  0  0  0  0
  153.7611  139.2971  154.8767 H   0  0  0  0  0  0  0  0  0  0  0  0
  152.6908  137.6797  153.2010 H   0  0  0  0  0  0  0  0  0  0  0  0
  149.0456  139.6180  153.4271 H   0  0  0  0  0  0  0  0  0  0  0  0
  150.4655  137.9739  152.6305 H   0  0  0  0  0  0  0  0  0  0  0  0
  1  2  2  0  0  0  0
  2  3  1  0  0  0  0
  2 10  1  0  0  0  0
  3  4  1  0  0  0  0
  3 19  1  0  0  0  0
  3 20  1  0  0  0  0
  4  8  1  0  0  0  0
  4  5  1  0  0  0  0
  5  6  1  0  0  0  0
  5 21  1  0  0  0  0
  5 22  1  0  0  0  0
  6  7  1  0  0  0  0
  6 23  1  0  0  0  0
  6 24  1  0  0  0  0
  7  8  1  0  0  0  0
  7 25  1  0  0  0  0
  7 26  1  0  0  0  0
  8  9  2  0  0  0  0
 10 11  1  0  0  0  0
 10 27  1  0  0  0  0
 11 12  1  0  0  0  0
 11 28  1  0  0  0  0
 11 29  1  0  0  0  0
 12 13  1  0  0  0  0
 12 30  1  0  0  0  0
 12 31  1  0  0  0  0
 13 18  1  0  0  0  0
 13 14  2  0  0  0  0
 14 15  1  0  0  0  0
 14 32  1  0  0  0  0
 15 16  2  0  0  0  0
 15 33  1  0  0  0  0
 16 17  1  0  0  0  0
 16 34  1  0  0  0  0
 17 18  2  0  0  0  0
 17 36  1  0  0  0  0
 18 35  1  0  0  0  0
M  CHG  1  17   1
M  END
> <s_m_source_file>
AV-unprocessed.smi

> <i_m_source_file_index>
3246

> <i_lp_mmshare_version>
43012

> <i_f3d_flags>
0

> <s_epik_input>
Tz1DMVtDSDJdW0NIMl1bQ0gyXU4xW0NIMl1DKD1PKVtOSF1bQ0gyXVtDSDJdYzJbY0hdW2NIXVtjSF1uW2NIXTI=

> <s_epik_cmdline>
J2VwaWtfcHl0aG9uJywgJy1waCcsICc3LjAnLCAnLXRuJywgJzgnLCAnLW1hJywgJzIwMCcsICctbWV0YWxfYmluZGluZycsICctaW1hZScsICc8aW5maWxlLm1hZT4nLCAnLW9tYWUnLCAnPG91dGZpbGUubWFlPic=

> <r_epik_Ionization_Penalty>
2.27275

> <r_epik_Ionization_Penalty_Charging>
2.27275

> <r_epik_Ionization_Penalty_Neutral>
5.87859e-08

> <r_epik_State_Penalty>
2.42145

> <r_epik_Charging_Adjusted_Penalty>
4.69419

> <i_epik_Tot_Q>
1

> <i_epik_Tot_abs_Q>
1

> <r_epik_Metal_State_Penalty>
2.43419

> <b_epik_Metal_Only>
0

> <s_lp_Force_Field>
OPLS_2005

> <r_lp_Energy>
18.8936

> <b_lp_Chiralities_Consistent>
1

> <s_lp_Variant>
AV-unprocessed.smi:3246-2

> <Gold.Version>
5.8.1

> <Gold.Id.Protein>
6NUR|6NUR_protein|mol2

> <Gold.PLP.Fitness>
52.4388

> <Gold.PLP.PLP>
-47.7705

> <Gold.PLP.part.hbond>
-2.1882

> <Gold.PLP.part.metal>
0.0000

> <Gold.PLP.part.buried>
-3.9776

> <Gold.PLP.part.nonpolar>
-42.0050

> <Gold.PLP.part.repulsive>
0.2141

> <Gold.PLP.ligand.clash>
0.0000

> <Gold.PLP.ligand.torsion>
0.6738

> <Gold.PLP.Chemscore.Hbond>
2.0000

> <Gold.PLP.Chemscore.CHOScore>
0.0000

> <Gold.PLP.Chemscore.Metal>
0.0000

> <Gold.Chemscore.Hbonds>
donor molecule, donor type, donor heavy atom, donor atom, acceptor molecule, acceptor atom, score
      L1  H    17    36       P1  7948  0.13

> <Gold.PLP.Chemscore.Internal.Correction>
0.0158

> <Gold.Rescore>
     Score         DG    S(hbond)    S(metal)    S(lipo)     H(rot)  DE(clash)    DE(int)     intcor
     14.35     -14.99       1.20        0.00      89.89       1.96       0.03       0.61       ----

> <Gold.Chemscore.Fitness>
14.3504

> <Gold.Chemscore.DG>
-14.9867

> <Gold.Chemscore.ZeroCoef>
-5.4800

> <Gold.Chemscore.Hbond>
1.1979

> <Gold.Chemscore.Metal>
0.0000

> <Gold.Chemscore.Lipo>
89.8946

> <Gold.Chemscore.Internal_Hbond>
0.0000

> <Gold.Chemscore.DEClash>
0.0270

> <Gold.Chemscore.DEInternal>
0.6093

> <Gold.Chemscore.Rot>
1.9579

> <Gold.Chemscore.Internal.Correction>
   9.000000E+99

> <Gold.Chemscore.Hbonds>
donor molecule, donor type, donor heavy atom, donor atom, acceptor molecule, acceptor atom, score
      P1  H  6933  6944       L1     1  0.01

> <Gold.Chemscore.Hbond.Weighted>
-4.0011

> <Gold.Chemscore.Metal.Weighted>
-0.0000

> <Gold.Chemscore.Lipo.Weighted>
-10.5177

> <Gold.Chemscore.Internal_Hbond.Weighted>
0.0000

> <Gold.Chemscore.DEClash.Weighted>
0.0270

> <Gold.Chemscore.DEInternal.Weighted>
0.6093

> <Gold.Chemscore.Rot.Weighted>
5.0121

> <Gold.Chemscore.Internal.Correction.Weighted>
   9.000000E+99

> <Gold.Protein.RotatedTorsions>
[ 6907 6896 6895 6894 ] final -145.57 input  -60.11 | X-H torsion
[ 7974 7965 7964 7962 ] final  119.84 input  175.53 | X-H torsion
[ 8008 7997 7996 7995 ] final  137.22 input   59.86 | X-H torsion
[ 10167 10162 10161 10158 ] final  117.58 input  -65.29 | X-H torsion
[ 10718 10713 10712 10709 ] final  117.23 input   66.30 | X-H torsion
[ 10763 10752 10751 10750 ] final -123.92 input  -60.55 | X-H torsion
[ 11005 11000 10999 10996 ] final  -23.14 input  -57.11 | X-H torsion

> <Gold.Protein.ActiveResidues>
 VAL166  LYS551  ARG553  GLY616  TRP617  ASP618  TYR619  PRO620  LYS621  CYS622 
 ASP623  PHE694  ASN695  SER759  ASP760  ASP761  ALA762  ILE779  LEU786  VAL792 
 PHE793  MET794  SER795  GLU796  ALA797  LYS798  CYS799  TRP800  GLU811  SER814 

> <Gold.Protein.RotatedAtoms>
  151.1296  133.5046  159.2599 H   0  0  0  0  0  0  0  0  0  0  0  0  # atno 6907 bound_to 6896
  151.1772  135.0344  159.8787 H   0  0  0  0  0  0  0  0  0  0  0  0  # atno 6908 bound_to 6896
  152.5459  134.1152  159.8429 H   0  0  0  0  0  0  0  0  0  0  0  0  # atno 6909 bound_to 6896
  145.1383  139.3284  143.4629 H   0  0  0  0  0  0  0  0  0  0  0  0  # atno 7974 bound_to 7965
  156.3002  140.2425  156.3874 H   0  0  0  0  0  0  0  0  0  0  0  0  # atno 8008 bound_to 7997
  154.8645  140.0418  157.1705 H   0  0  0  0  0  0  0  0  0  0  0  0  # atno 8009 bound_to 7997
  154.8861  140.2956  155.5401 H   0  0  0  0  0  0  0  0  0  0  0  0  # atno 8010 bound_to 7997
  139.6169  144.7093  151.2720 H   0  0  0  0  0  0  0  0  0  0  0  0  # atno 10167 bound_to 10162
  157.6110  131.1035  150.7586 H   0  0  0  0  0  0  0  0  0  0  0  0  # atno 10718 bound_to 10713
  154.8715  135.4081  154.3022 H   0  0  0  0  0  0  0  0  0  0  0  0  # atno 10763 bound_to 10752
  153.3880  135.7014  153.6521 H   0  0  0  0  0  0  0  0  0  0  0  0  # atno 10764 bound_to 10752
  153.5316  135.3666  155.2650 H   0  0  0  0  0  0  0  0  0  0  0  0  # atno 10765 bound_to 10752
  140.8723  133.7712  156.0201 H   0  0  0  0  0  0  0  0  0  0  0  0  # atno 11005 bound_to 11000
  146.3507  140.1410  142.8594 LP  0  0  0  0  0  0  0  0  0  0  0  0  # atno 17320 bound_to 7965
  145.0560  140.9053  143.4967 LP  0  0  0  0  0  0  0  0  0  0  0  0  # atno 17321 bound_to 7965
  140.7357  143.6730  150.8065 LP  0  0  0  0  0  0  0  0  0  0  0  0  # atno 17342 bound_to 10162
  140.0334  143.5420  152.2750 LP  0  0  0  0  0  0  0  0  0  0  0  0  # atno 17343 bound_to 10162
  156.7963  130.4906  149.5376 LP  0  0  0  0  0  0  0  0  0  0  0  0  # atno 17370 bound_to 10713
  156.1212  130.6111  151.0197 LP  0  0  0  0  0  0  0  0  0  0  0  0  # atno 17371 bound_to 10713
  140.8558  134.2899  157.5256 LP  0  0  0  0  0  0  0  0  0  0  0  0  # atno 17394 bound_to 11000
  139.8713  134.9492  156.4019 LP  0  0  0  0  0  0  0  0  0  0  0  0  # atno 17395 bound_to 11000

$$$$
