AV-unprocessed.smi:210|AV-procd|sdf|1611|dock8
  -GOLD-   2262019533D 1   1.00000     0.00000
 Structure written by MMmdl.
 57 61  0  0  0  0  0  0  0  0  1 V2000
  148.7457  137.6875  159.3278 C   0  0  0  0  0  0  0  0  0  0  0  0
  147.4218  138.1864  159.2359 O   0  0  0  0  0  0  0  0  0  0  0  0
  146.4428  137.1581  159.2988 C   0  0  2  0  0  0  0  0  0  0  0  0
  146.4141  136.3691  157.9839 C   0  0  0  0  0  0  0  0  0  0  0  0
  145.3655  137.3717  157.4742 C   0  0  1  0  0  0  0  0  0  0  0  0
  144.2898  136.7777  156.6790 N   0  0  0  0  0  0  0  0  0  0  0  0
  143.0624  137.5582  156.5758 C   0  0  0  0  0  0  0  0  0  0  0  0
  144.6949  136.3378  155.4671 C   0  0  0  0  0  0  0  0  0  0  0  0
  145.9744  136.5495  155.0604 N   0  0  0  0  0  0  0  0  0  0  0  0
  146.3727  136.1083  153.8632 C   0  0  0  0  0  0  0  0  0  0  0  0
  145.6699  135.4462  152.9407 N   0  0  0  0  0  0  0  0  0  0  0  0
  144.3861  135.2317  153.3511 C   0  0  0  0  0  0  0  0  0  0  0  0
  143.8217  135.6439  154.5903 C   0  0  0  0  0  0  0  0  0  0  0  0
  142.4910  135.2555  154.6647 N   0  0  0  0  0  0  0  0  0  0  0  0
  142.2780  134.6481  153.5292 C   0  0  0  0  0  0  0  0  0  0  0  0
  143.3624  134.5824  152.6814 N   0  0  0  0  0  0  0  0  0  0  0  0
  143.3976  133.9852  151.3764 C   0  0  0  0  0  0  0  0  0  0  0  0
  144.0826  132.6366  151.1534 C   0  0  0  0  0  0  0  0  0  0  0  0
  144.4928  133.0870  149.7333 C   0  0  0  0  0  0  0  0  0  0  0  0
  145.9231  132.7065  149.3159 C   0  0  0  0  0  0  0  0  0  0  0  0
  146.8400  132.9255  150.3688 O   0  0  0  0  0  0  0  0  0  0  0  0
  143.5140  132.6850  148.6116 C   0  0  0  0  0  0  0  0  0  0  0  0
  143.6301  133.5400  147.4920 O   0  0  0  0  0  0  0  0  0  0  0  0
  144.3173  134.5240  150.2784 C   0  0  0  0  0  0  0  0  0  0  0  0
  145.0143  137.6345  158.9541 C   0  0  0  0  0  0  0  0  0  0  0  0
  144.4677  138.9851  159.4408 C   0  0  0  0  0  0  0  0  0  0  0  0
  143.7158  138.2268  160.5390 C   0  0  0  0  0  0  0  0  0  0  0  0
  143.8281  136.9658  159.6759 C   0  0  0  0  0  0  0  0  0  0  0  0
  149.4512  138.5183  159.3332 H   0  0  0  0  0  0  0  0  0  0  0  0
  148.9819  137.0524  158.4730 H   0  0  0  0  0  0  0  0  0  0  0  0
  148.8972  137.1089  160.2393 H   0  0  0  0  0  0  0  0  0  0  0  0
  146.5204  136.5121  160.1754 H   0  0  0  0  0  0  0  0  0  0  0  0
  147.3507  136.3672  157.4255 H   0  0  0  0  0  0  0  0  0  0  0  0
  146.0242  135.3581  158.1168 H   0  0  0  0  0  0  0  0  0  0  0  0
  145.8310  138.2433  157.0101 H   0  0  0  0  0  0  0  0  0  0  0  0
  142.3361  137.0626  155.9300 H   0  0  0  0  0  0  0  0  0  0  0  0
  143.2654  138.5489  156.1671 H   0  0  0  0  0  0  0  0  0  0  0  0
  142.5987  137.6861  157.5527 H   0  0  0  0  0  0  0  0  0  0  0  0
  147.4018  136.3146  153.6086 H   0  0  0  0  0  0  0  0  0  0  0  0
  141.3142  134.2299  153.2775 H   0  0  0  0  0  0  0  0  0  0  0  0
  142.3688  133.9497  151.0150 H   0  0  0  0  0  0  0  0  0  0  0  0
  144.9379  132.4853  151.8146 H   0  0  0  0  0  0  0  0  0  0  0  0
  143.4100  131.7789  151.1852 H   0  0  0  0  0  0  0  0  0  0  0  0
  145.9874  131.6650  149.0003 H   0  0  0  0  0  0  0  0  0  0  0  0
  146.2486  133.3035  148.4636 H   0  0  0  0  0  0  0  0  0  0  0  0
  147.5762  132.3447  150.2507 H   0  0  0  0  0  0  0  0  0  0  0  0
  143.6799  131.6578  148.2866 H   0  0  0  0  0  0  0  0  0  0  0  0
  142.4808  132.7281  148.9565 H   0  0  0  0  0  0  0  0  0  0  0  0
  142.8000  133.5575  147.0405 H   0  0  0  0  0  0  0  0  0  0  0  0
  143.8350  135.2227  149.5940 H   0  0  0  0  0  0  0  0  0  0  0  0
  145.2442  134.9461  150.6698 H   0  0  0  0  0  0  0  0  0  0  0  0
  145.2125  139.6946  159.7986 H   0  0  0  0  0  0  0  0  0  0  0  0
  143.7951  139.4514  158.7200 H   0  0  0  0  0  0  0  0  0  0  0  0
  144.2863  138.1548  161.4663 H   0  0  0  0  0  0  0  0  0  0  0  0
  142.6965  138.5710  160.7154 H   0  0  0  0  0  0  0  0  0  0  0  0
  142.9496  136.8159  159.0484 H   0  0  0  0  0  0  0  0  0  0  0  0
  144.0781  136.0602  160.2294 H   0  0  0  0  0  0  0  0  0  0  0  0
  1  2  1  0  0  0  0
  1 29  1  0  0  0  0
  1 30  1  0  0  0  0
  1 31  1  0  0  0  0
  2  3  1  0  0  0  0
  3 25  1  0  0  0  0
  3  4  1  0  0  0  0
  3 32  1  0  0  0  0
  4  5  1  0  0  0  0
  4 33  1  0  0  0  0
  4 34  1  0  0  0  0
  5  6  1  0  0  0  0
  5 25  1  0  0  0  0
  5 35  1  0  0  0  0
  6  7  1  0  0  0  0
  6  8  1  0  0  0  0
  7 36  1  0  0  0  0
  7 37  1  0  0  0  0
  7 38  1  0  0  0  0
  8 13  1  0  0  0  0
  8  9  2  0  0  0  0
  9 10  1  0  0  0  0
 10 11  2  0  0  0  0
 10 39  1  0  0  0  0
 11 12  1  0  0  0  0
 12 16  1  0  0  0  0
 12 13  2  0  0  0  0
 13 14  1  0  0  0  0
 14 15  2  0  0  0  0
 15 16  1  0  0  0  0
 15 40  1  0  0  0  0
 16 17  1  0  0  0  0
 17 24  1  0  0  0  0
 17 18  1  0  0  0  0
 17 41  1  0  0  0  0
 18 19  1  0  0  0  0
 18 42  1  0  0  0  0
 18 43  1  0  0  0  0
 19 20  1  0  0  0  0
 19 22  1  0  0  0  0
 19 24  1  0  0  0  0
 20 21  1  0  0  0  0
 20 44  1  0  0  0  0
 20 45  1  0  0  0  0
 21 46  1  0  0  0  0
 22 23  1  0  0  0  0
 22 47  1  0  0  0  0
 22 48  1  0  0  0  0
 23 49  1  0  0  0  0
 24 50  1  0  0  0  0
 24 51  1  0  0  0  0
 25 28  1  0  0  0  0
 25 26  1  0  0  0  0
 26 27  1  0  0  0  0
 26 52  1  0  0  0  0
 26 53  1  0  0  0  0
 27 28  1  0  0  0  0
 27 54  1  0  0  0  0
 27 55  1  0  0  0  0
 28 56  1  0  0  0  0
 28 57  1  0  0  0  0
M  END
> <s_m_source_file>
AV-unprocessed.smi

> <i_m_source_file_index>
210

> <i_lp_mmshare_version>
43012

> <i_f3d_flags>
0

> <s_epik_input>
W0NIMl0xW0NIMl1bQ0gyXUMxMltDQEhdKE9bQ0gzXSlbQ0gyXVtDQEhdMk4oW0NIM10pYyhuW2NIXW4zKWMoYzM0KW5bY0hdbjRbQ0hdKFtDSDJdNSlbQ0gyXUM1KFtDSDJdW09IXSlbQ0gyXVtPSF0=

> <s_epik_cmdline>
J2VwaWtfcHl0aG9uJywgJy1waCcsICc3LjAnLCAnLXRuJywgJzgnLCAnLW1hJywgJzIwMCcsICctbWV0YWxfYmluZGluZycsICctaW1hZScsICc8aW5maWxlLm1hZT4nLCAnLW9tYWUnLCAnPG91dGZpbGUubWFlPic=

> <r_lp_tautomer_probability>
1

> <r_epik_Ionization_Penalty>
0.00313676

> <r_epik_Ionization_Penalty_Charging>
0

> <r_epik_Ionization_Penalty_Neutral>
0.00313676

> <r_epik_State_Penalty>
0.00199132

> <r_epik_Charging_Adjusted_Penalty>
0.00199132

> <i_epik_Tot_Q>
0

> <i_epik_Tot_abs_Q>
0

> <r_epik_Metal_State_Penalty>
-0

> <b_epik_Metal_Only>
0

> <s_lp_Force_Field>
OPLS_2005

> <r_lp_Energy>
59.5036

> <b_lp_Chiralities_Consistent>
1

> <s_lp_Variant>
AV-unprocessed.smi:210-1

> <Gold.Version>
5.8.1

> <Gold.Id.Protein>
6NUR|6NUR_protein|mol2

> <Gold.PLP.Fitness>
46.6077

> <Gold.PLP.PLP>
-34.3508

> <Gold.PLP.part.hbond>
-5.4095

> <Gold.PLP.part.metal>
0.0000

> <Gold.PLP.part.buried>
-4.0859

> <Gold.PLP.part.nonpolar>
-24.2989

> <Gold.PLP.part.repulsive>
0.1779

> <Gold.PLP.ligand.clash>
0.0000

> <Gold.PLP.ligand.torsion>
1.1540

> <Gold.PLP.Chemscore.Hbond>
3.5709

> <Gold.PLP.Chemscore.CHOScore>
0.9143

> <Gold.PLP.Chemscore.Metal>
0.0000

> <Gold.Chemscore.Hbonds>
donor molecule, donor type, donor heavy atom, donor atom, acceptor molecule, acceptor atom, score
      L1  H    21    46       P1 10747  1.00
      L1  H    23    49       P1 10195  1.00
      P1  H  6934  6947       L1     2  0.42
      P1  H  7918  7932       L1    23  0.74
      L1  C    10    39       P1  7948  1.00

> <Gold.PLP.Chemscore.Internal.Correction>
1.1091

> <Gold.Rescore>
     Score         DG    S(hbond)    S(metal)    S(lipo)     H(rot)  DE(clash)    DE(int)     intcor
     12.21     -13.53       2.78        0.00      67.57       3.57       0.27       1.05       ----

> <Gold.Chemscore.Fitness>
12.2083

> <Gold.Chemscore.DG>
-13.5297

> <Gold.Chemscore.ZeroCoef>
-5.4800

> <Gold.Chemscore.Hbond>
2.7803

> <Gold.Chemscore.Metal>
0.0000

> <Gold.Chemscore.Lipo>
67.5720

> <Gold.Chemscore.Internal_Hbond>
0.0000

> <Gold.Chemscore.DEClash>
0.2723

> <Gold.Chemscore.DEInternal>
1.0492

> <Gold.Chemscore.Rot>
3.5712

> <Gold.Chemscore.Internal.Correction>
   9.000000E+99

> <Gold.Chemscore.Hbonds>
donor molecule, donor type, donor heavy atom, donor atom, acceptor molecule, acceptor atom, score
      L1  H    21    46       P1 10747  0.93
      L1  H    23    49       P1 10195  0.94
      P1  H  6934  6947       L1     2  0.06
      P1  H  7918  7932       L1    23  0.46

> <Gold.Chemscore.Hbond.Weighted>
-9.2862

> <Gold.Chemscore.Metal.Weighted>
-0.0000

> <Gold.Chemscore.Lipo.Weighted>
-7.9059

> <Gold.Chemscore.Internal_Hbond.Weighted>
0.0000

> <Gold.Chemscore.DEClash.Weighted>
0.2723

> <Gold.Chemscore.DEInternal.Weighted>
1.0492

> <Gold.Chemscore.Rot.Weighted>
9.1423

> <Gold.Chemscore.Internal.Correction.Weighted>
   9.000000E+99

> <Gold.Protein.RotatedTorsions>
[ 6907 6896 6895 6894 ] final   85.09 input  -60.11 | X-H torsion
[ 7974 7965 7964 7962 ] final -167.24 input  175.53 | X-H torsion
[ 8008 7997 7996 7995 ] final -130.32 input   59.86 | X-H torsion
[ 10167 10162 10161 10158 ] final -121.01 input  -65.29 | X-H torsion
[ 10718 10713 10712 10709 ] final -157.16 input   66.30 | X-H torsion
[ 10763 10752 10751 10750 ] final  -86.33 input  -60.55 | X-H torsion
[ 11005 11000 10999 10996 ] final  -80.35 input  -57.11 | X-H torsion

> <Gold.Protein.ActiveResidues>
 VAL166  LYS551  ARG553  GLY616  TRP617  ASP618  TYR619  PRO620  LYS621  CYS622 
 ASP623  PHE694  ASN695  SER759  ASP760  ASP761  ALA762  ILE779  LEU786  VAL792 
 PHE793  MET794  SER795  GLU796  ALA797  LYS798  CYS799  TRP800  GLU811  SER814 

> <Gold.Protein.RotatedAtoms>
  152.5367  134.2640  159.8946 H   0  0  0  0  0  0  0  0  0  0  0  0  # atno 6907 bound_to 6896
  151.2599  133.4300  159.2623 H   0  0  0  0  0  0  0  0  0  0  0  0  # atno 6908 bound_to 6896
  151.0462  134.9656  159.8244 H   0  0  0  0  0  0  0  0  0  0  0  0  # atno 6909 bound_to 6896
  144.7227  140.2548  143.6273 H   0  0  0  0  0  0  0  0  0  0  0  0  # atno 7974 bound_to 7965
  155.2938  140.0449  157.3025 H   0  0  0  0  0  0  0  0  0  0  0  0  # atno 8008 bound_to 7997
  154.5526  140.2322  155.8429 H   0  0  0  0  0  0  0  0  0  0  0  0  # atno 8009 bound_to 7997
  156.1979  140.3033  155.9473 H   0  0  0  0  0  0  0  0  0  0  0  0  # atno 8010 bound_to 7997
  140.0297  143.5261  152.2182 H   0  0  0  0  0  0  0  0  0  0  0  0  # atno 10167 bound_to 10162
  156.5365  130.8544  151.2734 H   0  0  0  0  0  0  0  0  0  0  0  0  # atno 10718 bound_to 10713
  154.6213  135.5453  153.7578 H   0  0  0  0  0  0  0  0  0  0  0  0  # atno 10763 bound_to 10752
  153.0239  135.6413  154.1437 H   0  0  0  0  0  0  0  0  0  0  0  0  # atno 10764 bound_to 10752
  154.1371  135.2910  155.3150 H   0  0  0  0  0  0  0  0  0  0  0  0  # atno 10765 bound_to 10752
  141.1668  133.7146  156.8259 H   0  0  0  0  0  0  0  0  0  0  0  0  # atno 11005 bound_to 11000
  145.8193  139.2037  143.1947 LP  0  0  0  0  0  0  0  0  0  0  0  0  # atno 17320 bound_to 7965
  146.0528  140.8052  142.9773 LP  0  0  0  0  0  0  0  0  0  0  0  0  # atno 17321 bound_to 7965
  139.6084  144.7602  151.3008 LP  0  0  0  0  0  0  0  0  0  0  0  0  # atno 17342 bound_to 10162
  140.7307  143.6871  150.7952 LP  0  0  0  0  0  0  0  0  0  0  0  0  # atno 17343 bound_to 10162
  157.7413  130.9867  150.2435 LP  0  0  0  0  0  0  0  0  0  0  0  0  # atno 17370 bound_to 10713
  156.3011  130.3758  149.7749 LP  0  0  0  0  0  0  0  0  0  0  0  0  # atno 17371 bound_to 10713
  140.2086  134.8844  157.3249 LP  0  0  0  0  0  0  0  0  0  0  0  0  # atno 17394 bound_to 11000
  140.2111  134.4137  155.7612 LP  0  0  0  0  0  0  0  0  0  0  0  0  # atno 17395 bound_to 11000

$$$$
