#       Name:                AV-unprocessed.smi:1661
#       Creating user name   scv26
#       Creation time:       Fri Mar 27 07:36:17 2020


#       File generated by GOLD software.
#

@<TRIPOS>MOLECULE
AV-unprocessed.smi:1661
    42    43     1
SMALL
NO_CHARGES


@<TRIPOS>ATOM
      1 ****        -3.8115   1.0309   3.0275 C.3            1 S1                 0.0000
      2 ****        -2.8257   2.0873   2.4985 C.3            1 S1                 0.0000
      3 ****        -2.8328   2.1939   0.9629 C.3            1 S1                 0.0000
      4 ****        -2.1290   1.0005   0.2921 C.3            1 S1                 0.0000
      5 ****        -0.7404   0.8380   0.7959 N.4            1 S1                 1.0000
      6 ****        -0.0036  -0.2260   0.0677 C.3            1 S1                 0.0000
      7 ****         1.5258  -0.0654   0.1750 C.3            1 S1                 0.0000
      8 ****         2.2290  -1.0931  -0.5841 N.am           1 S1                 0.0000
      9 ****         2.3998  -1.0816  -1.9140 C.2            1 S1                 0.0000
     10 ****         1.9584  -0.1932  -2.6433 O.2            1 S1                 0.0000
     11 ****         3.1016  -2.1520  -2.3260 N.am           1 S1                 0.0000
     12 ****         3.4795  -2.4996  -3.6501 C.2            1 S1                 0.0000
     13 ****         3.1709  -1.7639  -4.7295 N.2            1 S1                 0.0000
     14 ****         3.6592  -2.3298  -5.9004 N.2            1 S1                 0.0000
     15 ****         4.3158  -3.4678  -5.6581 C.2            1 S1                 0.0000
     16 ****         4.4020  -3.9600  -3.9757 S.3            1 S1                 0.0000
     17 ****        -0.7123   0.6670   2.2731 C.3            1 S1                 0.0000
     18 ****        -1.3845   1.8542   2.9862 C.3            1 S1                 0.0000
     19 ****        -3.5636   0.0266   2.6853 H              1 S1                 0.0000
     20 ****        -4.8286   1.2482   2.7003 H              1 S1                 0.0000
     21 ****        -3.8169   1.0144   4.1177 H              1 S1                 0.0000
     22 ****        -3.1580   3.0465   2.8976 H              1 S1                 0.0000
     23 ****        -3.8557   2.2808   0.5946 H              1 S1                 0.0000
     24 ****        -2.3266   3.1138   0.6665 H              1 S1                 0.0000
     25 ****        -2.6903   0.0803   0.4591 H              1 S1                 0.0000
     26 ****        -2.1111   1.1642  -0.7861 H              1 S1                 0.0000
     27 ****        -0.3175  -1.2069   0.4277 H              1 S1                 0.0000
     28 ****        -0.2794  -0.1844  -0.9869 H              1 S1                 0.0000
     29 ****         1.8325   0.9241  -0.1687 H              1 S1                 0.0000
     30 ****         1.8559  -0.1508   1.2094 H              1 S1                 0.0000
     31 ****         2.6253  -1.8590  -0.0585 H              1 S1                 0.0000
     32 ****         3.4003  -2.7966  -1.6092 H              1 S1                 0.0000
     33 ****         4.7521  -4.0220  -6.4759 H              1 S1                 0.0000
     34 ****        -1.2035  -0.2684   2.5437 H              1 S1                 0.0000
     35 ****         0.3152   0.5904   2.6260 H              1 S1                 0.0000
     36 ****        -0.7962   2.7547   2.8044 H              1 S1                 0.0000
     37 ****        -1.3717   1.6988   4.0656 H              1 S1                 0.0000
     38 ****        -0.2654   1.7053   0.5896 H              1 S1                 0.0000
     39 ****         1.4439   0.5681  -2.2487 LP             1 S1                 0.0000
     40 ****         2.1145  -0.2329  -3.6303 LP             1 S1                 0.0000
     41 ****         2.6514  -0.9101  -4.6949 LP             1 S1                 0.0000
     42 ****         3.5349  -1.9348  -6.8106 LP             1 S1                 0.0000
@<TRIPOS>BOND
    1    1    2 1     
    2    1   19 1     
    3    1   20 1     
    4    1   21 1     
    5    2   18 1     
    6    2    3 1     
    7    2   22 1     
    8    3    4 1     
    9    3   23 1     
   10    3   24 1     
   11    4    5 1     
   12    4   25 1     
   13    4   26 1     
   14    5    6 1     
   15    5   17 1     
   16    5   38 1     
   17    6    7 1     
   18    6   27 1     
   19    6   28 1     
   20    7    8 1     
   21    7   29 1     
   22    7   30 1     
   23    8    9 am    
   24    8   31 1     
   25    9   10 2     
   26    9   11 am    
   27   11   12 1     
   28   11   32 1     
   29   12   16 1     
   30   12   13 2     
   31   13   14 1     
   32   14   15 2     
   33   15   16 1     
   34   15   33 1     
   35   17   18 1     
   36   17   34 1     
   37   17   35 1     
   38   18   36 1     
   39   18   37 1     
   40   10   39 1     
   41   10   40 1     
   42   13   41 1     
   43   14   42 1     
@<TRIPOS>SUBSTRUCTURE
      1 S1             1
@<TRIPOS>SET
LONE_PAIRS      STATIC     ATOMS    <user>   **** ""
4 39 40 41 42
DONOR_HYDROGENS      STATIC     ATOMS    <user>   **** ""
3 38 31 32
ATOM$BLUE        STATIC     ATOMS    COLORGROUP SYSTEM
4 39 40 41 42
ATOM$RED        STATIC     ATOMS    COLORGROUP SYSTEM
3 38 31 32
