AV-unprocessed.smi:62|AV-procd|sdf|604|dock9
  -GOLD-   2262016503D 1   1.00000     0.00000
 Structure written by MMmdl.
 31 32  0  0  0  0  0  0  0  0  3 V2000
  151.4960  145.5679  159.8098 C   0  0  0  0  0  0  0  0  0  0  0  0
  151.6457  144.2548  159.2203 N   0  0  0  0  0  0  0  0  0  0  0  0
  151.0688  143.7531  158.0774 C   0  0  0  0  0  0  0  0  0  0  0  0
  151.5008  142.4655  157.9107 C   0  0  0  0  0  0  0  0  0  0  0  0
  151.1105  141.5639  156.7604 C   0  0  0  0  0  0  0  0  0  0  0  0
  149.8161  141.9811  156.1716 N   0  3  2  0  0  0  0  0  0  0  0  0
  148.6308  141.7021  157.0162 C   0  0  0  0  0  0  0  0  0  0  0  0
  147.5000  141.2757  156.0681 C   0  0  0  0  0  0  0  0  0  0  0  0
  148.0149  141.6276  154.6731 C   0  0  2  0  0  0  0  0  0  0  0  0
  147.4709  140.7841  153.6799 O   0  0  0  0  0  0  0  0  0  0  0  0
  149.5236  141.4588  154.8213 C   0  0  0  0  0  0  0  0  0  0  0  0
  152.3562  142.2647  159.0499 C   0  0  0  0  0  0  0  0  0  0  0  0
  153.0759  140.9703  159.3221 C   0  0  0  0  0  0  0  0  0  0  0  0
  153.0749  140.0578  158.4685 O   0  0  0  0  0  0  0  0  0  0  0  0
  153.6629  140.8495  160.4196 O   0  5  0  0  0  0  0  0  0  0  0  0
  152.4367  143.3450  159.8157 N   0  0  0  0  0  0  0  0  0  0  0  0
  151.0391  146.2498  159.0920 H   0  0  0  0  0  0  0  0  0  0  0  0
  152.4715  145.9607  160.0991 H   0  0  0  0  0  0  0  0  0  0  0  0
  150.8600  145.5025  160.6930 H   0  0  0  0  0  0  0  0  0  0  0  0
  150.4029  144.3519  157.4735 H   0  0  0  0  0  0  0  0  0  0  0  0
  151.8711  141.4845  155.9858 H   0  0  0  0  0  0  0  0  0  0  0  0
  150.9871  140.5455  157.1314 H   0  0  0  0  0  0  0  0  0  0  0  0
  148.8305  140.9124  157.7424 H   0  0  0  0  0  0  0  0  0  0  0  0
  148.3686  142.6041  157.5696 H   0  0  0  0  0  0  0  0  0  0  0  0
  147.3507  140.1978  156.1534 H   0  0  0  0  0  0  0  0  0  0  0  0
  146.5502  141.7595  156.2978 H   0  0  0  0  0  0  0  0  0  0  0  0
  147.7790  142.6671  154.4408 H   0  0  0  0  0  0  0  0  0  0  0  0
  147.0820  141.3206  153.0055 H   0  0  0  0  0  0  0  0  0  0  0  0
  150.0882  141.9797  154.0470 H   0  0  0  0  0  0  0  0  0  0  0  0
  149.7768  140.3989  154.7783 H   0  0  0  0  0  0  0  0  0  0  0  0
  149.8500  142.9858  156.0767 H   0  0  0  0  0  0  0  0  0  0  0  0
  1  2  1  0  0  0  0
  1 17  1  0  0  0  0
  1 18  1  0  0  0  0
  1 19  1  0  0  0  0
  2 16  1  0  0  0  0
  2  3  1  0  0  0  0
  3  4  2  0  0  0  0
  3 20  1  0  0  0  0
  4  5  1  0  0  0  0
  4 12  1  0  0  0  0
  5  6  1  0  0  0  0
  5 21  1  0  0  0  0
  5 22  1  0  0  0  0
  6 11  1  0  0  0  0
  6  7  1  0  0  0  0
  6 31  1  0  0  0  0
  7  8  1  0  0  0  0
  7 23  1  0  0  0  0
  7 24  1  0  0  0  0
  8  9  1  0  0  0  0
  8 25  1  0  0  0  0
  8 26  1  0  0  0  0
  9 10  1  0  0  0  0
  9 11  1  0  0  0  0
  9 27  1  0  0  0  0
 10 28  1  0  0  0  0
 11 29  1  0  0  0  0
 11 30  1  0  0  0  0
 12 13  1  0  0  0  0
 12 16  2  0  0  0  0
 13 14  2  0  0  0  0
 13 15  1  0  0  0  0
M  CHG  1   6   1
M  CHG  1  15  -1
M  END
> <s_m_source_file>
AV-unprocessed.smi

> <i_m_source_file_index>
62

> <i_lp_mmshare_version>
43012

> <i_f3d_flags>
0

> <s_epik_input>
W0NIM11uMVtjSF1jKGMobjEpQyg9TylbT0hdKVtDSDJdTjJbQ0gyXVtDSDJdW0NAQEhdKFtPSF0pW0NIMl0y

> <s_epik_cmdline>
J2VwaWtfcHl0aG9uJywgJy1waCcsICc3LjAnLCAnLXRuJywgJzgnLCAnLW1hJywgJzIwMCcsICctbWV0YWxfYmluZGluZycsICctaW1hZScsICc8aW5maWxlLm1hZT4nLCAnLW9tYWUnLCAnPG91dGZpbGUubWFlPic=

> <r_epik_Ionization_Penalty>
0.0522993

> <r_epik_Ionization_Penalty_Charging>
0.0522915

> <r_epik_Ionization_Penalty_Neutral>
7.84975e-06

> <r_epik_State_Penalty>
0.0448084

> <r_epik_Charging_Adjusted_Penalty>
0.0970998

> <i_epik_Tot_Q>
0

> <i_epik_Tot_abs_Q>
2

> <r_epik_Metal_State_Penalty>
0.0448097

> <b_epik_Metal_Only>
0

> <s_lp_Force_Field>
OPLS_2005

> <r_lp_Energy>
19.3538

> <b_lp_Chiralities_Consistent>
1

> <s_lp_Variant>
AV-unprocessed.smi:62-4

> <Gold.Version>
5.8.1

> <Gold.Id.Protein>
6NUR|6NUR_protein|mol2

> <Gold.PLP.Fitness>
46.3847

> <Gold.PLP.PLP>
-32.3355

> <Gold.PLP.part.hbond>
-2.0000

> <Gold.PLP.part.metal>
0.0000

> <Gold.PLP.part.buried>
-4.7116

> <Gold.PLP.part.nonpolar>
-25.3710

> <Gold.PLP.part.repulsive>
0.0958

> <Gold.PLP.ligand.clash>
0.0000

> <Gold.PLP.ligand.torsion>
0.4805

> <Gold.PLP.Chemscore.Hbond>
4.0000

> <Gold.PLP.Chemscore.CHOScore>
1.0000

> <Gold.PLP.Chemscore.Metal>
0.0000

> <Gold.Chemscore.Hbonds>
donor molecule, donor type, donor heavy atom, donor atom, acceptor molecule, acceptor atom, score
      L1  H     6    31       P1  8028  1.95
      P1  H  7997  8008       L1    14  1.55
      L1  C     3    20       P1  8028  1.00

> <Gold.PLP.Chemscore.Internal.Correction>
0.0102

> <Gold.Rescore>
     Score         DG    S(hbond)    S(metal)    S(lipo)     H(rot)  DE(clash)    DE(int)     intcor
     13.87     -15.42       1.90        0.00      70.37       1.81       0.08       1.46       ----

> <Gold.Chemscore.Fitness>
13.8739

> <Gold.Chemscore.DG>
-15.4173

> <Gold.Chemscore.ZeroCoef>
-5.4800

> <Gold.Chemscore.Hbond>
1.8967

> <Gold.Chemscore.Metal>
0.0000

> <Gold.Chemscore.Lipo>
70.3730

> <Gold.Chemscore.Internal_Hbond>
0.0000

> <Gold.Chemscore.DEClash>
0.0815

> <Gold.Chemscore.DEInternal>
1.4619

> <Gold.Chemscore.Rot>
1.8091

> <Gold.Chemscore.Internal.Correction>
   9.000000E+99

> <Gold.Chemscore.Hbonds>
donor molecule, donor type, donor heavy atom, donor atom, acceptor molecule, acceptor atom, score
      L1  H     6    31       P1  8028  0.87
      P1  H  7997  8008       L1    14  0.72

> <Gold.Chemscore.Hbond.Weighted>
-6.3351

> <Gold.Chemscore.Metal.Weighted>
-0.0000

> <Gold.Chemscore.Lipo.Weighted>
-8.2336

> <Gold.Chemscore.Internal_Hbond.Weighted>
0.0000

> <Gold.Chemscore.DEClash.Weighted>
0.0815

> <Gold.Chemscore.DEInternal.Weighted>
1.4619

> <Gold.Chemscore.Rot.Weighted>
4.6314

> <Gold.Chemscore.Internal.Correction.Weighted>
   9.000000E+99

> <Gold.Protein.RotatedTorsions>
[ 6907 6896 6895 6894 ] final  119.49 input  -60.11 | X-H torsion
[ 7974 7965 7964 7962 ] final   35.88 input  175.53 | X-H torsion
[ 8008 7997 7996 7995 ] final  -76.28 input   59.86 | X-H torsion
[ 10167 10162 10161 10158 ] final   97.72 input  -65.29 | X-H torsion
[ 10718 10713 10712 10709 ] final   18.06 input   66.30 | X-H torsion
[ 10763 10752 10751 10750 ] final  -51.24 input  -60.55 | X-H torsion
[ 11005 11000 10999 10996 ] final -144.50 input  -57.11 | X-H torsion

> <Gold.Protein.ActiveResidues>
 VAL166  LYS551  ARG553  GLY616  TRP617  ASP618  TYR619  PRO620  LYS621  CYS622 
 ASP623  PHE694  ASN695  SER759  ASP760  ASP761  ALA762  ILE779  LEU786  VAL792 
 PHE793  MET794  SER795  GLU796  ALA797  LYS798  CYS799  TRP800  GLU811  SER814 

> <Gold.Protein.RotatedAtoms>
  152.4468  133.7552  159.6715 H   0  0  0  0  0  0  0  0  0  0  0  0  # atno 6907 bound_to 6896
  150.8370  133.7987  159.3082 H   0  0  0  0  0  0  0  0  0  0  0  0  # atno 6908 bound_to 6896
  151.5624  135.1067  160.0027 H   0  0  0  0  0  0  0  0  0  0  0  0  # atno 6909 bound_to 6896
  146.1251  139.6087  142.9264 H   0  0  0  0  0  0  0  0  0  0  0  0  # atno 7974 bound_to 7965
  154.5491  140.0730  156.8638 H   0  0  0  0  0  0  0  0  0  0  0  0  # atno 8008 bound_to 7997
  155.3028  140.3385  155.4229 H   0  0  0  0  0  0  0  0  0  0  0  0  # atno 8009 bound_to 7997
  156.1945  140.1698  156.8012 H   0  0  0  0  0  0  0  0  0  0  0  0  # atno 8010 bound_to 7997
  139.7775  144.6900  151.0069 H   0  0  0  0  0  0  0  0  0  0  0  0  # atno 10167 bound_to 10162
  157.0910  130.6428  149.5849 H   0  0  0  0  0  0  0  0  0  0  0  0  # atno 10718 bound_to 10713
  154.1234  135.6531  153.4907 H   0  0  0  0  0  0  0  0  0  0  0  0  # atno 10763 bound_to 10752
  153.0218  135.5275  154.7074 H   0  0  0  0  0  0  0  0  0  0  0  0  # atno 10764 bound_to 10752
  154.6288  135.2973  155.0211 H   0  0  0  0  0  0  0  0  0  0  0  0  # atno 10765 bound_to 10752
  140.8018  134.2847  157.4975 H   0  0  0  0  0  0  0  0  0  0  0  0  # atno 11005 bound_to 11000
  145.5382  141.0422  143.2345 LP  0  0  0  0  0  0  0  0  0  0  0  0  # atno 17320 bound_to 7965
  144.7635  139.6901  143.7224 LP  0  0  0  0  0  0  0  0  0  0  0  0  # atno 17321 bound_to 7965
  140.7817  143.4519  151.0400 LP  0  0  0  0  0  0  0  0  0  0  0  0  # atno 17342 bound_to 10162
  139.8201  143.7831  152.3176 LP  0  0  0  0  0  0  0  0  0  0  0  0  # atno 17343 bound_to 10162
  155.9898  130.4947  150.7229 LP  0  0  0  0  0  0  0  0  0  0  0  0  # atno 17370 bound_to 10713
  157.4721  131.0894  151.0631 LP  0  0  0  0  0  0  0  0  0  0  0  0  # atno 17371 bound_to 10713
  139.8721  134.9434  156.3851 LP  0  0  0  0  0  0  0  0  0  0  0  0  # atno 17394 bound_to 11000
  140.9287  133.7594  155.9997 LP  0  0  0  0  0  0  0  0  0  0  0  0  # atno 17395 bound_to 11000

$$$$
