AV-unprocessed.smi:1696|AV-procd|sdf|6799|dock10
  -GOLD-   22720 7563D 1   1.00000     0.00000
 Structure written by MMmdl.
 39 40  0  0  0  0  0  0  0  0  2 V2000
  147.2796  141.9311  154.0815 C   0  0  0  0  0  0  0  0  0  0  0  0
  148.0190  140.6593  154.5284 C   0  0  0  0  0  0  0  0  0  0  0  0
  148.1291  139.5532  153.4435 C   0  0  2  0  0  0  0  0  0  0  0  0
  146.7548  138.9238  153.0917 C   0  0  0  0  0  0  0  0  0  0  0  0
  146.8893  137.6027  152.4819 N   0  0  0  0  0  0  0  0  0  0  0  0
  145.8792  136.7676  152.1964 C   0  0  0  0  0  0  0  0  0  0  0  0
  144.6989  137.0203  152.4377 O   0  0  0  0  0  0  0  0  0  0  0  0
  146.3290  135.6415  151.6156 N   0  0  0  0  0  0  0  0  0  0  0  0
  145.5735  134.5347  151.1468 C   0  0  0  0  0  0  0  0  0  0  0  0
  144.2364  134.4859  151.1311 N   0  0  0  0  0  0  0  0  0  0  0  0
  143.7619  133.2772  150.6152 C   0  0  0  0  0  0  0  0  0  0  0  0
  144.7590  132.4114  150.2401 C   0  0  0  0  0  0  0  0  0  0  0  0
  146.3429  133.0832  150.5220 S   0  0  0  0  0  0  0  0  0  0  0  0
  149.1245  138.5059  153.8206 N   0  3  0  0  0  0  0  0  0  0  0  0
  150.4927  139.0019  154.1156 C   0  0  0  0  0  0  0  0  0  0  0  0
  151.0720  138.1127  155.2255 C   0  0  0  0  0  0  0  0  0  0  0  0
  150.0508  136.9959  155.4116 C   0  0  0  0  0  0  0  0  0  0  0  0
  148.7451  137.6357  154.9551 C   0  0  0  0  0  0  0  0  0  0  0  0
  147.2364  142.6544  154.8959 H   0  0  0  0  0  0  0  0  0  0  0  0
  146.2545  141.7165  153.7804 H   0  0  0  0  0  0  0  0  0  0  0  0
  147.7784  142.4167  153.2437 H   0  0  0  0  0  0  0  0  0  0  0  0
  149.0153  140.9393  154.8711 H   0  0  0  0  0  0  0  0  0  0  0  0
  147.5310  140.2625  155.4186 H   0  0  0  0  0  0  0  0  0  0  0  0
  148.5056  140.0337  152.5388 H   0  0  0  0  0  0  0  0  0  0  0  0
  146.1542  138.7812  153.9893 H   0  0  0  0  0  0  0  0  0  0  0  0
  146.1806  139.6012  152.4580 H   0  0  0  0  0  0  0  0  0  0  0  0
  147.8260  137.3043  152.2517 H   0  0  0  0  0  0  0  0  0  0  0  0
  147.3269  135.5705  151.4827 H   0  0  0  0  0  0  0  0  0  0  0  0
  142.6959  133.1163  150.5507 H   0  0  0  0  0  0  0  0  0  0  0  0
  144.6576  131.4232  149.8166 H   0  0  0  0  0  0  0  0  0  0  0  0
  151.0999  138.9599  153.2107 H   0  0  0  0  0  0  0  0  0  0  0  0
  150.4744  140.0378  154.4573 H   0  0  0  0  0  0  0  0  0  0  0  0
  152.0613  137.7271  154.9779 H   0  0  0  0  0  0  0  0  0  0  0  0
  151.1631  138.6877  156.1477 H   0  0  0  0  0  0  0  0  0  0  0  0
  150.2977  136.1561  154.7604 H   0  0  0  0  0  0  0  0  0  0  0  0
  150.0068  136.6259  156.4364 H   0  0  0  0  0  0  0  0  0  0  0  0
  148.3280  138.2411  155.7617 H   0  0  0  0  0  0  0  0  0  0  0  0
  148.0059  136.8858  154.6728 H   0  0  0  0  0  0  0  0  0  0  0  0
  149.2187  137.8908  153.0248 H   0  0  0  0  0  0  0  0  0  0  0  0
  1  2  1  0  0  0  0
  1 19  1  0  0  0  0
  1 20  1  0  0  0  0
  1 21  1  0  0  0  0
  2  3  1  0  0  0  0
  2 22  1  0  0  0  0
  2 23  1  0  0  0  0
  3  4  1  0  0  0  0
  3 14  1  0  0  0  0
  3 24  1  0  0  0  0
  4  5  1  0  0  0  0
  4 25  1  0  0  0  0
  4 26  1  0  0  0  0
  5  6  1  0  0  0  0
  5 27  1  0  0  0  0
  6  7  2  0  0  0  0
  6  8  1  0  0  0  0
  8  9  1  0  0  0  0
  8 28  1  0  0  0  0
  9 13  1  0  0  0  0
  9 10  2  0  0  0  0
 10 11  1  0  0  0  0
 11 12  2  0  0  0  0
 11 29  1  0  0  0  0
 12 13  1  0  0  0  0
 12 30  1  0  0  0  0
 14 18  1  0  0  0  0
 14 15  1  0  0  0  0
 14 39  1  0  0  0  0
 15 16  1  0  0  0  0
 15 31  1  0  0  0  0
 15 32  1  0  0  0  0
 16 17  1  0  0  0  0
 16 33  1  0  0  0  0
 16 34  1  0  0  0  0
 17 18  1  0  0  0  0
 17 35  1  0  0  0  0
 17 36  1  0  0  0  0
 18 37  1  0  0  0  0
 18 38  1  0  0  0  0
M  CHG  1  14   1
M  END
> <s_m_source_file>
AV-unprocessed.smi

> <i_m_source_file_index>
1696

> <i_lp_mmshare_version>
43012

> <i_f3d_flags>
0

> <s_epik_input>
W0NIMl0xW0NIMl1bQ0gyXVtDSDJdTjFbQ0BIXShbQ0gyXVtDSDNdKVtDSDJdW05IXUMoPU8pW05IXWMybltjSF1bY0hdczI=

> <s_epik_cmdline>
J2VwaWtfcHl0aG9uJywgJy1waCcsICc3LjAnLCAnLXRuJywgJzgnLCAnLW1hJywgJzIwMCcsICctbWV0YWxfYmluZGluZycsICctaW1hZScsICc8aW5maWxlLm1hZT4nLCAnLW9tYWUnLCAnPG91dGZpbGUubWFlPic=

> <r_lp_tautomer_probability>
1

> <r_epik_Ionization_Penalty>
0.0013883

> <r_epik_Ionization_Penalty_Charging>
0.00115997

> <r_epik_Ionization_Penalty_Neutral>
0.000228323

> <r_epik_State_Penalty>
-0

> <r_epik_Charging_Adjusted_Penalty>
0.00115997

> <i_epik_Tot_Q>
1

> <i_epik_Tot_abs_Q>
1

> <r_epik_Metal_State_Penalty>
0.0131845

> <b_epik_Metal_Only>
0

> <s_lp_Force_Field>
OPLS_2005

> <r_lp_Energy>
31.4712

> <b_lp_Chiralities_Consistent>
1

> <s_lp_Variant>
AV-unprocessed.smi:1696-1

> <Gold.Version>
5.8.1

> <Gold.Id.Protein>
6NUR|6NUR_protein|mol2

> <Gold.PLP.Fitness>
44.1542

> <Gold.PLP.PLP>
-29.8587

> <Gold.PLP.part.hbond>
-3.7610

> <Gold.PLP.part.metal>
0.0000

> <Gold.PLP.part.buried>
-1.7822

> <Gold.PLP.part.nonpolar>
-25.0830

> <Gold.PLP.part.repulsive>
0.5421

> <Gold.PLP.ligand.clash>
0.0000

> <Gold.PLP.ligand.torsion>
0.3875

> <Gold.PLP.Chemscore.Hbond>
3.9920

> <Gold.PLP.Chemscore.CHOScore>
0.9989

> <Gold.PLP.Chemscore.Metal>
0.0000

> <Gold.Chemscore.Hbonds>
donor molecule, donor type, donor heavy atom, donor atom, acceptor molecule, acceptor atom, score
      L1  H     5    27       P1  7948  1.00
      L1  H     8    28       P1  7948  0.98
      L1  H    14    39       P1  7948  2.00
      L1  C    11    29       P1 10186  1.00

> <Gold.PLP.Chemscore.Internal.Correction>
0.0980

> <Gold.Rescore>
     Score         DG    S(hbond)    S(metal)    S(lipo)     H(rot)  DE(clash)    DE(int)     intcor
     16.26     -19.35       2.85        0.00      75.83       1.77       1.43       1.66       ----

> <Gold.Chemscore.Fitness>
16.2599

> <Gold.Chemscore.DG>
-19.3476

> <Gold.Chemscore.ZeroCoef>
-5.4800

> <Gold.Chemscore.Hbond>
2.8528

> <Gold.Chemscore.Metal>
0.0000

> <Gold.Chemscore.Lipo>
75.8252

> <Gold.Chemscore.Internal_Hbond>
0.0000

> <Gold.Chemscore.DEClash>
1.4315

> <Gold.Chemscore.DEInternal>
1.6563

> <Gold.Chemscore.Rot>
1.7705

> <Gold.Chemscore.Internal.Correction>
   9.000000E+99

> <Gold.Chemscore.Hbonds>
donor molecule, donor type, donor heavy atom, donor atom, acceptor molecule, acceptor atom, score
      L1  H     5    27       P1  7948  0.96
      L1  H     8    28       P1  7948  0.90
      L1  H    14    39       P1  7948  0.93

> <Gold.Chemscore.Hbond.Weighted>
-9.5285

> <Gold.Chemscore.Metal.Weighted>
-0.0000

> <Gold.Chemscore.Lipo.Weighted>
-8.8715

> <Gold.Chemscore.Internal_Hbond.Weighted>
0.0000

> <Gold.Chemscore.DEClash.Weighted>
1.4315

> <Gold.Chemscore.DEInternal.Weighted>
1.6563

> <Gold.Chemscore.Rot.Weighted>
4.5324

> <Gold.Chemscore.Internal.Correction.Weighted>
   9.000000E+99

> <Gold.Protein.RotatedTorsions>
[ 6907 6896 6895 6894 ] final  -80.33 input  -60.11 | X-H torsion
[ 7974 7965 7964 7962 ] final -115.77 input  175.53 | X-H torsion
[ 8008 7997 7996 7995 ] final   43.44 input   59.86 | X-H torsion
[ 10167 10162 10161 10158 ] final  -15.53 input  -65.29 | X-H torsion
[ 10718 10713 10712 10709 ] final  -23.97 input   66.30 | X-H torsion
[ 10763 10752 10751 10750 ] final -176.78 input  -60.55 | X-H torsion
[ 11005 11000 10999 10996 ] final  141.65 input  -57.11 | X-H torsion

> <Gold.Protein.ActiveResidues>
 VAL166  LYS551  ARG553  GLY616  TRP617  ASP618  TYR619  PRO620  LYS621  CYS622 
 ASP623  PHE694  ASN695  SER759  ASP760  ASP761  ALA762  ILE779  LEU786  VAL792 
 PHE793  MET794  SER795  GLU796  ALA797  LYS798  CYS799  TRP800  GLU811  SER814 

> <Gold.Protein.RotatedAtoms>
  150.6932  134.3986  159.5108 H   0  0  0  0  0  0  0  0  0  0  0  0  # atno 6907 bound_to 6896
  152.1764  134.8789  160.0539 H   0  0  0  0  0  0  0  0  0  0  0  0  # atno 6908 bound_to 6896
  151.9796  133.3718  159.4139 H   0  0  0  0  0  0  0  0  0  0  0  0  # atno 6909 bound_to 6896
  145.1045  140.8573  143.3906 H   0  0  0  0  0  0  0  0  0  0  0  0  # atno 7974 bound_to 7965
  155.3028  140.3386  155.4247 H   0  0  0  0  0  0  0  0  0  0  0  0  # atno 8008 bound_to 7997
  156.1993  140.1727  156.7972 H   0  0  0  0  0  0  0  0  0  0  0  0  # atno 8009 bound_to 7997
  154.5538  140.0700  156.8695 H   0  0  0  0  0  0  0  0  0  0  0  0  # atno 8010 bound_to 7997
  140.7220  143.5208  150.9635 H   0  0  0  0  0  0  0  0  0  0  0  0  # atno 10167 bound_to 10162
  156.4838  130.4551  149.6795 H   0  0  0  0  0  0  0  0  0  0  0  0  # atno 10718 bound_to 10713
  154.5682  135.2825  155.0853 H   0  0  0  0  0  0  0  0  0  0  0  0  # atno 10763 bound_to 10752
  154.2236  135.6387  153.5156 H   0  0  0  0  0  0  0  0  0  0  0  0  # atno 10764 bound_to 10752
  153.0049  135.5520  154.6297 H   0  0  0  0  0  0  0  0  0  0  0  0  # atno 10765 bound_to 10752
  140.0417  134.9301  157.0855 H   0  0  0  0  0  0  0  0  0  0  0  0  # atno 11005 bound_to 11000
  145.0917  139.2885  143.5731 LP  0  0  0  0  0  0  0  0  0  0  0  0  # atno 17320 bound_to 7965
  146.3528  140.0456  142.8639 LP  0  0  0  0  0  0  0  0  0  0  0  0  # atno 17321 bound_to 7965
  139.8925  143.6935  152.3143 LP  0  0  0  0  0  0  0  0  0  0  0  0  # atno 17342 bound_to 10162
  139.7256  144.7593  151.0884 LP  0  0  0  0  0  0  0  0  0  0  0  0  # atno 17343 bound_to 10162
  156.3494  130.7424  151.2381 LP  0  0  0  0  0  0  0  0  0  0  0  0  # atno 17370 bound_to 10713
  157.7480  131.0381  150.4488 LP  0  0  0  0  0  0  0  0  0  0  0  0  # atno 17371 bound_to 10713
  140.4058  134.2033  155.7163 LP  0  0  0  0  0  0  0  0  0  0  0  0  # atno 17394 bound_to 11000
  141.1886  133.8256  157.0987 LP  0  0  0  0  0  0  0  0  0  0  0  0  # atno 17395 bound_to 11000

$$$$
