AV-unprocessed.smi:2544|AV-procd|sdf|9994|dock5
  -GOLD-   2272014 43D 1   1.00000     0.00000
 Structure written by MMmdl.
 40 41  0  0  0  0  0  0  0  0  1 V2000
  151.8530  145.4304  159.8732 C   0  0  0  0  0  0  0  0  0  0  0  0
  151.9248  144.3701  160.9778 C   0  0  0  0  0  0  0  0  0  0  0  0
  152.3958  143.0904  160.4678 N   0  0  0  0  0  0  0  0  0  0  0  0
  153.2943  142.3125  161.1906 C   0  0  0  0  0  0  0  0  0  0  0  0
  153.8046  141.1456  160.7526 C   0  0  0  0  0  0  0  0  0  0  0  0
  153.4096  140.6365  159.4234 C   0  0  0  0  0  0  0  0  0  0  0  0
  153.8509  139.5700  158.9956 O   0  0  0  0  0  0  0  0  0  0  0  0
  152.4608  141.4751  158.6435 C   0  0  0  0  0  0  0  0  0  0  0  0
  152.0896  140.9820  157.3812 N   0  0  0  0  0  0  0  0  0  0  0  0
  150.8783  140.9607  156.7949 C   0  0  0  0  0  0  0  0  0  0  0  0
  149.8385  141.4170  157.2695 O   0  0  0  0  0  0  0  0  0  0  0  0
  150.9393  140.3716  155.5917 N   0  0  0  0  0  0  0  0  0  0  0  0
  149.8053  140.1647  154.6951 C   0  0  0  0  0  0  0  0  0  0  0  0
  148.9881  141.4657  154.5843 C   0  0  0  0  0  0  0  0  0  0  0  0
  147.7551  141.2786  153.6853 C   0  0  0  0  0  0  0  0  0  0  0  0
  146.8754  140.1191  154.1787 C   0  0  0  0  0  0  0  0  0  0  0  0
  147.6850  138.8178  154.2937 C   0  0  0  0  0  0  0  0  0  0  0  0
  148.9190  139.0035  155.1917 C   0  0  0  0  0  0  0  0  0  0  0  0
  152.0199  142.6289  159.2077 C   0  0  0  0  0  0  0  0  0  0  0  0
  151.5074  146.3836  160.2733 H   0  0  0  0  0  0  0  0  0  0  0  0
  151.1630  145.1308  159.0839 H   0  0  0  0  0  0  0  0  0  0  0  0
  152.8311  145.5938  159.4202 H   0  0  0  0  0  0  0  0  0  0  0  0
  152.5871  144.7109  161.7746 H   0  0  0  0  0  0  0  0  0  0  0  0
  150.9418  144.2409  161.4321 H   0  0  0  0  0  0  0  0  0  0  0  0
  153.5563  142.7177  162.1575 H   0  0  0  0  0  0  0  0  0  0  0  0
  154.4973  140.5727  161.3516 H   0  0  0  0  0  0  0  0  0  0  0  0
  152.8535  140.5997  156.8429 H   0  0  0  0  0  0  0  0  0  0  0  0
  151.8349  140.0291  155.2757 H   0  0  0  0  0  0  0  0  0  0  0  0
  150.1806  139.9186  153.6996 H   0  0  0  0  0  0  0  0  0  0  0  0
  148.6668  141.7874  155.5761 H   0  0  0  0  0  0  0  0  0  0  0  0
  149.6123  142.2667  154.1865 H   0  0  0  0  0  0  0  0  0  0  0  0
  147.1732  142.2001  153.6554 H   0  0  0  0  0  0  0  0  0  0  0  0
  148.0766  141.0833  152.6615 H   0  0  0  0  0  0  0  0  0  0  0  0
  146.4483  140.3711  155.1502 H   0  0  0  0  0  0  0  0  0  0  0  0
  146.0349  139.9752  153.4989 H   0  0  0  0  0  0  0  0  0  0  0  0
  147.0539  138.0211  154.6883 H   0  0  0  0  0  0  0  0  0  0  0  0
  148.0025  138.4968  153.3007 H   0  0  0  0  0  0  0  0  0  0  0  0
  149.4918  138.0758  155.2189 H   0  0  0  0  0  0  0  0  0  0  0  0
  148.5955  139.1965  156.2158 H   0  0  0  0  0  0  0  0  0  0  0  0
  151.3171  143.2887  158.7247 H   0  0  0  0  0  0  0  0  0  0  0  0
  1  2  1  0  0  0  0
  1 20  1  0  0  0  0
  1 21  1  0  0  0  0
  1 22  1  0  0  0  0
  2  3  1  0  0  0  0
  2 23  1  0  0  0  0
  2 24  1  0  0  0  0
  3 19  1  0  0  0  0
  3  4  1  0  0  0  0
  4  5  2  0  0  0  0
  4 25  1  0  0  0  0
  5  6  1  0  0  0  0
  5 26  1  0  0  0  0
  6  7  2  0  0  0  0
  6  8  1  0  0  0  0
  8  9  1  0  0  0  0
  8 19  2  0  0  0  0
  9 10  1  0  0  0  0
  9 27  1  0  0  0  0
 10 11  2  0  0  0  0
 10 12  1  0  0  0  0
 12 13  1  0  0  0  0
 12 28  1  0  0  0  0
 13 18  1  0  0  0  0
 13 14  1  0  0  0  0
 13 29  1  0  0  0  0
 14 15  1  0  0  0  0
 14 30  1  0  0  0  0
 14 31  1  0  0  0  0
 15 16  1  0  0  0  0
 15 32  1  0  0  0  0
 15 33  1  0  0  0  0
 16 17  1  0  0  0  0
 16 34  1  0  0  0  0
 16 35  1  0  0  0  0
 17 18  1  0  0  0  0
 17 36  1  0  0  0  0
 17 37  1  0  0  0  0
 18 38  1  0  0  0  0
 18 39  1  0  0  0  0
 19 40  1  0  0  0  0
M  END
> <s_m_source_file>
AV-unprocessed.smi

> <i_m_source_file_index>
2544

> <i_lp_mmshare_version>
43012

> <i_f3d_flags>
0

> <s_epik_input>
W0NIM11bQ0gyXW4xW2NIXVtjSF1jKD1PKWMoW2NIXTEpW05IXUMoPU8pW05IXVtDSF0yW0NIMl1bQ0gyXVtDSDJdW0NIMl1bQ0gyXTI=

> <s_epik_cmdline>
J2VwaWtfcHl0aG9uJywgJy1waCcsICc3LjAnLCAnLXRuJywgJzgnLCAnLW1hJywgJzIwMCcsICctbWV0YWxfYmluZGluZycsICctaW1hZScsICc8aW5maWxlLm1hZT4nLCAnLW9tYWUnLCAnPG91dGZpbGUubWFlPic=

> <r_lp_tautomer_probability>
1

> <r_epik_Ionization_Penalty>
0.00144746

> <r_epik_Ionization_Penalty_Charging>
0.00142605

> <r_epik_Ionization_Penalty_Neutral>
2.14089e-05

> <r_epik_State_Penalty>
0.000952116

> <r_epik_Charging_Adjusted_Penalty>
0.00237816

> <i_epik_Tot_Q>
0

> <i_epik_Tot_abs_Q>
0

> <r_epik_Metal_State_Penalty>
-0

> <b_epik_Metal_Only>
0

> <s_lp_Force_Field>
OPLS_2005

> <r_lp_Energy>
3.66557

> <b_lp_Chiralities_Consistent>
1

> <s_lp_Variant>
AV-unprocessed.smi:2544-1

> <Gold.Version>
5.8.1

> <Gold.Id.Protein>
6NUR|6NUR_protein|mol2

> <Gold.PLP.Fitness>
42.1351

> <Gold.PLP.PLP>
-40.7244

> <Gold.PLP.part.hbond>
-1.0000

> <Gold.PLP.part.metal>
0.0000

> <Gold.PLP.part.buried>
-4.0261

> <Gold.PLP.part.nonpolar>
-36.1098

> <Gold.PLP.part.repulsive>
0.3207

> <Gold.PLP.ligand.clash>
0.0000

> <Gold.PLP.ligand.torsion>
0.8015

> <Gold.PLP.Chemscore.Hbond>
1.0000

> <Gold.PLP.Chemscore.CHOScore>
0.0000

> <Gold.PLP.Chemscore.Metal>
0.0000

> <Gold.Chemscore.Hbonds>
donor molecule, donor type, donor heavy atom, donor atom, acceptor molecule, acceptor atom, score
      P1  H  7997  8010       L1     7  0.88

> <Gold.PLP.Chemscore.Internal.Correction>
0.0137

> <Gold.Rescore>
     Score         DG    S(hbond)    S(metal)    S(lipo)     H(rot)  DE(clash)    DE(int)     intcor
     15.16     -17.19       0.92        0.00      99.28       1.17       0.13       1.89       ----

> <Gold.Chemscore.Fitness>
15.1626

> <Gold.Chemscore.DG>
-17.1851

> <Gold.Chemscore.ZeroCoef>
-5.4800

> <Gold.Chemscore.Hbond>
0.9206

> <Gold.Chemscore.Metal>
0.0000

> <Gold.Chemscore.Lipo>
99.2771

> <Gold.Chemscore.Internal_Hbond>
0.0000

> <Gold.Chemscore.DEClash>
0.1320

> <Gold.Chemscore.DEInternal>
1.8905

> <Gold.Chemscore.Rot>
1.1660

> <Gold.Chemscore.Internal.Correction>
   9.000000E+99

> <Gold.Chemscore.Hbonds>
donor molecule, donor type, donor heavy atom, donor atom, acceptor molecule, acceptor atom, score
      P1  H  7997  8010       L1     7  0.47

> <Gold.Chemscore.Hbond.Weighted>
-3.0747

> <Gold.Chemscore.Metal.Weighted>
-0.0000

> <Gold.Chemscore.Lipo.Weighted>
-11.6154

> <Gold.Chemscore.Internal_Hbond.Weighted>
0.0000

> <Gold.Chemscore.DEClash.Weighted>
0.1320

> <Gold.Chemscore.DEInternal.Weighted>
1.8905

> <Gold.Chemscore.Rot.Weighted>
2.9850

> <Gold.Chemscore.Internal.Correction.Weighted>
   9.000000E+99

> <Gold.Protein.RotatedTorsions>
[ 6907 6896 6895 6894 ] final  -91.50 input  -60.11 | X-H torsion
[ 7974 7965 7964 7962 ] final -166.76 input  175.53 | X-H torsion
[ 8008 7997 7996 7995 ] final   11.27 input   59.86 | X-H torsion
[ 10167 10162 10161 10158 ] final   86.33 input  -65.29 | X-H torsion
[ 10718 10713 10712 10709 ] final    4.52 input   66.30 | X-H torsion
[ 10763 10752 10751 10750 ] final  106.03 input  -60.55 | X-H torsion
[ 11005 11000 10999 10996 ] final  117.44 input  -57.11 | X-H torsion

> <Gold.Protein.ActiveResidues>
 VAL166  LYS551  ARG553  GLY616  TRP617  ASP618  TYR619  PRO620  LYS621  CYS622 
 ASP623  PHE694  ASN695  SER759  ASP760  ASP761  ALA762  ILE779  LEU786  VAL792 
 PHE793  MET794  SER795  GLU796  ALA797  LYS798  CYS799  TRP800  GLU811  SER814 

> <Gold.Protein.RotatedAtoms>
  150.6893  134.2267  159.4417 H   0  0  0  0  0  0  0  0  0  0  0  0  # atno 6907 bound_to 6896
  152.0220  134.9815  160.0580 H   0  0  0  0  0  0  0  0  0  0  0  0  # atno 6908 bound_to 6896
  152.1388  133.4416  159.4793 H   0  0  0  0  0  0  0  0  0  0  0  0  # atno 6909 bound_to 6896
  144.7238  140.2619  143.6263 H   0  0  0  0  0  0  0  0  0  0  0  0  # atno 7974 bound_to 7965
  154.8046  140.2858  155.5896 H   0  0  0  0  0  0  0  0  0  0  0  0  # atno 8008 bound_to 7997
  156.2981  140.2580  156.2851 H   0  0  0  0  0  0  0  0  0  0  0  0  # atno 8009 bound_to 7997
  154.9518  140.0379  157.2137 H   0  0  0  0  0  0  0  0  0  0  0  0  # atno 8010 bound_to 7997
  139.8886  144.6398  150.8763 H   0  0  0  0  0  0  0  0  0  0  0  0  # atno 10167 bound_to 10162
  156.8938  130.5697  149.5649 H   0  0  0  0  0  0  0  0  0  0  0  0  # atno 10718 bound_to 10713
  153.3874  135.3890  155.1899 H   0  0  0  0  0  0  0  0  0  0  0  0  # atno 10763 bound_to 10752
  154.8715  135.3740  154.4781 H   0  0  0  0  0  0  0  0  0  0  0  0  # atno 10764 bound_to 10752
  153.5264  135.7086  153.5767 H   0  0  0  0  0  0  0  0  0  0  0  0  # atno 10765 bound_to 10752
  139.9074  134.9610  156.7351 H   0  0  0  0  0  0  0  0  0  0  0  0  # atno 11005 bound_to 11000
  145.8128  139.2010  143.1983 LP  0  0  0  0  0  0  0  0  0  0  0  0  # atno 17320 bound_to 7965
  146.0581  140.7999  142.9748 LP  0  0  0  0  0  0  0  0  0  0  0  0  # atno 17321 bound_to 7965
  140.7731  143.3528  151.1981 LP  0  0  0  0  0  0  0  0  0  0  0  0  # atno 17342 bound_to 10162
  139.7130  143.9346  152.2955 LP  0  0  0  0  0  0  0  0  0  0  0  0  # atno 17343 bound_to 10162
  156.0616  130.5667  150.9203 LP  0  0  0  0  0  0  0  0  0  0  0  0  # atno 17370 bound_to 10713
  157.6068  131.0938  150.8866 LP  0  0  0  0  0  0  0  0  0  0  0  0  # atno 17371 bound_to 10713
  140.6894  133.9403  155.7957 LP  0  0  0  0  0  0  0  0  0  0  0  0  # atno 17394 bound_to 11000
  141.0452  134.0564  157.3852 LP  0  0  0  0  0  0  0  0  0  0  0  0  # atno 17395 bound_to 11000

$$$$
