AV-unprocessed.smi:556|AV-procd|sdf|2913|dock2
  -GOLD-   2262023403D 1   1.00000     0.00000
 Structure written by MMmdl.
 38 39  0  0  0  0  0  0  0  0  1 V2000
  151.1190  142.4581  158.1082 C   0  0  0  0  0  0  0  0  0  0  0  0
  152.3201  143.2819  158.6036 C   0  0  1  0  0  0  0  0  0  0  0  0
  152.3275  144.7306  158.0714 C   0  0  0  0  0  0  0  0  0  0  0  0
  151.3508  145.5250  158.7264 O   0  0  0  0  0  0  0  0  0  0  0  0
  151.5933  145.6036  160.1219 C   0  0  0  0  0  0  0  0  0  0  0  0
  151.4765  144.2009  160.7336 C   0  0  0  0  0  0  0  0  0  0  0  0
  152.4045  143.2605  160.0824 N   0  0  0  0  0  0  0  0  0  0  0  0
  153.1937  142.4345  160.8197 C   0  0  0  0  0  0  0  0  0  0  0  0
  153.3125  142.5251  162.0427 O   0  0  0  0  0  0  0  0  0  0  0  0
  153.8274  141.4785  160.1179 N   0  0  0  0  0  0  0  0  0  0  0  0
  154.7126  140.4654  160.6798 C   0  0  0  0  0  0  0  0  0  0  0  0
  154.1034  139.0578  160.5759 C   0  0  0  0  0  0  0  0  0  0  0  0
  154.3380  138.2650  161.8310 C   0  0  0  0  0  0  0  0  0  0  0  0
  155.2082  138.5782  162.9139 C   0  0  0  0  0  0  0  0  0  0  0  0
  155.1902  137.6635  163.8697 N   0  0  0  0  0  0  0  0  0  0  0  0
  154.3092  136.7397  163.4338 N   0  0  0  0  0  0  0  0  0  0  0  0
  154.0400  135.5715  164.2447 C   0  0  0  0  0  0  0  0  0  0  0  0
  153.7786  137.0764  162.2073 C   0  0  0  0  0  0  0  0  0  0  0  0
  151.0992  142.4142  157.0191 H   0  0  0  0  0  0  0  0  0  0  0  0
  150.1725  142.8885  158.4355 H   0  0  0  0  0  0  0  0  0  0  0  0
  151.1656  141.4332  158.4771 H   0  0  0  0  0  0  0  0  0  0  0  0
  153.2049  142.8292  158.1560 H   0  0  0  0  0  0  0  0  0  0  0  0
  153.3121  145.1799  158.2123 H   0  0  0  0  0  0  0  0  0  0  0  0
  152.1337  144.7432  156.9988 H   0  0  0  0  0  0  0  0  0  0  0  0
  152.5756  146.0377  160.3163 H   0  0  0  0  0  0  0  0  0  0  0  0
  150.8560  146.2699  160.5697 H   0  0  0  0  0  0  0  0  0  0  0  0
  151.6396  144.2837  161.8089 H   0  0  0  0  0  0  0  0  0  0  0  0
  150.4587  143.8284  160.6150 H   0  0  0  0  0  0  0  0  0  0  0  0
  153.6794  141.4502  159.1196 H   0  0  0  0  0  0  0  0  0  0  0  0
  155.6840  140.5018  160.1836 H   0  0  0  0  0  0  0  0  0  0  0  0
  154.8888  140.7168  161.7262 H   0  0  0  0  0  0  0  0  0  0  0  0
  153.0354  139.1420  160.3716 H   0  0  0  0  0  0  0  0  0  0  0  0
  154.5286  138.5374  159.7169 H   0  0  0  0  0  0  0  0  0  0  0  0
  155.8514  139.4378  163.0312 H   0  0  0  0  0  0  0  0  0  0  0  0
  153.1711  135.0394  163.8564 H   0  0  0  0  0  0  0  0  0  0  0  0
  153.8397  135.8706  165.2741 H   0  0  0  0  0  0  0  0  0  0  0  0
  154.9025  134.9046  164.2258 H   0  0  0  0  0  0  0  0  0  0  0  0
  153.0569  136.4484  161.7057 H   0  0  0  0  0  0  0  0  0  0  0  0
  1  2  1  0  0  0  0
  1 19  1  0  0  0  0
  1 20  1  0  0  0  0
  1 21  1  0  0  0  0
  2  7  1  0  0  0  0
  2  3  1  0  0  0  0
  2 22  1  0  0  0  0
  3  4  1  0  0  0  0
  3 23  1  0  0  0  0
  3 24  1  0  0  0  0
  4  5  1  0  0  0  0
  5  6  1  0  0  0  0
  5 25  1  0  0  0  0
  5 26  1  0  0  0  0
  6  7  1  0  0  0  0
  6 27  1  0  0  0  0
  6 28  1  0  0  0  0
  7  8  1  0  0  0  0
  8  9  2  0  0  0  0
  8 10  1  0  0  0  0
 10 11  1  0  0  0  0
 10 29  1  0  0  0  0
 11 12  1  0  0  0  0
 11 30  1  0  0  0  0
 11 31  1  0  0  0  0
 12 13  1  0  0  0  0
 12 32  1  0  0  0  0
 12 33  1  0  0  0  0
 13 18  2  0  0  0  0
 13 14  1  0  0  0  0
 14 15  2  0  0  0  0
 14 34  1  0  0  0  0
 15 16  1  0  0  0  0
 16 17  1  0  0  0  0
 16 18  1  0  0  0  0
 17 35  1  0  0  0  0
 17 36  1  0  0  0  0
 17 37  1  0  0  0  0
 18 38  1  0  0  0  0
M  END
> <s_m_source_file>
AV-unprocessed.smi

> <i_m_source_file_index>
556

> <i_lp_mmshare_version>
43012

> <i_f3d_flags>
0

> <s_epik_input>
W0NIM11bQ0BASF0xW0NIMl1PW0NIMl1bQ0gyXU4xQyg9TylbTkhdW0NIMl1bQ0gyXWMyW2NIXW5uKFtDSDNdKVtjSF0y

> <s_epik_cmdline>
J2VwaWtfcHl0aG9uJywgJy1waCcsICc3LjAnLCAnLXRuJywgJzgnLCAnLW1hJywgJzIwMCcsICctbWV0YWxfYmluZGluZycsICctaW1hZScsICc8aW5maWxlLm1hZT4nLCAnLW9tYWUnLCAnPG91dGZpbGUubWFlPic=

> <r_lp_tautomer_probability>
1

> <r_epik_Ionization_Penalty>
0.000536334

> <r_epik_Ionization_Penalty_Charging>
0

> <r_epik_Ionization_Penalty_Neutral>
0.000536334

> <r_epik_State_Penalty>
-0

> <r_epik_Charging_Adjusted_Penalty>
0

> <i_epik_Tot_Q>
0

> <i_epik_Tot_abs_Q>
0

> <r_epik_Metal_State_Penalty>
-0

> <b_epik_Metal_Only>
0

> <s_lp_Force_Field>
OPLS_2005

> <r_lp_Energy>
28.9332

> <b_lp_Chiralities_Consistent>
1

> <s_lp_Variant>
AV-unprocessed.smi:556-2

> <Gold.Version>
5.8.1

> <Gold.Id.Protein>
6NUR|6NUR_protein|mol2

> <Gold.PLP.Fitness>
45.5531

> <Gold.PLP.PLP>
-46.4940

> <Gold.PLP.part.hbond>
-1.0000

> <Gold.PLP.part.metal>
0.0000

> <Gold.PLP.part.buried>
-4.8876

> <Gold.PLP.part.nonpolar>
-40.7312

> <Gold.PLP.part.repulsive>
0.2696

> <Gold.PLP.ligand.clash>
0.0000

> <Gold.PLP.ligand.torsion>
0.4807

> <Gold.PLP.Chemscore.Hbond>
0.0000

> <Gold.PLP.Chemscore.CHOScore>
0.0000

> <Gold.PLP.Chemscore.Metal>
0.0000

> <Gold.PLP.Chemscore.Internal.Correction>
0.0205

> <Gold.Rescore>
     Score         DG    S(hbond)    S(metal)    S(lipo)     H(rot)  DE(clash)    DE(int)     intcor
     13.68     -14.07       0.00        0.00     104.09       1.40       0.01       0.39       ----

> <Gold.Chemscore.Fitness>
13.6779

> <Gold.Chemscore.DG>
-14.0748

> <Gold.Chemscore.ZeroCoef>
-5.4800

> <Gold.Chemscore.Hbond>
0.0000

> <Gold.Chemscore.Metal>
0.0000

> <Gold.Chemscore.Lipo>
104.0945

> <Gold.Chemscore.Internal_Hbond>
0.0000

> <Gold.Chemscore.DEClash>
0.0089

> <Gold.Chemscore.DEInternal>
0.3880

> <Gold.Chemscore.Rot>
1.4001

> <Gold.Chemscore.Internal.Correction>
   9.000000E+99

> <Gold.Chemscore.Hbond.Weighted>
-0.0000

> <Gold.Chemscore.Metal.Weighted>
-0.0000

> <Gold.Chemscore.Lipo.Weighted>
-12.1791

> <Gold.Chemscore.Internal_Hbond.Weighted>
0.0000

> <Gold.Chemscore.DEClash.Weighted>
0.0089

> <Gold.Chemscore.DEInternal.Weighted>
0.3880

> <Gold.Chemscore.Rot.Weighted>
3.5842

> <Gold.Chemscore.Internal.Correction.Weighted>
   9.000000E+99

> <Gold.Protein.RotatedTorsions>
[ 6907 6896 6895 6894 ] final  -44.37 input  -60.11 | X-H torsion
[ 7974 7965 7964 7962 ] final   -2.63 input  175.53 | X-H torsion
[ 8008 7997 7996 7995 ] final  -80.66 input   59.86 | X-H torsion
[ 10167 10162 10161 10158 ] final  130.10 input  -65.29 | X-H torsion
[ 10718 10713 10712 10709 ] final   -8.67 input   66.30 | X-H torsion
[ 10763 10752 10751 10750 ] final -113.32 input  -60.55 | X-H torsion
[ 11005 11000 10999 10996 ] final -127.10 input  -57.11 | X-H torsion

> <Gold.Protein.ActiveResidues>
 VAL166  LYS551  ARG553  GLY616  TRP617  ASP618  TYR619  PRO620  LYS621  CYS622 
 ASP623  PHE694  ASN695  SER759  ASP760  ASP761  ALA762  ILE779  LEU786  VAL792 
 PHE793  MET794  SER795  GLU796  ALA797  LYS798  CYS799  TRP800  GLU811  SER814 

> <Gold.Protein.RotatedAtoms>
  150.9336  134.8750  159.7566 H   0  0  0  0  0  0  0  0  0  0  0  0  # atno 6907 bound_to 6896
  152.5049  134.4043  159.9437 H   0  0  0  0  0  0  0  0  0  0  0  0  # atno 6908 bound_to 6896
  151.4069  133.3700  159.2774 H   0  0  0  0  0  0  0  0  0  0  0  0  # atno 6909 bound_to 6896
  146.2402  140.1599  142.8333 H   0  0  0  0  0  0  0  0  0  0  0  0  # atno 7974 bound_to 7965
  154.5905  140.0659  156.9232 H   0  0  0  0  0  0  0  0  0  0  0  0  # atno 8008 bound_to 7997
  155.2303  140.3337  155.4286 H   0  0  0  0  0  0  0  0  0  0  0  0  # atno 8009 bound_to 7997
  156.2253  140.1816  156.7363 H   0  0  0  0  0  0  0  0  0  0  0  0  # atno 8010 bound_to 7997
  139.5446  144.6762  151.4514 H   0  0  0  0  0  0  0  0  0  0  0  0  # atno 10167 bound_to 10162
  156.6992  130.5088  149.5922 H   0  0  0  0  0  0  0  0  0  0  0  0  # atno 10718 bound_to 10713
  154.8390  135.4459  154.1330 H   0  0  0  0  0  0  0  0  0  0  0  0  # atno 10763 bound_to 10752
  153.2536  135.6929  153.7659 H   0  0  0  0  0  0  0  0  0  0  0  0  # atno 10764 bound_to 10752
  153.6963  135.3379  155.3190 H   0  0  0  0  0  0  0  0  0  0  0  0  # atno 10765 bound_to 10752
  140.9627  134.0914  157.3952 H   0  0  0  0  0  0  0  0  0  0  0  0  # atno 11005 bound_to 11000
  145.0098  140.8704  143.5231 LP  0  0  0  0  0  0  0  0  0  0  0  0  # atno 17320 bound_to 7965
  145.1631  139.2447  143.5381 LP  0  0  0  0  0  0  0  0  0  0  0  0  # atno 17321 bound_to 7965
  140.6689  143.8337  150.6975 LP  0  0  0  0  0  0  0  0  0  0  0  0  # atno 17342 bound_to 10162
  140.1755  143.4159  152.1971 LP  0  0  0  0  0  0  0  0  0  0  0  0  # atno 17343 bound_to 10162
  156.1741  130.6456  151.0873 LP  0  0  0  0  0  0  0  0  0  0  0  0  # atno 17370 bound_to 10713
  157.6979  131.0787  150.6911 LP  0  0  0  0  0  0  0  0  0  0  0  0  # atno 17371 bound_to 10713
  139.8883  135.0097  156.6616 LP  0  0  0  0  0  0  0  0  0  0  0  0  # atno 17394 bound_to 11000
  140.7444  133.8950  155.8301 LP  0  0  0  0  0  0  0  0  0  0  0  0  # atno 17395 bound_to 11000

$$$$
