#       Name:                AV-unprocessed.smi:2157
#       Creating user name   scv26
#       Creation time:       Fri Mar 27 11:56:40 2020


#       File generated by GOLD software.
#

@<TRIPOS>MOLECULE
AV-unprocessed.smi:2157
    47    48     1
SMALL
NO_CHARGES


@<TRIPOS>ATOM
      1 ****        -3.2401  -3.4893   0.9953 C.3            1 S1                 0.0000
      2 ****        -2.4989  -2.6361  -0.0437 C.3            1 S1                 0.0000
      3 ****        -2.9332  -2.9929  -1.4782 C.3            1 S1                 0.0000
      4 ****        -2.1945  -2.1396  -2.5212 C.3            1 S1                 0.0000
      5 ****        -2.3861  -0.6367  -2.2537 C.3            1 S1                 0.0000
      6 ****        -1.9774  -0.2437  -0.8209 C.3            1 S1                 0.0000
      7 ****        -0.5247  -0.3155  -0.6718 N.am           1 S1                 0.0000
      8 ****         0.2008   0.3547   0.2358 C.2            1 S1                 0.0000
      9 ****        -0.2939   1.1168   1.0678 O.2            1 S1                 0.0000
     10 ****         1.7135   0.0984   0.2052 C.3            1 S1                 0.0000
     11 ****         2.4960   1.1762   0.8239 N.am           1 S1                 0.0000
     12 ****         2.9325   1.0424   2.1294 C.2            1 S1                 0.0000
     13 ****         3.6427   1.9907   2.7782 C.2            1 S1                 0.0000
     14 ****         4.0012   3.2395   2.1175 C.2            1 S1                 0.0000
     15 ****         4.6278   4.1409   2.6760 O.2            1 S1                 0.0000
     16 ****         3.5575   3.3443   0.7780 N.am           1 S1                 0.0000
     17 ****         3.8573   4.5669   0.0615 C.3            1 S1                 0.0000
     18 ****         2.7966   2.3570   0.1111 C.2            1 S1                 0.0000
     19 ****         2.3961   2.5081  -1.0458 O.2            1 S1                 0.0000
     20 ****        -2.6975  -1.1288   0.2203 C.3            1 S1                 0.0000
     21 ****        -4.3160  -3.3161   0.9562 H              1 S1                 0.0000
     22 ****        -2.9020  -3.2583   2.0059 H              1 S1                 0.0000
     23 ****        -3.0673  -4.5523   0.8254 H              1 S1                 0.0000
     24 ****        -1.4356  -2.8609   0.0518 H              1 S1                 0.0000
     25 ****        -2.7460  -4.0496  -1.6730 H              1 S1                 0.0000
     26 ****        -4.0088  -2.8456  -1.5857 H              1 S1                 0.0000
     27 ****        -1.1321  -2.3854  -2.5089 H              1 S1                 0.0000
     28 ****        -2.5534  -2.3851  -3.5209 H              1 S1                 0.0000
     29 ****        -1.8234  -0.0514  -2.9821 H              1 S1                 0.0000
     30 ****        -3.4354  -0.3810  -2.4070 H              1 S1                 0.0000
     31 ****        -2.2800   0.7932  -0.6632 H              1 S1                 0.0000
     32 ****        -0.0342  -0.9239  -1.3112 H              1 S1                 0.0000
     33 ****         1.9077  -0.8438   0.7194 H              1 S1                 0.0000
     34 ****         2.0403  -0.0566  -0.8249 H              1 S1                 0.0000
     35 ****         2.6880   0.1359   2.6637 H              1 S1                 0.0000
     36 ****         3.9470   1.8246   3.8011 H              1 S1                 0.0000
     37 ****         3.9523   4.3532  -1.0038 H              1 S1                 0.0000
     38 ****         4.8105   4.9684   0.4082 H              1 S1                 0.0000
     39 ****         3.0366   5.2581   0.2586 H              1 S1                 0.0000
     40 ****        -3.7640  -0.9000   0.1976 H              1 S1                 0.0000
     41 ****        -2.3604  -0.8764   1.2265 H              1 S1                 0.0000
     42 ****        -1.2833   1.2602   1.0885 LP             1 S1                 0.0000
     43 ****         0.2940   1.5920   1.7225 LP             1 S1                 0.0000
     44 ****         4.9154   4.0345   3.6279 LP             1 S1                 0.0000
     45 ****         4.8490   4.9792   2.1777 LP             1 S1                 0.0000
     46 ****         1.8545   1.7913  -1.4850 LP             1 S1                 0.0000
     47 ****         2.6131   3.3473  -1.5444 LP             1 S1                 0.0000
@<TRIPOS>BOND
    1    1    2 1     
    2    1   21 1     
    3    1   22 1     
    4    1   23 1     
    5    2   20 1     
    6    2    3 1     
    7    2   24 1     
    8    3    4 1     
    9    3   25 1     
   10    3   26 1     
   11    4    5 1     
   12    4   27 1     
   13    4   28 1     
   14    5    6 1     
   15    5   29 1     
   16    5   30 1     
   17    6    7 1     
   18    6   20 1     
   19    6   31 1     
   20    7    8 am    
   21    7   32 1     
   22    8    9 2     
   23    8   10 1     
   24   10   11 1     
   25   10   33 1     
   26   10   34 1     
   27   11   18 am    
   28   11   12 1     
   29   12   13 2     
   30   12   35 1     
   31   13   14 1     
   32   13   36 1     
   33   14   15 2     
   34   14   16 am    
   35   16   17 1     
   36   16   18 am    
   37   17   37 1     
   38   17   38 1     
   39   17   39 1     
   40   18   19 2     
   41   20   40 1     
   42   20   41 1     
   43    9   42 1     
   44    9   43 1     
   45   15   44 1     
   46   15   45 1     
   47   19   46 1     
   48   19   47 1     
@<TRIPOS>SUBSTRUCTURE
      1 S1             1
@<TRIPOS>SET
LONE_PAIRS      STATIC     ATOMS    <user>   **** ""
6 42 43 44 45 46 47
DONOR_HYDROGENS      STATIC     ATOMS    <user>   **** ""
1 32
ATOM$BLUE        STATIC     ATOMS    COLORGROUP SYSTEM
6 42 43 44 45 46 47
ATOM$RED        STATIC     ATOMS    COLORGROUP SYSTEM
1 32
