#       Name:                AV-unprocessed.smi:2032
#       Creating user name   scv26
#       Creation time:       Fri Mar 27 10:51:54 2020


#       File generated by GOLD software.
#

@<TRIPOS>MOLECULE
AV-unprocessed.smi:2032
    48    49     1
SMALL
NO_CHARGES


@<TRIPOS>ATOM
      1 ****        -4.2391   1.6940  -0.0670 C.3            1 S1                 0.0000
      2 ****        -3.5717   0.3187  -0.1707 C.3            1 S1                 0.0000
      3 ****        -2.0395   0.4230  -0.2952 C.3            1 S1                 0.0000
      4 ****        -1.3789  -0.8862  -0.3243 N.3            1 S1                 0.0000
      5 ****         0.0966  -0.7834  -0.4226 C.3            1 S1                 0.0000
      6 ****         0.7915  -2.1690  -0.4413 C.3            1 S1                 0.0000
      7 ****         0.5766   0.0396  -1.6544 C.3            1 S1                 0.0000
      8 ****         2.0301   0.1464  -1.7592 N.am           1 S1                 0.0000
      9 ****         2.8210   0.9189  -1.0007 C.2            1 S1                 0.0000
     10 ****         2.3276   1.6321  -0.1240 O.2            1 S1                 0.0000
     11 ****         4.1349   0.8122  -1.3036 N.pl3          1 S1                -1.0000
     12 ****         5.0451   1.5204  -0.6154 C.2            1 S1                 0.0000
     13 ****         5.5918   2.6507  -1.0781 N.2            1 S1                 0.0000
     14 ****         6.5236   3.2147  -0.2048 C.2            1 S1                 0.0000
     15 ****         6.6970   2.4924   0.9459 C.2            1 S1                 0.0000
     16 ****         5.6876   1.0743   0.9679 S.3            1 S1                 0.0000
     17 ****        -1.8102  -1.6342   0.8615 C.3            1 S1                 0.0000
     18 ****        -3.3426  -1.7334   0.9860 C.3            1 S1                 0.0000
     19 ****        -3.7730  -2.4469   2.2721 C.3            1 S1                 0.0000
     20 ****        -3.8969  -0.4241   0.9973 O.3            1 S1                 0.0000
     21 ****        -4.0287   2.2990  -0.9492 H              1 S1                 0.0000
     22 ****        -3.8832   2.2407   0.8067 H              1 S1                 0.0000
     23 ****        -5.3216   1.5966   0.0184 H              1 S1                 0.0000
     24 ****        -3.9740  -0.1991  -1.0432 H              1 S1                 0.0000
     25 ****        -1.8356   0.9749  -1.2105 H              1 S1                 0.0000
     26 ****        -1.6436   1.0176   0.5297 H              1 S1                 0.0000
     27 ****         0.4530  -0.2635   0.4679 H              1 S1                 0.0000
     28 ****         1.8721  -2.0916  -0.5553 H              1 S1                 0.0000
     29 ****         0.4190  -2.7847  -1.2604 H              1 S1                 0.0000
     30 ****         0.6471  -2.7183   0.4876 H              1 S1                 0.0000
     31 ****         0.2064  -0.4175  -2.5725 H              1 S1                 0.0000
     32 ****         0.1908   1.0581  -1.6401 H              1 S1                 0.0000
     33 ****         2.4778  -0.4201  -2.4643 H              1 S1                 0.0000
     34 ****         7.0192   4.1324  -0.4847 H              1 S1                 0.0000
     35 ****         7.3533   2.7050   1.7764 H              1 S1                 0.0000
     36 ****        -1.4268  -2.6523   0.8319 H              1 S1                 0.0000
     37 ****        -1.4007  -1.1677   1.7589 H              1 S1                 0.0000
     38 ****        -3.7435  -2.2816   0.1315 H              1 S1                 0.0000
     39 ****        -3.3789  -3.4627   2.3086 H              1 S1                 0.0000
     40 ****        -4.8595  -2.5093   2.3378 H              1 S1                 0.0000
     41 ****        -3.4159  -1.9168   3.1557 H              1 S1                 0.0000
     42 ****        -1.6514  -1.3771  -1.1518 LP             1 S1                 0.0000
     43 ****         1.3382   1.6341   0.0209 LP             1 S1                 0.0000
     44 ****         2.9170   2.2085   0.4421 LP             1 S1                 0.0000
     45 ****         4.4292   0.2048  -2.0415 LP             1 S1                 0.0000
     46 ****         5.3560   3.0522  -1.9631 LP             1 S1                 0.0000
     47 ****        -4.8920  -0.4983   1.0626 LP             1 S1                 0.0000
     48 ****        -3.5460   0.0651   1.7958 LP             1 S1                 0.0000
@<TRIPOS>BOND
    1    1    2 1     
    2    1   21 1     
    3    1   22 1     
    4    1   23 1     
    5    2   20 1     
    6    2    3 1     
    7    2   24 1     
    8    3    4 1     
    9    3   25 1     
   10    3   26 1     
   11    4    5 1     
   12    4   17 1     
   13    5    6 1     
   14    5    7 1     
   15    5   27 1     
   16    6   28 1     
   17    6   29 1     
   18    6   30 1     
   19    7    8 1     
   20    7   31 1     
   21    7   32 1     
   22    8    9 am    
   23    8   33 1     
   24    9   10 2     
   25    9   11 1     
   26   11   12 1     
   27   12   16 1     
   28   12   13 2     
   29   13   14 1     
   30   14   15 2     
   31   14   34 1     
   32   15   16 1     
   33   15   35 1     
   34   17   18 1     
   35   17   36 1     
   36   17   37 1     
   37   18   19 1     
   38   18   20 1     
   39   18   38 1     
   40   19   39 1     
   41   19   40 1     
   42   19   41 1     
   43    4   42 1     
   44   10   43 1     
   45   10   44 1     
   46   11   45 1     
   47   13   46 1     
   48   20   47 1     
   49   20   48 1     
@<TRIPOS>SUBSTRUCTURE
      1 S1             1
@<TRIPOS>SET
LONE_PAIRS      STATIC     ATOMS    <user>   **** ""
7 42 43 44 45 46 47 48
DONOR_HYDROGENS      STATIC     ATOMS    <user>   **** ""
1 33
ATOM$BLUE        STATIC     ATOMS    COLORGROUP SYSTEM
7 42 43 44 45 46 47 48
ATOM$RED        STATIC     ATOMS    COLORGROUP SYSTEM
1 33
