AV-unprocessed.smi:3193|AV-procd|sdf|12202|dock5
  -GOLD-   2272018 33D 1   1.00000     0.00000
 Structure written by MMmdl.
 40 41  0  0  0  0  0  0  0  0  2 V2000
  147.0039  133.0513  152.5598 C   0  0  0  0  0  0  0  0  0  0  0  0
  146.4029  133.7508  151.3234 C   0  0  1  0  0  0  0  0  0  0  0  0
  146.1826  132.7595  150.1609 C   0  0  0  0  0  0  0  0  0  0  0  0
  144.9947  131.8158  150.4128 C   0  0  0  0  0  0  0  0  0  0  0  0
  143.7118  132.6056  150.7087 C   0  0  0  0  0  0  0  0  0  0  0  0
  143.9121  133.5888  151.8727 C   0  0  0  0  0  0  0  0  0  0  0  0
  145.0991  134.5434  151.6108 C   0  0  1  0  0  0  0  0  0  0  0  0
  145.2731  135.5880  152.7318 C   0  0  0  0  0  0  0  0  0  0  0  0
  146.1975  136.6679  152.3315 N   0  3  0  0  0  0  0  0  0  0  0  0
  146.2274  137.8093  153.2662 C   0  0  0  0  0  0  0  0  0  0  0  0
  146.7177  139.0835  152.5655 C   0  0  0  0  0  0  0  0  0  0  0  0
  147.0255  140.1286  153.5205 N   0  0  0  0  0  0  0  0  0  0  0  0
  148.2687  140.6931  153.7742 C   0  0  0  0  0  0  0  0  0  0  0  0
  148.0762  141.6448  154.7502 C   0  0  0  0  0  0  0  0  0  0  0  0
  146.7305  141.6830  155.1082 N   0  0  0  0  0  0  0  0  0  0  0  0
  146.1715  140.7575  154.3397 C   0  0  0  0  0  0  0  0  0  0  0  0
  146.3091  132.3443  153.0123 H   0  0  0  0  0  0  0  0  0  0  0  0
  147.2928  133.7694  153.3270 H   0  0  0  0  0  0  0  0  0  0  0  0
  147.9038  132.4973  152.2919 H   0  0  0  0  0  0  0  0  0  0  0  0
  147.1525  134.4678  150.9853 H   0  0  0  0  0  0  0  0  0  0  0  0
  146.0001  133.3195  149.2425 H   0  0  0  0  0  0  0  0  0  0  0  0
  147.0879  132.1785  149.9816 H   0  0  0  0  0  0  0  0  0  0  0  0
  144.8418  131.1751  149.5439 H   0  0  0  0  0  0  0  0  0  0  0  0
  145.2174  131.1495  151.2467 H   0  0  0  0  0  0  0  0  0  0  0  0
  143.4096  133.1547  149.8161 H   0  0  0  0  0  0  0  0  0  0  0  0
  142.8968  131.9183  150.9378 H   0  0  0  0  0  0  0  0  0  0  0  0
  142.9932  134.1582  152.0145 H   0  0  0  0  0  0  0  0  0  0  0  0
  144.0698  133.0350  152.7987 H   0  0  0  0  0  0  0  0  0  0  0  0
  144.8709  135.0965  150.6977 H   0  0  0  0  0  0  0  0  0  0  0  0
  144.3113  136.0228  153.0064 H   0  0  0  0  0  0  0  0  0  0  0  0
  145.6751  135.1059  153.6240 H   0  0  0  0  0  0  0  0  0  0  0  0
  147.1289  136.2833  152.2646 H   0  0  0  0  0  0  0  0  0  0  0  0
  145.2276  137.9671  153.6732 H   0  0  0  0  0  0  0  0  0  0  0  0
  146.8832  137.5688  154.1042 H   0  0  0  0  0  0  0  0  0  0  0  0
  147.6123  138.8770  151.9760 H   0  0  0  0  0  0  0  0  0  0  0  0
  145.9603  139.4575  151.8753 H   0  0  0  0  0  0  0  0  0  0  0  0
  149.1634  140.3815  153.2555 H   0  0  0  0  0  0  0  0  0  0  0  0
  148.7962  142.3000  155.2180 H   0  0  0  0  0  0  0  0  0  0  0  0
  145.1151  140.5339  154.3721 H   0  0  0  0  0  0  0  0  0  0  0  0
  145.9202  137.0042  151.4201 H   0  0  0  0  0  0  0  0  0  0  0  0
  1  2  1  0  0  0  0
  1 17  1  0  0  0  0
  1 18  1  0  0  0  0
  1 19  1  0  0  0  0
  2  7  1  0  0  0  0
  2  3  1  0  0  0  0
  2 20  1  0  0  0  0
  3  4  1  0  0  0  0
  3 21  1  0  0  0  0
  3 22  1  0  0  0  0
  4  5  1  0  0  0  0
  4 23  1  0  0  0  0
  4 24  1  0  0  0  0
  5  6  1  0  0  0  0
  5 25  1  0  0  0  0
  5 26  1  0  0  0  0
  6  7  1  0  0  0  0
  6 27  1  0  0  0  0
  6 28  1  0  0  0  0
  7  8  1  0  0  0  0
  7 29  1  0  0  0  0
  8  9  1  0  0  0  0
  8 30  1  0  0  0  0
  8 31  1  0  0  0  0
  9 10  1  0  0  0  0
  9 32  1  0  0  0  0
  9 40  1  0  0  0  0
 10 11  1  0  0  0  0
 10 33  1  0  0  0  0
 10 34  1  0  0  0  0
 11 12  1  0  0  0  0
 11 35  1  0  0  0  0
 11 36  1  0  0  0  0
 12 16  1  0  0  0  0
 12 13  1  0  0  0  0
 13 14  2  0  0  0  0
 13 37  1  0  0  0  0
 14 15  1  0  0  0  0
 14 38  1  0  0  0  0
 15 16  2  0  0  0  0
 16 39  1  0  0  0  0
M  CHG  1   9   1
M  END
> <s_m_source_file>
AV-unprocessed.smi

> <i_m_source_file_index>
3193

> <i_lp_mmshare_version>
43012

> <i_f3d_flags>
0

> <s_epik_input>
W0NIM11bQ0BASF0xW0NIMl1bQ0gyXVtDSDJdW0NIMl1bQ0BIXTFbQ0gyXVtOSF1bQ0gyXVtDSDJdbjJbY0hdW2NIXW5bY0hdMg==

> <s_epik_cmdline>
J2VwaWtfcHl0aG9uJywgJy1waCcsICc3LjAnLCAnLXRuJywgJzgnLCAnLW1hJywgJzIwMCcsICctbWV0YWxfYmluZGluZycsICctaW1hZScsICc8aW5maWxlLm1hZT4nLCAnLW9tYWUnLCAnPG91dGZpbGUubWFlPic=

> <r_lp_tautomer_probability>
1

> <r_epik_Ionization_Penalty>
0.0503046

> <r_epik_Ionization_Penalty_Charging>
0.0503046

> <r_epik_Ionization_Penalty_Neutral>
0

> <r_epik_State_Penalty>
0.0981804

> <r_epik_Charging_Adjusted_Penalty>
0.148485

> <i_epik_Tot_Q>
1

> <i_epik_Tot_abs_Q>
1

> <r_epik_Metal_State_Penalty>
0.000105854

> <b_epik_Metal_Only>
0

> <s_lp_Force_Field>
OPLS_2005

> <r_lp_Energy>
20.219

> <b_lp_Chiralities_Consistent>
1

> <s_lp_Variant>
AV-unprocessed.smi:3193-2

> <Gold.Version>
5.8.1

> <Gold.Id.Protein>
6NUR|6NUR_protein|mol2

> <Gold.PLP.Fitness>
45.6312

> <Gold.PLP.PLP>
-31.0637

> <Gold.PLP.part.hbond>
-1.0000

> <Gold.PLP.part.metal>
0.0000

> <Gold.PLP.part.buried>
-1.0261

> <Gold.PLP.part.nonpolar>
-29.8705

> <Gold.PLP.part.repulsive>
0.1559

> <Gold.PLP.ligand.clash>
0.0000

> <Gold.PLP.ligand.torsion>
0.2561

> <Gold.PLP.Chemscore.Hbond>
2.0000

> <Gold.PLP.Chemscore.CHOScore>
2.9978

> <Gold.PLP.Chemscore.Metal>
0.0000

> <Gold.Chemscore.Hbonds>
donor molecule, donor type, donor heavy atom, donor atom, acceptor molecule, acceptor atom, score
      L1  H     9    32       P1  7948  2.00
      L1  C    13    37       P1  7957  1.00
      L1  C    14    38       P1  8028  1.00
      L1  C    16    39       P1 10175  0.90

> <Gold.PLP.Chemscore.Internal.Correction>
0.0863

> <Gold.Rescore>
     Score         DG    S(hbond)    S(metal)    S(lipo)     H(rot)  DE(clash)    DE(int)     intcor
     12.91     -13.18       0.99        0.00      78.79       1.89       0.03       0.24       ----

> <Gold.Chemscore.Fitness>
12.9116

> <Gold.Chemscore.DG>
-13.1801

> <Gold.Chemscore.ZeroCoef>
-5.4800

> <Gold.Chemscore.Hbond>
0.9937

> <Gold.Chemscore.Metal>
0.0000

> <Gold.Chemscore.Lipo>
78.7872

> <Gold.Chemscore.Internal_Hbond>
0.0000

> <Gold.Chemscore.DEClash>
0.0323

> <Gold.Chemscore.DEInternal>
0.2362

> <Gold.Chemscore.Rot>
1.8895

> <Gold.Chemscore.Internal.Correction>
   9.000000E+99

> <Gold.Chemscore.Hbonds>
donor molecule, donor type, donor heavy atom, donor atom, acceptor molecule, acceptor atom, score
      L1  H     9    32       P1  7948  0.99

> <Gold.Chemscore.Hbond.Weighted>
-3.3190

> <Gold.Chemscore.Metal.Weighted>
-0.0000

> <Gold.Chemscore.Lipo.Weighted>
-9.2181

> <Gold.Chemscore.Internal_Hbond.Weighted>
0.0000

> <Gold.Chemscore.DEClash.Weighted>
0.0323

> <Gold.Chemscore.DEInternal.Weighted>
0.2362

> <Gold.Chemscore.Rot.Weighted>
4.8371

> <Gold.Chemscore.Internal.Correction.Weighted>
   9.000000E+99

> <Gold.Protein.RotatedTorsions>
[ 6907 6896 6895 6894 ] final -103.39 input  -60.11 | X-H torsion
[ 7974 7965 7964 7962 ] final    6.94 input  175.53 | X-H torsion
[ 8008 7997 7996 7995 ] final   59.23 input   59.86 | X-H torsion
[ 10167 10162 10161 10158 ] final -126.91 input  -65.29 | X-H torsion
[ 10718 10713 10712 10709 ] final  -72.05 input   66.30 | X-H torsion
[ 10763 10752 10751 10750 ] final  -36.86 input  -60.55 | X-H torsion
[ 11005 11000 10999 10996 ] final   76.65 input  -57.11 | X-H torsion

> <Gold.Protein.ActiveResidues>
 VAL166  LYS551  ARG553  GLY616  TRP617  ASP618  TYR619  PRO620  LYS621  CYS622 
 ASP623  PHE694  ASN695  SER759  ASP760  ASP761  ALA762  ILE779  LEU786  VAL792 
 PHE793  MET794  SER795  GLU796  ALA797  LYS798  CYS799  TRP800  GLU811  SER814 

> <Gold.Protein.RotatedAtoms>
  150.7238  134.0437  159.3774 H   0  0  0  0  0  0  0  0  0  0  0  0  # atno 6907 bound_to 6896
  151.8411  135.0587  160.0457 H   0  0  0  0  0  0  0  0  0  0  0  0  # atno 6908 bound_to 6896
  152.2861  133.5481  159.5565 H   0  0  0  0  0  0  0  0  0  0  0  0  # atno 6909 bound_to 6896
  146.2431  140.0158  142.8402 H   0  0  0  0  0  0  0  0  0  0  0  0  # atno 7974 bound_to 7965
  155.5629  140.3488  155.4496 H   0  0  0  0  0  0  0  0  0  0  0  0  # atno 8008 bound_to 7997
  156.0501  140.1316  157.0085 H   0  0  0  0  0  0  0  0  0  0  0  0  # atno 8009 bound_to 7997
  154.4430  140.1006  156.6349 H   0  0  0  0  0  0  0  0  0  0  0  0  # atno 8010 bound_to 7997
  139.9664  143.5893  152.2427 H   0  0  0  0  0  0  0  0  0  0  0  0  # atno 10167 bound_to 10162
  156.0336  130.4364  150.2535 H   0  0  0  0  0  0  0  0  0  0  0  0  # atno 10718 bound_to 10713
  153.8867  135.6816  153.4763 H   0  0  0  0  0  0  0  0  0  0  0  0  # atno 10763 bound_to 10752
  153.1203  135.4742  154.9183 H   0  0  0  0  0  0  0  0  0  0  0  0  # atno 10764 bound_to 10752
  154.7642  135.3219  154.8271 H   0  0  0  0  0  0  0  0  0  0  0  0  # atno 10765 bound_to 10752
  139.9289  134.7618  156.1422 H   0  0  0  0  0  0  0  0  0  0  0  0  # atno 11005 bound_to 11000
  145.1286  140.9504  143.4558 LP  0  0  0  0  0  0  0  0  0  0  0  0  # atno 17320 bound_to 7965
  145.0410  139.3260  143.5976 LP  0  0  0  0  0  0  0  0  0  0  0  0  # atno 17321 bound_to 7965
  139.6514  144.7661  151.2140 LP  0  0  0  0  0  0  0  0  0  0  0  0  # atno 17342 bound_to 10162
  140.7536  143.6155  150.8564 LP  0  0  0  0  0  0  0  0  0  0  0  0  # atno 17343 bound_to 10162
  157.0636  131.0097  151.3214 LP  0  0  0  0  0  0  0  0  0  0  0  0  # atno 17370 bound_to 10713
  157.5052  130.7904  149.7646 LP  0  0  0  0  0  0  0  0  0  0  0  0  # atno 17371 bound_to 10713
  141.0865  133.6732  156.2447 LP  0  0  0  0  0  0  0  0  0  0  0  0  # atno 17394 bound_to 11000
  140.6258  134.5315  157.5553 LP  0  0  0  0  0  0  0  0  0  0  0  0  # atno 17395 bound_to 11000

$$$$
