AV-unprocessed.smi:1824|AV-procd|sdf|7397|dock5
  -GOLD-   22720 9 63D 1   1.00000     0.00000
 Structure written by MMmdl.
 44 46  0  0  0  0  0  0  0  0  1 V2000
  148.7231  137.5542  154.8791 C   0  0  0  0  0  0  0  0  0  0  0  0
  149.9819  138.4223  154.7808 C   0  0  1  0  0  0  0  0  0  0  0  0
  149.7332  139.8607  155.2692 C   0  0  0  0  0  0  0  0  0  0  0  0
  150.9516  140.6604  155.2539 N   0  0  0  0  0  0  0  0  0  0  0  0
  150.6843  142.0352  155.6766 C   0  0  0  0  0  0  0  0  0  0  0  0
  150.6020  142.2483  157.2035 C   0  0  2  0  0  0  0  0  0  0  0  0
  149.2726  142.5844  157.5547 O   0  0  0  0  0  0  0  0  0  0  0  0
  151.5363  143.3784  157.6790 C   0  0  0  0  0  0  0  0  0  0  0  0
  151.7558  143.3519  159.1144 N   0  0  0  0  0  0  0  0  0  0  0  0
  151.1168  144.0803  160.0503 C   0  0  0  0  0  0  0  0  0  0  0  0
  151.4788  143.8972  161.3170 N   0  0  0  0  0  0  0  0  0  0  0  0
  152.4687  142.9381  161.1890 C   0  0  0  0  0  0  0  0  0  0  0  0
  153.2642  142.3042  162.1700 C   0  0  0  0  0  0  0  0  0  0  0  0
  154.2263  141.3419  161.7981 C   0  0  0  0  0  0  0  0  0  0  0  0
  154.9806  140.7444  162.7510 F   0  0  0  0  0  0  0  0  0  0  0  0
  154.4067  140.9993  160.4413 C   0  0  0  0  0  0  0  0  0  0  0  0
  155.3324  140.0743  160.0928 F   0  0  0  0  0  0  0  0  0  0  0  0
  153.6253  141.6171  159.4462 C   0  0  0  0  0  0  0  0  0  0  0  0
  152.6673  142.5766  159.8224 C   0  0  0  0  0  0  0  0  0  0  0  0
  151.9607  140.0041  156.0820 C   0  0  0  0  0  0  0  0  0  0  0  0
  152.2257  138.5463  155.6556 C   0  0  2  0  0  0  0  0  0  0  0  0
  153.0375  138.4323  154.3541 C   0  0  0  0  0  0  0  0  0  0  0  0
  150.9979  137.8198  155.5806 O   0  0  0  0  0  0  0  0  0  0  0  0
  147.9145  137.9648  154.2740 H   0  0  0  0  0  0  0  0  0  0  0  0
  148.3698  137.4864  155.9084 H   0  0  0  0  0  0  0  0  0  0  0  0
  148.9202  136.5413  154.5270 H   0  0  0  0  0  0  0  0  0  0  0  0
  150.3042  138.4415  153.7393 H   0  0  0  0  0  0  0  0  0  0  0  0
  148.9774  140.3270  154.6361 H   0  0  0  0  0  0  0  0  0  0  0  0
  149.3211  139.8371  156.2794 H   0  0  0  0  0  0  0  0  0  0  0  0
  151.5028  142.6539  155.3062 H   0  0  0  0  0  0  0  0  0  0  0  0
  149.7888  142.4204  155.1863 H   0  0  0  0  0  0  0  0  0  0  0  0
  150.8772  141.3274  157.7197 H   0  0  0  0  0  0  0  0  0  0  0  0
  148.9967  143.3155  157.0237 H   0  0  0  0  0  0  0  0  0  0  0  0
  152.5075  143.2957  157.1894 H   0  0  0  0  0  0  0  0  0  0  0  0
  151.1301  144.3530  157.4033 H   0  0  0  0  0  0  0  0  0  0  0  0
  150.3395  144.7833  159.7871 H   0  0  0  0  0  0  0  0  0  0  0  0
  153.1342  142.5582  163.2115 H   0  0  0  0  0  0  0  0  0  0  0  0
  153.7596  141.3557  158.4071 H   0  0  0  0  0  0  0  0  0  0  0  0
  152.8992  140.5568  156.0490 H   0  0  0  0  0  0  0  0  0  0  0  0
  151.6347  140.0134  157.1233 H   0  0  0  0  0  0  0  0  0  0  0  0
  152.8149  138.0703  156.4398 H   0  0  0  0  0  0  0  0  0  0  0  0
  154.0170  138.8973  154.4668 H   0  0  0  0  0  0  0  0  0  0  0  0
  152.5406  138.9211  153.5165 H   0  0  0  0  0  0  0  0  0  0  0  0
  153.1968  137.3879  154.0854 H   0  0  0  0  0  0  0  0  0  0  0  0
  1  2  1  0  0  0  0
  1 24  1  0  0  0  0
  1 25  1  0  0  0  0
  1 26  1  0  0  0  0
  2 23  1  0  0  0  0
  2  3  1  0  0  0  0
  2 27  1  0  0  0  0
  3  4  1  0  0  0  0
  3 28  1  0  0  0  0
  3 29  1  0  0  0  0
  4  5  1  0  0  0  0
  4 20  1  0  0  0  0
  5  6  1  0  0  0  0
  5 30  1  0  0  0  0
  5 31  1  0  0  0  0
  6  7  1  0  0  0  0
  6  8  1  0  0  0  0
  6 32  1  0  0  0  0
  7 33  1  0  0  0  0
  8  9  1  0  0  0  0
  8 34  1  0  0  0  0
  8 35  1  0  0  0  0
  9 19  1  0  0  0  0
  9 10  1  0  0  0  0
 10 11  2  0  0  0  0
 10 36  1  0  0  0  0
 11 12  1  0  0  0  0
 12 19  2  0  0  0  0
 12 13  1  0  0  0  0
 13 14  2  0  0  0  0
 13 37  1  0  0  0  0
 14 15  1  0  0  0  0
 14 16  1  0  0  0  0
 16 17  1  0  0  0  0
 16 18  2  0  0  0  0
 18 19  1  0  0  0  0
 18 38  1  0  0  0  0
 20 21  1  0  0  0  0
 20 39  1  0  0  0  0
 20 40  1  0  0  0  0
 21 22  1  0  0  0  0
 21 23  1  0  0  0  0
 21 41  1  0  0  0  0
 22 42  1  0  0  0  0
 22 43  1  0  0  0  0
 22 44  1  0  0  0  0
M  END
> <s_m_source_file>
AV-unprocessed.smi

> <i_m_source_file_index>
1824

> <i_lp_mmshare_version>
43012

> <i_f3d_flags>
0

> <s_epik_input>
W0NIM11bQ0BASF0xW0NIMl1OKFtDSDJdW0NASF0oTzEpW0NIM10pW0NIMl1bQ0BIXShbT0hdKVtDSDJdbihbY0hdbjIpYyhjMjMpW2NIXWMoRiljKEYpW2NIXTM=

> <s_epik_cmdline>
J2VwaWtfcHl0aG9uJywgJy1waCcsICc3LjAnLCAnLXRuJywgJzgnLCAnLW1hJywgJzIwMCcsICctbWV0YWxfYmluZGluZycsICctaW1hZScsICc8aW5maWxlLm1hZT4nLCAnLW9tYWUnLCAnPG91dGZpbGUubWFlPic=

> <r_epik_Ionization_Penalty>
0.273778

> <r_epik_Ionization_Penalty_Charging>
0

> <r_epik_Ionization_Penalty_Neutral>
0.273778

> <r_epik_State_Penalty>
0.246794

> <r_epik_Charging_Adjusted_Penalty>
0.246794

> <i_epik_Tot_Q>
0

> <i_epik_Tot_abs_Q>
0

> <r_epik_Metal_State_Penalty>
0.238234

> <b_epik_Metal_Only>
0

> <s_lp_Force_Field>
OPLS_2005

> <r_lp_Energy>
30.6075

> <b_lp_Chiralities_Consistent>
1

> <s_lp_Variant>
AV-unprocessed.smi:1824-5

> <Gold.Version>
5.8.1

> <Gold.Id.Protein>
6NUR|6NUR_protein|mol2

> <Gold.PLP.Fitness>
53.3491

> <Gold.PLP.PLP>
-50.3321

> <Gold.PLP.part.hbond>
-2.1745

> <Gold.PLP.part.metal>
0.0000

> <Gold.PLP.part.buried>
-2.2610

> <Gold.PLP.part.nonpolar>
-46.3873

> <Gold.PLP.part.repulsive>
0.2672

> <Gold.PLP.ligand.clash>
0.0000

> <Gold.PLP.ligand.torsion>
1.3506

> <Gold.PLP.Chemscore.Hbond>
1.8960

> <Gold.PLP.Chemscore.CHOScore>
0.0000

> <Gold.PLP.Chemscore.Metal>
0.0000

> <Gold.Chemscore.Hbonds>
donor molecule, donor type, donor heavy atom, donor atom, acceptor molecule, acceptor atom, score
      L1  H     7    33       P1  8028  1.00
      P1  H  7989  7998       L1     4  0.90

> <Gold.PLP.Chemscore.Internal.Correction>
0.0303

> <Gold.Rescore>
     Score         DG    S(hbond)    S(metal)    S(lipo)     H(rot)  DE(clash)    DE(int)     intcor
     15.82     -18.56       1.06        0.00     130.91       2.26       1.36       1.37       ----

> <Gold.Chemscore.Fitness>
15.8226

> <Gold.Chemscore.DG>
-18.5559

> <Gold.Chemscore.ZeroCoef>
-5.4800

> <Gold.Chemscore.Hbond>
1.0629

> <Gold.Chemscore.Metal>
0.0000

> <Gold.Chemscore.Lipo>
130.9089

> <Gold.Chemscore.Internal_Hbond>
0.0000

> <Gold.Chemscore.DEClash>
1.3619

> <Gold.Chemscore.DEInternal>
1.3715

> <Gold.Chemscore.Rot>
2.2619

> <Gold.Chemscore.Internal.Correction>
   9.000000E+99

> <Gold.Chemscore.Hbonds>
donor molecule, donor type, donor heavy atom, donor atom, acceptor molecule, acceptor atom, score
      L1  H     7    33       P1  8028  0.74
      P1  H  7989  7998       L1     4  0.18

> <Gold.Chemscore.Hbond.Weighted>
-3.5500

> <Gold.Chemscore.Metal.Weighted>
-0.0000

> <Gold.Chemscore.Lipo.Weighted>
-15.3163

> <Gold.Chemscore.Internal_Hbond.Weighted>
0.0000

> <Gold.Chemscore.DEClash.Weighted>
1.3619

> <Gold.Chemscore.DEInternal.Weighted>
1.3715

> <Gold.Chemscore.Rot.Weighted>
5.7904

> <Gold.Chemscore.Internal.Correction.Weighted>
   9.000000E+99

> <Gold.Protein.RotatedTorsions>
[ 6907 6896 6895 6894 ] final  -24.65 input  -60.11 | X-H torsion
[ 7974 7965 7964 7962 ] final -116.68 input  175.53 | X-H torsion
[ 8008 7997 7996 7995 ] final  -77.06 input   59.86 | X-H torsion
[ 10167 10162 10161 10158 ] final  141.56 input  -65.29 | X-H torsion
[ 10718 10713 10712 10709 ] final  153.32 input   66.30 | X-H torsion
[ 10763 10752 10751 10750 ] final  -57.31 input  -60.55 | X-H torsion
[ 11005 11000 10999 10996 ] final  -80.08 input  -57.11 | X-H torsion

> <Gold.Protein.ActiveResidues>
 VAL166  LYS551  ARG553  GLY616  TRP617  ASP618  TYR619  PRO620  LYS621  CYS622 
 ASP623  PHE694  ASN695  SER759  ASP760  ASP761  ALA762  ILE779  LEU786  VAL792 
 PHE793  MET794  SER795  GLU796  ALA797  LYS798  CYS799  TRP800  GLU811  SER814 

> <Gold.Protein.RotatedAtoms>
  151.1864  135.0383  159.8813 H   0  0  0  0  0  0  0  0  0  0  0  0  # atno 6907 bound_to 6896
  152.5442  134.1005  159.8326 H   0  0  0  0  0  0  0  0  0  0  0  0  # atno 6908 bound_to 6896
  151.1128  133.5113  159.2637 H   0  0  0  0  0  0  0  0  0  0  0  0  # atno 6909 bound_to 6896
  145.0940  140.8508  143.3966 H   0  0  0  0  0  0  0  0  0  0  0  0  # atno 7974 bound_to 7965
  154.5561  140.0717  156.8746 H   0  0  0  0  0  0  0  0  0  0  0  0  # atno 8008 bound_to 7997
  155.2899  140.3377  155.4235 H   0  0  0  0  0  0  0  0  0  0  0  0  # atno 8009 bound_to 7997
  156.2003  140.1719  156.7898 H   0  0  0  0  0  0  0  0  0  0  0  0  # atno 8010 bound_to 7997
  139.5017  144.6164  151.6154 H   0  0  0  0  0  0  0  0  0  0  0  0  # atno 10167 bound_to 10162
  157.2463  131.0769  151.1759 H   0  0  0  0  0  0  0  0  0  0  0  0  # atno 10718 bound_to 10713
  154.2205  135.6378  153.5143 H   0  0  0  0  0  0  0  0  0  0  0  0  # atno 10763 bound_to 10752
  152.9970  135.5495  154.6119 H   0  0  0  0  0  0  0  0  0  0  0  0  # atno 10764 bound_to 10752
  154.5578  135.2906  155.0922 H   0  0  0  0  0  0  0  0  0  0  0  0  # atno 10765 bound_to 10752
  141.1668  133.7134  156.8219 H   0  0  0  0  0  0  0  0  0  0  0  0  # atno 11005 bound_to 11000
  145.1033  139.2807  143.5675 LP  0  0  0  0  0  0  0  0  0  0  0  0  # atno 17320 bound_to 7965
  146.3531  140.0607  142.8629 LP  0  0  0  0  0  0  0  0  0  0  0  0  # atno 17321 bound_to 7965
  140.5853  143.9875  150.6292 LP  0  0  0  0  0  0  0  0  0  0  0  0  # atno 17342 bound_to 10162
  140.3038  143.3243  152.0946 LP  0  0  0  0  0  0  0  0  0  0  0  0  # atno 17343 bound_to 10162
  157.3325  130.6992  149.6333 LP  0  0  0  0  0  0  0  0  0  0  0  0  # atno 17370 bound_to 10713
  155.9668  130.4303  150.4871 LP  0  0  0  0  0  0  0  0  0  0  0  0  # atno 17371 bound_to 10713
  140.2113  134.8825  157.3277 LP  0  0  0  0  0  0  0  0  0  0  0  0  # atno 17394 bound_to 11000
  140.2084  134.4169  155.7626 LP  0  0  0  0  0  0  0  0  0  0  0  0  # atno 17395 bound_to 11000

$$$$
