AV-unprocessed.smi:1871|AV-procd|sdf|7602|dock9
  -GOLD-   22720 9323D 1   1.00000     0.00000
 Structure written by MMmdl.
 41 43  0  0  0  0  0  0  0  0  2 V2000
  148.8113  142.1466  154.4287 O   0  0  0  0  0  0  0  0  0  0  0  0
  149.4797  141.1113  155.1184 C   0  0  0  0  0  0  0  0  0  0  0  0
  150.3145  141.6046  156.2579 C   0  0  0  0  0  0  0  0  0  0  0  0
  150.4179  142.8979  156.6788 N   0  3  0  0  0  0  0  0  0  0  0  0
  151.2958  142.9772  157.7598 C   0  0  0  0  0  0  0  0  0  0  0  0
  151.7162  144.0674  158.5152 C   0  0  0  0  0  0  0  0  0  0  0  0
  152.6279  143.8006  159.5579 C   0  0  0  0  0  0  0  0  0  0  0  0
  153.0850  142.4919  159.8166 C   0  0  0  0  0  0  0  0  0  0  0  0
  152.6521  141.3948  159.0430 C   0  0  0  0  0  0  0  0  0  0  0  0
  151.7517  141.6680  158.0136 C   0  0  0  0  0  0  0  0  0  0  0  0
  151.1262  140.8561  157.0611 N   0  0  0  0  0  0  0  0  0  0  0  0
  151.4153  139.4133  157.0510 C   0  0  0  0  0  0  0  0  0  0  0  0
  150.2018  138.5657  156.6172 C   0  0  1  0  0  0  0  0  0  0  0  0
  150.6553  137.5793  155.7136 O   0  0  0  0  0  0  0  0  0  0  0  0
  149.4635  137.9674  157.8063 C   0  0  0  0  0  0  0  0  0  0  0  0
  148.0634  138.0970  157.9272 C   0  0  0  0  0  0  0  0  0  0  0  0
  147.3888  137.5153  159.0176 C   0  0  0  0  0  0  0  0  0  0  0  0
  148.0993  136.8031  160.0047 C   0  0  0  0  0  0  0  0  0  0  0  0
  147.3800  136.2423  161.0356 O   0  0  0  0  0  0  0  0  0  0  0  0
  148.0013  135.9786  162.2160 C   0  0  0  0  0  0  0  0  0  0  0  0
  147.7584  136.9806  163.0952 F   0  0  0  0  0  0  0  0  0  0  0  0
  147.5205  134.8331  162.7588 F   0  0  0  0  0  0  0  0  0  0  0  0
  149.5023  136.6650  159.8758 C   0  0  0  0  0  0  0  0  0  0  0  0
  150.1778  137.2467  158.7861 C   0  0  0  0  0  0  0  0  0  0  0  0
  148.8107  142.9190  154.9739 H   0  0  0  0  0  0  0  0  0  0  0  0
  148.7383  140.4040  155.4908 H   0  0  0  0  0  0  0  0  0  0  0  0
  150.1170  140.5768  154.4143 H   0  0  0  0  0  0  0  0  0  0  0  0
  151.3670  145.0704  158.3179 H   0  0  0  0  0  0  0  0  0  0  0  0
  152.9832  144.6157  160.1717 H   0  0  0  0  0  0  0  0  0  0  0  0
  153.7823  142.3257  160.6251 H   0  0  0  0  0  0  0  0  0  0  0  0
  153.0089  140.3963  159.2482 H   0  0  0  0  0  0  0  0  0  0  0  0
  152.2648  139.2453  156.3875 H   0  0  0  0  0  0  0  0  0  0  0  0
  151.7468  139.1253  158.0490 H   0  0  0  0  0  0  0  0  0  0  0  0
  149.5049  139.1922  156.0596 H   0  0  0  0  0  0  0  0  0  0  0  0
  151.2495  137.0035  156.1707 H   0  0  0  0  0  0  0  0  0  0  0  0
  147.4990  138.6346  157.1793 H   0  0  0  0  0  0  0  0  0  0  0  0
  146.3163  137.6166  159.0969 H   0  0  0  0  0  0  0  0  0  0  0  0
  149.0817  135.8976  162.0938 H   0  0  0  0  0  0  0  0  0  0  0  0
  150.0735  136.1068  160.6025 H   0  0  0  0  0  0  0  0  0  0  0  0
  151.2477  137.1259  158.6983 H   0  0  0  0  0  0  0  0  0  0  0  0
  149.9183  143.6669  156.2507 H   0  0  0  0  0  0  0  0  0  0  0  0
  1  2  1  0  0  0  0
  1 25  1  0  0  0  0
  2  3  1  0  0  0  0
  2 26  1  0  0  0  0
  2 27  1  0  0  0  0
  3 11  1  0  0  0  0
  3  4  2  0  0  0  0
  4  5  1  0  0  0  0
  4 41  1  0  0  0  0
  5 10  2  0  0  0  0
  5  6  1  0  0  0  0
  6  7  2  0  0  0  0
  6 28  1  0  0  0  0
  7  8  1  0  0  0  0
  7 29  1  0  0  0  0
  8  9  2  0  0  0  0
  8 30  1  0  0  0  0
  9 10  1  0  0  0  0
  9 31  1  0  0  0  0
 10 11  1  0  0  0  0
 11 12  1  0  0  0  0
 12 13  1  0  0  0  0
 12 32  1  0  0  0  0
 12 33  1  0  0  0  0
 13 14  1  0  0  0  0
 13 15  1  0  0  0  0
 13 34  1  0  0  0  0
 14 35  1  0  0  0  0
 15 24  1  0  0  0  0
 15 16  2  0  0  0  0
 16 17  1  0  0  0  0
 16 36  1  0  0  0  0
 17 18  2  0  0  0  0
 17 37  1  0  0  0  0
 18 19  1  0  0  0  0
 18 23  1  0  0  0  0
 19 20  1  0  0  0  0
 20 21  1  0  0  0  0
 20 22  1  0  0  0  0
 20 38  1  0  0  0  0
 23 24  2  0  0  0  0
 23 39  1  0  0  0  0
 24 40  1  0  0  0  0
M  CHG  1   4   1
M  END
> <s_m_source_file>
AV-unprocessed.smi

> <i_m_source_file_index>
1871

> <i_lp_mmshare_version>
43012

> <i_f3d_flags>
0

> <s_epik_input>
W2NIXTFbY0hdW2NIXVtjSF1jKGMxMiluKGMobjIpW0NIMl1bT0hdKVtDSDJdW0NASF0oW09IXSljM1tjSF1bY0hdYyhPW0NIXShGKUYpW2NIXVtjSF0z

> <s_epik_cmdline>
J2VwaWtfcHl0aG9uJywgJy1waCcsICc3LjAnLCAnLXRuJywgJzgnLCAnLW1hJywgJzIwMCcsICctbWV0YWxfYmluZGluZycsICctaW1hZScsICc8aW5maWxlLm1hZT4nLCAnLW9tYWUnLCAnPG91dGZpbGUubWFlPic=

> <r_lp_tautomer_probability>
1

> <r_epik_Ionization_Penalty>
1.35642

> <r_epik_Ionization_Penalty_Charging>
1.35557

> <r_epik_Ionization_Penalty_Neutral>
0.000856035

> <r_epik_State_Penalty>
1.43401

> <r_epik_Charging_Adjusted_Penalty>
2.78958

> <i_epik_Tot_Q>
1

> <i_epik_Tot_abs_Q>
1

> <r_epik_Metal_State_Penalty>
5.47166

> <b_epik_Metal_Only>
0

> <s_lp_Force_Field>
OPLS_2005

> <r_lp_Energy>
14.8195

> <b_lp_Chiralities_Consistent>
1

> <s_lp_Variant>
AV-unprocessed.smi:1871-4

> <Gold.Version>
5.8.1

> <Gold.Id.Protein>
6NUR|6NUR_protein|mol2

> <Gold.PLP.Fitness>
56.3216

> <Gold.PLP.PLP>
-50.6748

> <Gold.PLP.part.hbond>
-3.0000

> <Gold.PLP.part.metal>
0.0000

> <Gold.PLP.part.buried>
-6.1310

> <Gold.PLP.part.nonpolar>
-42.4313

> <Gold.PLP.part.repulsive>
0.0526

> <Gold.PLP.ligand.clash>
0.0000

> <Gold.PLP.ligand.torsion>
2.0162

> <Gold.PLP.Chemscore.Hbond>
3.2059

> <Gold.PLP.Chemscore.CHOScore>
0.0000

> <Gold.PLP.Chemscore.Metal>
0.0000

> <Gold.Chemscore.Hbonds>
donor molecule, donor type, donor heavy atom, donor atom, acceptor molecule, acceptor atom, score
      L1  H     1    25       P1  8028  1.00
      L1  H     4    41       P1  8028  2.00
      P1  H  8011  8017       L1     1  0.08

> <Gold.PLP.Chemscore.Internal.Correction>
0.0614

> <Gold.Rescore>
     Score         DG    S(hbond)    S(metal)    S(lipo)     H(rot)  DE(clash)    DE(int)     intcor
     13.46     -16.25       2.22        0.00     102.34       3.37       0.03       2.76       ----

> <Gold.Chemscore.Fitness>
13.4590

> <Gold.Chemscore.DG>
-16.2532

> <Gold.Chemscore.ZeroCoef>
-5.4800

> <Gold.Chemscore.Hbond>
2.2205

> <Gold.Chemscore.Metal>
0.0000

> <Gold.Chemscore.Lipo>
102.3380

> <Gold.Chemscore.Internal_Hbond>
0.0000

> <Gold.Chemscore.DEClash>
0.0299

> <Gold.Chemscore.DEInternal>
2.7642

> <Gold.Chemscore.Rot>
3.3659

> <Gold.Chemscore.Internal.Correction>
   9.000000E+99

> <Gold.Chemscore.Hbonds>
donor molecule, donor type, donor heavy atom, donor atom, acceptor molecule, acceptor atom, score
      L1  H     1    25       P1  8028  1.00
      L1  H     4    41       P1  8028  0.98
      P1  H  8011  8017       L1     1  0.06

> <Gold.Chemscore.Hbond.Weighted>
-7.4163

> <Gold.Chemscore.Metal.Weighted>
-0.0000

> <Gold.Chemscore.Lipo.Weighted>
-11.9735

> <Gold.Chemscore.Internal_Hbond.Weighted>
0.0000

> <Gold.Chemscore.DEClash.Weighted>
0.0299

> <Gold.Chemscore.DEInternal.Weighted>
2.7642

> <Gold.Chemscore.Rot.Weighted>
8.6167

> <Gold.Chemscore.Internal.Correction.Weighted>
   9.000000E+99

> <Gold.Protein.RotatedTorsions>
[ 6907 6896 6895 6894 ] final  -57.35 input  -60.11 | X-H torsion
[ 7974 7965 7964 7962 ] final  -12.13 input  175.53 | X-H torsion
[ 8008 7997 7996 7995 ] final -133.57 input   59.86 | X-H torsion
[ 10167 10162 10161 10158 ] final  -29.89 input  -65.29 | X-H torsion
[ 10718 10713 10712 10709 ] final -153.47 input   66.30 | X-H torsion
[ 10763 10752 10751 10750 ] final  -52.71 input  -60.55 | X-H torsion
[ 11005 11000 10999 10996 ] final  161.97 input  -57.11 | X-H torsion

> <Gold.Protein.ActiveResidues>
 VAL166  LYS551  ARG553  GLY616  TRP617  ASP618  TYR619  PRO620  LYS621  CYS622 
 ASP623  PHE694  ASN695  SER759  ASP760  ASP761  ALA762  ILE779  LEU786  VAL792 
 PHE793  MET794  SER795  GLU796  ALA797  LYS798  CYS799  TRP800  GLU811  SER814 

> <Gold.Protein.RotatedAtoms>
  150.8093  134.7238  159.6672 H   0  0  0  0  0  0  0  0  0  0  0  0  # atno 6907 bound_to 6896
  152.4213  134.5947  159.9993 H   0  0  0  0  0  0  0  0  0  0  0  0  # atno 6908 bound_to 6896
  151.6161  133.3306  159.3114 H   0  0  0  0  0  0  0  0  0  0  0  0  # atno 6909 bound_to 6896
  146.2163  140.3012  142.8375 H   0  0  0  0  0  0  0  0  0  0  0  0  # atno 7974 bound_to 7965
  155.3477  140.0475  157.3046 H   0  0  0  0  0  0  0  0  0  0  0  0  # atno 8008 bound_to 7997
  154.5244  140.2236  155.8882 H   0  0  0  0  0  0  0  0  0  0  0  0  # atno 8009 bound_to 7997
  156.1723  140.3093  155.9002 H   0  0  0  0  0  0  0  0  0  0  0  0  # atno 8010 bound_to 7997
  140.7255  143.3892  151.1460 H   0  0  0  0  0  0  0  0  0  0  0  0  # atno 10167 bound_to 10162
  156.4862  130.8326  151.2551 H   0  0  0  0  0  0  0  0  0  0  0  0  # atno 10718 bound_to 10713
  154.1471  135.6496  153.4955 H   0  0  0  0  0  0  0  0  0  0  0  0  # atno 10763 bound_to 10752
  153.0148  135.5329  154.6845 H   0  0  0  0  0  0  0  0  0  0  0  0  # atno 10764 bound_to 10752
  154.6123  135.2955  155.0390 H   0  0  0  0  0  0  0  0  0  0  0  0  # atno 10765 bound_to 10752
  140.2210  134.8196  157.3221 H   0  0  0  0  0  0  0  0  0  0  0  0  # atno 11005 bound_to 11000
  144.9056  140.7695  143.5840 LP  0  0  0  0  0  0  0  0  0  0  0  0  # atno 17320 bound_to 7965
  145.2940  139.1873  143.4725 LP  0  0  0  0  0  0  0  0  0  0  0  0  # atno 17321 bound_to 7965
  139.7494  143.8801  152.3072 LP  0  0  0  0  0  0  0  0  0  0  0  0  # atno 17342 bound_to 10162
  139.8650  144.7098  150.9055 LP  0  0  0  0  0  0  0  0  0  0  0  0  # atno 17343 bound_to 10162
  157.7478  131.0028  150.3016 LP  0  0  0  0  0  0  0  0  0  0  0  0  # atno 17370 bound_to 10713
  156.3472  130.3825  149.7359 LP  0  0  0  0  0  0  0  0  0  0  0  0  # atno 17371 bound_to 10713
  140.1849  134.4443  155.7750 LP  0  0  0  0  0  0  0  0  0  0  0  0  # atno 17394 bound_to 11000
  141.2223  133.7000  156.7931 LP  0  0  0  0  0  0  0  0  0  0  0  0  # atno 17395 bound_to 11000

$$$$
