AV-unprocessed.smi:3315|AV-procd|sdf|12751|dock7
  -GOLD-   2272019 93D 1   1.00000     0.00000
 Structure written by MMmdl.
 37 38  0  0  0  0  0  0  0  0  1 V2000
  143.8972  134.9766  153.3701 C   0  0  0  0  0  0  0  0  0  0  0  0
  143.8783  133.8884  152.4541 O   0  0  0  0  0  0  0  0  0  0  0  0
  144.9590  133.7979  151.5151 C   0  0  1  0  0  0  0  0  0  0  0  0
  145.0976  135.1073  150.7283 C   0  0  0  0  0  0  0  0  0  0  0  0
  146.2028  133.1872  152.1892 C   0  0  0  0  0  0  0  0  0  0  0  0
  145.5881  131.8164  151.9147 C   0  0  2  0  0  0  0  0  0  0  0  0
  146.5857  130.8181  151.5434 N   0  0  0  0  0  0  0  0  0  0  0  0
  146.5297  129.5262  151.8950 C   0  0  0  0  0  0  0  0  0  0  0  0
  145.6225  129.0467  152.5756 O   0  0  0  0  0  0  0  0  0  0  0  0
  147.5785  128.8413  151.4082 N   0  0  0  0  0  0  0  0  0  0  0  0
  147.8493  127.4569  151.5544 C   0  0  0  0  0  0  0  0  0  0  0  0
  148.5444  126.7396  150.5446 C   0  0  0  0  0  0  0  0  0  0  0  0
  148.5975  125.4735  151.0544 C   0  0  0  0  0  0  0  0  0  0  0  0
  147.9886  125.4180  152.2688 O   0  0  0  0  0  0  0  0  0  0  0  0
  147.5100  126.6955  152.5842 N   0  0  0  0  0  0  0  0  0  0  0  0
  144.8196  132.4532  150.7278 C   0  0  0  0  0  0  0  0  0  0  0  0
  143.3943  131.9374  150.4993 C   0  0  0  0  0  0  0  0  0  0  0  0
  145.5074  132.4028  149.3503 C   0  0  0  0  0  0  0  0  0  0  0  0
  143.1036  134.8361  154.1035 H   0  0  0  0  0  0  0  0  0  0  0  0
  143.7079  135.9268  152.8713 H   0  0  0  0  0  0  0  0  0  0  0  0
  144.8386  135.0472  153.9136 H   0  0  0  0  0  0  0  0  0  0  0  0
  145.8403  135.0273  149.9353 H   0  0  0  0  0  0  0  0  0  0  0  0
  145.4218  135.9322  151.3622 H   0  0  0  0  0  0  0  0  0  0  0  0
  144.1533  135.3920  150.2639 H   0  0  0  0  0  0  0  0  0  0  0  0
  147.1211  133.3748  151.6300 H   0  0  0  0  0  0  0  0  0  0  0  0
  146.3376  133.4111  153.2467 H   0  0  0  0  0  0  0  0  0  0  0  0
  144.9293  131.5017  152.7275 H   0  0  0  0  0  0  0  0  0  0  0  0
  147.3649  131.1334  150.9845 H   0  0  0  0  0  0  0  0  0  0  0  0
  148.2530  129.3653  150.8706 H   0  0  0  0  0  0  0  0  0  0  0  0
  148.9394  127.0913  149.6032 H   0  0  0  0  0  0  0  0  0  0  0  0
  149.0136  124.5453  150.6914 H   0  0  0  0  0  0  0  0  0  0  0  0
  143.3932  130.9633  150.0088 H   0  0  0  0  0  0  0  0  0  0  0  0
  142.8184  132.6217  149.8759 H   0  0  0  0  0  0  0  0  0  0  0  0
  142.8494  131.8142  151.4353 H   0  0  0  0  0  0  0  0  0  0  0  0
  145.5243  131.3905  148.9451 H   0  0  0  0  0  0  0  0  0  0  0  0
  146.5415  132.7450  149.3928 H   0  0  0  0  0  0  0  0  0  0  0  0
  144.9905  133.0299  148.6232 H   0  0  0  0  0  0  0  0  0  0  0  0
  1  2  1  0  0  0  0
  1 19  1  0  0  0  0
  1 20  1  0  0  0  0
  1 21  1  0  0  0  0
  2  3  1  0  0  0  0
  3 16  1  0  0  0  0
  3  4  1  0  0  0  0
  3  5  1  0  0  0  0
  4 22  1  0  0  0  0
  4 23  1  0  0  0  0
  4 24  1  0  0  0  0
  5  6  1  0  0  0  0
  5 25  1  0  0  0  0
  5 26  1  0  0  0  0
  6  7  1  0  0  0  0
  6 16  1  0  0  0  0
  6 27  1  0  0  0  0
  7  8  1  0  0  0  0
  7 28  1  0  0  0  0
  8  9  2  0  0  0  0
  8 10  1  0  0  0  0
 10 11  1  0  0  0  0
 10 29  1  0  0  0  0
 11 15  2  0  0  0  0
 11 12  1  0  0  0  0
 12 13  2  0  0  0  0
 12 30  1  0  0  0  0
 13 14  1  0  0  0  0
 13 31  1  0  0  0  0
 14 15  1  0  0  0  0
 16 17  1  0  0  0  0
 16 18  1  0  0  0  0
 17 32  1  0  0  0  0
 17 33  1  0  0  0  0
 17 34  1  0  0  0  0
 18 35  1  0  0  0  0
 18 36  1  0  0  0  0
 18 37  1  0  0  0  0
M  END
> <s_m_source_file>
AV-unprocessed.smi

> <i_m_source_file_index>
3315

> <i_lp_mmshare_version>
43012

> <i_f3d_flags>
0

> <s_epik_input>
W0NIM11PW0NAQF0xKFtDSDNdKVtDSDJdW0NASF0oQzEoW0NIM10pW0NIM10pW05IXUMoPU8pW05IXWMyW2NIXVtjSF1vbjI=

> <s_epik_cmdline>
J2VwaWtfcHl0aG9uJywgJy1waCcsICc3LjAnLCAnLXRuJywgJzgnLCAnLW1hJywgJzIwMCcsICctbWV0YWxfYmluZGluZycsICctaW1hZScsICc8aW5maWxlLm1hZT4nLCAnLW9tYWUnLCAnPG91dGZpbGUubWFlPic=

> <r_lp_tautomer_probability>
1

> <r_epik_Ionization_Penalty>
2.28875e-05

> <r_epik_Ionization_Penalty_Charging>
0

> <r_epik_Ionization_Penalty_Neutral>
2.28875e-05

> <r_epik_State_Penalty>
-0

> <r_epik_Charging_Adjusted_Penalty>
0

> <i_epik_Tot_Q>
0

> <i_epik_Tot_abs_Q>
0

> <r_epik_Metal_State_Penalty>
-0

> <b_epik_Metal_Only>
0

> <s_lp_Force_Field>
OPLS_2005

> <r_lp_Energy>
22.1239

> <b_lp_Chiralities_Consistent>
1

> <s_lp_Variant>
AV-unprocessed.smi:3315-3

> <Gold.Version>
5.8.1

> <Gold.Id.Protein>
6NUR|6NUR_protein|mol2

> <Gold.PLP.Fitness>
41.5352

> <Gold.PLP.PLP>
-36.1282

> <Gold.PLP.part.hbond>
-3.5027

> <Gold.PLP.part.metal>
0.0000

> <Gold.PLP.part.buried>
-4.3316

> <Gold.PLP.part.nonpolar>
-28.6025

> <Gold.PLP.part.repulsive>
0.4282

> <Gold.PLP.ligand.clash>
0.0000

> <Gold.PLP.ligand.torsion>
0.4826

> <Gold.PLP.Chemscore.Hbond>
2.0000

> <Gold.PLP.Chemscore.CHOScore>
0.0000

> <Gold.PLP.Chemscore.Metal>
0.0000

> <Gold.Chemscore.Hbonds>
donor molecule, donor type, donor heavy atom, donor atom, acceptor molecule, acceptor atom, score
      L1  H     7    28       P1 10747  1.00
      L1  H    10    29       P1 10747  1.00

> <Gold.PLP.Chemscore.Internal.Correction>
0.3721

> <Gold.Rescore>
     Score         DG    S(hbond)    S(metal)    S(lipo)     H(rot)  DE(clash)    DE(int)     intcor
     13.40     -15.51       1.40        0.00      74.28       1.30       1.53       0.59       ----

> <Gold.Chemscore.Fitness>
13.3954

> <Gold.Chemscore.DG>
-15.5142

> <Gold.Chemscore.ZeroCoef>
-5.4800

> <Gold.Chemscore.Hbond>
1.4015

> <Gold.Chemscore.Metal>
0.0000

> <Gold.Chemscore.Lipo>
74.2823

> <Gold.Chemscore.Internal_Hbond>
0.0000

> <Gold.Chemscore.DEClash>
1.5312

> <Gold.Chemscore.DEInternal>
0.5876

> <Gold.Chemscore.Rot>
1.3038

> <Gold.Chemscore.Internal.Correction>
   9.000000E+99

> <Gold.Chemscore.Hbonds>
donor molecule, donor type, donor heavy atom, donor atom, acceptor molecule, acceptor atom, score
      L1  H     7    28       P1 10747  0.94
      L1  H    10    29       P1 10747  0.25

> <Gold.Chemscore.Hbond.Weighted>
-4.6810

> <Gold.Chemscore.Metal.Weighted>
-0.0000

> <Gold.Chemscore.Lipo.Weighted>
-8.6910

> <Gold.Chemscore.Internal_Hbond.Weighted>
0.0000

> <Gold.Chemscore.DEClash.Weighted>
1.5312

> <Gold.Chemscore.DEInternal.Weighted>
0.5876

> <Gold.Chemscore.Rot.Weighted>
3.3377

> <Gold.Chemscore.Internal.Correction.Weighted>
   9.000000E+99

> <Gold.Protein.RotatedTorsions>
[ 6907 6896 6895 6894 ] final  -56.98 input  -60.11 | X-H torsion
[ 7974 7965 7964 7962 ] final  -33.29 input  175.53 | X-H torsion
[ 8008 7997 7996 7995 ] final   76.20 input   59.86 | X-H torsion
[ 10167 10162 10161 10158 ] final  -40.36 input  -65.29 | X-H torsion
[ 10718 10713 10712 10709 ] final -107.12 input   66.30 | X-H torsion
[ 10763 10752 10751 10750 ] final  158.85 input  -60.55 | X-H torsion
[ 11005 11000 10999 10996 ] final   46.76 input  -57.11 | X-H torsion

> <Gold.Protein.ActiveResidues>
 VAL166  LYS551  ARG553  GLY616  TRP617  ASP618  TYR619  PRO620  LYS621  CYS622 
 ASP623  PHE694  ASN695  SER759  ASP760  ASP761  ALA762  ILE779  LEU786  VAL792 
 PHE793  MET794  SER795  GLU796  ALA797  LYS798  CYS799  TRP800  GLU811  SER814 

> <Gold.Protein.RotatedAtoms>
  150.8123  134.7284  159.6698 H   0  0  0  0  0  0  0  0  0  0  0  0  # atno 6907 bound_to 6896
  152.4242  134.5895  159.9980 H   0  0  0  0  0  0  0  0  0  0  0  0  # atno 6908 bound_to 6896
  151.6102  133.3311  159.3102 H   0  0  0  0  0  0  0  0  0  0  0  0  # atno 6909 bound_to 6896
  146.0922  140.5898  142.8859 H   0  0  0  0  0  0  0  0  0  0  0  0  # atno 7974 bound_to 7965
  155.8239  140.3469  155.5531 H   0  0  0  0  0  0  0  0  0  0  0  0  # atno 8008 bound_to 7997
  155.8313  140.0927  157.1810 H   0  0  0  0  0  0  0  0  0  0  0  0  # atno 8009 bound_to 7997
  154.4004  140.1411  156.3605 H   0  0  0  0  0  0  0  0  0  0  0  0  # atno 8010 bound_to 7997
  140.7036  143.3158  151.2913 H   0  0  0  0  0  0  0  0  0  0  0  0  # atno 10167 bound_to 10162
  156.0421  130.5646  150.7776 H   0  0  0  0  0  0  0  0  0  0  0  0  # atno 10718 bound_to 10713
  154.2225  135.2781  155.2919 H   0  0  0  0  0  0  0  0  0  0  0  0  # atno 10763 bound_to 10752
  154.5690  135.5624  153.7080 H   0  0  0  0  0  0  0  0  0  0  0  0  # atno 10764 bound_to 10752
  153.0038  135.6316  154.2366 H   0  0  0  0  0  0  0  0  0  0  0  0  # atno 10765 bound_to 10752
  140.1340  134.4669  155.8500 H   0  0  0  0  0  0  0  0  0  0  0  0  # atno 11005 bound_to 11000
  144.7369  140.4833  143.6897 LP  0  0  0  0  0  0  0  0  0  0  0  0  # atno 17320 bound_to 7965
  145.6017  139.1504  143.3125 LP  0  0  0  0  0  0  0  0  0  0  0  0  # atno 17321 bound_to 7965
  139.6596  144.0213  152.2683 LP  0  0  0  0  0  0  0  0  0  0  0  0  # atno 17342 bound_to 10162
  139.9776  144.6450  150.7930 LP  0  0  0  0  0  0  0  0  0  0  0  0  # atno 17343 bound_to 10162
  157.5253  131.0934  151.0026 LP  0  0  0  0  0  0  0  0  0  0  0  0  # atno 17370 bound_to 10713
  157.0346  130.5725  149.5348 LP  0  0  0  0  0  0  0  0  0  0  0  0  # atno 17371 bound_to 10713
  141.2175  133.6807  156.7122 LP  0  0  0  0  0  0  0  0  0  0  0  0  # atno 17394 bound_to 11000
  140.2806  134.8320  157.3930 LP  0  0  0  0  0  0  0  0  0  0  0  0  # atno 17395 bound_to 11000

$$$$
