AV-unprocessed.smi:3265|AV-procd|sdf|12497|dock10
  -GOLD-   2272018403D 1   1.00000     0.00000
 Structure written by MMmdl.
 41 42  0  0  0  0  0  0  0  0  2 V2000
  150.2933  139.8334  154.4043 C   0  0  0  0  0  0  0  0  0  0  0  0
  148.8641  139.6528  154.9453 C   0  0  1  0  0  0  0  0  0  0  0  0
  148.1702  140.9919  155.2557 C   0  0  0  0  0  0  0  0  0  0  0  0
  147.7506  141.7125  153.9669 C   0  0  0  0  0  0  0  0  0  0  0  0
  146.9050  140.7935  153.0712 C   0  0  0  0  0  0  0  0  0  0  0  0
  147.6243  139.5300  152.7652 N   0  3  2  0  0  0  0  0  0  0  0  0
  146.8903  138.6949  151.7812 C   0  0  0  0  0  0  0  0  0  0  0  0
  145.8304  137.7944  152.4437 C   0  0  0  0  0  0  0  0  0  0  0  0
  146.1907  136.3859  152.3418 N   0  0  0  0  0  0  0  0  0  0  0  0
  145.3868  135.3573  152.6612 C   0  0  0  0  0  0  0  0  0  0  0  0
  144.2516  135.5127  153.1102 O   0  0  0  0  0  0  0  0  0  0  0  0
  145.9366  133.9364  152.4743 C   0  0  0  0  0  0  0  0  0  0  0  0
  145.1586  133.1381  151.5391 N   0  0  0  0  0  0  0  0  0  0  0  0
  145.6138  132.2462  150.5901 C   0  0  0  0  0  0  0  0  0  0  0  0
  144.5195  131.7429  149.9470 C   0  0  0  0  0  0  0  0  0  0  0  0
  143.4248  132.3914  150.5841 C   0  0  0  0  0  0  0  0  0  0  0  0
  143.8100  133.2252  151.5368 N   0  0  0  0  0  0  0  0  0  0  0  0
  147.9892  138.7951  154.0075 C   0  0  0  0  0  0  0  0  0  0  0  0
  150.3045  140.3480  153.4434 H   0  0  0  0  0  0  0  0  0  0  0  0
  150.7835  138.8695  154.2655 H   0  0  0  0  0  0  0  0  0  0  0  0
  150.9038  140.4127  155.0975 H   0  0  0  0  0  0  0  0  0  0  0  0
  148.9596  139.1117  155.8876 H   0  0  0  0  0  0  0  0  0  0  0  0
  147.2831  140.8038  155.8620 H   0  0  0  0  0  0  0  0  0  0  0  0
  148.8190  141.6316  155.8548 H   0  0  0  0  0  0  0  0  0  0  0  0
  147.1854  142.6117  154.2138 H   0  0  0  0  0  0  0  0  0  0  0  0
  148.6335  142.0484  153.4220 H   0  0  0  0  0  0  0  0  0  0  0  0
  145.9544  140.5640  153.5557 H   0  0  0  0  0  0  0  0  0  0  0  0
  146.6699  141.3203  152.1456 H   0  0  0  0  0  0  0  0  0  0  0  0
  146.4375  139.3313  151.0193 H   0  0  0  0  0  0  0  0  0  0  0  0
  147.6046  138.0547  151.2616 H   0  0  0  0  0  0  0  0  0  0  0  0
  145.6912  138.0706  153.4906 H   0  0  0  0  0  0  0  0  0  0  0  0
  144.8612  137.9107  151.9611 H   0  0  0  0  0  0  0  0  0  0  0  0
  147.1082  136.1726  151.9773 H   0  0  0  0  0  0  0  0  0  0  0  0
  146.9648  133.9962  152.1162 H   0  0  0  0  0  0  0  0  0  0  0  0
  145.9630  133.4216  153.4360 H   0  0  0  0  0  0  0  0  0  0  0  0
  146.6666  132.0480  150.4513 H   0  0  0  0  0  0  0  0  0  0  0  0
  144.5030  131.0202  149.1448 H   0  0  0  0  0  0  0  0  0  0  0  0
  142.3693  132.2821  150.3835 H   0  0  0  0  0  0  0  0  0  0  0  0
  148.5205  137.8740  153.7710 H   0  0  0  0  0  0  0  0  0  0  0  0
  147.0753  138.4995  154.5251 H   0  0  0  0  0  0  0  0  0  0  0  0
  148.4887  139.8016  152.3188 H   0  0  0  0  0  0  0  0  0  0  0  0
  1  2  1  0  0  0  0
  1 19  1  0  0  0  0
  1 20  1  0  0  0  0
  1 21  1  0  0  0  0
  2 18  1  0  0  0  0
  2  3  1  0  0  0  0
  2 22  1  0  0  0  0
  3  4  1  0  0  0  0
  3 23  1  0  0  0  0
  3 24  1  0  0  0  0
  4  5  1  0  0  0  0
  4 25  1  0  0  0  0
  4 26  1  0  0  0  0
  5  6  1  0  0  0  0
  5 27  1  0  0  0  0
  5 28  1  0  0  0  0
  6  7  1  0  0  0  0
  6 18  1  0  0  0  0
  6 41  1  0  0  0  0
  7  8  1  0  0  0  0
  7 29  1  0  0  0  0
  7 30  1  0  0  0  0
  8  9  1  0  0  0  0
  8 31  1  0  0  0  0
  8 32  1  0  0  0  0
  9 10  1  0  0  0  0
  9 33  1  0  0  0  0
 10 11  2  0  0  0  0
 10 12  1  0  0  0  0
 12 13  1  0  0  0  0
 12 34  1  0  0  0  0
 12 35  1  0  0  0  0
 13 17  1  0  0  0  0
 13 14  1  0  0  0  0
 14 15  2  0  0  0  0
 14 36  1  0  0  0  0
 15 16  1  0  0  0  0
 15 37  1  0  0  0  0
 16 17  2  0  0  0  0
 16 38  1  0  0  0  0
 18 39  1  0  0  0  0
 18 40  1  0  0  0  0
M  CHG  1   6   1
M  END
> <s_m_source_file>
AV-unprocessed.smi

> <i_m_source_file_index>
3265

> <i_lp_mmshare_version>
43012

> <i_f3d_flags>
0

> <s_epik_input>
W0NIM11bQ0BASF0xW0NIMl1bQ0gyXVtDSDJdTihbQ0gyXTEpW0NIMl1bQ0gyXVtOSF1DKD1PKVtDSDJdbjJbY0hdW2NIXVtjSF1uMg==

> <s_epik_cmdline>
J2VwaWtfcHl0aG9uJywgJy1waCcsICc3LjAnLCAnLXRuJywgJzgnLCAnLW1hJywgJzIwMCcsICctbWV0YWxfYmluZGluZycsICctaW1hZScsICc8aW5maWxlLm1hZT4nLCAnLW9tYWUnLCAnPG91dGZpbGUubWFlPic=

> <r_lp_tautomer_probability>
1

> <r_epik_Ionization_Penalty>
0.00231455

> <r_epik_Ionization_Penalty_Charging>
0.00230623

> <r_epik_Ionization_Penalty_Neutral>
8.31727e-06

> <r_epik_State_Penalty>
0.00159065

> <r_epik_Charging_Adjusted_Penalty>
0.00389688

> <i_epik_Tot_Q>
1

> <i_epik_Tot_abs_Q>
1

> <r_epik_Metal_State_Penalty>
-0

> <b_epik_Metal_Only>
0

> <s_lp_Force_Field>
OPLS_2005

> <r_lp_Energy>
19.1739

> <b_lp_Chiralities_Consistent>
1

> <s_lp_Variant>
AV-unprocessed.smi:3265-2

> <Gold.Version>
5.8.1

> <Gold.Id.Protein>
6NUR|6NUR_protein|mol2

> <Gold.PLP.Fitness>
42.5042

> <Gold.PLP.PLP>
-30.8353

> <Gold.PLP.part.hbond>
-1.9180

> <Gold.PLP.part.metal>
0.0000

> <Gold.PLP.part.buried>
0.8727

> <Gold.PLP.part.nonpolar>
-30.5800

> <Gold.PLP.part.repulsive>
0.3580

> <Gold.PLP.ligand.clash>
0.0000

> <Gold.PLP.ligand.torsion>
0.9101

> <Gold.PLP.Chemscore.Hbond>
2.0000

> <Gold.PLP.Chemscore.CHOScore>
2.4866

> <Gold.PLP.Chemscore.Metal>
0.0000

> <Gold.Chemscore.Hbonds>
donor molecule, donor type, donor heavy atom, donor atom, acceptor molecule, acceptor atom, score
      L1  H     6    41       P1  7957  1.00
      L1  H     9    33       P1  7948  1.00
      L1  C    14    36       P1 10747  0.83
      L1  C    16    38       P1 10186  0.53
      L1  C    16    38       P1 10952  0.83

> <Gold.PLP.Chemscore.Internal.Correction>
0.0296

> <Gold.Rescore>
     Score         DG    S(hbond)    S(metal)    S(lipo)     H(rot)  DE(clash)    DE(int)     intcor
     14.31     -17.67       1.92        0.00      89.54       1.84       1.21       2.15       ----

> <Gold.Chemscore.Fitness>
14.3111

> <Gold.Chemscore.DG>
-17.6691

> <Gold.Chemscore.ZeroCoef>
-5.4800

> <Gold.Chemscore.Hbond>
1.9219

> <Gold.Chemscore.Metal>
0.0000

> <Gold.Chemscore.Lipo>
89.5446

> <Gold.Chemscore.Internal_Hbond>
0.0000

> <Gold.Chemscore.DEClash>
1.2126

> <Gold.Chemscore.DEInternal>
2.1454

> <Gold.Chemscore.Rot>
1.8386

> <Gold.Chemscore.Internal.Correction>
   9.000000E+99

> <Gold.Chemscore.Hbonds>
donor molecule, donor type, donor heavy atom, donor atom, acceptor molecule, acceptor atom, score
      L1  H     6    41       P1  7957  0.99
      L1  H     9    33       P1  7948  0.99

> <Gold.Chemscore.Hbond.Weighted>
-6.4192

> <Gold.Chemscore.Metal.Weighted>
-0.0000

> <Gold.Chemscore.Lipo.Weighted>
-10.4767

> <Gold.Chemscore.Internal_Hbond.Weighted>
0.0000

> <Gold.Chemscore.DEClash.Weighted>
1.2126

> <Gold.Chemscore.DEInternal.Weighted>
2.1454

> <Gold.Chemscore.Rot.Weighted>
4.7069

> <Gold.Chemscore.Internal.Correction.Weighted>
   9.000000E+99

> <Gold.Protein.RotatedTorsions>
[ 6907 6896 6895 6894 ] final  -51.48 input  -60.11 | X-H torsion
[ 7974 7965 7964 7962 ] final  -32.36 input  175.53 | X-H torsion
[ 8008 7997 7996 7995 ] final  -93.69 input   59.86 | X-H torsion
[ 10167 10162 10161 10158 ] final -114.86 input  -65.29 | X-H torsion
[ 10718 10713 10712 10709 ] final  162.11 input   66.30 | X-H torsion
[ 10763 10752 10751 10750 ] final   65.82 input  -60.55 | X-H torsion
[ 11005 11000 10999 10996 ] final  -23.58 input  -57.11 | X-H torsion

> <Gold.Protein.ActiveResidues>
 VAL166  LYS551  ARG553  GLY616  TRP617  ASP618  TYR619  PRO620  LYS621  CYS622 
 ASP623  PHE694  ASN695  SER759  ASP760  ASP761  ALA762  ILE779  LEU786  VAL792 
 PHE793  MET794  SER795  GLU796  ALA797  LYS798  CYS799  TRP800  GLU811  SER814 

> <Gold.Protein.RotatedAtoms>
  150.8608  134.7959  159.7080 H   0  0  0  0  0  0  0  0  0  0  0  0  # atno 6907 bound_to 6896
  152.4645  134.5104  159.9762 H   0  0  0  0  0  0  0  0  0  0  0  0  # atno 6908 bound_to 6896
  151.5208  133.3428  159.2936 H   0  0  0  0  0  0  0  0  0  0  0  0  # atno 6909 bound_to 6896
  146.0996  140.5783  142.8827 H   0  0  0  0  0  0  0  0  0  0  0  0  # atno 7974 bound_to 7965
  154.7389  140.0496  157.0793 H   0  0  0  0  0  0  0  0  0  0  0  0  # atno 8008 bound_to 7997
  155.0204  140.3146  155.4776 H   0  0  0  0  0  0  0  0  0  0  0  0  # atno 8009 bound_to 7997
  156.2859  140.2168  156.5322 H   0  0  0  0  0  0  0  0  0  0  0  0  # atno 8010 bound_to 7997
  140.0964  143.4653  152.1839 H   0  0  0  0  0  0  0  0  0  0  0  0  # atno 10167 bound_to 10162
  157.1271  131.0507  151.2388 H   0  0  0  0  0  0  0  0  0  0  0  0  # atno 10718 bound_to 10713
  153.0113  135.5343  154.6728 H   0  0  0  0  0  0  0  0  0  0  0  0  # atno 10763 bound_to 10752
  154.5908  135.2858  155.0639 H   0  0  0  0  0  0  0  0  0  0  0  0  # atno 10764 bound_to 10752
  154.1733  135.6528  153.5067 H   0  0  0  0  0  0  0  0  0  0  0  0  # atno 10765 bound_to 10752
  140.8765  133.7684  156.0250 H   0  0  0  0  0  0  0  0  0  0  0  0  # atno 11005 bound_to 11000
  144.7422  140.4972  143.6861 LP  0  0  0  0  0  0  0  0  0  0  0  0  # atno 17320 bound_to 7965
  145.5881  139.1493  143.3197 LP  0  0  0  0  0  0  0  0  0  0  0  0  # atno 17321 bound_to 7965
  139.5696  144.7455  151.3928 LP  0  0  0  0  0  0  0  0  0  0  0  0  # atno 17342 bound_to 10162
  140.7001  143.7652  150.7390 LP  0  0  0  0  0  0  0  0  0  0  0  0  # atno 17343 bound_to 10162
  157.4425  130.7552  149.7082 LP  0  0  0  0  0  0  0  0  0  0  0  0  # atno 17370 bound_to 10713
  155.9816  130.4018  150.3464 LP  0  0  0  0  0  0  0  0  0  0  0  0  # atno 17371 bound_to 10713
  140.8512  134.2952  157.5274 LP  0  0  0  0  0  0  0  0  0  0  0  0  # atno 17394 bound_to 11000
  139.8716  134.9468  156.3950 LP  0  0  0  0  0  0  0  0  0  0  0  0  # atno 17395 bound_to 11000

$$$$
