AV-unprocessed.smi:1330|AV-procd|sdf|5485|dock8
  -GOLD-   22720 5 63D 1   1.00000     0.00000
 Structure written by MMmdl.
 42 43  0  0  0  0  0  0  0  0  1 V2000
  146.1900  137.0141  154.3868 C   0  0  0  0  0  0  0  0  0  0  0  0
  147.6555  136.8684  154.6970 C   0  0  0  0  0  0  0  0  0  0  0  0
  148.3593  137.9527  154.6994 N   0  0  0  0  0  0  0  0  0  0  0  0
  149.7122  137.9302  154.9722 N   0  0  0  0  0  0  0  0  0  0  0  0
  150.3493  139.2513  154.9351 C   0  0  0  0  0  0  0  0  0  0  0  0
  149.3359  140.3716  154.6097 C   0  0  2  0  0  0  0  0  0  0  0  0
  149.6376  140.9001  153.3341 O   0  0  0  0  0  0  0  0  0  0  0  0
  149.4097  141.5304  155.6146 C   0  0  0  0  0  0  0  0  0  0  0  0
  150.5104  141.3079  156.4800 O   0  0  0  0  0  0  0  0  0  0  0  0
  150.8872  142.4627  157.2114 C   0  0  0  0  0  0  0  0  0  0  0  0
  151.7129  142.1182  158.4372 C   0  0  0  0  0  0  0  0  0  0  0  0
  152.1765  143.1352  159.3001 C   0  0  0  0  0  0  0  0  0  0  0  0
  152.9576  142.8082  160.4255 C   0  0  0  0  0  0  0  0  0  0  0  0
  153.2845  141.4642  160.6906 C   0  0  0  0  0  0  0  0  0  0  0  0
  154.2427  141.0642  162.0685 Cl  0  0  0  0  0  0  0  0  0  0  0  0
  152.8313  140.4473  159.8278 C   0  0  0  0  0  0  0  0  0  0  0  0
  152.0499  140.7742  158.7023 C   0  0  0  0  0  0  0  0  0  0  0  0
  150.4282  136.8071  155.2662 C   0  0  0  0  0  0  0  0  0  0  0  0
  151.6339  136.8365  155.5184 O   0  0  0  0  0  0  0  0  0  0  0  0
  149.6259  135.5819  155.2579 C   0  0  0  0  0  0  0  0  0  0  0  0
  150.3374  134.3812  155.5571 C   0  0  0  0  0  0  0  0  0  0  0  0
  150.9077  133.4083  155.8184 N   0  0  0  0  0  0  0  0  0  0  0  0
  148.2966  135.5896  154.9865 C   0  0  0  0  0  0  0  0  0  0  0  0
  147.4181  134.3462  154.9685 C   0  0  0  0  0  0  0  0  0  0  0  0
  145.5804  136.6116  155.1961 H   0  0  0  0  0  0  0  0  0  0  0  0
  145.9341  136.4793  153.4720 H   0  0  0  0  0  0  0  0  0  0  0  0
  145.9048  138.0584  154.2492 H   0  0  0  0  0  0  0  0  0  0  0  0
  150.8126  139.4363  155.9060 H   0  0  0  0  0  0  0  0  0  0  0  0
  151.1816  139.2675  154.2285 H   0  0  0  0  0  0  0  0  0  0  0  0
  148.3147  139.9886  154.5920 H   0  0  0  0  0  0  0  0  0  0  0  0
  149.4813  140.2284  152.6879 H   0  0  0  0  0  0  0  0  0  0  0  0
  149.5138  142.4848  155.0956 H   0  0  0  0  0  0  0  0  0  0  0  0
  148.4930  141.5741  156.2056 H   0  0  0  0  0  0  0  0  0  0  0  0
  151.4609  143.1310  156.5671 H   0  0  0  0  0  0  0  0  0  0  0  0
  149.9984  143.0050  157.5370 H   0  0  0  0  0  0  0  0  0  0  0  0
  151.9365  144.1702  159.1042 H   0  0  0  0  0  0  0  0  0  0  0  0
  153.3069  143.5904  161.0833 H   0  0  0  0  0  0  0  0  0  0  0  0
  153.0837  139.4161  160.0269 H   0  0  0  0  0  0  0  0  0  0  0  0
  151.7099  139.9889  158.0430 H   0  0  0  0  0  0  0  0  0  0  0  0
  147.9912  133.4337  155.1294 H   0  0  0  0  0  0  0  0  0  0  0  0
  146.9116  134.2461  154.0081 H   0  0  0  0  0  0  0  0  0  0  0  0
  146.6620  134.4028  155.7519 H   0  0  0  0  0  0  0  0  0  0  0  0
  1  2  1  0  0  0  0
  1 25  1  0  0  0  0
  1 26  1  0  0  0  0
  1 27  1  0  0  0  0
  2 23  1  0  0  0  0
  2  3  2  0  0  0  0
  3  4  1  0  0  0  0
  4  5  1  0  0  0  0
  4 18  1  0  0  0  0
  5  6  1  0  0  0  0
  5 28  1  0  0  0  0
  5 29  1  0  0  0  0
  6  7  1  0  0  0  0
  6  8  1  0  0  0  0
  6 30  1  0  0  0  0
  7 31  1  0  0  0  0
  8  9  1  0  0  0  0
  8 32  1  0  0  0  0
  8 33  1  0  0  0  0
  9 10  1  0  0  0  0
 10 11  1  0  0  0  0
 10 34  1  0  0  0  0
 10 35  1  0  0  0  0
 11 17  1  0  0  0  0
 11 12  2  0  0  0  0
 12 13  1  0  0  0  0
 12 36  1  0  0  0  0
 13 14  2  0  0  0  0
 13 37  1  0  0  0  0
 14 15  1  0  0  0  0
 14 16  1  0  0  0  0
 16 17  2  0  0  0  0
 16 38  1  0  0  0  0
 17 39  1  0  0  0  0
 18 19  2  0  0  0  0
 18 20  1  0  0  0  0
 20 21  1  0  0  0  0
 20 23  2  0  0  0  0
 21 22  3  0  0  0  0
 23 24  1  0  0  0  0
 24 40  1  0  0  0  0
 24 41  1  0  0  0  0
 24 42  1  0  0  0  0
M  END
> <s_m_source_file>
AV-unprocessed.smi

> <i_m_source_file_index>
1330

> <i_lp_mmshare_version>
43012

> <i_f3d_flags>
0

> <s_epik_input>
TiNDYyhjMVtDSDNdKWMoPU8pbihuYzFbQ0gzXSlbQ0gyXVtDQEhdKFtPSF0pW0NIMl1PW0NIMl1jMltjSF1bY0hdYyhDbClbY0hdW2NIXTI=

> <s_epik_cmdline>
J2VwaWtfcHl0aG9uJywgJy1waCcsICc3LjAnLCAnLXRuJywgJzgnLCAnLW1hJywgJzIwMCcsICctbWV0YWxfYmluZGluZycsICctaW1hZScsICc8aW5maWxlLm1hZT4nLCAnLW9tYWUnLCAnPG91dGZpbGUubWFlPic=

> <r_lp_tautomer_probability>
1

> <r_epik_Ionization_Penalty>
6.27695e-08

> <r_epik_Ionization_Penalty_Charging>
2.19172e-10

> <r_epik_Ionization_Penalty_Neutral>
6.25504e-08

> <r_epik_State_Penalty>
-0

> <r_epik_Charging_Adjusted_Penalty>
2.19172e-10

> <i_epik_Tot_Q>
0

> <i_epik_Tot_abs_Q>
0

> <r_epik_Metal_State_Penalty>
-0

> <b_epik_Metal_Only>
0

> <s_lp_Force_Field>
OPLS_2005

> <r_lp_Energy>
28.5495

> <b_lp_Chiralities_Consistent>
1

> <s_lp_Variant>
AV-unprocessed.smi:1330-1

> <Gold.Version>
5.8.1

> <Gold.Id.Protein>
6NUR|6NUR_protein|mol2

> <Gold.PLP.Fitness>
46.9753

> <Gold.PLP.PLP>
-41.1285

> <Gold.PLP.part.hbond>
-3.2771

> <Gold.PLP.part.metal>
0.0000

> <Gold.PLP.part.buried>
-2.8717

> <Gold.PLP.part.nonpolar>
-35.0394

> <Gold.PLP.part.repulsive>
0.2618

> <Gold.PLP.ligand.clash>
0.0000

> <Gold.PLP.ligand.torsion>
1.5892

> <Gold.PLP.Chemscore.Hbond>
2.9800

> <Gold.PLP.Chemscore.CHOScore>
0.0000

> <Gold.PLP.Chemscore.Metal>
0.0000

> <Gold.Chemscore.Hbonds>
donor molecule, donor type, donor heavy atom, donor atom, acceptor molecule, acceptor atom, score
      L1  H     7    31       P1  7957  0.77
      P1  H  7989  7998       L1     7  0.23
      P1  H  8011  8017       L1     7  1.00
      P1  H 10752 10763       L1    19  1.00

> <Gold.PLP.Chemscore.Internal.Correction>
0.0852

> <Gold.Rescore>
     Score         DG    S(hbond)    S(metal)    S(lipo)     H(rot)  DE(clash)    DE(int)     intcor
     17.49     -19.09       2.22        0.00     107.15       2.48       0.01       1.59       ----

> <Gold.Chemscore.Fitness>
17.4896

> <Gold.Chemscore.DG>
-19.0900

> <Gold.Chemscore.ZeroCoef>
-5.4800

> <Gold.Chemscore.Hbond>
2.2205

> <Gold.Chemscore.Metal>
0.0000

> <Gold.Chemscore.Lipo>
107.1488

> <Gold.Chemscore.Internal_Hbond>
0.0000

> <Gold.Chemscore.DEClash>
0.0137

> <Gold.Chemscore.DEInternal>
1.5867

> <Gold.Chemscore.Rot>
2.4777

> <Gold.Chemscore.Internal.Correction>
   9.000000E+99

> <Gold.Chemscore.Hbonds>
donor molecule, donor type, donor heavy atom, donor atom, acceptor molecule, acceptor atom, score
      L1  H     7    31       P1  7957  0.72
      P1  H  7989  7998       L1     7  0.02
      P1  H  8011  8017       L1     7  0.39
      P1  H 10752 10763       L1    19  0.95

> <Gold.Chemscore.Hbond.Weighted>
-7.4165

> <Gold.Chemscore.Metal.Weighted>
-0.0000

> <Gold.Chemscore.Lipo.Weighted>
-12.5364

> <Gold.Chemscore.Internal_Hbond.Weighted>
0.0000

> <Gold.Chemscore.DEClash.Weighted>
0.0137

> <Gold.Chemscore.DEInternal.Weighted>
1.5867

> <Gold.Chemscore.Rot.Weighted>
6.3428

> <Gold.Chemscore.Internal.Correction.Weighted>
   9.000000E+99

> <Gold.Protein.RotatedTorsions>
[ 6907 6896 6895 6894 ] final   76.28 input  -60.11 | X-H torsion
[ 7974 7965 7964 7962 ] final -179.52 input  175.53 | X-H torsion
[ 8008 7997 7996 7995 ] final -162.08 input   59.86 | X-H torsion
[ 10167 10162 10161 10158 ] final  159.74 input  -65.29 | X-H torsion
[ 10718 10713 10712 10709 ] final  120.68 input   66.30 | X-H torsion
[ 10763 10752 10751 10750 ] final   66.90 input  -60.55 | X-H torsion
[ 11005 11000 10999 10996 ] final  106.82 input  -57.11 | X-H torsion

> <Gold.Protein.ActiveResidues>
 VAL166  LYS551  ARG553  GLY616  TRP617  ASP618  TYR619  PRO620  LYS621  CYS622 
 ASP623  PHE694  ASN695  SER759  ASP760  ASP761  ALA762  ILE779  LEU786  VAL792 
 PHE793  MET794  SER795  GLU796  ALA797  LYS798  CYS799  TRP800  GLU811  SER814 

> <Gold.Protein.RotatedAtoms>
  152.5065  134.3993  159.9410 H   0  0  0  0  0  0  0  0  0  0  0  0  # atno 6907 bound_to 6896
  151.3956  133.3768  159.2734 H   0  0  0  0  0  0  0  0  0  0  0  0  # atno 6908 bound_to 6896
  150.9399  134.8830  159.7665 H   0  0  0  0  0  0  0  0  0  0  0  0  # atno 6909 bound_to 6896
  144.7137  140.0706  143.6429 H   0  0  0  0  0  0  0  0  0  0  0  0  # atno 7974 bound_to 7965
  155.8016  140.0892  157.1954 H   0  0  0  0  0  0  0  0  0  0  0  0  # atno 8008 bound_to 7997
  154.3982  140.1471  156.3340 H   0  0  0  0  0  0  0  0  0  0  0  0  # atno 8009 bound_to 7997
  155.8457  140.3437  155.5663 H   0  0  0  0  0  0  0  0  0  0  0  0  # atno 8010 bound_to 7997
  139.4834  144.4701  151.8588 H   0  0  0  0  0  0  0  0  0  0  0  0  # atno 10167 bound_to 10162
  157.5873  131.1068  150.8068 H   0  0  0  0  0  0  0  0  0  0  0  0  # atno 10718 bound_to 10713
  153.0161  135.5303  154.6896 H   0  0  0  0  0  0  0  0  0  0  0  0  # atno 10763 bound_to 10752
  154.6034  135.2870  155.0513 H   0  0  0  0  0  0  0  0  0  0  0  0  # atno 10764 bound_to 10752
  154.1561  135.6555  153.5027 H   0  0  0  0  0  0  0  0  0  0  0  0  # atno 10765 bound_to 10752
  139.8819  134.9381  156.5725 H   0  0  0  0  0  0  0  0  0  0  0  0  # atno 11005 bound_to 11000
  145.9787  139.2924  143.1055 LP  0  0  0  0  0  0  0  0  0  0  0  0  # atno 17320 bound_to 7965
  145.9035  140.9227  143.0490 LP  0  0  0  0  0  0  0  0  0  0  0  0  # atno 17321 bound_to 7965
  140.4169  144.2295  150.5887 LP  0  0  0  0  0  0  0  0  0  0  0  0  # atno 17342 bound_to 10162
  140.4912  143.2347  151.8816 LP  0  0  0  0  0  0  0  0  0  0  0  0  # atno 17343 bound_to 10162
  156.8499  130.5077  149.5313 LP  0  0  0  0  0  0  0  0  0  0  0  0  # atno 17370 bound_to 10713
  156.0924  130.5906  150.9755 LP  0  0  0  0  0  0  0  0  0  0  0  0  # atno 17371 bound_to 10713
  140.8087  133.8446  155.8791 LP  0  0  0  0  0  0  0  0  0  0  0  0  # atno 17394 bound_to 11000
  140.9526  134.1759  157.4716 LP  0  0  0  0  0  0  0  0  0  0  0  0  # atno 17395 bound_to 11000

$$$$
