AV-unprocessed.smi:946|AV-procd|sdf|4237|dock9
  -GOLD-   22720 2153D 1   1.00000     0.00000
 Structure written by MMmdl.
 42 43  0  0  0  0  0  0  0  0  1 V2000
  148.5337  138.9280  157.5448 C   0  0  0  0  0  0  0  0  0  0  0  0
  149.7658  138.1195  157.9778 C   0  0  1  0  0  0  0  0  0  0  0  0
  150.5389  138.9450  158.8455 O   0  0  0  0  0  0  0  0  0  0  0  0
  151.9236  139.0399  158.5299 C   0  0  0  0  0  0  0  0  0  0  0  0
  152.3260  140.5199  158.5030 C   0  0  1  0  0  0  0  0  0  0  0  0
  151.2314  141.4001  157.8682 C   0  0  0  0  0  0  0  0  0  0  0  0
  151.6202  142.8811  157.9401 C   0  0  0  0  0  0  0  0  0  0  0  0
  151.9622  143.2545  159.3861 C   0  0  0  0  0  0  0  0  0  0  0  0
  153.0083  142.2831  159.9550 C   0  0  0  0  0  0  0  0  0  0  0  0
  152.5333  140.9444  159.8490 O   0  0  0  0  0  0  0  0  0  0  0  0
  149.3629  136.8170  158.6886 C   0  0  0  0  0  0  0  0  0  0  0  0
  149.7537  135.7351  158.2489 O   0  0  0  0  0  0  0  0  0  0  0  0
  148.5726  136.9638  159.7687 N   0  0  0  0  0  0  0  0  0  0  0  0
  148.0356  135.9549  160.6107 C   0  0  0  0  0  0  0  0  0  0  0  0
  147.4704  136.4210  161.8181 C   0  0  0  0  0  0  0  0  0  0  0  0
  146.9092  135.4981  162.7207 C   0  0  0  0  0  0  0  0  0  0  0  0
  146.9276  134.1307  162.3938 C   0  0  0  0  0  0  0  0  0  0  0  0
  147.5121  133.7433  161.1691 C   0  0  0  0  0  0  0  0  0  0  0  0
  147.5765  132.2835  160.7418 C   0  0  0  0  0  0  0  0  0  0  0  0
  148.1731  132.1888  159.5533 F   0  0  0  0  0  0  0  0  0  0  0  0
  148.2599  131.5436  161.6157 F   0  0  0  0  0  0  0  0  0  0  0  0
  146.3426  131.7883  160.6443 F   0  0  0  0  0  0  0  0  0  0  0  0
  148.0490  134.6342  160.3050 N   0  0  0  0  0  0  0  0  0  0  0  0
  147.8876  138.3444  156.8878 H   0  0  0  0  0  0  0  0  0  0  0  0
  148.8328  139.8238  157.0002 H   0  0  0  0  0  0  0  0  0  0  0  0
  147.9401  139.2483  158.4020 H   0  0  0  0  0  0  0  0  0  0  0  0
  150.3511  137.8881  157.0856 H   0  0  0  0  0  0  0  0  0  0  0  0
  152.5109  138.5184  159.2865 H   0  0  0  0  0  0  0  0  0  0  0  0
  152.1383  138.5720  157.5677 H   0  0  0  0  0  0  0  0  0  0  0  0
  153.2517  140.6269  157.9345 H   0  0  0  0  0  0  0  0  0  0  0  0
  151.0661  141.1097  156.8302 H   0  0  0  0  0  0  0  0  0  0  0  0
  150.2862  141.2460  158.3904 H   0  0  0  0  0  0  0  0  0  0  0  0
  152.4823  143.0661  157.2983 H   0  0  0  0  0  0  0  0  0  0  0  0
  150.8092  143.5070  157.5669 H   0  0  0  0  0  0  0  0  0  0  0  0
  152.3306  144.2795  159.4346 H   0  0  0  0  0  0  0  0  0  0  0  0
  151.0603  143.2160  159.9984 H   0  0  0  0  0  0  0  0  0  0  0  0
  153.9614  142.3856  159.4336 H   0  0  0  0  0  0  0  0  0  0  0  0
  153.1950  142.5075  161.0053 H   0  0  0  0  0  0  0  0  0  0  0  0
  148.3252  137.9113  160.0133 H   0  0  0  0  0  0  0  0  0  0  0  0
  147.4646  137.4751  162.0549 H   0  0  0  0  0  0  0  0  0  0  0  0
  146.4722  135.8344  163.6492 H   0  0  0  0  0  0  0  0  0  0  0  0
  146.5027  133.4050  163.0713 H   0  0  0  0  0  0  0  0  0  0  0  0
  1  2  1  0  0  0  0
  1 24  1  0  0  0  0
  1 25  1  0  0  0  0
  1 26  1  0  0  0  0
  2  3  1  0  0  0  0
  2 11  1  0  0  0  0
  2 27  1  0  0  0  0
  3  4  1  0  0  0  0
  4  5  1  0  0  0  0
  4 28  1  0  0  0  0
  4 29  1  0  0  0  0
  5 10  1  0  0  0  0
  5  6  1  0  0  0  0
  5 30  1  0  0  0  0
  6  7  1  0  0  0  0
  6 31  1  0  0  0  0
  6 32  1  0  0  0  0
  7  8  1  0  0  0  0
  7 33  1  0  0  0  0
  7 34  1  0  0  0  0
  8  9  1  0  0  0  0
  8 35  1  0  0  0  0
  8 36  1  0  0  0  0
  9 10  1  0  0  0  0
  9 37  1  0  0  0  0
  9 38  1  0  0  0  0
 11 12  2  0  0  0  0
 11 13  1  0  0  0  0
 13 14  1  0  0  0  0
 13 39  1  0  0  0  0
 14 23  1  0  0  0  0
 14 15  2  0  0  0  0
 15 16  1  0  0  0  0
 15 40  1  0  0  0  0
 16 17  2  0  0  0  0
 16 41  1  0  0  0  0
 17 18  1  0  0  0  0
 17 42  1  0  0  0  0
 18 19  1  0  0  0  0
 18 23  2  0  0  0  0
 19 20  1  0  0  0  0
 19 21  1  0  0  0  0
 19 22  1  0  0  0  0
M  END
> <s_m_source_file>
AV-unprocessed.smi

> <i_m_source_file_index>
946

> <i_lp_mmshare_version>
43012

> <i_f3d_flags>
0

> <s_epik_input>
TzFbQ0gyXVtDSDJdW0NIMl1bQ0gyXVtDQEhdMVtDSDJdT1tDQEBIXShbQ0gzXSlDKD1PKVtOSF1jMltjSF1bY0hdW2NIXWMobjIpQyhGKShGKUY=

> <s_epik_cmdline>
J2VwaWtfcHl0aG9uJywgJy1waCcsICc3LjAnLCAnLXRuJywgJzgnLCAnLW1hJywgJzIwMCcsICctbWV0YWxfYmluZGluZycsICctaW1hZScsICc8aW5maWxlLm1hZT4nLCAnLW9tYWUnLCAnPG91dGZpbGUubWFlPic=

> <r_lp_tautomer_probability>
1

> <r_epik_Ionization_Penalty>
1.32683e-06

> <r_epik_Ionization_Penalty_Charging>
0

> <r_epik_Ionization_Penalty_Neutral>
1.32683e-06

> <r_epik_State_Penalty>
-0

> <r_epik_Charging_Adjusted_Penalty>
0

> <i_epik_Tot_Q>
0

> <i_epik_Tot_abs_Q>
0

> <r_epik_Metal_State_Penalty>
-0

> <b_epik_Metal_Only>
0

> <s_lp_Force_Field>
OPLS_2005

> <r_lp_Energy>
14.7702

> <b_lp_Chiralities_Consistent>
1

> <s_lp_Variant>
AV-unprocessed.smi:946-4

> <Gold.Version>
5.8.1

> <Gold.Id.Protein>
6NUR|6NUR_protein|mol2

> <Gold.PLP.Fitness>
43.5381

> <Gold.PLP.PLP>
-43.0789

> <Gold.PLP.part.hbond>
-1.2317

> <Gold.PLP.part.metal>
0.0000

> <Gold.PLP.part.buried>
-6.0652

> <Gold.PLP.part.nonpolar>
-36.7404

> <Gold.PLP.part.repulsive>
0.2373

> <Gold.PLP.ligand.clash>
0.0000

> <Gold.PLP.ligand.torsion>
1.2882

> <Gold.PLP.Chemscore.Hbond>
1.0000

> <Gold.PLP.Chemscore.CHOScore>
0.0000

> <Gold.PLP.Chemscore.Metal>
0.0000

> <Gold.Chemscore.Hbonds>
donor molecule, donor type, donor heavy atom, donor atom, acceptor molecule, acceptor atom, score
      P1  H  6896  6909       L1    12  1.00

> <Gold.PLP.Chemscore.Internal.Correction>
0.0356

> <Gold.Rescore>
     Score         DG    S(hbond)    S(metal)    S(lipo)     H(rot)  DE(clash)    DE(int)     intcor
     12.90     -15.48       0.96        0.00      96.50       1.76       0.01       2.57       ----

> <Gold.Chemscore.Fitness>
12.9039

> <Gold.Chemscore.DG>
-15.4808

> <Gold.Chemscore.ZeroCoef>
-5.4800

> <Gold.Chemscore.Hbond>
0.9595

> <Gold.Chemscore.Metal>
0.0000

> <Gold.Chemscore.Lipo>
96.5014

> <Gold.Chemscore.Internal_Hbond>
0.0000

> <Gold.Chemscore.DEClash>
0.0073

> <Gold.Chemscore.DEInternal>
2.5695

> <Gold.Chemscore.Rot>
1.7557

> <Gold.Chemscore.Internal.Correction>
   9.000000E+99

> <Gold.Chemscore.Hbonds>
donor molecule, donor type, donor heavy atom, donor atom, acceptor molecule, acceptor atom, score
      P1  H  6896  6909       L1    12  0.88

> <Gold.Chemscore.Hbond.Weighted>
-3.2048

> <Gold.Chemscore.Metal.Weighted>
-0.0000

> <Gold.Chemscore.Lipo.Weighted>
-11.2907

> <Gold.Chemscore.Internal_Hbond.Weighted>
0.0000

> <Gold.Chemscore.DEClash.Weighted>
0.0073

> <Gold.Chemscore.DEInternal.Weighted>
2.5695

> <Gold.Chemscore.Rot.Weighted>
4.4946

> <Gold.Chemscore.Internal.Correction.Weighted>
   9.000000E+99

> <Gold.Protein.RotatedTorsions>
[ 6907 6896 6895 6894 ] final   48.45 input  -60.11 | X-H torsion
[ 7974 7965 7964 7962 ] final -138.73 input  175.53 | X-H torsion
[ 8008 7997 7996 7995 ] final   24.58 input   59.86 | X-H torsion
[ 10167 10162 10161 10158 ] final -101.76 input  -65.29 | X-H torsion
[ 10718 10713 10712 10709 ] final -177.47 input   66.30 | X-H torsion
[ 10763 10752 10751 10750 ] final -162.36 input  -60.55 | X-H torsion
[ 11005 11000 10999 10996 ] final   81.35 input  -57.11 | X-H torsion

> <Gold.Protein.ActiveResidues>
 VAL166  LYS551  ARG553  GLY616  TRP617  ASP618  TYR619  PRO620  LYS621  CYS622 
 ASP623  PHE694  ASN695  SER759  ASP760  ASP761  ALA762  ILE779  LEU786  VAL792 
 PHE793  MET794  SER795  GLU796  ALA797  LYS798  CYS799  TRP800  GLU811  SER814 

> <Gold.Protein.RotatedAtoms>
  152.2796  134.7843  160.0398 H   0  0  0  0  0  0  0  0  0  0  0  0  # atno 6907 bound_to 6896
  151.8427  133.3421  159.3656 H   0  0  0  0  0  0  0  0  0  0  0  0  # atno 6908 bound_to 6896
  150.7184  134.5304  159.5742 H   0  0  0  0  0  0  0  0  0  0  0  0  # atno 6909 bound_to 6896
  144.8735  140.6402  143.5252 H   0  0  0  0  0  0  0  0  0  0  0  0  # atno 7974 bound_to 7965
  154.9984  140.3122  155.4877 H   0  0  0  0  0  0  0  0  0  0  0  0  # atno 8008 bound_to 7997
  156.2929  140.2236  156.5033 H   0  0  0  0  0  0  0  0  0  0  0  0  # atno 8009 bound_to 7997
  154.7640  140.0457  157.0985 H   0  0  0  0  0  0  0  0  0  0  0  0  # atno 8010 bound_to 7997
  140.2379  143.3560  152.0828 H   0  0  0  0  0  0  0  0  0  0  0  0  # atno 10167 bound_to 10162
  156.8299  130.9649  151.3107 H   0  0  0  0  0  0  0  0  0  0  0  0  # atno 10718 bound_to 10713
  154.7221  135.3028  154.9030 H   0  0  0  0  0  0  0  0  0  0  0  0  # atno 10763 bound_to 10752
  153.9898  135.6720  153.4757 H   0  0  0  0  0  0  0  0  0  0  0  0  # atno 10764 bound_to 10752
  153.0843  135.4992  154.8483 H   0  0  0  0  0  0  0  0  0  0  0  0  # atno 10765 bound_to 10752
  139.9101  134.7990  156.2029 H   0  0  0  0  0  0  0  0  0  0  0  0  # atno 11005 bound_to 11000
  145.4087  139.1584  143.4138 LP  0  0  0  0  0  0  0  0  0  0  0  0  # atno 17320 bound_to 7965
  146.2946  140.4189  142.8726 LP  0  0  0  0  0  0  0  0  0  0  0  0  # atno 17321 bound_to 7965
  139.5087  144.6855  151.5899 LP  0  0  0  0  0  0  0  0  0  0  0  0  # atno 17342 bound_to 10162
  140.6136  143.9390  150.6471 LP  0  0  0  0  0  0  0  0  0  0  0  0  # atno 17343 bound_to 10162
  157.6412  130.8807  149.9452 LP  0  0  0  0  0  0  0  0  0  0  0  0  # atno 17370 bound_to 10713
  156.0940  130.3661  150.0341 LP  0  0  0  0  0  0  0  0  0  0  0  0  # atno 17371 bound_to 10713
  141.0513  133.6887  156.1778 LP  0  0  0  0  0  0  0  0  0  0  0  0  # atno 17394 bound_to 11000
  140.6805  134.4772  157.5589 LP  0  0  0  0  0  0  0  0  0  0  0  0  # atno 17395 bound_to 11000

$$$$
