#       Name:                AV-unprocessed.smi:2313
#       Creating user name   scv26
#       Creation time:       Fri Mar 27 12:48:52 2020


#       File generated by GOLD software.
#

@<TRIPOS>MOLECULE
AV-unprocessed.smi:2313
    43    44     1
SMALL
NO_CHARGES


@<TRIPOS>ATOM
      1 ****        -4.0803   3.3556  -2.5544 C.3            1 S1                 0.0000
      2 ****        -3.2801   2.3721  -1.7209 C.2            1 S1                 0.0000
      3 ****        -2.7554   2.7720  -0.4317 C.2            1 S1                 0.0000
      4 ****        -2.0566   1.8877   0.2958 C.2            1 S1                 0.0000
      5 ****        -1.8138   0.5792  -0.1571 N.am           1 S1                 0.0000
      6 ****        -1.0288  -0.3011   0.7244 C.3            1 S1                 0.0000
      7 ****         0.4583  -0.3594   0.3484 C.2            1 S1                 0.0000
      8 ****         0.9912   0.5809  -0.2410 O.2            1 S1                 0.0000
      9 ****         1.1132  -1.4695   0.7291 N.am           1 S1                 0.0000
     10 ****         2.5254  -1.8153   0.5182 C.3            1 S1                 0.0000
     11 ****         2.5955  -3.3509   0.5481 C.3            1 S1                 0.0000
     12 ****         3.0070  -1.3723  -0.8054 C.1            1 S1                 0.0000
     13 ****         3.3864  -1.0275  -1.8431 N.1            1 S1                 0.0000
     14 ****         3.4931  -1.2654   1.5686 C.3            1 S1                 0.0000
     15 ****         3.0954  -1.0832   3.0161 C.3            1 S1                 0.0000
     16 ****         3.4051   0.1245   2.1597 C.3            1 S1                 0.0000
     17 ****        -2.2694   0.1356  -1.3671 C.2            1 S1                 0.0000
     18 ****        -2.0441  -1.0101  -1.7622 O.2            1 S1                 0.0000
     19 ****        -3.0401   1.1114  -2.1544 C.2            1 S1                 0.0000
     20 ****        -3.5262   0.6442  -3.4129 C.1            1 S1                 0.0000
     21 ****        -3.9360   0.2820  -4.4332 N.1            1 S1                 0.0000
     22 ****        -4.1395   4.3290  -2.0668 H              1 S1                 0.0000
     23 ****        -5.0965   2.9894  -2.7033 H              1 S1                 0.0000
     24 ****        -3.6166   3.4954  -3.5314 H              1 S1                 0.0000
     25 ****        -2.9191   3.7719  -0.0569 H              1 S1                 0.0000
     26 ****        -1.6336   2.1275   1.2606 H              1 S1                 0.0000
     27 ****        -1.1018   0.0319   1.7604 H              1 S1                 0.0000
     28 ****        -1.4484  -1.3090   0.7192 H              1 S1                 0.0000
     29 ****         0.5679  -2.1666   1.2146 H              1 S1                 0.0000
     30 ****         3.6107  -3.7049   0.3643 H              1 S1                 0.0000
     31 ****         1.9543  -3.7920  -0.2164 H              1 S1                 0.0000
     32 ****         2.2799  -3.7460   1.5144 H              1 S1                 0.0000
     33 ****         4.5116  -1.6179   1.4138 H              1 S1                 0.0000
     34 ****         2.0556  -1.2477   3.2910 H              1 S1                 0.0000
     35 ****         3.8245  -1.3633   3.7735 H              1 S1                 0.0000
     36 ****         4.3415   0.6449   2.3496 H              1 S1                 0.0000
     37 ****         2.5714   0.7661   1.8891 H              1 S1                 0.0000
     38 ****         0.4547   1.3907  -0.4785 LP             1 S1                 0.0000
     39 ****         1.9605   0.5349  -0.4823 LP             1 S1                 0.0000
     40 ****         3.7141  -0.7296  -2.7397 LP             1 S1                 0.0000
     41 ****        -1.5163  -1.6405  -1.1931 LP             1 S1                 0.0000
     42 ****        -2.3893  -1.3091  -2.6519 LP             1 S1                 0.0000
     43 ****        -4.2900  -0.0309  -5.3146 LP             1 S1                 0.0000
@<TRIPOS>BOND
    1    1    2 1     
    2    1   22 1     
    3    1   23 1     
    4    1   24 1     
    5    2   19 2     
    6    2    3 1     
    7    3    4 2     
    8    3   25 1     
    9    4    5 1     
   10    4   26 1     
   11    5    6 1     
   12    5   17 am    
   13    6    7 1     
   14    6   27 1     
   15    6   28 1     
   16    7    8 2     
   17    7    9 am    
   18    9   10 1     
   19    9   29 1     
   20   10   11 1     
   21   10   12 1     
   22   10   14 1     
   23   11   30 1     
   24   11   31 1     
   25   11   32 1     
   26   12   13 3     
   27   14   16 1     
   28   14   15 1     
   29   14   33 1     
   30   15   16 1     
   31   15   34 1     
   32   15   35 1     
   33   16   36 1     
   34   16   37 1     
   35   17   18 2     
   36   17   19 1     
   37   19   20 1     
   38   20   21 3     
   39    8   38 1     
   40    8   39 1     
   41   13   40 1     
   42   18   41 1     
   43   18   42 1     
   44   21   43 1     
@<TRIPOS>SUBSTRUCTURE
      1 S1             1
@<TRIPOS>SET
LONE_PAIRS      STATIC     ATOMS    <user>   **** ""
6 38 39 40 41 42 43
DONOR_HYDROGENS      STATIC     ATOMS    <user>   **** ""
1 29
ATOM$BLUE        STATIC     ATOMS    COLORGROUP SYSTEM
6 38 39 40 41 42 43
ATOM$RED        STATIC     ATOMS    COLORGROUP SYSTEM
1 29
