#       Name:                AV-unprocessed.smi:121
#       Creating user name   scv26
#       Creation time:       Thu Mar 26 18:27:06 2020


#       File generated by GOLD software.
#

@<TRIPOS>MOLECULE
AV-unprocessed.smi:121
    44    46     1
SMALL
NO_CHARGES


@<TRIPOS>ATOM
      1 ****        -4.5100  -1.7574  -0.4405 N.1            1 S1                 0.0000
      2 ****        -4.0683  -0.7274  -0.7281 C.1            1 S1                 0.0000
      3 ****        -3.5129   0.5661  -1.0894 C.ar           1 S1                 0.0000
      4 ****        -4.3403   1.5584  -1.6523 C.ar           1 S1                 0.0000
      5 ****        -3.7970   2.8078  -2.0064 C.ar           1 S1                 0.0000
      6 ****        -2.4289   3.0671  -1.7973 C.ar           1 S1                 0.0000
      7 ****        -1.5932   2.0835  -1.2284 C.ar           1 S1                 0.0000
      8 ****        -0.1148   2.4033  -1.0243 C.3            1 S1                 0.0000
      9 ****         0.5736   1.6298  -0.0021 N.am           1 S1                 0.0000
     10 ****         0.4366   2.0605   1.3399 C.2            1 S1                 0.0000
     11 ****        -0.2235   3.0560   1.6430 O.2            1 S1                 0.0000
     12 ****         1.1261   1.2254   2.3169 C.2            1 S1                 0.0000
     13 ****         1.0818   1.5534   3.6192 F              1 S1                 0.0000
     14 ****         1.8086   0.1237   1.9364 C.2            1 S1                 0.0000
     15 ****         1.9013  -0.2902   0.6170 N.am           1 S1                 0.0000
     16 ****         2.6549  -1.5415   0.2163 C.3            1 S1                 0.0000
     17 ****         1.6736  -2.6590  -0.1889 C.3            1 S1                 0.0000
     18 ****         2.1250  -3.8292   0.6623 C.3            1 S1                 0.0000
     19 ****         2.7098  -3.1283   1.8791 C.3            1 S1                 0.0000
     20 ****         3.3929  -2.0222   1.3038 O.3            1 S1                 0.0000
     21 ****         1.2851   0.4724  -0.3992 C.2            1 S1                 0.0000
     22 ****         1.3551   0.1203  -1.5792 O.2            1 S1                 0.0000
     23 ****        -2.1439   0.8283  -0.8788 C.ar           1 S1                 0.0000
     24 ****        -5.3911   1.3670  -1.8167 H              1 S1                 0.0000
     25 ****        -4.4300   3.5682  -2.4395 H              1 S1                 0.0000
     26 ****        -2.0213   4.0286  -2.0737 H              1 S1                 0.0000
     27 ****         0.4224   2.2861  -1.9659 H              1 S1                 0.0000
     28 ****         0.0175   3.4560  -0.7669 H              1 S1                 0.0000
     29 ****         2.2955  -0.4457   2.7128 H              1 S1                 0.0000
     30 ****         3.3360  -1.2327  -0.5791 H              1 S1                 0.0000
     31 ****         0.6506  -2.3764   0.0656 H              1 S1                 0.0000
     32 ****         1.7295  -2.8600  -1.2591 H              1 S1                 0.0000
     33 ****         1.3143  -4.5141   0.9124 H              1 S1                 0.0000
     34 ****         2.9033  -4.3916   0.1450 H              1 S1                 0.0000
     35 ****         1.9179  -2.7799   2.5438 H              1 S1                 0.0000
     36 ****         3.3851  -3.7650   2.4508 H              1 S1                 0.0000
     37 ****        -1.5213   0.0574  -0.4493 H              1 S1                 0.0000
     38 ****        -4.8918  -2.6476  -0.1919 LP             1 S1                 0.0000
     39 ****        -0.6829   3.5871   0.9311 LP             1 S1                 0.0000
     40 ****        -0.2998   3.3327   2.6009 LP             1 S1                 0.0000
     41 ****         3.4925  -1.2985   1.9867 LP             1 S1                 0.0000
     42 ****         4.2975  -2.3129   0.9920 LP             1 S1                 0.0000
     43 ****         0.9007   0.6582  -2.2893 LP             1 S1                 0.0000
     44 ****         1.8662  -0.7030  -1.8258 LP             1 S1                 0.0000
@<TRIPOS>BOND
    1    1    2 3     
    2    2    3 1     
    3    3   23 ar    
    4    3    4 ar    
    5    4    5 ar    
    6    4   24 1     
    7    5    6 ar    
    8    5   25 1     
    9    6    7 ar    
   10    6   26 1     
   11    7    8 1     
   12    7   23 ar    
   13    8    9 1     
   14    8   27 1     
   15    8   28 1     
   16    9   21 am    
   17    9   10 am    
   18   10   11 2     
   19   10   12 1     
   20   12   13 1     
   21   12   14 2     
   22   14   15 1     
   23   14   29 1     
   24   15   16 1     
   25   15   21 am    
   26   16   20 1     
   27   16   17 1     
   28   16   30 1     
   29   17   18 1     
   30   17   31 1     
   31   17   32 1     
   32   18   19 1     
   33   18   33 1     
   34   18   34 1     
   35   19   20 1     
   36   19   35 1     
   37   19   36 1     
   38   21   22 2     
   39   23   37 1     
   40    1   38 1     
   41   11   39 1     
   42   11   40 1     
   43   20   41 1     
   44   20   42 1     
   45   22   43 1     
   46   22   44 1     
@<TRIPOS>SUBSTRUCTURE
      1 S1             1
@<TRIPOS>SET
LONE_PAIRS      STATIC     ATOMS    <user>   **** ""
7 38 39 40 41 42 43 44
ATOM$BLUE        STATIC     ATOMS    COLORGROUP SYSTEM
7 38 39 40 41 42 43 44
