#       Name:                AV-unprocessed.smi:1848
#       Creating user name   scv26
#       Creation time:       Fri Mar 27 09:22:45 2020


#       File generated by GOLD software.
#

@<TRIPOS>MOLECULE
AV-unprocessed.smi:1848
    37    37     1
SMALL
NO_CHARGES


@<TRIPOS>ATOM
      1 ****        -4.0085  -3.9907  -0.9082 C.1            1 S1                 0.0000
      2 ****        -3.5343  -3.6493   0.1640 C.1            1 S1                 0.0000
      3 ****        -2.9545  -3.2244   1.4496 C.3            1 S1                 0.0000
      4 ****        -1.5588  -2.8176   1.3315 N.am           1 S1                 0.0000
      5 ****        -1.1324  -1.5793   1.0369 C.2            1 S1                 0.0000
      6 ****        -1.8957  -0.6375   0.8182 O.2            1 S1                 0.0000
      7 ****         0.3898  -1.3944   0.9576 C.3            1 S1                 0.0000
      8 ****         0.8130   0.0103   1.0886 N.am           1 S1                 0.0000
      9 ****         1.0346   0.7265  -0.1048 C.2            1 S1                 0.0000
     10 ****         1.4194   2.0221  -0.1068 C.2            1 S1                 0.0000
     11 ****         1.6497   2.7978  -1.3291 C.2            1 S1                 0.0000
     12 ****         2.0130   3.9747  -1.3428 O.2            1 S1                 0.0000
     13 ****         1.4295   2.1163  -2.4668 N.am           1 S1                 0.0000
     14 ****         1.5867   2.6695  -3.8034 C.3            1 S1                 0.0000
     15 ****         1.6033   2.6620   1.1817 C.2            1 S1                 0.0000
     16 ****         1.3873   1.9844   2.3260 C.2            1 S1                 0.0000
     17 ****         0.9633   0.5818   2.3220 C.2            1 S1                 0.0000
     18 ****         0.7561  -0.0413   3.3635 O.2            1 S1                 0.0000
     19 ****        -4.4242  -4.2847  -1.8457 H              1 S1                 0.0000
     20 ****        -3.5682  -2.4222   1.8625 H              1 S1                 0.0000
     21 ****        -3.0191  -4.0648   2.1408 H              1 S1                 0.0000
     22 ****        -0.8633  -3.5325   1.4887 H              1 S1                 0.0000
     23 ****         0.8693  -2.0062   1.7242 H              1 S1                 0.0000
     24 ****         0.7330  -1.8101   0.0093 H              1 S1                 0.0000
     25 ****         0.8583   0.1452  -0.9985 H              1 S1                 0.0000
     26 ****         1.1306   1.1544  -2.3976 H              1 S1                 0.0000
     27 ****         1.3412   1.9138  -4.5494 H              1 S1                 0.0000
     28 ****         2.6145   2.9937  -3.9712 H              1 S1                 0.0000
     29 ****         0.9229   3.5223  -3.9512 H              1 S1                 0.0000
     30 ****         1.9148   3.6952   1.2398 H              1 S1                 0.0000
     31 ****         1.5297   2.4864   3.2717 H              1 S1                 0.0000
     32 ****        -2.8853  -0.7768   0.8559 LP             1 S1                 0.0000
     33 ****        -1.5258   0.2662   0.6029 LP             1 S1                 0.0000
     34 ****         2.1692   4.4597  -0.4824 LP             1 S1                 0.0000
     35 ****         2.1516   4.4450  -2.2143 LP             1 S1                 0.0000
     36 ****         0.4677  -0.9981   3.3248 LP             1 S1                 0.0000
     37 ****         0.8762   0.4093   4.2480 LP             1 S1                 0.0000
@<TRIPOS>BOND
    1    1    2 3     
    2    1   19 1     
    3    2    3 1     
    4    3    4 1     
    5    3   20 1     
    6    3   21 1     
    7    4    5 am    
    8    4   22 1     
    9    5    6 2     
   10    5    7 1     
   11    7    8 1     
   12    7   23 1     
   13    7   24 1     
   14    8   17 am    
   15    8    9 1     
   16    9   10 2     
   17    9   25 1     
   18   10   11 1     
   19   10   15 1     
   20   11   12 2     
   21   11   13 am    
   22   13   14 1     
   23   13   26 1     
   24   14   27 1     
   25   14   28 1     
   26   14   29 1     
   27   15   16 2     
   28   15   30 1     
   29   16   17 1     
   30   16   31 1     
   31   17   18 2     
   32    6   32 1     
   33    6   33 1     
   34   12   34 1     
   35   12   35 1     
   36   18   36 1     
   37   18   37 1     
@<TRIPOS>SUBSTRUCTURE
      1 S1             1
@<TRIPOS>SET
LONE_PAIRS      STATIC     ATOMS    <user>   **** ""
6 32 33 34 35 36 37
DONOR_HYDROGENS      STATIC     ATOMS    <user>   **** ""
2 22 26
ATOM$BLUE        STATIC     ATOMS    COLORGROUP SYSTEM
6 32 33 34 35 36 37
ATOM$RED        STATIC     ATOMS    COLORGROUP SYSTEM
2 22 26
