AV-unprocessed.smi:1738|AV-procd|sdf|7000|dock3
  -GOLD-   22720 8213D 1   1.00000     0.00000
 Structure written by MMmdl.
 46 48  0  0  0  0  0  0  0  0  2 V2000
  154.3403  136.0115  157.8661 C   0  0  0  0  0  0  0  0  0  0  0  0
  153.0000  137.1868  158.3181 S   0  0  0  0  0  0  0  0  0  0  0  0
  152.5614  136.8818  159.6889 O   0  0  0  0  0  0  0  0  0  0  0  0
  153.4603  138.5447  157.9880 O   0  0  0  0  0  0  0  0  0  0  0  0
  151.6662  136.7587  157.2052 C   0  0  0  0  0  0  0  0  0  0  0  0
  150.4202  136.3385  157.7117 C   0  0  0  0  0  0  0  0  0  0  0  0
  149.3907  136.0556  156.7938 C   0  0  0  0  0  0  0  0  0  0  0  0
  149.6431  136.2176  155.4083 C   0  0  0  0  0  0  0  0  0  0  0  0
  148.7003  135.9701  154.3719 N   0  0  0  0  0  0  0  0  0  0  0  0
  147.3899  135.6832  154.4582 C   0  0  0  0  0  0  0  0  0  0  0  0
  146.7514  135.5437  155.5001 O   0  0  0  0  0  0  0  0  0  0  0  0
  146.8433  135.5596  153.2398 N   0  0  0  0  0  0  0  0  0  0  0  0
  145.4343  135.2739  152.9737 C   0  0  1  0  0  0  0  0  0  0  0  0
  144.7666  136.3193  152.0604 C   0  0  0  0  0  0  0  0  0  0  0  0
  143.8516  135.5002  151.1445 C   0  0  0  0  0  0  0  0  0  0  0  0
  144.6006  134.2502  150.9711 N   0  3  2  0  0  0  0  0  0  0  0  0
  143.9273  133.1012  150.3333 C   0  0  0  0  0  0  0  0  0  0  0  0
  144.9780  131.9955  150.0923 C   0  0  0  0  0  0  0  0  0  0  0  0
  145.7688  131.6473  151.3743 C   0  0  0  0  0  0  0  0  0  0  0  0
  146.3317  132.9084  152.0656 C   0  0  0  0  0  0  0  0  0  0  0  0
  145.1858  133.9134  152.2800 C   0  0  1  0  0  0  0  0  0  0  0  0
  150.9303  136.6498  155.0216 C   0  0  0  0  0  0  0  0  0  0  0  0
  151.9243  136.9251  155.8911 N   0  0  0  0  0  0  0  0  0  0  0  0
  155.2131  136.1987  158.4912 H   0  0  0  0  0  0  0  0  0  0  0  0
  154.6070  136.1490  156.8185 H   0  0  0  0  0  0  0  0  0  0  0  0
  153.9959  134.9893  158.0217 H   0  0  0  0  0  0  0  0  0  0  0  0
  150.2523  136.2313  158.7731 H   0  0  0  0  0  0  0  0  0  0  0  0
  148.4407  135.7217  157.1782 H   0  0  0  0  0  0  0  0  0  0  0  0
  149.0664  136.0644  153.4358 H   0  0  0  0  0  0  0  0  0  0  0  0
  147.4424  135.6878  152.4374 H   0  0  0  0  0  0  0  0  0  0  0  0
  144.8910  135.2743  153.9211 H   0  0  0  0  0  0  0  0  0  0  0  0
  144.2234  137.0816  152.6199 H   0  0  0  0  0  0  0  0  0  0  0  0
  145.5177  136.8284  151.4546 H   0  0  0  0  0  0  0  0  0  0  0  0
  142.8988  135.2947  151.6351 H   0  0  0  0  0  0  0  0  0  0  0  0
  143.6539  135.9952  150.1935 H   0  0  0  0  0  0  0  0  0  0  0  0
  143.1172  132.7395  150.9681 H   0  0  0  0  0  0  0  0  0  0  0  0
  143.4841  133.4116  149.3866 H   0  0  0  0  0  0  0  0  0  0  0  0
  144.4965  131.1014  149.6954 H   0  0  0  0  0  0  0  0  0  0  0  0
  145.6777  132.3308  149.3256 H   0  0  0  0  0  0  0  0  0  0  0  0
  145.1111  131.1216  152.0677 H   0  0  0  0  0  0  0  0  0  0  0  0
  146.5790  130.9570  151.1382 H   0  0  0  0  0  0  0  0  0  0  0  0
  146.7858  132.6340  153.0180 H   0  0  0  0  0  0  0  0  0  0  0  0
  147.1172  133.3519  151.4526 H   0  0  0  0  0  0  0  0  0  0  0  0
  144.4117  133.4126  152.8658 H   0  0  0  0  0  0  0  0  0  0  0  0
  151.1704  136.7858  153.9772 H   0  0  0  0  0  0  0  0  0  0  0  0
  145.3797  134.4891  150.3744 H   0  0  0  0  0  0  0  0  0  0  0  0
  1  2  1  0  0  0  0
  1 24  1  0  0  0  0
  1 25  1  0  0  0  0
  1 26  1  0  0  0  0
  2  3  2  0  0  0  0
  2  4  2  0  0  0  0
  2  5  1  0  0  0  0
  5 23  1  0  0  0  0
  5  6  2  0  0  0  0
  6  7  1  0  0  0  0
  6 27  1  0  0  0  0
  7  8  2  0  0  0  0
  7 28  1  0  0  0  0
  8  9  1  0  0  0  0
  8 22  1  0  0  0  0
  9 10  1  0  0  0  0
  9 29  1  0  0  0  0
 10 11  2  0  0  0  0
 10 12  1  0  0  0  0
 12 13  1  0  0  0  0
 12 30  1  0  0  0  0
 13 21  1  0  0  0  0
 13 14  1  0  0  0  0
 13 31  1  0  0  0  0
 14 15  1  0  0  0  0
 14 32  1  0  0  0  0
 14 33  1  0  0  0  0
 15 16  1  0  0  0  0
 15 34  1  0  0  0  0
 15 35  1  0  0  0  0
 16 21  1  0  0  0  0
 16 17  1  0  0  0  0
 16 46  1  0  0  0  0
 17 18  1  0  0  0  0
 17 36  1  0  0  0  0
 17 37  1  0  0  0  0
 18 19  1  0  0  0  0
 18 38  1  0  0  0  0
 18 39  1  0  0  0  0
 19 20  1  0  0  0  0
 19 40  1  0  0  0  0
 19 41  1  0  0  0  0
 20 21  1  0  0  0  0
 20 42  1  0  0  0  0
 20 43  1  0  0  0  0
 21 44  1  0  0  0  0
 22 23  2  0  0  0  0
 22 45  1  0  0  0  0
M  CHG  1  16   1
M  END
> <s_m_source_file>
AV-unprocessed.smi

> <i_m_source_file_index>
1738

> <i_lp_mmshare_version>
43012

> <i_f3d_flags>
0

> <s_epik_input>
W0NIM11TKD1PKSg9TyljMVtjSF1bY0hdYyhbY0hdbjEpW05IXUMoPU8pW05IXVtDQEhdKFtDSDJdW0NIMl0yKVtDQEBIXShOMjMpW0NIMl1bQ0gyXVtDSDJdW0NIMl0z

> <s_epik_cmdline>
J2VwaWtfcHl0aG9uJywgJy1waCcsICc3LjAnLCAnLXRuJywgJzgnLCAnLW1hJywgJzIwMCcsICctbWV0YWxfYmluZGluZycsICctaW1hZScsICc8aW5maWxlLm1hZT4nLCAnLW9tYWUnLCAnPG91dGZpbGUubWFlPic=

> <r_epik_Ionization_Penalty>
0.00100042

> <r_epik_Ionization_Penalty_Charging>
0.000974069

> <r_epik_Ionization_Penalty_Neutral>
2.63543e-05

> <r_epik_State_Penalty>
0.000633842

> <r_epik_Charging_Adjusted_Penalty>
0.00160791

> <i_epik_Tot_Q>
1

> <i_epik_Tot_abs_Q>
1

> <r_epik_Metal_State_Penalty>
-0

> <b_epik_Metal_Only>
0

> <s_lp_Force_Field>
OPLS_2005

> <r_lp_Energy>
43.1339

> <b_lp_Chiralities_Consistent>
1

> <s_lp_Variant>
AV-unprocessed.smi:1738-4

> <Gold.Version>
5.8.1

> <Gold.Id.Protein>
6NUR|6NUR_protein|mol2

> <Gold.PLP.Fitness>
42.5898

> <Gold.PLP.PLP>
-26.6411

> <Gold.PLP.part.hbond>
-4.9811

> <Gold.PLP.part.metal>
0.0000

> <Gold.PLP.part.buried>
-4.3084

> <Gold.PLP.part.nonpolar>
-18.6656

> <Gold.PLP.part.repulsive>
0.0618

> <Gold.PLP.ligand.clash>
0.0000

> <Gold.PLP.ligand.torsion>
1.0949

> <Gold.PLP.Chemscore.Hbond>
4.3783

> <Gold.PLP.Chemscore.CHOScore>
0.9943

> <Gold.PLP.Chemscore.Metal>
0.0000

> <Gold.Chemscore.Hbonds>
donor molecule, donor type, donor heavy atom, donor atom, acceptor molecule, acceptor atom, score
      L1  H     9    29       P1  7948  1.00
      L1  H    12    30       P1  7948  0.96
      P1  H  6896  6907       L1     3  1.00
      P1  H  7997  8008       L1     4  0.81
      P1  H 10752 10764       L1    23  0.47
      L1  C    22    45       P1  7949  0.80

> <Gold.PLP.Chemscore.Internal.Correction>
2.0207

> <Gold.Rescore>
     Score         DG    S(hbond)    S(metal)    S(lipo)     H(rot)  DE(clash)    DE(int)     intcor
     21.09     -23.17       3.68        0.00      68.15       1.00       0.01       2.08       ----

> <Gold.Chemscore.Fitness>
21.0898

> <Gold.Chemscore.DG>
-23.1702

> <Gold.Chemscore.ZeroCoef>
-5.4800

> <Gold.Chemscore.Hbond>
3.6757

> <Gold.Chemscore.Metal>
0.0000

> <Gold.Chemscore.Lipo>
68.1489

> <Gold.Chemscore.Internal_Hbond>
0.0000

> <Gold.Chemscore.DEClash>
0.0052

> <Gold.Chemscore.DEInternal>
2.0752

> <Gold.Chemscore.Rot>
1.0000

> <Gold.Chemscore.Internal.Correction>
   9.000000E+99

> <Gold.Chemscore.Hbonds>
donor molecule, donor type, donor heavy atom, donor atom, acceptor molecule, acceptor atom, score
      L1  H     9    29       P1  7948  0.90
      L1  H    12    30       P1  7948  0.92
      P1  H  6896  6907       L1     3  0.94
      P1  H  7997  8008       L1     4  0.80
      P1  H 10752 10764       L1    23  0.02

> <Gold.Chemscore.Hbond.Weighted>
-12.2768

> <Gold.Chemscore.Metal.Weighted>
-0.0000

> <Gold.Chemscore.Lipo.Weighted>
-7.9734

> <Gold.Chemscore.Internal_Hbond.Weighted>
0.0000

> <Gold.Chemscore.DEClash.Weighted>
0.0052

> <Gold.Chemscore.DEInternal.Weighted>
2.0752

> <Gold.Chemscore.Rot.Weighted>
2.5600

> <Gold.Chemscore.Internal.Correction.Weighted>
   9.000000E+99

> <Gold.Protein.RotatedTorsions>
[ 6907 6896 6895 6894 ] final    6.95 input  -60.11 | X-H torsion
[ 7974 7965 7964 7962 ] final  -85.39 input  175.53 | X-H torsion
[ 8008 7997 7996 7995 ] final  -92.99 input   59.86 | X-H torsion
[ 10167 10162 10161 10158 ] final -163.65 input  -65.29 | X-H torsion
[ 10718 10713 10712 10709 ] final  125.52 input   66.30 | X-H torsion
[ 10763 10752 10751 10750 ] final  -33.77 input  -60.55 | X-H torsion
[ 11005 11000 10999 10996 ] final   21.68 input  -57.11 | X-H torsion

> <Gold.Protein.ActiveResidues>
 VAL166  LYS551  ARG553  GLY616  TRP617  ASP618  TYR619  PRO620  LYS621  CYS622 
 ASP623  PHE694  ASN695  SER759  ASP760  ASP761  ALA762  ILE779  LEU786  VAL792 
 PHE793  MET794  SER795  GLU796  ALA797  LYS798  CYS799  TRP800  GLU811  SER814 

> <Gold.Protein.RotatedAtoms>
  151.6820  135.0960  160.0217 H   0  0  0  0  0  0  0  0  0  0  0  0  # atno 6907 bound_to 6896
  152.3829  133.6567  159.6184 H   0  0  0  0  0  0  0  0  0  0  0  0  # atno 6908 bound_to 6896
  150.7762  133.9000  159.3379 H   0  0  0  0  0  0  0  0  0  0  0  0  # atno 6909 bound_to 6896
  145.4939  140.9551  143.1796 H   0  0  0  0  0  0  0  0  0  0  0  0  # atno 7974 bound_to 7965
  154.7300  140.0503  157.0718 H   0  0  0  0  0  0  0  0  0  0  0  0  # atno 8008 bound_to 7997
  155.0314  140.3158  155.4738 H   0  0  0  0  0  0  0  0  0  0  0  0  # atno 8009 bound_to 7997
  156.2839  140.2149  156.5435 H   0  0  0  0  0  0  0  0  0  0  0  0  # atno 8010 bound_to 7997
  139.6306  144.0447  152.2012 H   0  0  0  0  0  0  0  0  0  0  0  0  # atno 10167 bound_to 10162
  157.5496  131.1094  150.8724 H   0  0  0  0  0  0  0  0  0  0  0  0  # atno 10718 bound_to 10713
  153.8357  135.6862  153.4809 H   0  0  0  0  0  0  0  0  0  0  0  0  # atno 10763 bound_to 10752
  153.1484  135.4628  154.9598 H   0  0  0  0  0  0  0  0  0  0  0  0  # atno 10764 bound_to 10752
  154.7867  135.3287  154.7816 H   0  0  0  0  0  0  0  0  0  0  0  0  # atno 10765 bound_to 10752
  140.3889  134.1840  155.7662 H   0  0  0  0  0  0  0  0  0  0  0  0  # atno 11005 bound_to 11000
  144.7818  139.6510  143.7151 LP  0  0  0  0  0  0  0  0  0  0  0  0  # atno 17320 bound_to 7965
  146.2267  139.5736  142.9582 LP  0  0  0  0  0  0  0  0  0  0  0  0  # atno 17321 bound_to 7965
  140.0112  144.6223  150.7646 LP  0  0  0  0  0  0  0  0  0  0  0  0  # atno 17342 bound_to 10162
  140.7437  143.2849  151.3491 LP  0  0  0  0  0  0  0  0  0  0  0  0  # atno 17343 bound_to 10162
  156.9253  130.5330  149.5279 LP  0  0  0  0  0  0  0  0  0  0  0  0  # atno 17370 bound_to 10713
  156.0565  130.5626  150.9103 LP  0  0  0  0  0  0  0  0  0  0  0  0  # atno 17371 bound_to 10713
  141.1897  133.8232  157.0945 LP  0  0  0  0  0  0  0  0  0  0  0  0  # atno 17394 bound_to 11000
  140.0421  134.9849  157.0981 LP  0  0  0  0  0  0  0  0  0  0  0  0  # atno 17395 bound_to 11000

$$$$
