AV-unprocessed.smi:49|AV-procd|sdf|478|dock4
  -GOLD-   2262016343D 1   1.00000     0.00000
 Structure written by MMmdl.
 27 28  0  0  0  0  0  0  0  0  1 V2000
  153.0376  142.4111  160.5564 C   0  0  0  0  0  0  0  0  0  0  0  0
  152.9638  140.9302  160.1676 C   0  0  0  0  0  0  0  0  0  0  0  0
  152.2586  140.7206  158.8685 C   0  0  0  0  0  0  0  0  0  0  0  0
  152.8515  140.1141  157.7967 N   0  0  0  0  0  0  0  0  0  0  0  0
  151.8682  140.1957  156.9043 C   0  0  0  0  0  0  0  0  0  0  0  0
  151.9211  139.6901  155.4950 C   0  0  1  0  0  0  0  0  0  0  0  0
  152.2465  138.1859  155.4274 C   0  0  0  0  0  0  0  0  0  0  0  0
  150.9431  137.5429  154.9643 C   0  0  2  0  0  0  0  0  0  0  0  0
  151.1450  136.3394  154.2543 O   0  0  0  0  0  0  0  0  0  0  0  0
  150.3358  138.6353  154.0941 C   0  0  0  0  0  0  0  0  0  0  0  0
  150.6450  139.8741  154.7941 N   0  0  0  0  0  0  0  0  0  0  0  0
  150.7903  140.8131  157.3928 N   0  0  0  0  0  0  0  0  0  0  0  0
  151.0212  141.1738  158.6729 N   0  0  0  0  0  0  0  0  0  0  0  0
  152.7036  140.2384  154.9686 H   0  0  0  0  0  0  0  0  0  0  0  0
  150.2985  137.3531  155.8240 H   0  0  0  0  0  0  0  0  0  0  0  0
  149.9224  141.0056  156.9136 H   0  0  0  0  0  0  0  0  0  0  0  0
  153.5615  142.5382  161.5038 H   0  0  0  0  0  0  0  0  0  0  0  0
  152.0408  142.8391  160.6667 H   0  0  0  0  0  0  0  0  0  0  0  0
  153.5696  142.9898  159.8007 H   0  0  0  0  0  0  0  0  0  0  0  0
  153.9702  140.5162  160.0959 H   0  0  0  0  0  0  0  0  0  0  0  0
  152.4530  140.3665  160.9493 H   0  0  0  0  0  0  0  0  0  0  0  0
  153.0229  138.0262  154.6774 H   0  0  0  0  0  0  0  0  0  0  0  0
  152.6126  137.7713  156.3678 H   0  0  0  0  0  0  0  0  0  0  0  0
  151.0936  136.5254  153.3292 H   0  0  0  0  0  0  0  0  0  0  0  0
  150.8140  138.6404  153.1136 H   0  0  0  0  0  0  0  0  0  0  0  0
  149.2634  138.5087  153.9435 H   0  0  0  0  0  0  0  0  0  0  0  0
  150.7258  140.6246  154.1157 H   0  0  0  0  0  0  0  0  0  0  0  0
  1  2  1  0  0  0  0
  1 17  1  0  0  0  0
  1 18  1  0  0  0  0
  1 19  1  0  0  0  0
  2 20  1  0  0  0  0
  2 21  1  0  0  0  0
  2  3  1  0  0  0  0
  3  4  1  0  0  0  0
  3 13  2  0  0  0  0
  4  5  2  0  0  0  0
  5  6  1  0  0  0  0
  5 12  1  0  0  0  0
  6 14  1  0  0  0  0
  6 11  1  0  0  0  0
  6  7  1  0  0  0  0
  7  8  1  0  0  0  0
  7 22  1  0  0  0  0
  7 23  1  0  0  0  0
  8 15  1  0  0  0  0
  8  9  1  0  0  0  0
  8 10  1  0  0  0  0
  9 24  1  0  0  0  0
 10 11  1  0  0  0  0
 10 25  1  0  0  0  0
 10 26  1  0  0  0  0
 11 27  1  0  0  0  0
 12 13  1  0  0  0  0
 12 16  1  0  0  0  0
M  END
> <s_m_source_file>
AV-unprocessed.smi

> <i_m_source_file_index>
49

> <i_lp_mmshare_version>
43012

> <i_f3d_flags>
0

> <s_epik_input>
W0NIM11bQ0gyXWMxbmMobltuSF0xKVtDQEBIXTJbQ0gyXVtDQEBIXShbT0hdKVtDSDJdW05IXTI=

> <s_epik_cmdline>
J2VwaWtfcHl0aG9uJywgJy1waCcsICc3LjAnLCAnLXRuJywgJzgnLCAnLW1hJywgJzIwMCcsICctbWV0YWxfYmluZGluZycsICctaW1hZScsICc8aW5maWxlLm1hZT4nLCAnLW9tYWUnLCAnPG91dGZpbGUubWFlPic=

> <r_epik_Ionization_Penalty>
1.31544

> <r_epik_Ionization_Penalty_Charging>
0

> <r_epik_Ionization_Penalty_Neutral>
1.31544

> <r_epik_State_Penalty>
2.06074

> <r_epik_Charging_Adjusted_Penalty>
2.06074

> <i_epik_Tot_Q>
0

> <i_epik_Tot_abs_Q>
0

> <r_epik_Metal_State_Penalty>
2.32913

> <b_epik_Metal_Only>
0

> <s_lp_Force_Field>
OPLS_2005

> <r_lp_Energy>
17.94

> <b_lp_Chiralities_Consistent>
1

> <s_lp_Variant>
AV-unprocessed.smi:49-16

> <Gold.Version>
5.8.1

> <Gold.Id.Protein>
6NUR|6NUR_protein|mol2

> <Gold.PLP.Fitness>
35.3558

> <Gold.PLP.PLP>
-26.4178

> <Gold.PLP.part.hbond>
-4.5229

> <Gold.PLP.part.metal>
0.0000

> <Gold.PLP.part.buried>
-2.2915

> <Gold.PLP.part.nonpolar>
-20.0135

> <Gold.PLP.part.repulsive>
0.0440

> <Gold.PLP.ligand.clash>
0.0000

> <Gold.PLP.ligand.torsion>
0.0340

> <Gold.PLP.Chemscore.Hbond>
3.0000

> <Gold.PLP.Chemscore.CHOScore>
0.0000

> <Gold.PLP.Chemscore.Metal>
0.0000

> <Gold.Chemscore.Hbonds>
donor molecule, donor type, donor heavy atom, donor atom, acceptor molecule, acceptor atom, score
      L1  H     9    24       P1  7949  1.00
      P1  H  7997  8009       L1     4  1.00
      P1  H 10752 10765       L1     9  1.00

> <Gold.PLP.Chemscore.Internal.Correction>
0.0059

> <Gold.Rescore>
     Score         DG    S(hbond)    S(metal)    S(lipo)     H(rot)  DE(clash)    DE(int)     intcor
     14.95     -15.11       2.54        0.00      50.37       1.86       0.13       0.03       ----

> <Gold.Chemscore.Fitness>
14.9527

> <Gold.Chemscore.DG>
-15.1084

> <Gold.Chemscore.ZeroCoef>
-5.4800

> <Gold.Chemscore.Hbond>
2.5408

> <Gold.Chemscore.Metal>
0.0000

> <Gold.Chemscore.Lipo>
50.3655

> <Gold.Chemscore.Internal_Hbond>
0.0000

> <Gold.Chemscore.DEClash>
0.1274

> <Gold.Chemscore.DEInternal>
0.0282

> <Gold.Chemscore.Rot>
1.8558

> <Gold.Chemscore.Internal.Correction>
   9.000000E+99

> <Gold.Chemscore.Hbonds>
donor molecule, donor type, donor heavy atom, donor atom, acceptor molecule, acceptor atom, score
      L1  H     9    24       P1  7949  0.33
      P1  H  7997  8009       L1     4  0.43
      P1  H 10752 10765       L1     9  0.26

> <Gold.Chemscore.Hbond.Weighted>
-8.4863

> <Gold.Chemscore.Metal.Weighted>
-0.0000

> <Gold.Chemscore.Lipo.Weighted>
-5.8928

> <Gold.Chemscore.Internal_Hbond.Weighted>
0.0000

> <Gold.Chemscore.DEClash.Weighted>
0.1274

> <Gold.Chemscore.DEInternal.Weighted>
0.0282

> <Gold.Chemscore.Rot.Weighted>
4.7507

> <Gold.Chemscore.Internal.Correction.Weighted>
   9.000000E+99

> <Gold.Protein.RotatedTorsions>
[ 6907 6896 6895 6894 ] final  157.14 input  -60.11 | X-H torsion
[ 7974 7965 7964 7962 ] final  170.17 input  175.53 | X-H torsion
[ 8008 7997 7996 7995 ] final  173.31 input   59.86 | X-H torsion
[ 10167 10162 10161 10158 ] final  163.77 input  -65.29 | X-H torsion
[ 10718 10713 10712 10709 ] final  -48.31 input   66.30 | X-H torsion
[ 10763 10752 10751 10750 ] final  168.48 input  -60.55 | X-H torsion
[ 11005 11000 10999 10996 ] final -106.10 input  -57.11 | X-H torsion

> <Gold.Protein.ActiveResidues>
 VAL166  LYS551  ARG553  GLY616  TRP617  ASP618  TYR619  PRO620  LYS621  CYS622 
 ASP623  PHE694  ASN695  SER759  ASP760  ASP761  ALA762  ILE779  LEU786  VAL792 
 PHE793  MET794  SER795  GLU796  ALA797  LYS798  CYS799  TRP800  GLU811  SER814 

> <Gold.Protein.RotatedAtoms>
  152.0195  133.3893  159.4252 H   0  0  0  0  0  0  0  0  0  0  0  0  # atno 6907 bound_to 6896
  150.6891  134.3641  159.4972 H   0  0  0  0  0  0  0  0  0  0  0  0  # atno 6908 bound_to 6896
  152.1413  134.9060  160.0604 H   0  0  0  0  0  0  0  0  0  0  0  0  # atno 6909 bound_to 6896
  144.7332  139.9163  143.6418 H   0  0  0  0  0  0  0  0  0  0  0  0  # atno 7974 bound_to 7965
  156.1088  140.1463  156.9367 H   0  0  0  0  0  0  0  0  0  0  0  0  # atno 8008 bound_to 7997
  154.4752  140.0896  156.7289 H   0  0  0  0  0  0  0  0  0  0  0  0  # atno 8009 bound_to 7997
  155.4632  140.3439  155.4318 H   0  0  0  0  0  0  0  0  0  0  0  0  # atno 8010 bound_to 7997
  139.4879  144.4303  151.9079 H   0  0  0  0  0  0  0  0  0  0  0  0  # atno 10167 bound_to 10162
  156.2000  130.4156  149.9254 H   0  0  0  0  0  0  0  0  0  0  0  0  # atno 10718 bound_to 10713
  154.3692  135.2753  155.2276 H   0  0  0  0  0  0  0  0  0  0  0  0  # atno 10763 bound_to 10752
  154.4431  135.5949  153.6146 H   0  0  0  0  0  0  0  0  0  0  0  0  # atno 10764 bound_to 10752
  152.9839  135.6023  154.3921 H   0  0  0  0  0  0  0  0  0  0  0  0  # atno 10765 bound_to 10752
  141.1021  133.8865  157.1815 H   0  0  0  0  0  0  0  0  0  0  0  0  # atno 11005 bound_to 11000
  146.0963  139.3956  143.0374 LP  0  0  0  0  0  0  0  0  0  0  0  0  # atno 17320 bound_to 7965
  145.7641  140.9923  143.1184 LP  0  0  0  0  0  0  0  0  0  0  0  0  # atno 17321 bound_to 7965
  140.3750  144.2808  150.5915 LP  0  0  0  0  0  0  0  0  0  0  0  0  # atno 17342 bound_to 10162
  140.5285  143.2249  151.8277 LP  0  0  0  0  0  0  0  0  0  0  0  0  # atno 17343 bound_to 10162
  156.6967  130.8917  151.3594 LP  0  0  0  0  0  0  0  0  0  0  0  0  # atno 17370 bound_to 10713
  157.6980  130.9302  150.0700 LP  0  0  0  0  0  0  0  0  0  0  0  0  # atno 17371 bound_to 10713
  139.9876  135.0076  156.9900 LP  0  0  0  0  0  0  0  0  0  0  0  0  # atno 17394 bound_to 11000
  140.4996  134.1111  155.7248 LP  0  0  0  0  0  0  0  0  0  0  0  0  # atno 17395 bound_to 11000

$$$$
