AV-unprocessed.smi:625|AV-procd|sdf|3104|dock5
  -GOLD-   22720 0 23D 1   1.00000     0.00000
 Structure written by MMmdl.
 49 51  0  0  0  0  0  0  0  0  1 V2000
  146.5961  129.6687  162.1549 C   0  0  0  0  0  0  0  0  0  0  0  0
  146.7660  131.0962  161.9298 N   0  0  0  0  0  0  0  0  0  0  0  0
  147.5376  131.6294  160.9666 C   0  0  0  0  0  0  0  0  0  0  0  0
  148.1699  130.9214  160.1816 O   0  0  0  0  0  0  0  0  0  0  0  0
  147.5521  133.0951  160.9470 C   0  0  0  0  0  0  0  0  0  0  0  0
  147.1632  133.8218  162.1404 C   0  0  0  0  0  0  0  0  0  0  0  0
  147.1436  135.1689  162.1526 C   0  0  0  0  0  0  0  0  0  0  0  0
  147.5124  135.9549  160.9724 C   0  0  0  0  0  0  0  0  0  0  0  0
  147.4750  137.1852  160.9689 O   0  0  0  0  0  0  0  0  0  0  0  0
  147.8908  135.2338  159.8730 N   0  0  0  0  0  0  0  0  0  0  0  0
  148.2735  135.9120  158.6203 C   0  0  0  0  0  0  0  0  0  0  0  0
  149.4949  136.8402  158.7396 C   0  0  0  0  0  0  0  0  0  0  0  0
  150.0826  136.9215  159.8173 O   0  0  0  0  0  0  0  0  0  0  0  0
  149.8677  137.5337  157.6507 N   0  0  0  0  0  0  0  0  0  0  0  0
  150.9568  138.5031  157.5758 C   0  0  1  0  0  0  0  0  0  0  0  0
  151.5923  138.4363  156.1752 C   0  0  0  0  0  0  0  0  0  0  0  0
  150.4034  139.9081  157.9204 C   0  0  1  0  0  0  0  0  0  0  0  0
  151.4991  140.9999  158.0287 C   0  0  0  0  0  0  0  0  0  0  0  0
  150.9993  142.1005  157.0771 C   0  0  2  0  0  0  0  0  0  0  0  0
  149.7442  142.7661  157.6698 C   0  0  0  0  0  0  0  0  0  0  0  0
  148.6690  141.6784  157.4906 C   0  0  0  0  0  0  0  0  0  0  0  0
  149.4597  140.5192  156.8535 C   0  0  1  0  0  0  0  0  0  0  0  0
  150.4168  141.2757  155.9377 C   0  0  0  0  0  0  0  0  0  0  0  0
  147.9025  133.8246  159.8649 C   0  0  0  0  0  0  0  0  0  0  0  0
  145.9065  129.5024  162.9823 H   0  0  0  0  0  0  0  0  0  0  0  0
  147.5484  129.2000  162.4053 H   0  0  0  0  0  0  0  0  0  0  0  0
  146.1894  129.1806  161.2686 H   0  0  0  0  0  0  0  0  0  0  0  0
  146.2681  131.7224  162.5457 H   0  0  0  0  0  0  0  0  0  0  0  0
  146.8835  133.2892  163.0380 H   0  0  0  0  0  0  0  0  0  0  0  0
  146.8488  135.6843  163.0548 H   0  0  0  0  0  0  0  0  0  0  0  0
  148.4718  135.1780  157.8372 H   0  0  0  0  0  0  0  0  0  0  0  0
  147.4378  136.5024  158.2423 H   0  0  0  0  0  0  0  0  0  0  0  0
  149.3281  137.4020  156.8074 H   0  0  0  0  0  0  0  0  0  0  0  0
  151.7160  138.2385  158.3138 H   0  0  0  0  0  0  0  0  0  0  0  0
  152.4586  139.0910  156.0913 H   0  0  0  0  0  0  0  0  0  0  0  0
  150.8798  138.7253  155.4019 H   0  0  0  0  0  0  0  0  0  0  0  0
  151.9358  137.4267  155.9475 H   0  0  0  0  0  0  0  0  0  0  0  0
  149.8745  139.8338  158.8722 H   0  0  0  0  0  0  0  0  0  0  0  0
  151.6277  141.3592  159.0503 H   0  0  0  0  0  0  0  0  0  0  0  0
  152.4683  140.6339  157.6863 H   0  0  0  0  0  0  0  0  0  0  0  0
  151.7742  142.8094  156.7840 H   0  0  0  0  0  0  0  0  0  0  0  0
  149.8819  143.0493  158.7141 H   0  0  0  0  0  0  0  0  0  0  0  0
  149.4778  143.6638  157.1105 H   0  0  0  0  0  0  0  0  0  0  0  0
  148.1974  141.3972  158.4329 H   0  0  0  0  0  0  0  0  0  0  0  0
  147.8838  142.0254  156.8175 H   0  0  0  0  0  0  0  0  0  0  0  0
  148.8165  139.8015  156.3459 H   0  0  0  0  0  0  0  0  0  0  0  0
  149.9089  141.8790  155.1832 H   0  0  0  0  0  0  0  0  0  0  0  0
  151.1510  140.6351  155.4466 H   0  0  0  0  0  0  0  0  0  0  0  0
  148.2017  133.3991  158.9177 H   0  0  0  0  0  0  0  0  0  0  0  0
  1  2  1  0  0  0  0
  1 25  1  0  0  0  0
  1 26  1  0  0  0  0
  1 27  1  0  0  0  0
  2  3  1  0  0  0  0
  2 28  1  0  0  0  0
  3  4  2  0  0  0  0
  3  5  1  0  0  0  0
  5 24  2  0  0  0  0
  5  6  1  0  0  0  0
  6  7  2  0  0  0  0
  6 29  1  0  0  0  0
  7  8  1  0  0  0  0
  7 30  1  0  0  0  0
  8  9  2  0  0  0  0
  8 10  1  0  0  0  0
 10 11  1  0  0  0  0
 10 24  1  0  0  0  0
 11 12  1  0  0  0  0
 11 31  1  0  0  0  0
 11 32  1  0  0  0  0
 12 13  2  0  0  0  0
 12 14  1  0  0  0  0
 14 15  1  0  0  0  0
 14 33  1  0  0  0  0
 15 16  1  0  0  0  0
 15 17  1  0  0  0  0
 15 34  1  0  0  0  0
 16 35  1  0  0  0  0
 16 36  1  0  0  0  0
 16 37  1  0  0  0  0
 17 22  1  0  0  0  0
 17 18  1  0  0  0  0
 17 38  1  0  0  0  0
 18 19  1  0  0  0  0
 18 39  1  0  0  0  0
 18 40  1  0  0  0  0
 19 23  1  0  0  0  0
 19 20  1  0  0  0  0
 19 41  1  0  0  0  0
 20 21  1  0  0  0  0
 20 42  1  0  0  0  0
 20 43  1  0  0  0  0
 21 22  1  0  0  0  0
 21 44  1  0  0  0  0
 21 45  1  0  0  0  0
 22 23  1  0  0  0  0
 22 46  1  0  0  0  0
 23 47  1  0  0  0  0
 23 48  1  0  0  0  0
 24 49  1  0  0  0  0
M  END
> <s_m_source_file>
AV-unprocessed.smi

> <i_m_source_file_index>
625

> <i_lp_mmshare_version>
43012

> <i_f3d_flags>
0

> <s_epik_input>
W0NIM11bTkhdQyg9TyljMVtjSF1bY0hdYyg9TyluKFtjSF0xKVtDSDJdQyg9TylbTkhdW0NASF0oW0NIM10pW0NASF0oW0NIMl1bQ0BIXTIzKVtDQEhdKFtDSDJdMylbQ0gyXVtDSDJdMg==

> <s_epik_cmdline>
J2VwaWtfcHl0aG9uJywgJy1waCcsICc3LjAnLCAnLXRuJywgJzgnLCAnLW1hJywgJzIwMCcsICctbWV0YWxfYmluZGluZycsICctaW1hZScsICc8aW5maWxlLm1hZT4nLCAnLW9tYWUnLCAnPG91dGZpbGUubWFlPic=

> <r_lp_tautomer_probability>
1

> <r_epik_Ionization_Penalty>
3.7129e-07

> <r_epik_Ionization_Penalty_Charging>
5.04114e-08

> <r_epik_Ionization_Penalty_Neutral>
3.20879e-07

> <r_epik_State_Penalty>
-0

> <r_epik_Charging_Adjusted_Penalty>
5.04114e-08

> <i_epik_Tot_Q>
0

> <i_epik_Tot_abs_Q>
0

> <r_epik_Metal_State_Penalty>
-0

> <b_epik_Metal_Only>
0

> <s_lp_Force_Field>
OPLS_2005

> <r_lp_Energy>
63.0032

> <b_lp_Chiralities_Consistent>
1

> <s_lp_Variant>
AV-unprocessed.smi:625-4

> <Gold.Version>
5.8.1

> <Gold.Id.Protein>
6NUR|6NUR_protein|mol2

> <Gold.PLP.Fitness>
44.5175

> <Gold.PLP.PLP>
-37.3377

> <Gold.PLP.part.hbond>
-3.5195

> <Gold.PLP.part.metal>
0.0000

> <Gold.PLP.part.buried>
-5.8068

> <Gold.PLP.part.nonpolar>
-29.2114

> <Gold.PLP.part.repulsive>
0.0721

> <Gold.PLP.ligand.clash>
0.0000

> <Gold.PLP.ligand.torsion>
0.6283

> <Gold.PLP.Chemscore.Hbond>
2.7833

> <Gold.PLP.Chemscore.CHOScore>
0.0000

> <Gold.PLP.Chemscore.Metal>
0.0000

> <Gold.Chemscore.Hbonds>
donor molecule, donor type, donor heavy atom, donor atom, acceptor molecule, acceptor atom, score
      P1  H  6896  6907       L1    13  0.80
      P1  H  6931  6943       L1     9  0.69
      P1  H  6934  6947       L1     9  1.00

> <Gold.PLP.Chemscore.Internal.Correction>
0.0866

> <Gold.Rescore>
     Score         DG    S(hbond)    S(metal)    S(lipo)     H(rot)  DE(clash)    DE(int)     intcor
     18.96     -20.15       2.71        0.00      84.72       1.67       0.02       1.16       ----

> <Gold.Chemscore.Fitness>
18.9636

> <Gold.Chemscore.DG>
-20.1507

> <Gold.Chemscore.ZeroCoef>
-5.4800

> <Gold.Chemscore.Hbond>
2.7053

> <Gold.Chemscore.Metal>
0.0000

> <Gold.Chemscore.Lipo>
84.7217

> <Gold.Chemscore.Internal_Hbond>
0.0000

> <Gold.Chemscore.DEClash>
0.0233

> <Gold.Chemscore.DEInternal>
1.1639

> <Gold.Chemscore.Rot>
1.6709

> <Gold.Chemscore.Internal.Correction>
   9.000000E+99

> <Gold.Chemscore.Hbonds>
donor molecule, donor type, donor heavy atom, donor atom, acceptor molecule, acceptor atom, score
      P1  H  6896  6907       L1    13  0.27
      P1  H  6931  6943       L1     9  0.65
      P1  H  6934  6947       L1     9  0.95

> <Gold.Chemscore.Hbond.Weighted>
-9.0357

> <Gold.Chemscore.Metal.Weighted>
-0.0000

> <Gold.Chemscore.Lipo.Weighted>
-9.9124

> <Gold.Chemscore.Internal_Hbond.Weighted>
0.0000

> <Gold.Chemscore.DEClash.Weighted>
0.0233

> <Gold.Chemscore.DEInternal.Weighted>
1.1639

> <Gold.Chemscore.Rot.Weighted>
4.2774

> <Gold.Chemscore.Internal.Correction.Weighted>
   9.000000E+99

> <Gold.Protein.RotatedTorsions>
[ 6907 6896 6895 6894 ] final  -25.69 input  -60.11 | X-H torsion
[ 7974 7965 7964 7962 ] final   83.62 input  175.53 | X-H torsion
[ 8008 7997 7996 7995 ] final   86.76 input   59.86 | X-H torsion
[ 10167 10162 10161 10158 ] final -143.36 input  -65.29 | X-H torsion
[ 10718 10713 10712 10709 ] final  134.18 input   66.30 | X-H torsion
[ 10763 10752 10751 10750 ] final -139.97 input  -60.55 | X-H torsion
[ 11005 11000 10999 10996 ] final -171.01 input  -57.11 | X-H torsion

> <Gold.Protein.ActiveResidues>
 VAL166  LYS551  ARG553  GLY616  TRP617  ASP618  TYR619  PRO620  LYS621  CYS622 
 ASP623  PHE694  ASN695  SER759  ASP760  ASP761  ALA762  ILE779  LEU786  VAL792 
 PHE793  MET794  SER795  GLU796  ALA797  LYS798  CYS799  TRP800  GLU811  SER814 

> <Gold.Protein.RotatedAtoms>
  151.1716  135.0320  159.8753 H   0  0  0  0  0  0  0  0  0  0  0  0  # atno 6907 bound_to 6896
  152.5448  134.1164  159.8390 H   0  0  0  0  0  0  0  0  0  0  0  0  # atno 6908 bound_to 6896
  151.1270  133.5017  159.2632 H   0  0  0  0  0  0  0  0  0  0  0  0  # atno 6909 bound_to 6896
  145.6095  139.2366  143.2200 H   0  0  0  0  0  0  0  0  0  0  0  0  # atno 7974 bound_to 7965
  155.9668  140.3389  155.6540 H   0  0  0  0  0  0  0  0  0  0  0  0  # atno 8008 bound_to 7997
  155.6726  140.0728  157.2532 H   0  0  0  0  0  0  0  0  0  0  0  0  # atno 8009 bound_to 7997
  154.4156  140.1689  156.1883 H   0  0  0  0  0  0  0  0  0  0  0  0  # atno 8010 bound_to 7997
  139.8000  143.7846  152.2657 H   0  0  0  0  0  0  0  0  0  0  0  0  # atno 10167 bound_to 10162
  157.4698  131.1079  150.9817 H   0  0  0  0  0  0  0  0  0  0  0  0  # atno 10718 bound_to 10713
  154.8593  135.3567  154.5633 H   0  0  0  0  0  0  0  0  0  0  0  0  # atno 10763 bound_to 10752
  153.6247  135.7004  153.5302 H   0  0  0  0  0  0  0  0  0  0  0  0  # atno 10764 bound_to 10752
  153.3099  135.4181  155.1286 H   0  0  0  0  0  0  0  0  0  0  0  0  # atno 10765 bound_to 10752
  140.5131  134.5783  157.5025 H   0  0  0  0  0  0  0  0  0  0  0  0  # atno 11005 bound_to 11000
  146.1515  140.6918  142.9320 LP  0  0  0  0  0  0  0  0  0  0  0  0  # atno 17320 bound_to 7965
  144.7276  140.4572  143.6962 LP  0  0  0  0  0  0  0  0  0  0  0  0  # atno 17321 bound_to 7965
  139.7963  144.7391  150.9885 LP  0  0  0  0  0  0  0  0  0  0  0  0  # atno 17342 bound_to 10162
  140.7820  143.4390  151.0580 LP  0  0  0  0  0  0  0  0  0  0  0  0  # atno 17343 bound_to 10162
  157.0586  130.5816  149.5382 LP  0  0  0  0  0  0  0  0  0  0  0  0  # atno 17370 bound_to 10713
  156.0068  130.5155  150.7856 LP  0  0  0  0  0  0  0  0  0  0  0  0  # atno 17371 bound_to 10713
  139.9648  134.7392  156.0162 LP  0  0  0  0  0  0  0  0  0  0  0  0  # atno 17394 bound_to 11000
  141.1375  133.6572  156.3635 LP  0  0  0  0  0  0  0  0  0  0  0  0  # atno 17395 bound_to 11000

$$$$
