AV-unprocessed.smi:2699|AV-procd|sdf|10424|dock10
  -GOLD-   2272014463D 1   1.00000     0.00000
 Structure written by MMmdl.
 43 45  0  0  0  0  0  0  0  0  1 V2000
  150.1756  138.4612  155.1409 C   0  0  0  0  0  0  0  0  0  0  0  0
  149.1267  139.3426  154.4741 C   0  0  0  0  0  0  0  0  0  0  0  0
  148.1051  138.8040  153.7834 C   0  0  0  0  0  0  0  0  0  0  0  0
  147.1082  139.6623  153.1924 C   0  0  0  0  0  0  0  0  0  0  0  0
  146.0944  139.1339  152.4960 O   0  0  0  0  0  0  0  0  0  0  0  0
  147.1989  140.9953  153.3514 C   0  0  0  0  0  0  0  0  0  0  0  0
  148.2931  141.6130  154.1039 C   0  0  0  0  0  0  0  0  0  0  0  0
  148.3571  142.8342  154.2539 O   0  0  0  0  0  0  0  0  0  0  0  0
  149.2333  140.7574  154.6214 N   0  0  0  0  0  0  0  0  0  0  0  0
  150.3852  141.3378  155.3513 C   0  0  0  0  0  0  0  0  0  0  0  0
  150.1077  141.5831  156.8484 C   0  0  0  0  0  0  0  0  0  0  0  0
  148.9560  141.5731  157.2805 O   0  0  0  0  0  0  0  0  0  0  0  0
  151.1463  141.7994  157.6699 N   0  0  0  0  0  0  0  0  0  0  0  0
  151.0794  142.0485  159.1068 C   0  0  0  0  0  0  0  0  0  0  0  0
  152.1693  143.0314  159.5756 C   0  0  0  0  0  0  0  0  0  0  0  0
  151.7793  144.4254  159.0730 C   0  0  0  0  0  0  0  0  0  0  0  0
  151.9525  145.6524  159.9325 C   0  0  0  0  0  0  0  0  0  0  0  0
  150.5622  145.1928  159.5348 C   0  0  0  0  0  0  0  0  0  0  0  0
  152.5494  142.9487  161.0705 C   0  0  0  0  0  0  0  0  0  0  0  0
  153.6549  141.9552  160.7179 C   0  0  0  0  0  0  0  0  0  0  0  0
  153.6114  142.5344  159.3047 C   0  0  0  0  0  0  0  0  0  0  0  0
  149.8392  137.4248  155.1781 H   0  0  0  0  0  0  0  0  0  0  0  0
  150.3707  138.7643  156.1692 H   0  0  0  0  0  0  0  0  0  0  0  0
  151.1091  138.4843  154.5782 H   0  0  0  0  0  0  0  0  0  0  0  0
  148.0206  137.7316  153.6811 H   0  0  0  0  0  0  0  0  0  0  0  0
  145.3723  139.7422  152.5389 H   0  0  0  0  0  0  0  0  0  0  0  0
  146.4474  141.6350  152.9110 H   0  0  0  0  0  0  0  0  0  0  0  0
  151.2766  140.7222  155.2443 H   0  0  0  0  0  0  0  0  0  0  0  0
  150.6784  142.2849  154.8956 H   0  0  0  0  0  0  0  0  0  0  0  0
  152.0693  141.7918  157.2601 H   0  0  0  0  0  0  0  0  0  0  0  0
  150.0870  142.4337  159.3452 H   0  0  0  0  0  0  0  0  0  0  0  0
  151.1764  141.1021  159.6407 H   0  0  0  0  0  0  0  0  0  0  0  0
  151.9900  144.5645  158.0142 H   0  0  0  0  0  0  0  0  0  0  0  0
  152.2505  145.5098  160.9692 H   0  0  0  0  0  0  0  0  0  0  0  0
  152.3455  146.5468  159.4537 H   0  0  0  0  0  0  0  0  0  0  0  0
  150.0366  145.7855  158.7889 H   0  0  0  0  0  0  0  0  0  0  0  0
  149.9283  144.7695  160.3090 H   0  0  0  0  0  0  0  0  0  0  0  0
  152.9457  143.8879  161.4603 H   0  0  0  0  0  0  0  0  0  0  0  0
  151.7756  142.5477  161.7258 H   0  0  0  0  0  0  0  0  0  0  0  0
  154.5950  142.1111  161.2474 H   0  0  0  0  0  0  0  0  0  0  0  0
  153.3273  140.9158  160.7670 H   0  0  0  0  0  0  0  0  0  0  0  0
  153.6960  141.7892  158.5132 H   0  0  0  0  0  0  0  0  0  0  0  0
  154.3524  143.3214  159.1717 H   0  0  0  0  0  0  0  0  0  0  0  0
  1  2  1  0  0  0  0
  1 22  1  0  0  0  0
  1 23  1  0  0  0  0
  1 24  1  0  0  0  0
  2  9  1  0  0  0  0
  2  3  2  0  0  0  0
  3  4  1  0  0  0  0
  3 25  1  0  0  0  0
  4  5  1  0  0  0  0
  4  6  2  0  0  0  0
  5 26  1  0  0  0  0
  6  7  1  0  0  0  0
  6 27  1  0  0  0  0
  7  8  2  0  0  0  0
  7  9  1  0  0  0  0
  9 10  1  0  0  0  0
 10 11  1  0  0  0  0
 10 28  1  0  0  0  0
 10 29  1  0  0  0  0
 11 12  2  0  0  0  0
 11 13  1  0  0  0  0
 13 14  1  0  0  0  0
 13 30  1  0  0  0  0
 14 15  1  0  0  0  0
 14 31  1  0  0  0  0
 14 32  1  0  0  0  0
 15 21  1  0  0  0  0
 15 16  1  0  0  0  0
 15 19  1  0  0  0  0
 16 18  1  0  0  0  0
 16 17  1  0  0  0  0
 16 33  1  0  0  0  0
 17 18  1  0  0  0  0
 17 34  1  0  0  0  0
 17 35  1  0  0  0  0
 18 36  1  0  0  0  0
 18 37  1  0  0  0  0
 19 20  1  0  0  0  0
 19 38  1  0  0  0  0
 19 39  1  0  0  0  0
 20 21  1  0  0  0  0
 20 40  1  0  0  0  0
 20 41  1  0  0  0  0
 21 42  1  0  0  0  0
 21 43  1  0  0  0  0
M  END
> <s_m_source_file>
AV-unprocessed.smi

> <i_m_source_file_index>
2699

> <i_lp_mmshare_version>
43012

> <i_f3d_flags>
0

> <s_epik_input>
W0NIM11jMVtjSF1jKFtPSF0pW2NIXWMoPU8pbjFbQ0gyXUMoPU8pW05IXVtDSDJdQzIoW0NIXTNbQ0gyXVtDSDJdMylbQ0gyXVtDSDJdW0NIMl0y

> <s_epik_cmdline>
J2VwaWtfcHl0aG9uJywgJy1waCcsICc3LjAnLCAnLXRuJywgJzgnLCAnLW1hJywgJzIwMCcsICctbWV0YWxfYmluZGluZycsICctaW1hZScsICc8aW5maWxlLm1hZT4nLCAnLW9tYWUnLCAnPG91dGZpbGUubWFlPic=

> <r_lp_tautomer_probability>
0.999984

> <r_epik_Ionization_Penalty>
0.783068

> <r_epik_Ionization_Penalty_Charging>
1.5268e-07

> <r_epik_Ionization_Penalty_Neutral>
0.783068

> <r_epik_State_Penalty>
0.823318

> <r_epik_Charging_Adjusted_Penalty>
0.823318

> <i_epik_Tot_Q>
0

> <i_epik_Tot_abs_Q>
0

> <r_epik_Metal_State_Penalty>
0.823318

> <b_epik_Metal_Only>
0

> <s_lp_Force_Field>
OPLS_2005

> <r_lp_Energy>
38.185

> <b_lp_Chiralities_Consistent>
1

> <s_lp_Variant>
AV-unprocessed.smi:2699-2

> <Gold.Version>
5.8.1

> <Gold.Id.Protein>
6NUR|6NUR_protein|mol2

> <Gold.PLP.Fitness>
49.4571

> <Gold.PLP.PLP>
-45.3711

> <Gold.PLP.part.hbond>
-3.0000

> <Gold.PLP.part.metal>
0.0000

> <Gold.PLP.part.buried>
-3.7562

> <Gold.PLP.part.nonpolar>
-43.3994

> <Gold.PLP.part.repulsive>
5.0103

> <Gold.PLP.ligand.clash>
0.0000

> <Gold.PLP.ligand.torsion>
1.8079

> <Gold.PLP.Chemscore.Hbond>
2.0000

> <Gold.PLP.Chemscore.CHOScore>
0.0000

> <Gold.PLP.Chemscore.Metal>
0.0000

> <Gold.Chemscore.Hbonds>
donor molecule, donor type, donor heavy atom, donor atom, acceptor molecule, acceptor atom, score
      L1  H     5    26       P1 10175  1.00
      P1  H  8022  8030       L1     8  0.98

> <Gold.PLP.Chemscore.Internal.Correction>
1.7018

> <Gold.Rescore>
     Score         DG    S(hbond)    S(metal)    S(lipo)     H(rot)  DE(clash)    DE(int)     intcor
     16.86     -21.15       1.96        0.00     128.15       2.30       2.61       1.68       ----

> <Gold.Chemscore.Fitness>
16.8620

> <Gold.Chemscore.DG>
-21.1519

> <Gold.Chemscore.ZeroCoef>
-5.4800

> <Gold.Chemscore.Hbond>
1.9631

> <Gold.Chemscore.Metal>
0.0000

> <Gold.Chemscore.Lipo>
128.1486

> <Gold.Chemscore.Internal_Hbond>
0.0000

> <Gold.Chemscore.DEClash>
2.6098

> <Gold.Chemscore.DEInternal>
1.6800

> <Gold.Chemscore.Rot>
2.2962

> <Gold.Chemscore.Internal.Correction>
   9.000000E+99

> <Gold.Chemscore.Hbonds>
donor molecule, donor type, donor heavy atom, donor atom, acceptor molecule, acceptor atom, score
      L1  H     5    26       P1 10175  0.99
      P1  H  8022  8030       L1     8  0.89

> <Gold.Chemscore.Hbond.Weighted>
-6.5568

> <Gold.Chemscore.Metal.Weighted>
-0.0000

> <Gold.Chemscore.Lipo.Weighted>
-14.9934

> <Gold.Chemscore.Internal_Hbond.Weighted>
0.0000

> <Gold.Chemscore.DEClash.Weighted>
2.6098

> <Gold.Chemscore.DEInternal.Weighted>
1.6800

> <Gold.Chemscore.Rot.Weighted>
5.8783

> <Gold.Chemscore.Internal.Correction.Weighted>
   9.000000E+99

> <Gold.Protein.RotatedTorsions>
[ 6907 6896 6895 6894 ] final  -46.39 input  -60.11 | X-H torsion
[ 7974 7965 7964 7962 ] final  -37.39 input  175.53 | X-H torsion
[ 8008 7997 7996 7995 ] final  -99.76 input   59.86 | X-H torsion
[ 10167 10162 10161 10158 ] final   28.45 input  -65.29 | X-H torsion
[ 10718 10713 10712 10709 ] final  -98.33 input   66.30 | X-H torsion
[ 10763 10752 10751 10750 ] final  126.37 input  -60.55 | X-H torsion
[ 11005 11000 10999 10996 ] final  -99.87 input  -57.11 | X-H torsion

> <Gold.Protein.ActiveResidues>
 VAL166  LYS551  ARG553  GLY616  TRP617  ASP618  TYR619  PRO620  LYS621  CYS622 
 ASP623  PHE694  ASN695  SER759  ASP760  ASP761  ALA762  ILE779  LEU786  VAL792 
 PHE793  MET794  SER795  GLU796  ALA797  LYS798  CYS799  TRP800  GLU811  SER814 

> <Gold.Protein.RotatedAtoms>
  150.9118  134.8535  159.7430 H   0  0  0  0  0  0  0  0  0  0  0  0  # atno 6907 bound_to 6896
  152.4948  134.4348  159.9534 H   0  0  0  0  0  0  0  0  0  0  0  0  # atno 6908 bound_to 6896
  151.4389  133.3609  159.2814 H   0  0  0  0  0  0  0  0  0  0  0  0  # atno 6909 bound_to 6896
  146.0579  140.6390  142.9011 H   0  0  0  0  0  0  0  0  0  0  0  0  # atno 7974 bound_to 7965
  154.8192  140.0445  157.1398 H   0  0  0  0  0  0  0  0  0  0  0  0  # atno 8008 bound_to 7997
  154.9279  140.3036  155.5162 H   0  0  0  0  0  0  0  0  0  0  0  0  # atno 8009 bound_to 7997
  156.2978  140.2328  156.4336 H   0  0  0  0  0  0  0  0  0  0  0  0  # atno 8010 bound_to 7997
  140.4851  144.0555  150.6278 H   0  0  0  0  0  0  0  0  0  0  0  0  # atno 10167 bound_to 10162
  156.0105  130.5233  150.6507 H   0  0  0  0  0  0  0  0  0  0  0  0  # atno 10718 bound_to 10713
  153.6922  135.3297  155.3204 H   0  0  0  0  0  0  0  0  0  0  0  0  # atno 10763 bound_to 10752
  154.8437  135.4434  154.1497 H   0  0  0  0  0  0  0  0  0  0  0  0  # atno 10764 bound_to 10752
  153.2542  135.6984  153.7725 H   0  0  0  0  0  0  0  0  0  0  0  0  # atno 10765 bound_to 10752
  141.1292  133.8355  157.1028 H   0  0  0  0  0  0  0  0  0  0  0  0  # atno 11005 bound_to 11000
  144.7158  140.4205  143.7045 LP  0  0  0  0  0  0  0  0  0  0  0  0  # atno 17320 bound_to 7965
  145.6611  139.1581  143.2808 LP  0  0  0  0  0  0  0  0  0  0  0  0  # atno 17321 bound_to 7965
  140.3808  143.2804  152.0172 LP  0  0  0  0  0  0  0  0  0  0  0  0  # atno 17342 bound_to 10162
  139.4840  144.6156  151.7352 LP  0  0  0  0  0  0  0  0  0  0  0  0  # atno 17343 bound_to 10162
  157.4269  131.0844  151.1077 LP  0  0  0  0  0  0  0  0  0  0  0  0  # atno 17370 bound_to 10713
  157.1662  130.6247  149.5626 LP  0  0  0  0  0  0  0  0  0  0  0  0  # atno 17371 bound_to 10713
  140.0323  134.9895  157.0804 LP  0  0  0  0  0  0  0  0  0  0  0  0  # atno 17394 bound_to 11000
  140.4266  134.1824  155.7166 LP  0  0  0  0  0  0  0  0  0  0  0  0  # atno 17395 bound_to 11000

$$$$
