AV-unprocessed.smi:1097|AV-procd|sdf|4751|dock4
  -GOLD-   22720 3283D 1   1.00000     0.00000
 Structure written by MMmdl.
 40 41  0  0  0  0  0  0  0  0  1 V2000
  150.6312  138.4471  154.2800 C   0  0  0  0  0  0  0  0  0  0  0  0
  151.0792  139.7241  154.6995 O   0  0  0  0  0  0  0  0  0  0  0  0
  152.2761  139.6574  155.4561 C   0  0  0  0  0  0  0  0  0  0  0  0
  151.9725  139.0252  156.8170 C   0  0  0  0  0  0  0  0  0  0  0  0
  152.7345  139.7025  157.8113 O   0  0  0  0  0  0  0  0  0  0  0  0
  152.3288  140.9571  158.2270 C   0  0  0  0  0  0  0  0  0  0  0  0
  151.4419  141.6280  157.4482 N   0  0  0  0  0  0  0  0  0  0  0  0
  151.0250  142.8482  157.8424 C   0  0  0  0  0  0  0  0  0  0  0  0
  151.4655  143.4656  159.0265 C   0  0  0  0  0  0  0  0  0  0  0  0
  152.3847  142.7748  159.8369 C   0  0  0  0  0  0  0  0  0  0  0  0
  152.8280  141.4906  159.4441 C   0  0  0  0  0  0  0  0  0  0  0  0
  153.8282  140.7425  160.2815 C   0  0  0  0  0  0  0  0  0  0  0  0
  154.6301  141.3352  161.0039 O   0  0  0  0  0  0  0  0  0  0  0  0
  153.7993  139.4065  160.1498 N   0  0  0  0  0  0  0  0  0  0  0  0
  154.6863  138.4783  160.8450 C   0  0  2  0  0  0  0  0  0  0  0  0
  154.6313  137.0714  160.2290 C   0  0  0  0  0  0  0  0  0  0  0  0
  154.4836  136.1577  161.4340 C   0  0  0  0  0  0  0  0  0  0  0  0
  154.5152  134.9310  161.3499 O   0  0  0  0  0  0  0  0  0  0  0  0
  154.3237  136.8660  162.5557 N   0  0  0  0  0  0  0  0  0  0  0  0
  154.1482  136.3157  163.8926 C   0  0  0  0  0  0  0  0  0  0  0  0
  154.2855  138.2989  162.3232 C   0  0  0  0  0  0  0  0  0  0  0  0
  149.7066  138.5515  153.7125 H   0  0  0  0  0  0  0  0  0  0  0  0
  150.4294  137.7999  155.1346 H   0  0  0  0  0  0  0  0  0  0  0  0
  151.3675  137.9614  153.6384 H   0  0  0  0  0  0  0  0  0  0  0  0
  153.0195  139.0593  154.9267 H   0  0  0  0  0  0  0  0  0  0  0  0
  152.6921  140.6568  155.5925 H   0  0  0  0  0  0  0  0  0  0  0  0
  150.9056  139.1070  157.0316 H   0  0  0  0  0  0  0  0  0  0  0  0
  152.2346  137.9659  156.7951 H   0  0  0  0  0  0  0  0  0  0  0  0
  150.3199  143.3474  157.1944 H   0  0  0  0  0  0  0  0  0  0  0  0
  151.1100  144.4469  159.3041 H   0  0  0  0  0  0  0  0  0  0  0  0
  152.7441  143.2354  160.7456 H   0  0  0  0  0  0  0  0  0  0  0  0
  153.1192  139.0052  159.5206 H   0  0  0  0  0  0  0  0  0  0  0  0
  155.7145  138.8412  160.7878 H   0  0  0  0  0  0  0  0  0  0  0  0
  153.7702  136.9372  159.5728 H   0  0  0  0  0  0  0  0  0  0  0  0
  155.5356  136.8362  159.6667 H   0  0  0  0  0  0  0  0  0  0  0  0
  154.9853  135.6666  164.1531 H   0  0  0  0  0  0  0  0  0  0  0  0
  153.2293  135.7308  163.9465 H   0  0  0  0  0  0  0  0  0  0  0  0
  154.0898  137.1082  164.6396 H   0  0  0  0  0  0  0  0  0  0  0  0
  154.9702  138.8254  162.9893 H   0  0  0  0  0  0  0  0  0  0  0  0
  153.2750  138.6600  162.5221 H   0  0  0  0  0  0  0  0  0  0  0  0
  1  2  1  0  0  0  0
  1 22  1  0  0  0  0
  1 23  1  0  0  0  0
  1 24  1  0  0  0  0
  2  3  1  0  0  0  0
  3  4  1  0  0  0  0
  3 25  1  0  0  0  0
  3 26  1  0  0  0  0
  4  5  1  0  0  0  0
  4 27  1  0  0  0  0
  4 28  1  0  0  0  0
  5  6  1  0  0  0  0
  6 11  1  0  0  0  0
  6  7  2  0  0  0  0
  7  8  1  0  0  0  0
  8  9  2  0  0  0  0
  8 29  1  0  0  0  0
  9 10  1  0  0  0  0
  9 30  1  0  0  0  0
 10 11  2  0  0  0  0
 10 31  1  0  0  0  0
 11 12  1  0  0  0  0
 12 13  2  0  0  0  0
 12 14  1  0  0  0  0
 14 15  1  0  0  0  0
 14 32  1  0  0  0  0
 15 21  1  0  0  0  0
 15 16  1  0  0  0  0
 15 33  1  0  0  0  0
 16 17  1  0  0  0  0
 16 34  1  0  0  0  0
 16 35  1  0  0  0  0
 17 18  2  0  0  0  0
 17 19  1  0  0  0  0
 19 20  1  0  0  0  0
 19 21  1  0  0  0  0
 20 36  1  0  0  0  0
 20 37  1  0  0  0  0
 20 38  1  0  0  0  0
 21 39  1  0  0  0  0
 21 40  1  0  0  0  0
M  END
> <s_m_source_file>
AV-unprocessed.smi

> <i_m_source_file_index>
1097

> <i_lp_mmshare_version>
43012

> <i_f3d_flags>
0

> <s_epik_input>
W0NIM11PW0NIMl1bQ0gyXU9jMW5bY0hdW2NIXVtjSF1jMUMoPU8pW05IXVtDQEBIXTJbQ0gyXUMoPU8pTihbQ0gzXSlbQ0gyXTI=

> <s_epik_cmdline>
J2VwaWtfcHl0aG9uJywgJy1waCcsICc3LjAnLCAnLXRuJywgJzgnLCAnLW1hJywgJzIwMCcsICctbWV0YWxfYmluZGluZycsICctaW1hZScsICc8aW5maWxlLm1hZT4nLCAnLW9tYWUnLCAnPG91dGZpbGUubWFlPic=

> <r_lp_tautomer_probability>
1

> <r_epik_Ionization_Penalty>
2.30122e-06

> <r_epik_Ionization_Penalty_Charging>
0

> <r_epik_Ionization_Penalty_Neutral>
2.30122e-06

> <r_epik_State_Penalty>
-0

> <r_epik_Charging_Adjusted_Penalty>
0

> <i_epik_Tot_Q>
0

> <i_epik_Tot_abs_Q>
0

> <r_epik_Metal_State_Penalty>
-0

> <b_epik_Metal_Only>
0

> <s_lp_Force_Field>
OPLS_2005

> <r_lp_Energy>
19.8502

> <b_lp_Chiralities_Consistent>
1

> <s_lp_Variant>
AV-unprocessed.smi:1097-1

> <Gold.Version>
5.8.1

> <Gold.Id.Protein>
6NUR|6NUR_protein|mol2

> <Gold.PLP.Fitness>
46.6442

> <Gold.PLP.PLP>
-39.6439

> <Gold.PLP.part.hbond>
-3.0000

> <Gold.PLP.part.metal>
0.0000

> <Gold.PLP.part.buried>
-3.8242

> <Gold.PLP.part.nonpolar>
-32.1201

> <Gold.PLP.part.repulsive>
0.1560

> <Gold.PLP.ligand.clash>
0.0000

> <Gold.PLP.ligand.torsion>
1.0658

> <Gold.PLP.Chemscore.Hbond>
2.0000

> <Gold.PLP.Chemscore.CHOScore>
1.0000

> <Gold.PLP.Chemscore.Metal>
0.0000

> <Gold.Chemscore.Hbonds>
donor molecule, donor type, donor heavy atom, donor atom, acceptor molecule, acceptor atom, score
      P1  H  7989  7998       L1     2  0.85
      P1  H  7997  8010       L1     5  0.94
      L1  C     8    29       P1  8028  1.00

> <Gold.PLP.Chemscore.Internal.Correction>
0.1319

> <Gold.Rescore>
     Score         DG    S(hbond)    S(metal)    S(lipo)     H(rot)  DE(clash)    DE(int)     intcor
     12.62     -13.96       1.01        0.00      86.38       1.95       0.00       1.34       ----

> <Gold.Chemscore.Fitness>
12.6173

> <Gold.Chemscore.DG>
-13.9604

> <Gold.Chemscore.ZeroCoef>
-5.4800

> <Gold.Chemscore.Hbond>
1.0053

> <Gold.Chemscore.Metal>
0.0000

> <Gold.Chemscore.Lipo>
86.3812

> <Gold.Chemscore.Internal_Hbond>
0.0000

> <Gold.Chemscore.DEClash>
0.0013

> <Gold.Chemscore.DEInternal>
1.3417

> <Gold.Chemscore.Rot>
1.9468

> <Gold.Chemscore.Internal.Correction>
   9.000000E+99

> <Gold.Chemscore.Hbonds>
donor molecule, donor type, donor heavy atom, donor atom, acceptor molecule, acceptor atom, score
      P1  H  7989  7998       L1     2  0.14
      P1  H  7997  8010       L1     5  0.23

> <Gold.Chemscore.Hbond.Weighted>
-3.3576

> <Gold.Chemscore.Metal.Weighted>
-0.0000

> <Gold.Chemscore.Lipo.Weighted>
-10.1066

> <Gold.Chemscore.Internal_Hbond.Weighted>
0.0000

> <Gold.Chemscore.DEClash.Weighted>
0.0013

> <Gold.Chemscore.DEInternal.Weighted>
1.3417

> <Gold.Chemscore.Rot.Weighted>
4.9839

> <Gold.Chemscore.Internal.Correction.Weighted>
   9.000000E+99

> <Gold.Protein.RotatedTorsions>
[ 6907 6896 6895 6894 ] final   29.91 input  -60.11 | X-H torsion
[ 7974 7965 7964 7962 ] final  139.41 input  175.53 | X-H torsion
[ 8008 7997 7996 7995 ] final   31.78 input   59.86 | X-H torsion
[ 10167 10162 10161 10158 ] final  -76.70 input  -65.29 | X-H torsion
[ 10718 10713 10712 10709 ] final  165.57 input   66.30 | X-H torsion
[ 10763 10752 10751 10750 ] final  136.43 input  -60.55 | X-H torsion
[ 11005 11000 10999 10996 ] final   58.58 input  -57.11 | X-H torsion

> <Gold.Protein.ActiveResidues>
 VAL166  LYS551  ARG553  GLY616  TRP617  ASP618  TYR619  PRO620  LYS621  CYS622 
 ASP623  PHE694  ASN695  SER759  ASP760  ASP761  ALA762  ILE779  LEU786  VAL792 
 PHE793  MET794  SER795  GLU796  ALA797  LYS798  CYS799  TRP800  GLU811  SER814 

> <Gold.Protein.RotatedAtoms>
  152.0383  134.9727  160.0573 H   0  0  0  0  0  0  0  0  0  0  0  0  # atno 6907 bound_to 6896
  152.1176  133.4330  159.4668 H   0  0  0  0  0  0  0  0  0  0  0  0  # atno 6908 bound_to 6896
  150.6847  134.2493  159.4547 H   0  0  0  0  0  0  0  0  0  0  0  0  # atno 6909 bound_to 6896
  144.9281  139.5081  143.5631 H   0  0  0  0  0  0  0  0  0  0  0  0  # atno 7974 bound_to 7965
  155.1119  140.3240  155.4519 H   0  0  0  0  0  0  0  0  0  0  0  0  # atno 8008 bound_to 7997
  156.2688  140.2042  156.6190 H   0  0  0  0  0  0  0  0  0  0  0  0  # atno 8009 bound_to 7997
  154.6750  140.0532  157.0192 H   0  0  0  0  0  0  0  0  0  0  0  0  # atno 8010 bound_to 7997
  140.4834  143.2397  151.8022 H   0  0  0  0  0  0  0  0  0  0  0  0  # atno 10167 bound_to 10162
  157.0782  131.0385  151.2585 H   0  0  0  0  0  0  0  0  0  0  0  0  # atno 10718 bound_to 10713
  153.8564  135.3073  155.3435 H   0  0  0  0  0  0  0  0  0  0  0  0  # atno 10763 bound_to 10752
  154.7868  135.4805  153.9968 H   0  0  0  0  0  0  0  0  0  0  0  0  # atno 10764 bound_to 10752
  153.1488  135.6839  153.9008 H   0  0  0  0  0  0  0  0  0  0  0  0  # atno 10765 bound_to 10752
  140.0367  134.5933  155.9435 H   0  0  0  0  0  0  0  0  0  0  0  0  # atno 11005 bound_to 11000
  146.3235  139.8211  142.8926 LP  0  0  0  0  0  0  0  0  0  0  0  0  # atno 17320 bound_to 7965
  145.3186  141.0238  143.3513 LP  0  0  0  0  0  0  0  0  0  0  0  0  # atno 17321 bound_to 7965
  139.4837  144.4743  151.9386 LP  0  0  0  0  0  0  0  0  0  0  0  0  # atno 17342 bound_to 10162
  140.3829  144.2714  150.5907 LP  0  0  0  0  0  0  0  0  0  0  0  0  # atno 17343 bound_to 10162
  157.4822  130.7772  149.7425 LP  0  0  0  0  0  0  0  0  0  0  0  0  # atno 17370 bound_to 10713
  155.9931  130.3926  150.2914 LP  0  0  0  0  0  0  0  0  0  0  0  0  # atno 17371 bound_to 10713
  141.1861  133.6556  156.5225 LP  0  0  0  0  0  0  0  0  0  0  0  0  # atno 17394 bound_to 11000
  140.4136  134.7250  157.4850 LP  0  0  0  0  0  0  0  0  0  0  0  0  # atno 17395 bound_to 11000

$$$$
