AV-unprocessed.smi:1205|AV-procd|sdf|5040|dock5
  -GOLD-   22720 4 63D 1   1.00000     0.00000
 Structure written by MMmdl.
 49 50  0  0  0  0  0  0  0  0  2 V2000
  150.7683  142.2447  157.2649 C   0  0  0  0  0  0  0  0  0  0  0  0
  150.4844  141.2417  156.1857 C   0  0  0  0  0  0  0  0  0  0  0  0
  149.4221  141.2511  155.2356 C   0  0  0  0  0  0  0  0  0  0  0  0
  149.6541  140.1123  154.5136 C   0  0  0  0  0  0  0  0  0  0  0  0
  148.9464  139.6024  153.4707 N   0  0  0  0  0  0  0  0  0  0  0  0
  147.7050  139.0865  153.4705 C   0  0  0  0  0  0  0  0  0  0  0  0
  146.9705  138.9852  154.4536 O   0  0  0  0  0  0  0  0  0  0  0  0
  147.3443  138.6912  152.2412 N   0  0  0  0  0  0  0  0  0  0  0  0
  146.0557  138.0958  151.9016 C   0  0  0  0  0  0  0  0  0  0  0  0
  145.6148  137.0132  152.9203 C   0  0  1  0  0  0  0  0  0  0  0  0
  144.0850  136.8386  152.9752 C   0  0  0  0  0  0  0  0  0  0  0  0
  146.2879  135.6982  152.7086 N   0  3  1  0  0  0  0  0  0  0  0  0
  146.5607  134.9144  153.9442 C   0  0  0  0  0  0  0  0  0  0  0  0
  147.4634  133.7102  153.6341 C   0  0  0  0  0  0  0  0  0  0  0  0
  146.8368  132.8222  152.5509 C   0  0  0  0  0  0  0  0  0  0  0  0
  146.5237  133.6515  151.2934 C   0  0  1  0  0  0  0  0  0  0  0  0
  145.8721  132.7911  150.2018 C   0  0  0  0  0  0  0  0  0  0  0  0
  145.6435  134.8643  151.6584 C   0  0  0  0  0  0  0  0  0  0  0  0
  150.7740  139.4872  155.0155 N   0  0  0  0  0  0  0  0  0  0  0  0
  151.4102  138.2547  154.5930 C   0  0  0  0  0  0  0  0  0  0  0  0
  151.2844  140.1901  156.0496 N   0  0  0  0  0  0  0  0  0  0  0  0
  150.0427  143.0583  157.2474 H   0  0  0  0  0  0  0  0  0  0  0  0
  151.7593  142.6822  157.1442 H   0  0  0  0  0  0  0  0  0  0  0  0
  150.7244  141.7826  158.2513 H   0  0  0  0  0  0  0  0  0  0  0  0
  148.6325  141.9786  155.1236 H   0  0  0  0  0  0  0  0  0  0  0  0
  149.4181  139.6299  152.5786 H   0  0  0  0  0  0  0  0  0  0  0  0
  148.0074  138.8075  151.4887 H   0  0  0  0  0  0  0  0  0  0  0  0
  145.3304  138.9086  151.8702 H   0  0  0  0  0  0  0  0  0  0  0  0
  146.1061  137.6877  150.8913 H   0  0  0  0  0  0  0  0  0  0  0  0
  145.9056  137.3505  153.9162 H   0  0  0  0  0  0  0  0  0  0  0  0
  143.5941  137.7539  153.3065 H   0  0  0  0  0  0  0  0  0  0  0  0
  143.8049  136.0529  153.6775 H   0  0  0  0  0  0  0  0  0  0  0  0
  143.6674  136.5818  152.0019 H   0  0  0  0  0  0  0  0  0  0  0  0
  147.0470  135.5384  154.6932 H   0  0  0  0  0  0  0  0  0  0  0  0
  145.6248  134.5628  154.3801 H   0  0  0  0  0  0  0  0  0  0  0  0
  148.4423  134.0596  153.3030 H   0  0  0  0  0  0  0  0  0  0  0  0
  147.6323  133.1281  154.5404 H   0  0  0  0  0  0  0  0  0  0  0  0
  147.5133  132.0023  152.3061 H   0  0  0  0  0  0  0  0  0  0  0  0
  145.9223  132.3677  152.9344 H   0  0  0  0  0  0  0  0  0  0  0  0
  147.4668  134.0280  150.8938 H   0  0  0  0  0  0  0  0  0  0  0  0
  144.9220  132.3751  150.5385 H   0  0  0  0  0  0  0  0  0  0  0  0
  146.5187  131.9594  149.9202 H   0  0  0  0  0  0  0  0  0  0  0  0
  145.6793  133.3765  149.3023 H   0  0  0  0  0  0  0  0  0  0  0  0
  144.6646  134.5272  152.0017 H   0  0  0  0  0  0  0  0  0  0  0  0
  145.4753  135.4655  150.7638 H   0  0  0  0  0  0  0  0  0  0  0  0
  151.5181  138.2479  153.5081 H   0  0  0  0  0  0  0  0  0  0  0  0
  150.7984  137.4050  154.8972 H   0  0  0  0  0  0  0  0  0  0  0  0
  152.3988  138.1598  155.0442 H   0  0  0  0  0  0  0  0  0  0  0  0
  147.1944  135.9328  152.3299 H   0  0  0  0  0  0  0  0  0  0  0  0
  1  2  1  0  0  0  0
  1 22  1  0  0  0  0
  1 23  1  0  0  0  0
  1 24  1  0  0  0  0
  2 21  2  0  0  0  0
  2  3  1  0  0  0  0
  3  4  2  0  0  0  0
  3 25  1  0  0  0  0
  4  5  1  0  0  0  0
  4 19  1  0  0  0  0
  5  6  1  0  0  0  0
  5 26  1  0  0  0  0
  6  7  2  0  0  0  0
  6  8  1  0  0  0  0
  8  9  1  0  0  0  0
  8 27  1  0  0  0  0
  9 10  1  0  0  0  0
  9 28  1  0  0  0  0
  9 29  1  0  0  0  0
 10 11  1  0  0  0  0
 10 12  1  0  0  0  0
 10 30  1  0  0  0  0
 11 31  1  0  0  0  0
 11 32  1  0  0  0  0
 11 33  1  0  0  0  0
 12 18  1  0  0  0  0
 12 13  1  0  0  0  0
 12 49  1  0  0  0  0
 13 14  1  0  0  0  0
 13 34  1  0  0  0  0
 13 35  1  0  0  0  0
 14 15  1  0  0  0  0
 14 36  1  0  0  0  0
 14 37  1  0  0  0  0
 15 16  1  0  0  0  0
 15 38  1  0  0  0  0
 15 39  1  0  0  0  0
 16 17  1  0  0  0  0
 16 18  1  0  0  0  0
 16 40  1  0  0  0  0
 17 41  1  0  0  0  0
 17 42  1  0  0  0  0
 17 43  1  0  0  0  0
 18 44  1  0  0  0  0
 18 45  1  0  0  0  0
 19 20  1  0  0  0  0
 19 21  1  0  0  0  0
 20 46  1  0  0  0  0
 20 47  1  0  0  0  0
 20 48  1  0  0  0  0
M  CHG  1  12   1
M  END
> <s_m_source_file>
AV-unprocessed.smi

> <i_m_source_file_index>
1205

> <i_lp_mmshare_version>
43012

> <i_f3d_flags>
0

> <s_epik_input>
W0NIM11jMVtjSF1jKG4objEpW0NIM10pW05IXUMoPU8pW05IXVtDSDJdW0NASF0oW0NIM10pTjJbQ0gyXVtDSDJdW0NIMl1bQ0BASF0oW0NIM10pW0NIMl0y

> <s_epik_cmdline>
J2VwaWtfcHl0aG9uJywgJy1waCcsICc3LjAnLCAnLXRuJywgJzgnLCAnLW1hJywgJzIwMCcsICctbWV0YWxfYmluZGluZycsICctaW1hZScsICc8aW5maWxlLm1hZT4nLCAnLW9tYWUnLCAnPG91dGZpbGUubWFlPic=

> <r_lp_tautomer_probability>
1

> <r_epik_Ionization_Penalty>
0.0020309

> <r_epik_Ionization_Penalty_Charging>
0.00195276

> <r_epik_Ionization_Penalty_Neutral>
7.81448e-05

> <r_epik_State_Penalty>
0.00133177

> <r_epik_Charging_Adjusted_Penalty>
0.00328452

> <i_epik_Tot_Q>
1

> <i_epik_Tot_abs_Q>
1

> <r_epik_Metal_State_Penalty>
-0

> <b_epik_Metal_Only>
0

> <s_lp_Force_Field>
OPLS_2005

> <r_lp_Energy>
21.6269

> <b_lp_Chiralities_Consistent>
1

> <s_lp_Variant>
AV-unprocessed.smi:1205-2

> <Gold.Version>
5.8.1

> <Gold.Id.Protein>
6NUR|6NUR_protein|mol2

> <Gold.PLP.Fitness>
48.6104

> <Gold.PLP.PLP>
-40.1936

> <Gold.PLP.part.hbond>
-3.8178

> <Gold.PLP.part.metal>
0.0000

> <Gold.PLP.part.buried>
-3.7554

> <Gold.PLP.part.nonpolar>
-33.5291

> <Gold.PLP.part.repulsive>
0.3248

> <Gold.PLP.ligand.clash>
0.0000

> <Gold.PLP.ligand.torsion>
1.5256

> <Gold.PLP.Chemscore.Hbond>
3.7840

> <Gold.PLP.Chemscore.CHOScore>
0.0000

> <Gold.PLP.Chemscore.Metal>
0.0000

> <Gold.Chemscore.Hbonds>
donor molecule, donor type, donor heavy atom, donor atom, acceptor molecule, acceptor atom, score
      L1  H     5    26       P1  7957  0.89
      L1  H     8    27       P1  7957  0.72
      L1  H    12    49       P1  7948  2.00

> <Gold.PLP.Chemscore.Internal.Correction>
0.1161

> <Gold.Rescore>
     Score         DG    S(hbond)    S(metal)    S(lipo)     H(rot)  DE(clash)    DE(int)     intcor
     17.24     -20.31       2.86        0.00      77.04       1.47       0.13       2.95       ----

> <Gold.Chemscore.Fitness>
17.2359

> <Gold.Chemscore.DG>
-20.3086

> <Gold.Chemscore.ZeroCoef>
-5.4800

> <Gold.Chemscore.Hbond>
2.8644

> <Gold.Chemscore.Metal>
0.0000

> <Gold.Chemscore.Lipo>
77.0424

> <Gold.Chemscore.Internal_Hbond>
0.0000

> <Gold.Chemscore.DEClash>
0.1259

> <Gold.Chemscore.DEInternal>
2.9467

> <Gold.Chemscore.Rot>
1.4658

> <Gold.Chemscore.Internal.Correction>
   9.000000E+99

> <Gold.Chemscore.Hbonds>
donor molecule, donor type, donor heavy atom, donor atom, acceptor molecule, acceptor atom, score
      L1  H     5    26       P1  7957  0.84
      L1  H     8    27       P1  7957  0.45
      L1  H    12    49       P1  7948  1.00

> <Gold.Chemscore.Hbond.Weighted>
-9.5672

> <Gold.Chemscore.Metal.Weighted>
-0.0000

> <Gold.Chemscore.Lipo.Weighted>
-9.0140

> <Gold.Chemscore.Internal_Hbond.Weighted>
0.0000

> <Gold.Chemscore.DEClash.Weighted>
0.1259

> <Gold.Chemscore.DEInternal.Weighted>
2.9467

> <Gold.Chemscore.Rot.Weighted>
3.7526

> <Gold.Chemscore.Internal.Correction.Weighted>
   9.000000E+99

> <Gold.Protein.RotatedTorsions>
[ 6907 6896 6895 6894 ] final  144.14 input  -60.11 | X-H torsion
[ 7974 7965 7964 7962 ] final   84.27 input  175.53 | X-H torsion
[ 8008 7997 7996 7995 ] final  -15.30 input   59.86 | X-H torsion
[ 10167 10162 10161 10158 ] final  177.03 input  -65.29 | X-H torsion
[ 10718 10713 10712 10709 ] final  -21.37 input   66.30 | X-H torsion
[ 10763 10752 10751 10750 ] final   23.18 input  -60.55 | X-H torsion
[ 11005 11000 10999 10996 ] final -174.32 input  -57.11 | X-H torsion

> <Gold.Protein.ActiveResidues>
 VAL166  LYS551  ARG553  GLY616  TRP617  ASP618  TYR619  PRO620  LYS621  CYS622 
 ASP623  PHE694  ASN695  SER759  ASP760  ASP761  ALA762  ILE779  LEU786  VAL792 
 PHE793  MET794  SER795  GLU796  ALA797  LYS798  CYS799  TRP800  GLU811  SER814 

> <Gold.Protein.RotatedAtoms>
  152.1974  133.4816  159.5039 H   0  0  0  0  0  0  0  0  0  0  0  0  # atno 6907 bound_to 6896
  150.6963  134.1635  159.4194 H   0  0  0  0  0  0  0  0  0  0  0  0  # atno 6908 bound_to 6896
  151.9551  135.0150  160.0595 H   0  0  0  0  0  0  0  0  0  0  0  0  # atno 6909 bound_to 6896
  145.6009  139.2352  143.2246 H   0  0  0  0  0  0  0  0  0  0  0  0  # atno 7974 bound_to 7965
  154.5141  140.2200  155.9100 H   0  0  0  0  0  0  0  0  0  0  0  0  # atno 8008 bound_to 7997
  156.1587  140.3147  155.8735 H   0  0  0  0  0  0  0  0  0  0  0  0  # atno 8009 bound_to 7997
  155.3796  140.0471  157.3034 H   0  0  0  0  0  0  0  0  0  0  0  0  # atno 8010 bound_to 7997
  139.5237  144.2846  152.0517 H   0  0  0  0  0  0  0  0  0  0  0  0  # atno 10167 bound_to 10162
  156.5190  130.4628  149.6607 H   0  0  0  0  0  0  0  0  0  0  0  0  # atno 10718 bound_to 10713
  153.0858  135.6632  153.9953 H   0  0  0  0  0  0  0  0  0  0  0  0  # atno 10763 bound_to 10752
  153.9562  135.2979  155.3437 H   0  0  0  0  0  0  0  0  0  0  0  0  # atno 10764 bound_to 10752
  154.7265  135.5141  153.8967 H   0  0  0  0  0  0  0  0  0  0  0  0  # atno 10765 bound_to 10752
  140.4758  134.6122  157.4900 H   0  0  0  0  0  0  0  0  0  0  0  0  # atno 11005 bound_to 11000
  146.1577  140.6834  142.9292 LP  0  0  0  0  0  0  0  0  0  0  0  0  # atno 17320 bound_to 7965
  144.7310  140.4672  143.6938 LP  0  0  0  0  0  0  0  0  0  0  0  0  # atno 17321 bound_to 7965
  140.2300  144.4378  150.6304 LP  0  0  0  0  0  0  0  0  0  0  0  0  # atno 17342 bound_to 10162
  140.6361  143.2195  151.6391 LP  0  0  0  0  0  0  0  0  0  0  0  0  # atno 17343 bound_to 10162
  156.3167  130.7258  151.2162 LP  0  0  0  0  0  0  0  0  0  0  0  0  # atno 17370 bound_to 10713
  157.7439  131.0466  150.4905 LP  0  0  0  0  0  0  0  0  0  0  0  0  # atno 17371 bound_to 10713
  139.9857  134.7066  155.9779 LP  0  0  0  0  0  0  0  0  0  0  0  0  # atno 17394 bound_to 11000
  141.1555  133.6543  156.4147 LP  0  0  0  0  0  0  0  0  0  0  0  0  # atno 17395 bound_to 11000

$$$$
