#       Name:                AV-unprocessed.smi:767
#       Creating user name   scv26
#       Creation time:       Fri Mar 27 01:08:15 2020


#       File generated by GOLD software.
#

@<TRIPOS>MOLECULE
AV-unprocessed.smi:767
    52    54     1
SMALL
NO_CHARGES


@<TRIPOS>ATOM
      1 ****        -1.2618   3.4601   3.3014 C.3            1 S1                 0.0000
      2 ****        -1.9623   2.4039   2.4729 C.ar           1 S1                 0.0000
      3 ****        -2.6826   1.3442   3.0642 C.ar           1 S1                 0.0000
      4 ****        -3.3096   0.3901   2.2361 C.ar           1 S1                 0.0000
      5 ****        -3.2006   0.5127   0.8335 C.ar           1 S1                 0.0000
      6 ****        -3.8517  -0.5051  -0.0881 C.3            1 S1                 0.0000
      7 ****        -3.2053  -1.9062  -0.0331 C.3            1 S1                 0.0000
      8 ****        -1.7455  -1.8833  -0.0855 N.am           1 S1                 0.0000
      9 ****        -1.0125  -1.4863  -1.1347 C.2            1 S1                 0.0000
     10 ****        -1.4874  -1.0782  -2.1943 O.2            1 S1                 0.0000
     11 ****         0.3000  -1.5619  -0.8807 N.am           1 S1                 0.0000
     12 ****         1.3485  -1.1390  -1.8146 C.3            1 S1                 0.0000
     13 ****         2.7401  -1.6293  -1.4065 C.3            1 S1                 0.0000
     14 ****         3.2777  -2.6777  -0.5011 C.3            1 S1                 0.0000
     15 ****         4.4321  -1.8345   0.1059 C.3            1 S1                 0.0000
     16 ****         4.2040  -0.4697  -0.3318 O.3            1 S1                 0.0000
     17 ****         2.8047  -0.4024  -0.5206 C.3            1 S1                 0.0000
     18 ****         1.9255   0.3123  -1.5712 C.3            1 S1                 0.0000
     19 ****         2.6467   0.9895  -2.7504 C.3            1 S1                 0.0000
     20 ****         0.9603   1.3635  -1.0118 C.3            1 S1                 0.0000
     21 ****        -2.4690   1.5951   0.2987 C.ar           1 S1                 0.0000
     22 ****        -1.8832   2.4880   1.1259 N.pl3          1 S1                 1.0000
     23 ****        -1.8030   3.6413   4.2306 H              1 S1                 0.0000
     24 ****        -1.1957   4.4039   2.7590 H              1 S1                 0.0000
     25 ****        -0.2516   3.1346   3.5508 H              1 S1                 0.0000
     26 ****        -2.7541   1.2617   4.1391 H              1 S1                 0.0000
     27 ****        -3.8627  -0.4281   2.6736 H              1 S1                 0.0000
     28 ****        -4.9105  -0.5798   0.1624 H              1 S1                 0.0000
     29 ****        -3.8159  -0.1275  -1.1108 H              1 S1                 0.0000
     30 ****        -3.4794  -2.3899   0.9047 H              1 S1                 0.0000
     31 ****        -3.5991  -2.5386  -0.8301 H              1 S1                 0.0000
     32 ****        -1.2575  -2.2001   0.7397 H              1 S1                 0.0000
     33 ****         0.5987  -1.9149   0.0166 H              1 S1                 0.0000
     34 ****         1.1198  -1.3447  -2.8618 H              1 S1                 0.0000
     35 ****         3.3955  -1.5564  -2.2779 H              1 S1                 0.0000
     36 ****         2.5529  -2.9840   0.2544 H              1 S1                 0.0000
     37 ****         3.6356  -3.5587  -1.0343 H              1 S1                 0.0000
     38 ****         4.4233  -1.8921   1.1952 H              1 S1                 0.0000
     39 ****         5.4089  -2.1706  -0.2429 H              1 S1                 0.0000
     40 ****         2.2874  -0.5161   0.4377 H              1 S1                 0.0000
     41 ****         3.2427   1.8383  -2.4139 H              1 S1                 0.0000
     42 ****         1.9340   1.3639  -3.4858 H              1 S1                 0.0000
     43 ****         3.3230   0.3259  -3.2862 H              1 S1                 0.0000
     44 ****         1.4697   2.3028  -0.7935 H              1 S1                 0.0000
     45 ****         0.4971   1.0365  -0.0810 H              1 S1                 0.0000
     46 ****         0.1564   1.5796  -1.7162 H              1 S1                 0.0000
     47 ****        -2.3279   1.7680  -0.7583 H              1 S1                 0.0000
     48 ****        -1.3572   3.2598   0.7152 H              1 S1                 0.0000
     49 ****        -2.4792  -1.0277  -2.3111 LP             1 S1                 0.0000
     50 ****        -0.8813  -0.7972  -2.9384 LP             1 S1                 0.0000
     51 ****         4.6877  -0.2849  -1.1873 LP             1 S1                 0.0000
     52 ****         4.5006   0.1820   0.3662 LP             1 S1                 0.0000
@<TRIPOS>BOND
    1    1    2 1     
    2    1   23 1     
    3    1   24 1     
    4    1   25 1     
    5    2   22 ar    
    6    2    3 ar    
    7    3    4 ar    
    8    3   26 1     
    9    4    5 ar    
   10    4   27 1     
   11    5    6 1     
   12    5   21 ar    
   13    6    7 1     
   14    6   28 1     
   15    6   29 1     
   16    7    8 1     
   17    7   30 1     
   18    7   31 1     
   19    8    9 am    
   20    8   32 1     
   21    9   10 2     
   22    9   11 am    
   23   11   12 1     
   24   11   33 1     
   25   12   18 1     
   26   12   13 1     
   27   12   34 1     
   28   13   17 1     
   29   13   14 1     
   30   13   35 1     
   31   14   15 1     
   32   14   36 1     
   33   14   37 1     
   34   15   16 1     
   35   15   38 1     
   36   15   39 1     
   37   16   17 1     
   38   17   18 1     
   39   17   40 1     
   40   18   19 1     
   41   18   20 1     
   42   19   41 1     
   43   19   42 1     
   44   19   43 1     
   45   20   44 1     
   46   20   45 1     
   47   20   46 1     
   48   21   22 ar    
   49   21   47 1     
   50   22   48 1     
   51   10   49 1     
   52   10   50 1     
   53   16   51 1     
   54   16   52 1     
@<TRIPOS>SUBSTRUCTURE
      1 S1             1
@<TRIPOS>SET
LONE_PAIRS      STATIC     ATOMS    <user>   **** ""
4 49 50 51 52
DONOR_HYDROGENS      STATIC     ATOMS    <user>   **** ""
3 32 33 48
ATOM$BLUE        STATIC     ATOMS    COLORGROUP SYSTEM
4 49 50 51 52
ATOM$RED        STATIC     ATOMS    COLORGROUP SYSTEM
3 32 33 48
