#       Name:                AV-unprocessed.smi:2244
#       Creating user name   scv26
#       Creation time:       Fri Mar 27 12:28:02 2020


#       File generated by GOLD software.
#

@<TRIPOS>MOLECULE
AV-unprocessed.smi:2244
    55    57     1
SMALL
NO_CHARGES


@<TRIPOS>ATOM
      1 ****         1.1253  -8.9273   1.2896 C.3            1 S1                 0.0000
      2 ****         2.4068  -8.1187   0.9847 C.3            1 S1                 0.0000
      3 ****         3.3796  -8.3321   2.1632 C.3            1 S1                 0.0000
      4 ****         3.0181  -8.6896  -0.3116 C.3            1 S1                 0.0000
      5 ****         2.1250  -6.6159   0.8070 C.ar           1 S1                 0.0000
      6 ****         0.8315  -6.0548   0.8982 C.ar           1 S1                 0.0000
      7 ****         0.7049  -4.6684   0.7085 C.ar           1 S1                 0.0000
      8 ****         1.8652  -3.9139   0.4420 C.ar           1 S1                 0.0000
      9 ****         1.6414  -2.5194   0.2497 N.am           1 S1                 0.0000
     10 ****         2.4992  -1.4991   0.0353 C.2            1 S1                 0.0000
     11 ****         3.7116  -1.6951  -0.0290 O.2            1 S1                 0.0000
     12 ****         1.9516  -0.2808  -0.1073 N.am           1 S1                 0.0000
     13 ****         2.6845   0.9606  -0.3340 C.3            1 S1                 0.0000
     14 ****         3.0774   1.6084   1.0035 C.3            1 S1                 0.0000
     15 ****         3.6932   2.9976   0.7736 C.3            1 S1                 0.0000
     16 ****         2.7919   3.8158   0.0350 O.3            1 S1                 0.0000
     17 ****         2.5107   3.3063  -1.2652 C.3            1 S1                 0.0000
     18 ****         1.6441   4.3150  -1.9927 C.3            1 S1                 0.0000
     19 ****         1.6240   4.3679  -3.5026 C.3            1 S1                 0.0000
     20 ****         2.2640   5.4870  -2.7168 C.3            1 S1                 0.0000
     21 ****         1.8159   1.9382  -1.1388 C.3            1 S1                 0.0000
     22 ****         3.0763  -4.5226   0.3680 N.ar           1 S1                 0.0000
     23 ****         3.2052  -5.8401   0.5466 N.ar           1 S1                 0.0000
     24 ****         1.3478  -9.9879   1.4137 H              1 S1                 0.0000
     25 ****         0.3962  -8.8482   0.4822 H              1 S1                 0.0000
     26 ****         0.6466  -8.5929   2.2109 H              1 S1                 0.0000
     27 ****         2.9689  -7.9325   3.0910 H              1 S1                 0.0000
     28 ****         4.3395  -7.8440   1.9918 H              1 S1                 0.0000
     29 ****         3.5829  -9.3915   2.3233 H              1 S1                 0.0000
     30 ****         3.2123  -9.7591  -0.2221 H              1 S1                 0.0000
     31 ****         3.9663  -8.2108  -0.5588 H              1 S1                 0.0000
     32 ****         2.3477  -8.5474  -1.1601 H              1 S1                 0.0000
     33 ****        -0.0494  -6.6437   1.1020 H              1 S1                 0.0000
     34 ****        -0.2662  -4.1980   0.7661 H              1 S1                 0.0000
     35 ****         0.6674  -2.2548   0.2274 H              1 S1                 0.0000
     36 ****         0.9461  -0.2080  -0.0399 H              1 S1                 0.0000
     37 ****         3.5889   0.7552  -0.9099 H              1 S1                 0.0000
     38 ****         2.1966   1.7087   1.6397 H              1 S1                 0.0000
     39 ****         3.7812   0.9731   1.5422 H              1 S1                 0.0000
     40 ****         3.9003   3.4777   1.7301 H              1 S1                 0.0000
     41 ****         4.6447   2.9181   0.2457 H              1 S1                 0.0000
     42 ****         3.4470   3.1943  -1.8158 H              1 S1                 0.0000
     43 ****         0.6944   4.5128  -1.4991 H              1 S1                 0.0000
     44 ****         2.2845   3.6921  -4.0425 H              1 S1                 0.0000
     45 ****         0.6702   4.5721  -3.9846 H              1 S1                 0.0000
     46 ****         1.7370   6.4380  -2.6750 H              1 S1                 0.0000
     47 ****         3.3500   5.5559  -2.7331 H              1 S1                 0.0000
     48 ****         1.6101   1.5288  -2.1287 H              1 S1                 0.0000
     49 ****         0.8501   2.0661  -0.6470 H              1 S1                 0.0000
     50 ****         4.0749  -2.6206   0.0780 LP             1 S1                 0.0000
     51 ****         4.3342  -0.9289  -0.1884 LP             1 S1                 0.0000
     52 ****         3.1941   4.7264  -0.0603 LP             1 S1                 0.0000
     53 ****         1.9333   3.8823   0.5432 LP             1 S1                 0.0000
     54 ****         3.8893  -3.9730   0.1756 LP             1 S1                 0.0000
     55 ****         4.1110  -6.2596   0.4874 LP             1 S1                 0.0000
@<TRIPOS>BOND
    1    1    2 1     
    2    1   24 1     
    3    1   25 1     
    4    1   26 1     
    5    2    3 1     
    6    2    4 1     
    7    2    5 1     
    8    3   27 1     
    9    3   28 1     
   10    3   29 1     
   11    4   30 1     
   12    4   31 1     
   13    4   32 1     
   14    5   23 ar    
   15    5    6 ar    
   16    6    7 ar    
   17    6   33 1     
   18    7    8 ar    
   19    7   34 1     
   20    8    9 1     
   21    8   22 ar    
   22    9   10 am    
   23    9   35 1     
   24   10   11 2     
   25   10   12 am    
   26   12   13 1     
   27   12   36 1     
   28   13   21 1     
   29   13   14 1     
   30   13   37 1     
   31   14   15 1     
   32   14   38 1     
   33   14   39 1     
   34   15   16 1     
   35   15   40 1     
   36   15   41 1     
   37   16   17 1     
   38   17   18 1     
   39   17   21 1     
   40   17   42 1     
   41   18   20 1     
   42   18   19 1     
   43   18   43 1     
   44   19   20 1     
   45   19   44 1     
   46   19   45 1     
   47   20   46 1     
   48   20   47 1     
   49   21   48 1     
   50   21   49 1     
   51   22   23 ar    
   52   11   50 1     
   53   11   51 1     
   54   16   52 1     
   55   16   53 1     
   56   22   54 1     
   57   23   55 1     
@<TRIPOS>SUBSTRUCTURE
      1 S1             1
@<TRIPOS>SET
LONE_PAIRS      STATIC     ATOMS    <user>   **** ""
6 50 51 52 53 54 55
DONOR_HYDROGENS      STATIC     ATOMS    <user>   **** ""
2 35 36
ATOM$BLUE        STATIC     ATOMS    COLORGROUP SYSTEM
6 50 51 52 53 54 55
ATOM$RED        STATIC     ATOMS    COLORGROUP SYSTEM
2 35 36
