AV-unprocessed.smi:1809|AV-procd|sdf|7328|dock8
  -GOLD-   22720 8583D 1   1.00000     0.00000
 Structure written by MMmdl.
 39 41  0  0  0  0  0  0  0  0  3 V2000
  152.3211  143.3921  162.0851 C   0  0  0  0  0  0  0  0  0  0  0  0
  152.3008  142.4086  160.9656 C   0  0  0  0  0  0  0  0  0  0  0  0
  151.2568  142.2705  160.1448 N   0  0  0  0  0  0  0  0  0  0  0  0
  151.4744  141.2954  159.1818 N   0  0  0  0  0  0  0  0  0  0  0  0
  152.6812  140.7198  159.2797 C   0  0  0  0  0  0  0  0  0  0  0  0
  153.0891  139.7525  158.4413 N   0  5  0  0  0  0  0  0  0  0  0  0
  152.1968  139.1472  157.6254 C   0  0  0  0  0  0  0  0  0  0  0  0
  151.0520  138.7978  157.9219 O   0  0  0  0  0  0  0  0  0  0  0  0
  152.6576  138.9345  156.3866 N   0  0  0  0  0  0  0  0  0  0  0  0
  151.9036  138.3047  155.3112 C   0  0  0  0  0  0  0  0  0  0  0  0
  150.9721  139.3186  154.6340 C   0  0  1  0  0  0  0  0  0  0  0  0
  149.6311  138.6716  154.2141 C   0  0  0  0  0  0  0  0  0  0  0  0
  148.7499  139.7301  153.6890 N   0  3  1  0  0  0  0  0  0  0  0  0
  147.4117  139.3501  153.2044 C   0  0  0  0  0  0  0  0  0  0  0  0
  146.5665  140.6341  153.3298 C   0  0  0  0  0  0  0  0  0  0  0  0
  147.4708  141.6625  154.0336 C   0  0  0  0  0  0  0  0  0  0  0  0
  148.5409  140.7887  154.6793 C   0  0  2  0  0  0  0  0  0  0  0  0
  149.8934  141.4259  155.0217 C   0  0  0  0  0  0  0  0  0  0  0  0
  150.7298  140.3948  155.5489 O   0  0  0  0  0  0  0  0  0  0  0  0
  153.6498  141.3408  160.6161 S   0  0  0  0  0  0  0  0  0  0  0  0
  152.4542  144.4003  161.6928 H   0  0  0  0  0  0  0  0  0  0  0  0
  153.1407  143.1709  162.7690 H   0  0  0  0  0  0  0  0  0  0  0  0
  151.3836  143.3507  162.6400 H   0  0  0  0  0  0  0  0  0  0  0  0
  153.5980  139.2370  156.1790 H   0  0  0  0  0  0  0  0  0  0  0  0
  152.6071  137.8989  154.5827 H   0  0  0  0  0  0  0  0  0  0  0  0
  151.3256  137.4665  155.7038 H   0  0  0  0  0  0  0  0  0  0  0  0
  151.4678  139.7181  153.7471 H   0  0  0  0  0  0  0  0  0  0  0  0
  149.7934  137.9140  153.4465 H   0  0  0  0  0  0  0  0  0  0  0  0
  149.1562  138.1795  155.0645 H   0  0  0  0  0  0  0  0  0  0  0  0
  147.4593  138.9783  152.1806 H   0  0  0  0  0  0  0  0  0  0  0  0
  146.9947  138.5625  153.8343 H   0  0  0  0  0  0  0  0  0  0  0  0
  146.2404  141.0018  152.3562 H   0  0  0  0  0  0  0  0  0  0  0  0
  145.6723  140.4363  153.9223 H   0  0  0  0  0  0  0  0  0  0  0  0
  147.9216  142.3268  153.2950 H   0  0  0  0  0  0  0  0  0  0  0  0
  146.9328  142.2767  154.7565 H   0  0  0  0  0  0  0  0  0  0  0  0
  148.1197  140.3439  155.5840 H   0  0  0  0  0  0  0  0  0  0  0  0
  150.3569  141.8819  154.1455 H   0  0  0  0  0  0  0  0  0  0  0  0
  149.7708  142.2076  155.7716 H   0  0  0  0  0  0  0  0  0  0  0  0
  149.2265  140.1593  152.9086 H   0  0  0  0  0  0  0  0  0  0  0  0
  1  2  1  0  0  0  0
  1 21  1  0  0  0  0
  1 22  1  0  0  0  0
  1 23  1  0  0  0  0
  2 20  1  0  0  0  0
  2  3  2  0  0  0  0
  3  4  1  0  0  0  0
  4  5  2  0  0  0  0
  5  6  1  0  0  0  0
  5 20  1  0  0  0  0
  6  7  1  0  0  0  0
  7  8  2  0  0  0  0
  7  9  1  0  0  0  0
  9 10  1  0  0  0  0
  9 24  1  0  0  0  0
 10 11  1  0  0  0  0
 10 25  1  0  0  0  0
 10 26  1  0  0  0  0
 11 19  1  0  0  0  0
 11 12  1  0  0  0  0
 11 27  1  0  0  0  0
 12 13  1  0  0  0  0
 12 28  1  0  0  0  0
 12 29  1  0  0  0  0
 13 17  1  0  0  0  0
 13 14  1  0  0  0  0
 13 39  1  0  0  0  0
 14 15  1  0  0  0  0
 14 30  1  0  0  0  0
 14 31  1  0  0  0  0
 15 16  1  0  0  0  0
 15 32  1  0  0  0  0
 15 33  1  0  0  0  0
 16 17  1  0  0  0  0
 16 34  1  0  0  0  0
 16 35  1  0  0  0  0
 17 18  1  0  0  0  0
 17 36  1  0  0  0  0
 18 19  1  0  0  0  0
 18 37  1  0  0  0  0
 18 38  1  0  0  0  0
M  CHG  1   6  -1
M  CHG  1  13   1
M  END
> <s_m_source_file>
AV-unprocessed.smi

> <i_m_source_file_index>
1809

> <i_lp_mmshare_version>
43012

> <i_f3d_flags>
0

> <s_epik_input>
W0NIM11jMW5uYyhzMSlbTkhdQyg9TylbTkhdW0NIMl1bQ0BIXShbQ0gyXTIpT1tDSDJdW0NAQEhdKE4yMylbQ0gyXVtDSDJdW0NIMl0z

> <s_epik_cmdline>
J2VwaWtfcHl0aG9uJywgJy1waCcsICc3LjAnLCAnLXRuJywgJzgnLCAnLW1hJywgJzIwMCcsICctbWV0YWxfYmluZGluZycsICctaW1hZScsICc8aW5maWxlLm1hZT4nLCAnLW9tYWUnLCAnPG91dGZpbGUubWFlPic=

> <r_lp_tautomer_probability>
1

> <r_epik_Ionization_Penalty>
3.2601

> <r_epik_Ionization_Penalty_Charging>
3.1406

> <r_epik_Ionization_Penalty_Neutral>
0.119497

> <r_epik_State_Penalty>
3.08894

> <r_epik_Charging_Adjusted_Penalty>
6.22954

> <i_epik_Tot_Q>
0

> <i_epik_Tot_abs_Q>
2

> <r_epik_Metal_State_Penalty>
0.510807

> <b_epik_Metal_Only>
1

> <s_lp_Force_Field>
OPLS_2005

> <r_lp_Energy>
29.8237

> <b_lp_Chiralities_Consistent>
1

> <s_lp_Variant>
AV-unprocessed.smi:1809-20

> <Gold.Version>
5.8.1

> <Gold.Id.Protein>
6NUR|6NUR_protein|mol2

> <Gold.PLP.Fitness>
43.5957

> <Gold.PLP.PLP>
-36.6252

> <Gold.PLP.part.hbond>
-3.5997

> <Gold.PLP.part.metal>
0.0000

> <Gold.PLP.part.buried>
-1.4831

> <Gold.PLP.part.nonpolar>
-32.1706

> <Gold.PLP.part.repulsive>
1.0330

> <Gold.PLP.ligand.clash>
0.0000

> <Gold.PLP.ligand.torsion>
1.0308

> <Gold.PLP.Chemscore.Hbond>
3.0000

> <Gold.PLP.Chemscore.CHOScore>
0.0000

> <Gold.PLP.Chemscore.Metal>
0.0000

> <Gold.Chemscore.Hbonds>
donor molecule, donor type, donor heavy atom, donor atom, acceptor molecule, acceptor atom, score
      L1  H    13    39       P1  7957  0.91
      P1  H  7997  8009       L1     6  1.53

> <Gold.PLP.Chemscore.Internal.Correction>
0.0321

> <Gold.Rescore>
     Score         DG    S(hbond)    S(metal)    S(lipo)     H(rot)  DE(clash)    DE(int)     intcor
     13.79     -18.05       1.72        0.00      87.21       1.32       0.69       3.58       ----

> <Gold.Chemscore.Fitness>
13.7867

> <Gold.Chemscore.DG>
-18.0498

> <Gold.Chemscore.ZeroCoef>
-5.4800

> <Gold.Chemscore.Hbond>
1.7237

> <Gold.Chemscore.Metal>
0.0000

> <Gold.Chemscore.Lipo>
87.2112

> <Gold.Chemscore.Internal_Hbond>
0.0000

> <Gold.Chemscore.DEClash>
0.6872

> <Gold.Chemscore.DEInternal>
3.5759

> <Gold.Chemscore.Rot>
1.3246

> <Gold.Chemscore.Internal.Correction>
   9.000000E+99

> <Gold.Chemscore.Hbonds>
donor molecule, donor type, donor heavy atom, donor atom, acceptor molecule, acceptor atom, score
      L1  H    13    39       P1  7957  0.90
      P1  H  7997  8009       L1     6  0.32

> <Gold.Chemscore.Hbond.Weighted>
-5.7570

> <Gold.Chemscore.Metal.Weighted>
-0.0000

> <Gold.Chemscore.Lipo.Weighted>
-10.2037

> <Gold.Chemscore.Internal_Hbond.Weighted>
0.0000

> <Gold.Chemscore.DEClash.Weighted>
0.6872

> <Gold.Chemscore.DEInternal.Weighted>
3.5759

> <Gold.Chemscore.Rot.Weighted>
3.3910

> <Gold.Chemscore.Internal.Correction.Weighted>
   9.000000E+99

> <Gold.Protein.RotatedTorsions>
[ 6907 6896 6895 6894 ] final -131.84 input  -60.11 | X-H torsion
[ 7974 7965 7964 7962 ] final  100.55 input  175.53 | X-H torsion
[ 8008 7997 7996 7995 ] final  138.58 input   59.86 | X-H torsion
[ 10167 10162 10161 10158 ] final -161.01 input  -65.29 | X-H torsion
[ 10718 10713 10712 10709 ] final -101.99 input   66.30 | X-H torsion
[ 10763 10752 10751 10750 ] final  -37.13 input  -60.55 | X-H torsion
[ 11005 11000 10999 10996 ] final  152.84 input  -57.11 | X-H torsion

> <Gold.Protein.ActiveResidues>
 VAL166  LYS551  ARG553  GLY616  TRP617  ASP618  TYR619  PRO620  LYS621  CYS622 
 ASP623  PHE694  ASN695  SER759  ASP760  ASP761  ALA762  ILE779  LEU786  VAL792 
 PHE793  MET794  SER795  GLU796  ALA797  LYS798  CYS799  TRP800  GLU811  SER814 

> <Gold.Protein.RotatedAtoms>
  150.9555  133.6502  159.2763 H   0  0  0  0  0  0  0  0  0  0  0  0  # atno 6907 bound_to 6896
  151.3843  135.0944  159.9516 H   0  0  0  0  0  0  0  0  0  0  0  0  # atno 6908 bound_to 6896
  152.5127  133.9083  159.7530 H   0  0  0  0  0  0  0  0  0  0  0  0  # atno 6909 bound_to 6896
  145.3841  139.2374  143.3387 H   0  0  0  0  0  0  0  0  0  0  0  0  # atno 7974 bound_to 7965
  156.2996  140.2390  156.4097 H   0  0  0  0  0  0  0  0  0  0  0  0  # atno 8008 bound_to 7997
  154.8452  140.0426  157.1588 H   0  0  0  0  0  0  0  0  0  0  0  0  # atno 8009 bound_to 7997
  154.9059  140.2983  155.5296 H   0  0  0  0  0  0  0  0  0  0  0  0  # atno 8010 bound_to 7997
  139.6496  144.0108  152.2152 H   0  0  0  0  0  0  0  0  0  0  0  0  # atno 10167 bound_to 10162
  156.0213  130.5399  150.7044 H   0  0  0  0  0  0  0  0  0  0  0  0  # atno 10718 bound_to 10713
  153.8913  135.6812  153.4760 H   0  0  0  0  0  0  0  0  0  0  0  0  # atno 10763 bound_to 10752
  153.1180  135.4753  154.9145 H   0  0  0  0  0  0  0  0  0  0  0  0  # atno 10764 bound_to 10752
  154.7621  135.3213  154.8311 H   0  0  0  0  0  0  0  0  0  0  0  0  # atno 10765 bound_to 10752
  140.1344  134.8780  157.2247 H   0  0  0  0  0  0  0  0  0  0  0  0  # atno 11005 bound_to 11000
  146.2828  140.4513  142.8769 LP  0  0  0  0  0  0  0  0  0  0  0  0  # atno 17320 bound_to 7965
  144.8486  140.6968  143.6182 LP  0  0  0  0  0  0  0  0  0  0  0  0  # atno 17321 bound_to 7965
  139.9818  144.6423  150.7893 LP  0  0  0  0  0  0  0  0  0  0  0  0  # atno 17342 bound_to 10162
  140.7531  143.3003  151.3098 LP  0  0  0  0  0  0  0  0  0  0  0  0  # atno 17343 bound_to 10162
  157.4697  131.0892  151.0656 LP  0  0  0  0  0  0  0  0  0  0  0  0  # atno 17370 bound_to 10713
  157.1120  130.6025  149.5484 LP  0  0  0  0  0  0  0  0  0  0  0  0  # atno 17371 bound_to 10713
  140.2801  134.3360  155.7346 LP  0  0  0  0  0  0  0  0  0  0  0  0  # atno 17394 bound_to 11000
  141.2176  133.7473  156.9351 LP  0  0  0  0  0  0  0  0  0  0  0  0  # atno 17395 bound_to 11000

$$$$
