AV-unprocessed.smi:157|AV-procd|sdf|1314|dock5
  -GOLD-   2262019 03D 1   1.00000     0.00000
 Structure written by MMmdl.
 36 38  0  0  0  0  0  0  0  0  2 V2000
  149.0949  136.5776  154.5590 O   0  0  0  0  0  0  0  0  0  0  0  0
  149.4155  137.7813  155.2245 C   0  0  0  0  0  0  0  0  0  0  0  0
  150.7406  137.6424  156.0008 C   0  0  2  0  0  0  0  0  0  0  0  0
  150.7907  138.7260  156.9326 O   0  0  0  0  0  0  0  0  0  0  0  0
  151.9084  139.5234  156.6899 C   0  0  2  0  0  0  0  0  0  0  0  0
  151.5176  140.9542  156.8617 N   0  0  0  0  0  0  0  0  0  0  0  0
  150.6295  141.6319  156.1046 C   0  0  0  0  0  0  0  0  0  0  0  0
  150.4616  142.8944  156.4599 N   0  3  0  0  0  0  0  0  0  0  0  0
  151.2942  143.1108  157.5375 C   0  0  0  0  0  0  0  0  0  0  0  0
  151.9350  141.8924  157.7777 C   0  0  0  0  0  0  0  0  0  0  0  0
  152.8819  141.5532  158.7563 N   0  0  0  0  0  0  0  0  0  0  0  0
  153.0985  142.2768  159.8064 C   0  0  0  0  0  0  0  0  0  0  0  0
  152.5640  143.5093  160.1432 N   0  0  0  0  0  0  0  0  0  0  0  0
  152.4808  144.6178  159.2088 C   0  0  0  0  0  0  0  0  0  0  0  0
  151.3618  144.4657  158.1699 C   0  0  2  0  0  0  0  0  0  0  0  0
  150.1390  144.8474  158.7654 O   0  0  0  0  0  0  0  0  0  0  0  0
  152.3332  139.2508  155.2540 C   0  0  0  0  0  0  0  0  0  0  0  0
  152.0310  137.7719  155.1651 C   0  0  2  0  0  0  0  0  0  0  0  0
  151.9190  137.3516  153.8206 O   0  0  0  0  0  0  0  0  0  0  0  0
  150.7413  136.7054  156.5593 H   0  0  0  0  0  0  0  0  0  0  0  0
  152.6879  139.3221  157.4256 H   0  0  0  0  0  0  0  0  0  0  0  0
  151.5483  145.1910  157.3769 H   0  0  0  0  0  0  0  0  0  0  0  0
  152.8328  137.2101  155.6469 H   0  0  0  0  0  0  0  0  0  0  0  0
  149.1296  136.7302  153.6268 H   0  0  0  0  0  0  0  0  0  0  0  0
  149.4531  138.6071  154.5136 H   0  0  0  0  0  0  0  0  0  0  0  0
  148.6015  137.9949  155.9180 H   0  0  0  0  0  0  0  0  0  0  0  0
  150.1073  141.1778  155.2814 H   0  0  0  0  0  0  0  0  0  0  0  0
  153.7976  141.9144  160.5615 H   0  0  0  0  0  0  0  0  0  0  0  0
  152.6610  143.8350  161.0946 H   0  0  0  0  0  0  0  0  0  0  0  0
  152.3750  145.5540  159.7579 H   0  0  0  0  0  0  0  0  0  0  0  0
  153.4388  144.6786  158.6899 H   0  0  0  0  0  0  0  0  0  0  0  0
  149.5472  145.1366  158.0881 H   0  0  0  0  0  0  0  0  0  0  0  0
  151.7093  139.8230  154.5651 H   0  0  0  0  0  0  0  0  0  0  0  0
  153.3815  139.5036  155.0925 H   0  0  0  0  0  0  0  0  0  0  0  0
  151.5981  138.0765  153.3052 H   0  0  0  0  0  0  0  0  0  0  0  0
  149.8477  143.5669  156.0178 H   0  0  0  0  0  0  0  0  0  0  0  0
  1  2  1  0  0  0  0
  1 24  1  0  0  0  0
  2  3  1  0  0  0  0
  2 25  1  0  0  0  0
  2 26  1  0  0  0  0
  3 20  1  0  0  0  0
  3 18  1  0  0  0  0
  3  4  1  0  0  0  0
  4  5  1  0  0  0  0
  5 21  1  0  0  0  0
  5  6  1  0  0  0  0
  5 17  1  0  0  0  0
  6 10  1  0  0  0  0
  6  7  1  0  0  0  0
  7  8  2  0  0  0  0
  7 27  1  0  0  0  0
  8  9  1  0  0  0  0
  8 36  1  0  0  0  0
  9 15  1  0  0  0  0
  9 10  2  0  0  0  0
 10 11  1  0  0  0  0
 11 12  2  0  0  0  0
 12 13  1  0  0  0  0
 12 28  1  0  0  0  0
 13 14  1  0  0  0  0
 13 29  1  0  0  0  0
 14 15  1  0  0  0  0
 14 30  1  0  0  0  0
 14 31  1  0  0  0  0
 15 22  1  0  0  0  0
 15 16  1  0  0  0  0
 16 32  1  0  0  0  0
 17 18  1  0  0  0  0
 17 33  1  0  0  0  0
 17 34  1  0  0  0  0
 18 23  1  0  0  0  0
 18 19  1  0  0  0  0
 19 35  1  0  0  0  0
M  CHG  1   8   1
M  END
> <s_m_source_file>
AV-unprocessed.smi

> <i_m_source_file_index>
157

> <i_lp_mmshare_version>
43012

> <i_f3d_flags>
0

> <s_epik_input>
W09IXVtDSDJdW0NASF0xT1tDQEhdKFtDSDJdW0NAQEhdMVtPSF0pbihbY0hdbjIpYyhjMjMpTj1bQ0hdW05IXVtDSDJdW0NASF0zW09IXQ==

> <s_epik_cmdline>
J2VwaWtfcHl0aG9uJywgJy1waCcsICc3LjAnLCAnLXRuJywgJzgnLCAnLW1hJywgJzIwMCcsICctbWV0YWxfYmluZGluZycsICctaW1hZScsICc8aW5maWxlLm1hZT4nLCAnLW9tYWUnLCAnPG91dGZpbGUubWFlPic=

> <r_epik_Ionization_Penalty>
1.68594

> <r_epik_Ionization_Penalty_Charging>
0

> <r_epik_Ionization_Penalty_Neutral>
1.68594

> <r_epik_State_Penalty>
1.79006

> <r_epik_Charging_Adjusted_Penalty>
1.79006

> <i_epik_Tot_Q>
1

> <i_epik_Tot_abs_Q>
1

> <r_epik_Metal_State_Penalty>
5.85324

> <b_epik_Metal_Only>
0

> <s_epik_Chemistry_Notes>
This compound has an imine and may undergo hydrolysis. This compound contains an acetal/aminal-like group ( X-CH(R)-Y where X, Y are N, S, or O) that may be acid/base labile, releasing an aldehyde.

> <s_lp_Force_Field>
OPLS_2005

> <r_lp_Energy>
55.0394

> <b_lp_Chiralities_Consistent>
1

> <s_lp_Variant>
AV-unprocessed.smi:157-24

> <Gold.Version>
5.8.1

> <Gold.Id.Protein>
6NUR|6NUR_protein|mol2

> <Gold.PLP.Fitness>
51.8926

> <Gold.PLP.PLP>
-37.3562

> <Gold.PLP.part.hbond>
-5.1478

> <Gold.PLP.part.metal>
0.0000

> <Gold.PLP.part.buried>
-6.3545

> <Gold.PLP.part.nonpolar>
-26.2739

> <Gold.PLP.part.repulsive>
0.1297

> <Gold.PLP.ligand.clash>
0.0000

> <Gold.PLP.ligand.torsion>
0.2390

> <Gold.PLP.Chemscore.Hbond>
5.0000

> <Gold.PLP.Chemscore.CHOScore>
0.0000

> <Gold.PLP.Chemscore.Metal>
0.0000

> <Gold.Chemscore.Hbonds>
donor molecule, donor type, donor heavy atom, donor atom, acceptor molecule, acceptor atom, score
      L1  H     1    24       P1  7948  1.00
      L1  H     8    36       P1  8028  2.00
      L1  H    16    32       P1  8029  1.00
      P1  H 10752 10763       L1    19  0.95

> <Gold.PLP.Chemscore.Internal.Correction>
0.0143

> <Gold.Rescore>
     Score         DG    S(hbond)    S(metal)    S(lipo)     H(rot)  DE(clash)    DE(int)     intcor
     13.43     -13.60       3.40        0.00      52.45       3.67       0.00       0.17       ----

> <Gold.Chemscore.Fitness>
13.4328

> <Gold.Chemscore.DG>
-13.6032

> <Gold.Chemscore.ZeroCoef>
-5.4800

> <Gold.Chemscore.Hbond>
3.4046

> <Gold.Chemscore.Metal>
0.0000

> <Gold.Chemscore.Lipo>
52.4506

> <Gold.Chemscore.Internal_Hbond>
0.0000

> <Gold.Chemscore.DEClash>
0.0000

> <Gold.Chemscore.DEInternal>
0.1703

> <Gold.Chemscore.Rot>
3.6659

> <Gold.Chemscore.Internal.Correction>
   9.000000E+99

> <Gold.Chemscore.Hbonds>
donor molecule, donor type, donor heavy atom, donor atom, acceptor molecule, acceptor atom, score
      L1  H     1    24       P1  7948  0.97
      L1  H     8    36       P1  8028  0.94
      L1  H    16    32       P1  8029  0.25
      P1  H 10752 10763       L1    19  0.20

> <Gold.Chemscore.Hbond.Weighted>
-11.3712

> <Gold.Chemscore.Metal.Weighted>
-0.0000

> <Gold.Chemscore.Lipo.Weighted>
-6.1367

> <Gold.Chemscore.Internal_Hbond.Weighted>
0.0000

> <Gold.Chemscore.DEClash.Weighted>
0.0000

> <Gold.Chemscore.DEInternal.Weighted>
0.1703

> <Gold.Chemscore.Rot.Weighted>
9.3848

> <Gold.Chemscore.Internal.Correction.Weighted>
   9.000000E+99

> <Gold.Protein.RotatedTorsions>
[ 6907 6896 6895 6894 ] final -164.00 input  -60.11 | X-H torsion
[ 7974 7965 7964 7962 ] final   -9.45 input  175.53 | X-H torsion
[ 8008 7997 7996 7995 ] final  -57.91 input   59.86 | X-H torsion
[ 10167 10162 10161 10158 ] final   92.18 input  -65.29 | X-H torsion
[ 10718 10713 10712 10709 ] final   -3.99 input   66.30 | X-H torsion
[ 10763 10752 10751 10750 ] final   17.99 input  -60.55 | X-H torsion
[ 11005 11000 10999 10996 ] final   49.48 input  -57.11 | X-H torsion

> <Gold.Protein.ActiveResidues>
 VAL166  LYS551  ARG553  GLY616  TRP617  ASP618  TYR619  PRO620  LYS621  CYS622 
 ASP623  PHE694  ASN695  SER759  ASP760  ASP761  ALA762  ILE779  LEU786  VAL792 
 PHE793  MET794  SER795  GLU796  ALA797  LYS798  CYS799  TRP800  GLU811  SER814 

> <Gold.Protein.RotatedAtoms>
  151.4049  133.3745  159.2736 H   0  0  0  0  0  0  0  0  0  0  0  0  # atno 6907 bound_to 6896
  150.9406  134.8816  159.7620 H   0  0  0  0  0  0  0  0  0  0  0  0  # atno 6908 bound_to 6896
  152.5069  134.3999  159.9465 H   0  0  0  0  0  0  0  0  0  0  0  0  # atno 6909 bound_to 6896
  146.2251  140.2619  142.8352 H   0  0  0  0  0  0  0  0  0  0  0  0  # atno 7974 bound_to 7965
  154.4287  140.1096  156.5873 H   0  0  0  0  0  0  0  0  0  0  0  0  # atno 8008 bound_to 7997
  155.6049  140.3493  155.4586 H   0  0  0  0  0  0  0  0  0  0  0  0  # atno 8009 bound_to 7997
  156.0145  140.1226  157.0410 H   0  0  0  0  0  0  0  0  0  0  0  0  # atno 8010 bound_to 7997
  139.8301  144.6691  150.9410 H   0  0  0  0  0  0  0  0  0  0  0  0  # atno 10167 bound_to 10162
  156.7679  130.5290  149.5773 H   0  0  0  0  0  0  0  0  0  0  0  0  # atno 10718 bound_to 10713
  153.1289  135.6736  153.9211 H   0  0  0  0  0  0  0  0  0  0  0  0  # atno 10763 bound_to 10752
  153.8704  135.3070  155.3443 H   0  0  0  0  0  0  0  0  0  0  0  0  # atno 10764 bound_to 10752
  154.7689  135.4949  153.9691 H   0  0  0  0  0  0  0  0  0  0  0  0  # atno 10765 bound_to 10752
  140.1099  134.4968  155.8686 H   0  0  0  0  0  0  0  0  0  0  0  0  # atno 11005 bound_to 11000
  144.9333  140.7999  143.5675 LP  0  0  0  0  0  0  0  0  0  0  0  0  # atno 17320 bound_to 7965
  145.2564  139.2010  143.4915 LP  0  0  0  0  0  0  0  0  0  0  0  0  # atno 17321 bound_to 7965
  140.7807  143.4008  151.1151 LP  0  0  0  0  0  0  0  0  0  0  0  0  # atno 17342 bound_to 10162
  139.7663  143.8561  152.3111 LP  0  0  0  0  0  0  0  0  0  0  0  0  # atno 17343 bound_to 10162
  156.1297  130.6169  151.0315 LP  0  0  0  0  0  0  0  0  0  0  0  0  # atno 17370 bound_to 10713
  157.6705  131.0862  150.7625 LP  0  0  0  0  0  0  0  0  0  0  0  0  # atno 17371 bound_to 10713
  141.2128  133.6724  156.6685 LP  0  0  0  0  0  0  0  0  0  0  0  0  # atno 17394 bound_to 11000
  140.3104  134.8090  157.4172 LP  0  0  0  0  0  0  0  0  0  0  0  0  # atno 17395 bound_to 11000

$$$$
