#       Name:                AV-unprocessed.smi:2539
#       Creating user name   scv26
#       Creation time:       Fri Mar 27 14:03:40 2020


#       File generated by GOLD software.
#

@<TRIPOS>MOLECULE
AV-unprocessed.smi:2539
    45    46     1
SMALL
NO_CHARGES


@<TRIPOS>ATOM
      1 ****        -2.0319   1.3183   0.4539 O.2            1 S1                 0.0000
      2 ****        -1.4025   0.5201   1.1500 C.2            1 S1                 0.0000
      3 ****        -1.8305  -0.7370   1.3629 N.am           1 S1                 0.0000
      4 ****        -3.0118  -1.3518   0.7623 C.3            1 S1                 0.0000
      5 ****        -2.6671  -2.1613  -0.5037 C.3            1 S1                 0.0000
      6 ****        -1.9666  -1.3454  -1.5769 C.ar           1 S1                 0.0000
      7 ****        -0.5780  -1.4833  -1.7982 C.ar           1 S1                 0.0000
      8 ****         0.0488  -0.6853  -2.7775 C.ar           1 S1                 0.0000
      9 ****        -0.7267   0.2322  -3.5148 C.ar           1 S1                 0.0000
     10 ****        -2.0531   0.3333  -3.2789 N.pl3          1 S1                 1.0000
     11 ****        -2.6910  -0.4134  -2.3514 C.ar           1 S1                 0.0000
     12 ****        -0.2256   0.8273   1.7510 N.am           1 S1                 0.0000
     13 ****         0.6904  -0.1221   2.4017 C.3            1 S1                 0.0000
     14 ****         1.8535  -0.4199   1.4358 C.3            1 S1                 0.0000
     15 ****         2.5852   0.8702   0.9793 C.3            1 S1                 0.0000
     16 ****         3.3073   1.3691   2.0913 O.3            1 S1                 0.0000
     17 ****         3.6140   0.5756  -0.1382 C.3            1 S1                 0.0000
     18 ****         2.9930   0.0952  -1.2162 F              1 S1                 0.0000
     19 ****         4.2593   1.6877  -0.4918 F              1 S1                 0.0000
     20 ****         4.5009  -0.3336   0.2688 F              1 S1                 0.0000
     21 ****         1.5724   1.9646   0.5498 C.3            1 S1                 0.0000
     22 ****         0.4223   2.1294   1.5629 C.3            1 S1                 0.0000
     23 ****        -1.2688  -1.3260   1.9606 H              1 S1                 0.0000
     24 ****        -3.4644  -2.0108   1.5035 H              1 S1                 0.0000
     25 ****        -3.7638  -0.5951   0.5329 H              1 S1                 0.0000
     26 ****        -2.0384  -3.0109  -0.2336 H              1 S1                 0.0000
     27 ****        -3.5791  -2.5839  -0.9267 H              1 S1                 0.0000
     28 ****         0.0048  -2.1834  -1.2177 H              1 S1                 0.0000
     29 ****         1.1100  -0.7734  -2.9585 H              1 S1                 0.0000
     30 ****        -0.3295   0.8833  -4.2799 H              1 S1                 0.0000
     31 ****        -3.7511  -0.2334  -2.2475 H              1 S1                 0.0000
     32 ****         1.0711   0.3188   3.3240 H              1 S1                 0.0000
     33 ****         0.2145  -1.0530   2.7101 H              1 S1                 0.0000
     34 ****         2.5553  -1.1114   1.9030 H              1 S1                 0.0000
     35 ****         1.4538  -0.9395   0.5644 H              1 S1                 0.0000
     36 ****         3.9603   0.7312   2.3363 H              1 S1                 0.0000
     37 ****         2.0811   2.9191   0.4087 H              1 S1                 0.0000
     38 ****         1.1448   1.7047  -0.4193 H              1 S1                 0.0000
     39 ****        -0.2717   2.8982   1.2206 H              1 S1                 0.0000
     40 ****         0.8064   2.4891   2.5184 H              1 S1                 0.0000
     41 ****        -2.5961   1.0052  -3.8219 H              1 S1                 0.0000
     42 ****        -2.8913   1.0389   0.0256 LP             1 S1                 0.0000
     43 ****        -1.6835   2.2456   0.3172 LP             1 S1                 0.0000
     44 ****         2.6829   1.5236   2.8570 LP             1 S1                 0.0000
     45 ****         3.7526   2.2301   1.8454 LP             1 S1                 0.0000
@<TRIPOS>BOND
    1    1    2 2     
    2    2    3 am    
    3    2   12 am    
    4    3    4 1     
    5    3   23 1     
    6    4    5 1     
    7    4   24 1     
    8    4   25 1     
    9    5    6 1     
   10    5   26 1     
   11    5   27 1     
   12    6   11 ar    
   13    6    7 ar    
   14    7    8 ar    
   15    7   28 1     
   16    8    9 ar    
   17    8   29 1     
   18    9   10 ar    
   19    9   30 1     
   20   10   11 ar    
   21   10   41 1     
   22   11   31 1     
   23   12   22 1     
   24   12   13 1     
   25   13   14 1     
   26   13   32 1     
   27   13   33 1     
   28   14   15 1     
   29   14   34 1     
   30   14   35 1     
   31   15   16 1     
   32   15   17 1     
   33   15   21 1     
   34   16   36 1     
   35   17   18 1     
   36   17   19 1     
   37   17   20 1     
   38   21   22 1     
   39   21   37 1     
   40   21   38 1     
   41   22   39 1     
   42   22   40 1     
   43    1   42 1     
   44    1   43 1     
   45   16   44 1     
   46   16   45 1     
@<TRIPOS>SUBSTRUCTURE
      1 S1             1
@<TRIPOS>SET
LONE_PAIRS      STATIC     ATOMS    <user>   **** ""
4 42 43 44 45
DONOR_HYDROGENS      STATIC     ATOMS    <user>   **** ""
3 23 41 36
ATOM$BLUE        STATIC     ATOMS    COLORGROUP SYSTEM
4 42 43 44 45
ATOM$RED        STATIC     ATOMS    COLORGROUP SYSTEM
3 23 41 36
