AV-unprocessed.smi:1313|AV-procd|sdf|5450|dock3
  -GOLD-   22720 5 23D 1   1.00000     0.00000
 Structure written by MMmdl.
 37 38  0  0  0  0  0  0  0  0  1 V2000
  146.4076  138.0085  152.2863 C   0  0  0  0  0  0  0  0  0  0  0  0
  147.0899  139.1552  153.0017 C   0  0  0  0  0  0  0  0  0  0  0  0
  146.5020  140.2638  153.3111 N   0  0  0  0  0  0  0  0  0  0  0  0
  147.2364  141.2523  153.9810 C   0  0  0  0  0  0  0  0  0  0  0  0
  146.4706  142.5200  154.3187 C   0  0  0  0  0  0  0  0  0  0  0  0
  148.5503  141.0711  154.3064 C   0  0  0  0  0  0  0  0  0  0  0  0
  149.3740  142.1222  155.0480 C   0  0  0  0  0  0  0  0  0  0  0  0
  149.6689  141.7975  156.5133 C   0  0  0  0  0  0  0  0  0  0  0  0
  149.3091  140.7206  156.9883 O   0  0  0  0  0  0  0  0  0  0  0  0
  150.3144  142.7377  157.2203 N   0  0  0  0  0  0  0  0  0  0  0  0
  150.6557  142.6367  158.6365 C   0  0  0  0  0  0  0  0  0  0  0  0
  151.2681  143.9549  159.1470 C   0  0  0  0  0  0  0  0  0  0  0  0
  152.5186  143.5625  159.9352 C   0  0  0  0  0  0  0  0  0  0  0  0
  153.0020  142.2820  159.2619 C   0  0  0  0  0  0  0  0  0  0  0  0
  151.7149  141.5447  158.8906 C   0  0  0  0  0  0  0  0  0  0  0  0
  149.2131  139.8035  153.9425 C   0  0  0  0  0  0  0  0  0  0  0  0
  150.3889  139.5357  154.1850 O   0  0  0  0  0  0  0  0  0  0  0  0
  148.4278  138.9075  153.3037 N   0  0  0  0  0  0  0  0  0  0  0  0
  148.8343  138.0226  153.0374 H   0  0  0  0  0  0  0  0  0  0  0  0
  145.5522  137.6614  152.8665 H   0  0  0  0  0  0  0  0  0  0  0  0
  147.0843  137.1656  152.1382 H   0  0  0  0  0  0  0  0  0  0  0  0
  146.0500  138.3351  151.3097 H   0  0  0  0  0  0  0  0  0  0  0  0
  146.9410  143.3898  153.8599 H   0  0  0  0  0  0  0  0  0  0  0  0
  146.4351  142.6712  155.3974 H   0  0  0  0  0  0  0  0  0  0  0  0
  145.4430  142.4699  153.9566 H   0  0  0  0  0  0  0  0  0  0  0  0
  150.3241  142.2921  154.5405 H   0  0  0  0  0  0  0  0  0  0  0  0
  148.8582  143.0809  154.9866 H   0  0  0  0  0  0  0  0  0  0  0  0
  150.5723  143.5929  156.7492 H   0  0  0  0  0  0  0  0  0  0  0  0
  149.7561  142.4102  159.2121 H   0  0  0  0  0  0  0  0  0  0  0  0
  151.5632  144.5914  158.3111 H   0  0  0  0  0  0  0  0  0  0  0  0
  150.5664  144.5274  159.7543 H   0  0  0  0  0  0  0  0  0  0  0  0
  153.2756  144.3472  159.9402 H   0  0  0  0  0  0  0  0  0  0  0  0
  152.2490  143.3524  160.9711 H   0  0  0  0  0  0  0  0  0  0  0  0
  153.5582  142.5300  158.3569 H   0  0  0  0  0  0  0  0  0  0  0  0
  153.6548  141.6890  159.9032 H   0  0  0  0  0  0  0  0  0  0  0  0
  151.3980  140.9287  159.7330 H   0  0  0  0  0  0  0  0  0  0  0  0
  151.8612  140.8733  158.0433 H   0  0  0  0  0  0  0  0  0  0  0  0
  1  2  1  0  0  0  0
  1 20  1  0  0  0  0
  1 21  1  0  0  0  0
  1 22  1  0  0  0  0
  2 18  1  0  0  0  0
  2  3  2  0  0  0  0
  3  4  1  0  0  0  0
  4  5  1  0  0  0  0
  4  6  2  0  0  0  0
  5 23  1  0  0  0  0
  5 24  1  0  0  0  0
  5 25  1  0  0  0  0
  6  7  1  0  0  0  0
  6 16  1  0  0  0  0
  7  8  1  0  0  0  0
  7 26  1  0  0  0  0
  7 27  1  0  0  0  0
  8  9  2  0  0  0  0
  8 10  1  0  0  0  0
 10 11  1  0  0  0  0
 10 28  1  0  0  0  0
 11 15  1  0  0  0  0
 11 12  1  0  0  0  0
 11 29  1  0  0  0  0
 12 13  1  0  0  0  0
 12 30  1  0  0  0  0
 12 31  1  0  0  0  0
 13 14  1  0  0  0  0
 13 32  1  0  0  0  0
 13 33  1  0  0  0  0
 14 15  1  0  0  0  0
 14 34  1  0  0  0  0
 14 35  1  0  0  0  0
 15 36  1  0  0  0  0
 15 37  1  0  0  0  0
 16 17  2  0  0  0  0
 16 18  1  0  0  0  0
 18 19  1  0  0  0  0
M  END
> <s_m_source_file>
AV-unprocessed.smi

> <i_m_source_file_index>
1313

> <i_lp_mmshare_version>
43012

> <i_f3d_flags>
0

> <s_epik_input>
W0NIM11jMW5jKFtDSDNdKWMoYyg9TylbbkhdMSlbQ0gyXUMoPU8pW05IXVtDSF0yW0NIMl1bQ0gyXVtDSDJdW0NIMl0y

> <s_epik_cmdline>
J2VwaWtfcHl0aG9uJywgJy1waCcsICc3LjAnLCAnLXRuJywgJzgnLCAnLW1hJywgJzIwMCcsICctbWV0YWxfYmluZGluZycsICctaW1hZScsICc8aW5maWxlLm1hZT4nLCAnLW9tYWUnLCAnPG91dGZpbGUubWFlPic=

> <r_lp_tautomer_probability>
0.839158

> <r_epik_Ionization_Penalty>
0.000387683

> <r_epik_Ionization_Penalty_Charging>
0.000355009

> <r_epik_Ionization_Penalty_Neutral>
3.26746e-05

> <r_epik_State_Penalty>
0.046959

> <r_epik_Charging_Adjusted_Penalty>
0.047314

> <i_epik_Tot_Q>
0

> <i_epik_Tot_abs_Q>
0

> <r_epik_Metal_State_Penalty>
0.222879

> <b_epik_Metal_Only>
0

> <s_lp_Force_Field>
OPLS_2005

> <r_lp_Energy>
20.1617

> <b_lp_Chiralities_Consistent>
1

> <s_lp_Variant>
AV-unprocessed.smi:1313-1

> <Gold.Version>
5.8.1

> <Gold.Id.Protein>
6NUR|6NUR_protein|mol2

> <Gold.PLP.Fitness>
41.1282

> <Gold.PLP.PLP>
-35.5837

> <Gold.PLP.part.hbond>
-3.9254

> <Gold.PLP.part.metal>
0.0000

> <Gold.PLP.part.buried>
2.3039

> <Gold.PLP.part.nonpolar>
-34.7920

> <Gold.PLP.part.repulsive>
1.2014

> <Gold.PLP.ligand.clash>
0.0000

> <Gold.PLP.ligand.torsion>
0.2159

> <Gold.PLP.Chemscore.Hbond>
1.9913

> <Gold.PLP.Chemscore.CHOScore>
0.0000

> <Gold.PLP.Chemscore.Metal>
0.0000

> <Gold.Chemscore.Hbonds>
donor molecule, donor type, donor heavy atom, donor atom, acceptor molecule, acceptor atom, score
      L1  H    10    28       P1  8028  0.13
      L1  H    18    19       P1  7948  0.78
      P1  H  7989  7998       L1    17  1.00

> <Gold.PLP.Chemscore.Internal.Correction>
0.0024

> <Gold.Rescore>
     Score         DG    S(hbond)    S(metal)    S(lipo)     H(rot)  DE(clash)    DE(int)     intcor
     14.97     -17.23       1.72        0.00      84.41       1.51       1.59       0.67       ----

> <Gold.Chemscore.Fitness>
14.9732

> <Gold.Chemscore.DG>
-17.2294

> <Gold.Chemscore.ZeroCoef>
-5.4800

> <Gold.Chemscore.Hbond>
1.7204

> <Gold.Chemscore.Metal>
0.0000

> <Gold.Chemscore.Lipo>
84.4099

> <Gold.Chemscore.Internal_Hbond>
0.0000

> <Gold.Chemscore.DEClash>
1.5877

> <Gold.Chemscore.DEInternal>
0.6685

> <Gold.Chemscore.Rot>
1.5128

> <Gold.Chemscore.Internal.Correction>
   9.000000E+99

> <Gold.Chemscore.Hbonds>
donor molecule, donor type, donor heavy atom, donor atom, acceptor molecule, acceptor atom, score
      L1  H    10    28       P1  8028  0.12
      L1  H    18    19       P1  7948  0.75
      P1  H  7989  7998       L1    17  0.84

> <Gold.Chemscore.Hbond.Weighted>
-5.7461

> <Gold.Chemscore.Metal.Weighted>
-0.0000

> <Gold.Chemscore.Lipo.Weighted>
-9.8760

> <Gold.Chemscore.Internal_Hbond.Weighted>
0.0000

> <Gold.Chemscore.DEClash.Weighted>
1.5877

> <Gold.Chemscore.DEInternal.Weighted>
0.6685

> <Gold.Chemscore.Rot.Weighted>
3.8727

> <Gold.Chemscore.Internal.Correction.Weighted>
   9.000000E+99

> <Gold.Protein.RotatedTorsions>
[ 6907 6896 6895 6894 ] final  134.24 input  -60.11 | X-H torsion
[ 7974 7965 7964 7962 ] final  -85.42 input  175.53 | X-H torsion
[ 8008 7997 7996 7995 ] final   54.10 input   59.86 | X-H torsion
[ 10167 10162 10161 10158 ] final   45.49 input  -65.29 | X-H torsion
[ 10718 10713 10712 10709 ] final   80.05 input   66.30 | X-H torsion
[ 10763 10752 10751 10750 ] final  -76.88 input  -60.55 | X-H torsion
[ 11005 11000 10999 10996 ] final   78.35 input  -57.11 | X-H torsion

> <Gold.Protein.ActiveResidues>
 VAL166  LYS551  ARG553  GLY616  TRP617  ASP618  TYR619  PRO620  LYS621  CYS622 
 ASP623  PHE694  ASN695  SER759  ASP760  ASP761  ALA762  ILE779  LEU786  VAL792 
 PHE793  MET794  SER795  GLU796  ALA797  LYS798  CYS799  TRP800  GLU811  SER814 

> <Gold.Protein.RotatedAtoms>
  152.3134  133.5777  159.5695 H   0  0  0  0  0  0  0  0  0  0  0  0  # atno 6907 bound_to 6896
  150.7334  134.0118  159.3681 H   0  0  0  0  0  0  0  0  0  0  0  0  # atno 6908 bound_to 6896
  151.8009  135.0709  160.0451 H   0  0  0  0  0  0  0  0  0  0  0  0  # atno 6909 bound_to 6896
  145.4935  140.9551  143.1799 H   0  0  0  0  0  0  0  0  0  0  0  0  # atno 7974 bound_to 7965
  155.4791  140.3468  155.4337 H   0  0  0  0  0  0  0  0  0  0  0  0  # atno 8008 bound_to 7997
  156.1051  140.1445  156.9444 H   0  0  0  0  0  0  0  0  0  0  0  0  # atno 8009 bound_to 7997
  154.4719  140.0898  156.7143 H   0  0  0  0  0  0  0  0  0  0  0  0  # atno 8010 bound_to 7997
  140.3236  144.2676  150.6179 H   0  0  0  0  0  0  0  0  0  0  0  0  # atno 10167 bound_to 10162
  157.6795  130.9942  150.2022 H   0  0  0  0  0  0  0  0  0  0  0  0  # atno 10718 bound_to 10713
  154.5056  135.5783  153.6565 H   0  0  0  0  0  0  0  0  0  0  0  0  # atno 10763 bound_to 10752
  152.9887  135.6146  154.2946 H   0  0  0  0  0  0  0  0  0  0  0  0  # atno 10764 bound_to 10752
  154.2856  135.2850  155.2657 H   0  0  0  0  0  0  0  0  0  0  0  0  # atno 10765 bound_to 10752
  139.9216  134.7757  156.1639 H   0  0  0  0  0  0  0  0  0  0  0  0  # atno 11005 bound_to 11000
  144.7820  139.6505  143.7150 LP  0  0  0  0  0  0  0  0  0  0  0  0  # atno 17320 bound_to 7965
  146.2270  139.5741  142.9581 LP  0  0  0  0  0  0  0  0  0  0  0  0  # atno 17321 bound_to 7965
  140.5461  143.2214  151.8004 LP  0  0  0  0  0  0  0  0  0  0  0  0  # atno 17342 bound_to 10162
  139.4869  144.4537  151.9624 LP  0  0  0  0  0  0  0  0  0  0  0  0  # atno 17343 bound_to 10162
  156.2711  130.3722  149.8031 LP  0  0  0  0  0  0  0  0  0  0  0  0  # atno 17370 bound_to 10713
  156.5748  130.8440  151.3366 LP  0  0  0  0  0  0  0  0  0  0  0  0  # atno 17371 bound_to 10713
  141.0741  133.6783  156.2201 LP  0  0  0  0  0  0  0  0  0  0  0  0  # atno 17394 bound_to 11000
  140.6457  134.5119  157.5573 LP  0  0  0  0  0  0  0  0  0  0  0  0  # atno 17395 bound_to 11000

$$$$
