AV-unprocessed.smi:1262|AV-procd|sdf|5309|dock8
  -GOLD-   22720 4433D 1   1.00000     0.00000
 Structure written by MMmdl.
 34 35  0  0  0  0  0  0  0  0  1 V2000
  153.9159  141.7591  160.7272 C   0  0  0  0  0  0  0  0  0  0  0  0
  152.9418  142.3779  159.7686 C   0  0  0  0  0  0  0  0  0  0  0  0
  152.2642  141.7542  158.6809 C   0  0  0  0  0  0  0  0  0  0  0  0
  151.5166  142.7774  158.1652 C   0  0  0  0  0  0  0  0  0  0  0  0
  150.6649  142.7654  157.1055 N   0  0  0  0  0  0  0  0  0  0  0  0
  150.3208  141.7335  156.3151 C   0  0  0  0  0  0  0  0  0  0  0  0
  150.7386  140.5802  156.4230 O   0  0  0  0  0  0  0  0  0  0  0  0
  149.4492  142.1172  155.3714 N   0  0  0  0  0  0  0  0  0  0  0  0
  148.8841  141.2451  154.3484 C   0  0  0  0  0  0  0  0  0  0  0  0
  147.3604  141.3356  154.3167 C   0  0  0  0  0  0  0  0  0  0  0  0
  146.6789  142.6724  153.9861 C   0  0  0  0  0  0  0  0  0  0  0  0
  145.5721  142.3002  154.9763 C   0  0  0  0  0  0  0  0  0  0  0  0
  146.5742  141.3487  155.6358 C   0  0  0  0  0  0  0  0  0  0  0  0
  151.7481  143.9149  158.9064 N   0  0  0  0  0  0  0  0  0  0  0  0
  151.1933  145.2451  158.7495 C   0  0  0  0  0  0  0  0  0  0  0  0
  152.6305  143.6628  159.8973 N   0  0  0  0  0  0  0  0  0  0  0  0
  154.1180  140.7199  160.4673 H   0  0  0  0  0  0  0  0  0  0  0  0
  153.5281  141.7768  161.7460 H   0  0  0  0  0  0  0  0  0  0  0  0
  154.8666  142.2926  160.7215 H   0  0  0  0  0  0  0  0  0  0  0  0
  152.3309  140.7279  158.3524 H   0  0  0  0  0  0  0  0  0  0  0  0
  150.2355  143.6528  156.8894 H   0  0  0  0  0  0  0  0  0  0  0  0
  149.1589  143.0838  155.3545 H   0  0  0  0  0  0  0  0  0  0  0  0
  149.3058  141.4911  153.3725 H   0  0  0  0  0  0  0  0  0  0  0  0
  149.1993  140.2245  154.5665 H   0  0  0  0  0  0  0  0  0  0  0  0
  146.9382  140.5598  153.6740 H   0  0  0  0  0  0  0  0  0  0  0  0
  147.2606  143.5370  154.3103 H   0  0  0  0  0  0  0  0  0  0  0  0
  146.3525  142.7731  152.9506 H   0  0  0  0  0  0  0  0  0  0  0  0
  145.2316  143.1184  155.6115 H   0  0  0  0  0  0  0  0  0  0  0  0
  144.7391  141.7772  154.5036 H   0  0  0  0  0  0  0  0  0  0  0  0
  146.1622  140.3829  155.9303 H   0  0  0  0  0  0  0  0  0  0  0  0
  147.1236  141.8178  156.4538 H   0  0  0  0  0  0  0  0  0  0  0  0
  150.1048  145.1947  158.7865 H   0  0  0  0  0  0  0  0  0  0  0  0
  151.4998  145.6575  157.7880 H   0  0  0  0  0  0  0  0  0  0  0  0
  151.5430  145.9044  159.5450 H   0  0  0  0  0  0  0  0  0  0  0  0
  1  2  1  0  0  0  0
  1 17  1  0  0  0  0
  1 18  1  0  0  0  0
  1 19  1  0  0  0  0
  2 16  2  0  0  0  0
  2  3  1  0  0  0  0
  3  4  2  0  0  0  0
  3 20  1  0  0  0  0
  4  5  1  0  0  0  0
  4 14  1  0  0  0  0
  5  6  1  0  0  0  0
  5 21  1  0  0  0  0
  6  7  2  0  0  0  0
  6  8  1  0  0  0  0
  8  9  1  0  0  0  0
  8 22  1  0  0  0  0
  9 10  1  0  0  0  0
  9 23  1  0  0  0  0
  9 24  1  0  0  0  0
 10 13  1  0  0  0  0
 10 11  1  0  0  0  0
 10 25  1  0  0  0  0
 11 12  1  0  0  0  0
 11 26  1  0  0  0  0
 11 27  1  0  0  0  0
 12 13  1  0  0  0  0
 12 28  1  0  0  0  0
 12 29  1  0  0  0  0
 13 30  1  0  0  0  0
 13 31  1  0  0  0  0
 14 15  1  0  0  0  0
 14 16  1  0  0  0  0
 15 32  1  0  0  0  0
 15 33  1  0  0  0  0
 15 34  1  0  0  0  0
M  END
> <s_m_source_file>
AV-unprocessed.smi

> <i_m_source_file_index>
1262

> <i_lp_mmshare_version>
43012

> <i_f3d_flags>
0

> <s_epik_input>
W0NIM11jMVtjSF1jKG4objEpW0NIM10pW05IXUMoPU8pW05IXVtDSDJdW0NIXTJbQ0gyXVtDSDJdW0NIMl0y

> <s_epik_cmdline>
J2VwaWtfcHl0aG9uJywgJy1waCcsICc3LjAnLCAnLXRuJywgJzgnLCAnLW1hJywgJzIwMCcsICctbWV0YWxfYmluZGluZycsICctaW1hZScsICc8aW5maWxlLm1hZT4nLCAnLW9tYWUnLCAnPG91dGZpbGUubWFlPic=

> <r_lp_tautomer_probability>
1

> <r_epik_Ionization_Penalty>
9.92667e-05

> <r_epik_Ionization_Penalty_Charging>
0

> <r_epik_Ionization_Penalty_Neutral>
9.92667e-05

> <r_epik_State_Penalty>
-0

> <r_epik_Charging_Adjusted_Penalty>
0

> <i_epik_Tot_Q>
0

> <i_epik_Tot_abs_Q>
0

> <r_epik_Metal_State_Penalty>
-0

> <b_epik_Metal_Only>
0

> <s_lp_Force_Field>
OPLS_2005

> <r_lp_Energy>
13.5599

> <b_lp_Chiralities_Consistent>
1

> <s_lp_Variant>
AV-unprocessed.smi:1262-1

> <Gold.Version>
5.8.1

> <Gold.Id.Protein>
6NUR|6NUR_protein|mol2

> <Gold.PLP.Fitness>
44.0137

> <Gold.PLP.PLP>
-38.4223

> <Gold.PLP.part.hbond>
-2.0000

> <Gold.PLP.part.metal>
0.0000

> <Gold.PLP.part.buried>
-4.3804

> <Gold.PLP.part.nonpolar>
-31.1220

> <Gold.PLP.part.repulsive>
0.2560

> <Gold.PLP.ligand.clash>
0.0000

> <Gold.PLP.ligand.torsion>
0.1008

> <Gold.PLP.Chemscore.Hbond>
1.9120

> <Gold.PLP.Chemscore.CHOScore>
0.0000

> <Gold.PLP.Chemscore.Metal>
0.0000

> <Gold.Chemscore.Hbonds>
donor molecule, donor type, donor heavy atom, donor atom, acceptor molecule, acceptor atom, score
      L1  H     5    21       P1  8028  0.78
      L1  H     8    22       P1  8028  1.00

> <Gold.PLP.Chemscore.Internal.Correction>
0.0571

> <Gold.Rescore>
     Score         DG    S(hbond)    S(metal)    S(lipo)     H(rot)  DE(clash)    DE(int)     intcor
     15.97     -17.41       1.96        0.00      72.41       1.21       0.26       1.18       ----

> <Gold.Chemscore.Fitness>
15.9706

> <Gold.Chemscore.DG>
-17.4077

> <Gold.Chemscore.ZeroCoef>
-5.4800

> <Gold.Chemscore.Hbond>
1.9625

> <Gold.Chemscore.Metal>
0.0000

> <Gold.Chemscore.Lipo>
72.4062

> <Gold.Chemscore.Internal_Hbond>
0.0000

> <Gold.Chemscore.DEClash>
0.2596

> <Gold.Chemscore.DEInternal>
1.1775

> <Gold.Chemscore.Rot>
1.2103

> <Gold.Chemscore.Internal.Correction>
   9.000000E+99

> <Gold.Chemscore.Hbonds>
donor molecule, donor type, donor heavy atom, donor atom, acceptor molecule, acceptor atom, score
      L1  H     5    21       P1  8028  0.74
      L1  H     8    22       P1  8028  1.00

> <Gold.Chemscore.Hbond.Weighted>
-6.5546

> <Gold.Chemscore.Metal.Weighted>
-0.0000

> <Gold.Chemscore.Lipo.Weighted>
-8.4715

> <Gold.Chemscore.Internal_Hbond.Weighted>
0.0000

> <Gold.Chemscore.DEClash.Weighted>
0.2596

> <Gold.Chemscore.DEInternal.Weighted>
1.1775

> <Gold.Chemscore.Rot.Weighted>
3.0984

> <Gold.Chemscore.Internal.Correction.Weighted>
   9.000000E+99

> <Gold.Protein.RotatedTorsions>
[ 6907 6896 6895 6894 ] final -135.70 input  -60.11 | X-H torsion
[ 7974 7965 7964 7962 ] final  -34.63 input  175.53 | X-H torsion
[ 8008 7997 7996 7995 ] final  126.52 input   59.86 | X-H torsion
[ 10167 10162 10161 10158 ] final   83.30 input  -65.29 | X-H torsion
[ 10718 10713 10712 10709 ] final  -44.55 input   66.30 | X-H torsion
[ 10763 10752 10751 10750 ] final   85.65 input  -60.55 | X-H torsion
[ 11005 11000 10999 10996 ] final   74.77 input  -57.11 | X-H torsion

> <Gold.Protein.ActiveResidues>
 VAL166  LYS551  ARG553  GLY616  TRP617  ASP618  TYR619  PRO620  LYS621  CYS622 
 ASP623  PHE694  ASN695  SER759  ASP760  ASP761  ALA762  ILE779  LEU786  VAL792 
 PHE793  MET794  SER795  GLU796  ALA797  LYS798  CYS799  TRP800  GLU811  SER814 

> <Gold.Protein.RotatedAtoms>
  151.0011  133.6055  159.2694 H   0  0  0  0  0  0  0  0  0  0  0  0  # atno 6907 bound_to 6896
  151.3241  135.0825  159.9326 H   0  0  0  0  0  0  0  0  0  0  0  0  # atno 6908 bound_to 6896
  152.5274  133.9653  159.7790 H   0  0  0  0  0  0  0  0  0  0  0  0  # atno 6909 bound_to 6896
  146.0813  140.6062  142.8907 H   0  0  0  0  0  0  0  0  0  0  0  0  # atno 7974 bound_to 7965
  156.2866  140.2690  156.2124 H   0  0  0  0  0  0  0  0  0  0  0  0  # atno 8008 bound_to 7997
  155.0250  140.0386  157.2470 H   0  0  0  0  0  0  0  0  0  0  0  0  # atno 8009 bound_to 7997
  154.7403  140.2723  155.6384 H   0  0  0  0  0  0  0  0  0  0  0  0  # atno 8010 bound_to 7997
  139.9198  144.6220  150.8452 H   0  0  0  0  0  0  0  0  0  0  0  0  # atno 10167 bound_to 10162
  156.2374  130.4177  149.8801 H   0  0  0  0  0  0  0  0  0  0  0  0  # atno 10718 bound_to 10713
  153.1495  135.4609  154.9615 H   0  0  0  0  0  0  0  0  0  0  0  0  # atno 10763 bound_to 10752
  154.7813  135.3189  154.7985 H   0  0  0  0  0  0  0  0  0  0  0  0  # atno 10764 bound_to 10752
  153.8493  135.6923  153.4848 H   0  0  0  0  0  0  0  0  0  0  0  0  # atno 10765 bound_to 10752
  139.9375  134.7461  156.1189 H   0  0  0  0  0  0  0  0  0  0  0  0  # atno 11005 bound_to 11000
  144.7295  140.4629  143.6948 LP  0  0  0  0  0  0  0  0  0  0  0  0  # atno 17320 bound_to 7965
  145.6212  139.1524  143.3021 LP  0  0  0  0  0  0  0  0  0  0  0  0  # atno 17321 bound_to 7965
  140.7665  143.3305  151.2420 LP  0  0  0  0  0  0  0  0  0  0  0  0  # atno 17342 bound_to 10162
  139.6871  143.9755  152.2840 LP  0  0  0  0  0  0  0  0  0  0  0  0  # atno 17343 bound_to 10162
  156.6394  130.8698  151.3511 LP  0  0  0  0  0  0  0  0  0  0  0  0  # atno 17370 bound_to 10713
  157.7160  130.9498  150.1259 LP  0  0  0  0  0  0  0  0  0  0  0  0  # atno 17371 bound_to 10713
  141.0995  133.6682  156.2722 LP  0  0  0  0  0  0  0  0  0  0  0  0  # atno 17394 bound_to 11000
  140.6038  134.5528  157.5522 LP  0  0  0  0  0  0  0  0  0  0  0  0  # atno 17395 bound_to 11000

$$$$
