AV-unprocessed.smi:1964|AV-procd|sdf|7928|dock3
  -GOLD-   2272010 93D 1   1.00000     0.00000
 Structure written by MMmdl.
 46 48  0  0  0  0  0  0  0  0  1 V2000
  147.7402  134.8579  157.9803 C   0  0  0  0  0  0  0  0  0  0  0  0
  148.0633  135.2206  159.4410 C   0  0  2  0  0  0  0  0  0  0  0  0
  147.2029  134.3828  160.4089 C   0  0  0  0  0  0  0  0  0  0  0  0
  147.5111  134.7091  161.8781 C   0  0  0  0  0  0  0  0  0  0  0  0
  147.3300  136.2069  162.1596 C   0  0  0  0  0  0  0  0  0  0  0  0
  148.1911  137.0540  161.2117 C   0  0  0  0  0  0  0  0  0  0  0  0
  147.8936  136.7331  159.7313 C   0  0  1  0  0  0  0  0  0  0  0  0
  148.7711  137.5187  158.8661 N   0  0  0  0  0  0  0  0  0  0  0  0
  150.0960  137.6595  159.0219 C   0  0  0  0  0  0  0  0  0  0  0  0
  150.7302  137.1160  159.9276 O   0  0  0  0  0  0  0  0  0  0  0  0
  150.7959  138.5558  157.9887 C   0  0  0  0  0  0  0  0  0  0  0  0
  151.5142  139.7018  158.5883 N   0  0  0  0  0  0  0  0  0  0  0  0
  152.5916  139.4405  159.4729 C   0  0  0  0  0  0  0  0  0  0  0  0
  152.9437  138.2861  159.7212 O   0  0  0  0  0  0  0  0  0  0  0  0
  153.2222  140.6198  160.0616 C   0  0  0  0  0  0  0  0  0  0  0  0
  154.2904  140.3973  160.9786 C   0  0  0  0  0  0  0  0  0  0  0  0
  155.1504  140.2362  161.7363 N   0  0  0  0  0  0  0  0  0  0  0  0
  152.8007  141.8625  159.7487 C   0  0  0  0  0  0  0  0  0  0  0  0
  151.7762  142.0955  158.8573 N   0  0  0  0  0  0  0  0  0  0  0  0
  151.2386  143.4124  158.6615 C   0  0  0  0  0  0  0  0  0  0  0  0
  152.0162  144.4451  157.8692 C   0  0  0  0  0  0  0  0  0  0  0  0
  151.8877  144.5832  159.3664 C   0  0  0  0  0  0  0  0  0  0  0  0
  151.0689  141.0127  158.2907 C   0  0  0  0  0  0  0  0  0  0  0  0
  150.0864  141.2001  157.5684 O   0  0  0  0  0  0  0  0  0  0  0  0
  146.7118  135.1169  157.7271 H   0  0  0  0  0  0  0  0  0  0  0  0
  147.8654  133.7887  157.8071 H   0  0  0  0  0  0  0  0  0  0  0  0
  148.3957  135.3757  157.2799 H   0  0  0  0  0  0  0  0  0  0  0  0
  149.1075  134.9577  159.6185 H   0  0  0  0  0  0  0  0  0  0  0  0
  146.1452  134.5644  160.2121 H   0  0  0  0  0  0  0  0  0  0  0  0
  147.3699  133.3197  160.2315 H   0  0  0  0  0  0  0  0  0  0  0  0
  146.8614  134.1270  162.5323 H   0  0  0  0  0  0  0  0  0  0  0  0
  148.5339  134.4121  162.1135 H   0  0  0  0  0  0  0  0  0  0  0  0
  146.2803  136.4782  162.0402 H   0  0  0  0  0  0  0  0  0  0  0  0
  147.5908  136.4255  163.1955 H   0  0  0  0  0  0  0  0  0  0  0  0
  148.0142  138.1115  161.4118 H   0  0  0  0  0  0  0  0  0  0  0  0
  149.2460  136.8738  161.4239 H   0  0  0  0  0  0  0  0  0  0  0  0
  146.8568  137.0023  159.5189 H   0  0  0  0  0  0  0  0  0  0  0  0
  148.3329  138.0011  158.0948 H   0  0  0  0  0  0  0  0  0  0  0  0
  151.4725  137.9386  157.3955 H   0  0  0  0  0  0  0  0  0  0  0  0
  150.0507  138.8969  157.2681 H   0  0  0  0  0  0  0  0  0  0  0  0
  153.2871  142.7105  160.2092 H   0  0  0  0  0  0  0  0  0  0  0  0
  150.1552  143.4605  158.5662 H   0  0  0  0  0  0  0  0  0  0  0  0
  152.9938  144.1677  157.4794 H   0  0  0  0  0  0  0  0  0  0  0  0
  151.4457  145.1332  157.2487 H   0  0  0  0  0  0  0  0  0  0  0  0
  151.2336  145.3660  159.7444 H   0  0  0  0  0  0  0  0  0  0  0  0
  152.7788  144.3936  159.9619 H   0  0  0  0  0  0  0  0  0  0  0  0
  1  2  1  0  0  0  0
  1 25  1  0  0  0  0
  1 26  1  0  0  0  0
  1 27  1  0  0  0  0
  2  7  1  0  0  0  0
  2  3  1  0  0  0  0
  2 28  1  0  0  0  0
  3  4  1  0  0  0  0
  3 29  1  0  0  0  0
  3 30  1  0  0  0  0
  4  5  1  0  0  0  0
  4 31  1  0  0  0  0
  4 32  1  0  0  0  0
  5  6  1  0  0  0  0
  5 33  1  0  0  0  0
  5 34  1  0  0  0  0
  6  7  1  0  0  0  0
  6 35  1  0  0  0  0
  6 36  1  0  0  0  0
  7  8  1  0  0  0  0
  7 37  1  0  0  0  0
  8  9  1  0  0  0  0
  8 38  1  0  0  0  0
  9 10  2  0  0  0  0
  9 11  1  0  0  0  0
 11 12  1  0  0  0  0
 11 39  1  0  0  0  0
 11 40  1  0  0  0  0
 12 23  1  0  0  0  0
 12 13  1  0  0  0  0
 13 14  2  0  0  0  0
 13 15  1  0  0  0  0
 15 16  1  0  0  0  0
 15 18  2  0  0  0  0
 16 17  3  0  0  0  0
 18 19  1  0  0  0  0
 18 41  1  0  0  0  0
 19 20  1  0  0  0  0
 19 23  1  0  0  0  0
 20 22  1  0  0  0  0
 20 21  1  0  0  0  0
 20 42  1  0  0  0  0
 21 22  1  0  0  0  0
 21 43  1  0  0  0  0
 21 44  1  0  0  0  0
 22 45  1  0  0  0  0
 22 46  1  0  0  0  0
 23 24  2  0  0  0  0
M  END
> <s_m_source_file>
AV-unprocessed.smi

> <i_m_source_file_index>
1964

> <i_lp_mmshare_version>
43012

> <i_f3d_flags>
0

> <s_epik_input>
W0NIM11bQ0BASF0xW0NIMl1bQ0gyXVtDSDJdW0NIMl1bQ0BIXTFbTkhdQyg9TylbQ0gyXW4yYyg9TyljKEMjTilbY0hdbihjMj1PKVtDSF0zW0NIMl1bQ0gyXTM=

> <s_epik_cmdline>
J2VwaWtfcHl0aG9uJywgJy1waCcsICc3LjAnLCAnLXRuJywgJzgnLCAnLW1hJywgJzIwMCcsICctbWV0YWxfYmluZGluZycsICctaW1hZScsICc8aW5maWxlLm1hZT4nLCAnLW9tYWUnLCAnPG91dGZpbGUubWFlPic=

> <r_lp_tautomer_probability>
1

> <r_epik_Ionization_Penalty>
1.91372e-08

> <r_epik_Ionization_Penalty_Charging>
9.0283e-11

> <r_epik_Ionization_Penalty_Neutral>
1.90469e-08

> <r_epik_State_Penalty>
-0

> <r_epik_Charging_Adjusted_Penalty>
9.0283e-11

> <i_epik_Tot_Q>
0

> <i_epik_Tot_abs_Q>
0

> <r_epik_Metal_State_Penalty>
-0

> <b_epik_Metal_Only>
0

> <s_lp_Force_Field>
OPLS_2005

> <r_lp_Energy>
35.656

> <b_lp_Chiralities_Consistent>
1

> <s_lp_Variant>
AV-unprocessed.smi:1964-1

> <Gold.Version>
5.8.1

> <Gold.Id.Protein>
6NUR|6NUR_protein|mol2

> <Gold.PLP.Fitness>
44.7029

> <Gold.PLP.PLP>
-42.1237

> <Gold.PLP.part.hbond>
-1.4374

> <Gold.PLP.part.metal>
0.0000

> <Gold.PLP.part.buried>
-2.6819

> <Gold.PLP.part.nonpolar>
-38.5140

> <Gold.PLP.part.repulsive>
0.2101

> <Gold.PLP.ligand.clash>
0.0000

> <Gold.PLP.ligand.torsion>
0.3234

> <Gold.PLP.Chemscore.Hbond>
1.0000

> <Gold.PLP.Chemscore.CHOScore>
0.0000

> <Gold.PLP.Chemscore.Metal>
0.0000

> <Gold.Chemscore.Hbonds>
donor molecule, donor type, donor heavy atom, donor atom, acceptor molecule, acceptor atom, score
      P1  H  6896  6909       L1    10  0.88

> <Gold.PLP.Chemscore.Internal.Correction>
0.2261

> <Gold.Rescore>
     Score         DG    S(hbond)    S(metal)    S(lipo)     H(rot)  DE(clash)    DE(int)     intcor
     11.59     -14.41       0.99        0.00      85.28       1.70       0.15       2.67       ----

> <Gold.Chemscore.Fitness>
11.5929

> <Gold.Chemscore.DG>
-14.4148

> <Gold.Chemscore.ZeroCoef>
-5.4800

> <Gold.Chemscore.Hbond>
0.9937

> <Gold.Chemscore.Metal>
0.0000

> <Gold.Chemscore.Lipo>
85.2781

> <Gold.Chemscore.Internal_Hbond>
0.0000

> <Gold.Chemscore.DEClash>
0.1521

> <Gold.Chemscore.DEInternal>
2.6698

> <Gold.Chemscore.Rot>
1.7038

> <Gold.Chemscore.Internal.Correction>
   9.000000E+99

> <Gold.Chemscore.Hbonds>
donor molecule, donor type, donor heavy atom, donor atom, acceptor molecule, acceptor atom, score
      P1  H  6896  6909       L1    10  0.84

> <Gold.Chemscore.Hbond.Weighted>
-3.3190

> <Gold.Chemscore.Metal.Weighted>
-0.0000

> <Gold.Chemscore.Lipo.Weighted>
-9.9775

> <Gold.Chemscore.Internal_Hbond.Weighted>
0.0000

> <Gold.Chemscore.DEClash.Weighted>
0.1521

> <Gold.Chemscore.DEInternal.Weighted>
2.6698

> <Gold.Chemscore.Rot.Weighted>
4.3618

> <Gold.Chemscore.Internal.Correction.Weighted>
   9.000000E+99

> <Gold.Protein.RotatedTorsions>
[ 6907 6896 6895 6894 ] final   90.27 input  -60.11 | X-H torsion
[ 7974 7965 7964 7962 ] final  131.22 input  175.53 | X-H torsion
[ 8008 7997 7996 7995 ] final  131.73 input   59.86 | X-H torsion
[ 10167 10162 10161 10158 ] final -117.03 input  -65.29 | X-H torsion
[ 10718 10713 10712 10709 ] final -109.25 input   66.30 | X-H torsion
[ 10763 10752 10751 10750 ] final  160.72 input  -60.55 | X-H torsion
[ 11005 11000 10999 10996 ] final  -82.07 input  -57.11 | X-H torsion

> <Gold.Protein.ActiveResidues>
 VAL166  LYS551  ARG553  GLY616  TRP617  ASP618  TYR619  PRO620  LYS621  CYS622 
 ASP623  PHE694  ASN695  SER759  ASP760  ASP761  ALA762  ILE779  LEU786  VAL792 
 PHE793  MET794  SER795  GLU796  ALA797  LYS798  CYS799  TRP800  GLU811  SER814 

> <Gold.Protein.RotatedAtoms>
  152.5443  134.1837  159.8645 H   0  0  0  0  0  0  0  0  0  0  0  0  # atno 6907 bound_to 6896
  151.1837  133.4702  159.2602 H   0  0  0  0  0  0  0  0  0  0  0  0  # atno 6908 bound_to 6896
  151.1152  135.0061  159.8568 H   0  0  0  0  0  0  0  0  0  0  0  0  # atno 6909 bound_to 6896
  145.0096  139.4233  143.5252 H   0  0  0  0  0  0  0  0  0  0  0  0  # atno 7974 bound_to 7965
  156.2974  140.2564  156.2974 H   0  0  0  0  0  0  0  0  0  0  0  0  # atno 8008 bound_to 7997
  154.9451  140.0395  157.2135 H   0  0  0  0  0  0  0  0  0  0  0  0  # atno 8009 bound_to 7997
  154.8089  140.2841  155.5872 H   0  0  0  0  0  0  0  0  0  0  0  0  # atno 8010 bound_to 7997
  140.0728  143.4861  152.1970 H   0  0  0  0  0  0  0  0  0  0  0  0  # atno 10167 bound_to 10162
  156.0527  130.5754  150.8074 H   0  0  0  0  0  0  0  0  0  0  0  0  # atno 10718 bound_to 10713
  154.2518  135.2771  155.2813 H   0  0  0  0  0  0  0  0  0  0  0  0  # atno 10763 bound_to 10752
  154.5459  135.5689  153.6883 H   0  0  0  0  0  0  0  0  0  0  0  0  # atno 10764 bound_to 10752
  152.9979  135.6262  154.2665 H   0  0  0  0  0  0  0  0  0  0  0  0  # atno 10765 bound_to 10752
  141.1664  133.7227  156.8517 H   0  0  0  0  0  0  0  0  0  0  0  0  # atno 11005 bound_to 11000
  146.3467  139.9532  142.8726 LP  0  0  0  0  0  0  0  0  0  0  0  0  # atno 17320 bound_to 7965
  145.2042  140.9867  143.4138 LP  0  0  0  0  0  0  0  0  0  0  0  0  # atno 17321 bound_to 7965
  139.5826  144.7517  151.3602 LP  0  0  0  0  0  0  0  0  0  0  0  0  # atno 17342 bound_to 10162
  140.7117  143.7373  150.7579 LP  0  0  0  0  0  0  0  0  0  0  0  0  # atno 17343 bound_to 10162
  157.5469  131.0942  150.9750 LP  0  0  0  0  0  0  0  0  0  0  0  0  # atno 17370 bound_to 10713
  157.0019  130.5603  149.5312 LP  0  0  0  0  0  0  0  0  0  0  0  0  # atno 17371 bound_to 10713
  140.1911  134.8965  157.3061 LP  0  0  0  0  0  0  0  0  0  0  0  0  # atno 17394 bound_to 11000
  140.2289  134.3933  155.7531 LP  0  0  0  0  0  0  0  0  0  0  0  0  # atno 17395 bound_to 11000

$$$$
