#       Name:                AV-unprocessed.smi:912
#       Creating user name   scv26
#       Creation time:       Fri Mar 27 02:04:52 2020


#       File generated by GOLD software.
#

@<TRIPOS>MOLECULE
AV-unprocessed.smi:912
    30    30     1
SMALL
NO_CHARGES


@<TRIPOS>ATOM
      1 ****        -2.1790   2.0127   0.0563 C.3            1 S1                 0.0000
      2 ****        -1.5237   0.7506   0.3905 N.3            1 S1                 0.0000
      3 ****        -0.0593   0.6494   0.2606 C.3            1 S1                 0.0000
      4 ****         0.5204   1.3323   1.5262 C.3            1 S1                 0.0000
      5 ****         0.4444   1.3457  -1.0337 C.2            1 S1                 0.0000
      6 ****         0.0738   0.8139  -2.2041 N.am           1 S1                 0.0000
      7 ****         1.1510   2.3517  -0.9843 O.2            1 S1                 0.0000
      8 ****         0.4092  -0.8202   0.2228 C.ar           1 S1                 0.0000
      9 ****        -0.4991  -1.9087   0.1918 C.ar           1 S1                 0.0000
     10 ****         0.0080  -3.2230   0.1583 C.ar           1 S1                 0.0000
     11 ****         1.3251  -3.5127   0.1496 N.ar           1 S1                 0.0000
     12 ****         2.1930  -2.4809   0.1757 C.ar           1 S1                 0.0000
     13 ****         1.7906  -1.1316   0.2129 C.ar           1 S1                 0.0000
     14 ****        -3.2212   1.9682   0.3716 H              1 S1                 0.0000
     15 ****        -2.1753   2.2005  -1.0176 H              1 S1                 0.0000
     16 ****        -1.7186   2.8613   0.5615 H              1 S1                 0.0000
     17 ****        -1.9767  -0.0346  -0.0543 H              1 S1                 0.0000
     18 ****         1.6105   1.3179   1.5383 H              1 S1                 0.0000
     19 ****         0.1845   0.8263   2.4323 H              1 S1                 0.0000
     20 ****         0.2236   2.3778   1.6111 H              1 S1                 0.0000
     21 ****         0.3763   1.2402  -3.0679 H              1 S1                 0.0000
     22 ****        -0.5113  -0.0089  -2.2183 H              1 S1                 0.0000
     23 ****        -1.5690  -1.7663   0.1946 H              1 S1                 0.0000
     24 ****        -0.6660  -4.0665   0.1359 H              1 S1                 0.0000
     25 ****         3.2419  -2.7375   0.1638 H              1 S1                 0.0000
     26 ****         2.5378  -0.3519   0.2265 H              1 S1                 0.0000
     27 ****        -1.6501   0.7274   1.3822 LP             1 S1                 0.0000
     28 ****         1.4118   2.7365  -0.0989 LP             1 S1                 0.0000
     29 ****         1.4645   2.7845  -1.8295 LP             1 S1                 0.0000
     30 ****         1.6468  -4.4592   0.1247 LP             1 S1                 0.0000
@<TRIPOS>BOND
    1    1    2 1     
    2    1   14 1     
    3    1   15 1     
    4    1   16 1     
    5    2    3 1     
    6    2   17 1     
    7    3    4 1     
    8    3    5 1     
    9    3    8 1     
   10    4   18 1     
   11    4   19 1     
   12    4   20 1     
   13    5    6 am    
   14    5    7 2     
   15    6   21 1     
   16    6   22 1     
   17    8   13 ar    
   18    8    9 ar    
   19    9   10 ar    
   20    9   23 1     
   21   10   11 ar    
   22   10   24 1     
   23   11   12 ar    
   24   12   13 ar    
   25   12   25 1     
   26   13   26 1     
   27    2   27 1     
   28    7   28 1     
   29    7   29 1     
   30   11   30 1     
@<TRIPOS>SUBSTRUCTURE
      1 S1             1
@<TRIPOS>SET
LONE_PAIRS      STATIC     ATOMS    <user>   **** ""
4 27 28 29 30
DONOR_HYDROGENS      STATIC     ATOMS    <user>   **** ""
3 17 21 22
ATOM$BLUE        STATIC     ATOMS    COLORGROUP SYSTEM
4 27 28 29 30
ATOM$RED        STATIC     ATOMS    COLORGROUP SYSTEM
3 17 21 22
