AV-unprocessed.smi:203|AV-procd|sdf|1590|dock8
  -GOLD-   2262019493D 1   1.00000     0.00000
 Structure written by MMmdl.
 57 61  0  0  0  0  0  0  0  0  1 V2000
  145.0461  129.5268  161.0788 O   0  0  0  0  0  0  0  0  0  0  0  0
  146.1487  130.0104  160.8336 C   0  0  0  0  0  0  0  0  0  0  0  0
  146.3982  131.0004  159.7091 C   0  0  0  0  0  0  0  0  0  0  0  0
  147.8486  131.4661  159.9492 C   0  0  1  0  0  0  0  0  0  0  0  0
  147.9879  132.9605  160.3852 C   0  0  2  0  0  0  0  0  0  0  0  0
  147.1760  133.2950  161.6642 C   0  0  0  0  0  0  0  0  0  0  0  0
  147.3486  134.7636  162.0755 C   0  0  0  0  0  0  0  0  0  0  0  0
  146.9669  135.6823  160.9092 C   0  0  0  0  0  0  0  0  0  0  0  0
  147.7832  135.3277  159.6590 C   0  0  0  0  0  0  0  0  0  0  0  0
  147.6393  133.9138  159.3155 N   0  0  0  0  0  0  0  0  0  0  0  0
  148.1726  133.6603  158.1004 C   0  0  0  0  0  0  0  0  0  0  0  0
  149.5082  133.8437  157.9596 N   0  0  0  0  0  0  0  0  0  0  0  0
  150.0814  133.6717  156.7648 C   0  0  0  0  0  0  0  0  0  0  0  0
  149.5112  133.3330  155.6061 N   0  0  0  0  0  0  0  0  0  0  0  0
  148.1695  133.1346  155.7523 C   0  0  0  0  0  0  0  0  0  0  0  0
  147.4252  133.2621  156.9570 C   0  0  0  0  0  0  0  0  0  0  0  0
  146.0842  132.9830  156.7203 N   0  0  0  0  0  0  0  0  0  0  0  0
  146.0333  132.7342  155.4404 C   0  0  0  0  0  0  0  0  0  0  0  0
  147.2364  132.8258  154.7789 N   0  0  0  0  0  0  0  0  0  0  0  0
  147.4564  132.6731  153.3534 C   0  0  0  0  0  0  0  0  0  0  0  0
  146.3985  131.7666  152.6854 C   0  0  2  0  0  0  0  0  0  0  0  0
  147.0071  130.5132  152.4479 O   0  0  0  0  0  0  0  0  0  0  0  0
  145.8277  132.3184  151.3575 C   0  0  1  0  0  0  0  0  0  0  0  0
  144.7015  131.4838  150.7425 C   0  0  0  0  0  0  0  0  0  0  0  0
  143.9313  132.4828  149.8907 C   0  0  0  0  0  0  0  0  0  0  0  0
  144.4263  133.8460  150.3781 C   0  0  0  0  0  0  0  0  0  0  0  0
  145.1607  133.5574  151.5568 O   0  0  0  0  0  0  0  0  0  0  0  0
  148.4246  130.4701  160.9786 C   0  0  0  0  0  0  0  0  0  0  0  0
  147.2757  129.7509  161.4928 N   0  0  0  0  0  0  0  0  0  0  0  0
  146.3049  130.4883  158.7509 H   0  0  0  0  0  0  0  0  0  0  0  0
  145.6735  131.8143  159.7276 H   0  0  0  0  0  0  0  0  0  0  0  0
  148.4143  131.3098  159.0303 H   0  0  0  0  0  0  0  0  0  0  0  0
  149.0383  133.1280  160.6258 H   0  0  0  0  0  0  0  0  0  0  0  0
  146.1158  133.0997  161.5017 H   0  0  0  0  0  0  0  0  0  0  0  0
  147.4780  132.6591  162.4954 H   0  0  0  0  0  0  0  0  0  0  0  0
  146.7326  134.9860  162.9472 H   0  0  0  0  0  0  0  0  0  0  0  0
  148.3835  134.9461  162.3673 H   0  0  0  0  0  0  0  0  0  0  0  0
  145.9024  135.5810  160.6935 H   0  0  0  0  0  0  0  0  0  0  0  0
  147.1329  136.7249  161.1812 H   0  0  0  0  0  0  0  0  0  0  0  0
  147.4577  135.9491  158.8231 H   0  0  0  0  0  0  0  0  0  0  0  0
  148.8367  135.5534  159.8314 H   0  0  0  0  0  0  0  0  0  0  0  0
  151.1474  133.8413  156.7295 H   0  0  0  0  0  0  0  0  0  0  0  0
  145.1071  132.5025  154.9350 H   0  0  0  0  0  0  0  0  0  0  0  0
  147.4486  133.6640  152.8970 H   0  0  0  0  0  0  0  0  0  0  0  0
  148.4577  132.2682  153.2009 H   0  0  0  0  0  0  0  0  0  0  0  0
  145.5751  131.6026  153.3818 H   0  0  0  0  0  0  0  0  0  0  0  0
  147.7524  130.6431  151.8818 H   0  0  0  0  0  0  0  0  0  0  0  0
  146.6278  132.4529  150.6269 H   0  0  0  0  0  0  0  0  0  0  0  0
  145.0739  130.6366  150.1660 H   0  0  0  0  0  0  0  0  0  0  0  0
  144.0498  131.0956  151.5264 H   0  0  0  0  0  0  0  0  0  0  0  0
  144.1430  132.3540  148.8289 H   0  0  0  0  0  0  0  0  0  0  0  0
  142.8565  132.3685  150.0359 H   0  0  0  0  0  0  0  0  0  0  0  0
  145.0919  134.3029  149.6443 H   0  0  0  0  0  0  0  0  0  0  0  0
  143.6132  134.5427  150.5816 H   0  0  0  0  0  0  0  0  0  0  0  0
  149.0945  129.7578  160.4957 H   0  0  0  0  0  0  0  0  0  0  0  0
  148.9835  130.9518  161.7808 H   0  0  0  0  0  0  0  0  0  0  0  0
  147.3373  129.1181  162.2775 H   0  0  0  0  0  0  0  0  0  0  0  0
  1  2  2  0  0  0  0
  2 29  1  0  0  0  0
  2  3  1  0  0  0  0
  3  4  1  0  0  0  0
  3 30  1  0  0  0  0
  3 31  1  0  0  0  0
  4  5  1  0  0  0  0
  4 28  1  0  0  0  0
  4 32  1  0  0  0  0
  5 10  1  0  0  0  0
  5  6  1  0  0  0  0
  5 33  1  0  0  0  0
  6  7  1  0  0  0  0
  6 34  1  0  0  0  0
  6 35  1  0  0  0  0
  7  8  1  0  0  0  0
  7 36  1  0  0  0  0
  7 37  1  0  0  0  0
  8  9  1  0  0  0  0
  8 38  1  0  0  0  0
  8 39  1  0  0  0  0
  9 10  1  0  0  0  0
  9 40  1  0  0  0  0
  9 41  1  0  0  0  0
 10 11  1  0  0  0  0
 11 16  1  0  0  0  0
 11 12  2  0  0  0  0
 12 13  1  0  0  0  0
 13 14  2  0  0  0  0
 13 42  1  0  0  0  0
 14 15  1  0  0  0  0
 15 19  1  0  0  0  0
 15 16  2  0  0  0  0
 16 17  1  0  0  0  0
 17 18  2  0  0  0  0
 18 19  1  0  0  0  0
 18 43  1  0  0  0  0
 19 20  1  0  0  0  0
 20 21  1  0  0  0  0
 20 44  1  0  0  0  0
 20 45  1  0  0  0  0
 21 22  1  0  0  0  0
 21 23  1  0  0  0  0
 21 46  1  0  0  0  0
 22 47  1  0  0  0  0
 23 27  1  0  0  0  0
 23 24  1  0  0  0  0
 23 48  1  0  0  0  0
 24 25  1  0  0  0  0
 24 49  1  0  0  0  0
 24 50  1  0  0  0  0
 25 26  1  0  0  0  0
 25 51  1  0  0  0  0
 25 52  1  0  0  0  0
 26 27  1  0  0  0  0
 26 53  1  0  0  0  0
 26 54  1  0  0  0  0
 28 29  1  0  0  0  0
 28 55  1  0  0  0  0
 28 56  1  0  0  0  0
 29 57  1  0  0  0  0
M  END
> <s_m_source_file>
AV-unprocessed.smi

> <i_m_source_file_index>
203

> <i_lp_mmshare_version>
43012

> <i_f3d_flags>
0

> <s_epik_input>
Tz1DMVtDSDJdW0NASF0oW0NIMl1bTkhdMSlbQ0BASF0yW0NIMl1bQ0gyXVtDSDJdW0NIMl1OMmMobltjSF1uMyljKGMzNCluW2NIXW40W0NIMl1bQ0BIXShbT0hdKVtDQEBIXTVbQ0gyXVtDSDJdW0NIMl1PNQ==

> <s_epik_cmdline>
J2VwaWtfcHl0aG9uJywgJy1waCcsICc3LjAnLCAnLXRuJywgJzgnLCAnLW1hJywgJzIwMCcsICctbWV0YWxfYmluZGluZycsICctaW1hZScsICc8aW5maWxlLm1hZT4nLCAnLW9tYWUnLCAnPG91dGZpbGUubWFlPic=

> <r_lp_tautomer_probability>
1

> <r_epik_Ionization_Penalty>
0.00175146

> <r_epik_Ionization_Penalty_Charging>
0

> <r_epik_Ionization_Penalty_Neutral>
0.00175146

> <r_epik_State_Penalty>
0.00109045

> <r_epik_Charging_Adjusted_Penalty>
0.00109045

> <i_epik_Tot_Q>
0

> <i_epik_Tot_abs_Q>
0

> <r_epik_Metal_State_Penalty>
-0

> <b_epik_Metal_Only>
0

> <s_lp_Force_Field>
OPLS_2005

> <r_lp_Energy>
55.9411

> <b_lp_Chiralities_Consistent>
1

> <s_lp_Variant>
AV-unprocessed.smi:203-9

> <Gold.Version>
5.8.1

> <Gold.Id.Protein>
6NUR|6NUR_protein|mol2

> <Gold.PLP.Fitness>
41.6247

> <Gold.PLP.PLP>
-34.6052

> <Gold.PLP.part.hbond>
-2.0000

> <Gold.PLP.part.metal>
0.0000

> <Gold.PLP.part.buried>
-6.8686

> <Gold.PLP.part.nonpolar>
-26.7818

> <Gold.PLP.part.repulsive>
0.2590

> <Gold.PLP.ligand.clash>
0.0000

> <Gold.PLP.ligand.torsion>
1.1574

> <Gold.PLP.Chemscore.Hbond>
2.0000

> <Gold.PLP.Chemscore.CHOScore>
1.0000

> <Gold.PLP.Chemscore.Metal>
0.0000

> <Gold.Chemscore.Hbonds>
donor molecule, donor type, donor heavy atom, donor atom, acceptor molecule, acceptor atom, score
      L1  H    22    47       P1 10747  1.00
      P1  H  6896  6907       L1    12  1.00
      L1  C    18    43       P1 10957  1.00

> <Gold.PLP.Chemscore.Internal.Correction>
0.3343

> <Gold.Rescore>
     Score         DG    S(hbond)    S(metal)    S(lipo)     H(rot)  DE(clash)    DE(int)     intcor
     14.33     -15.44       1.94        0.00      89.20       2.72       0.03       1.08       ----

> <Gold.Chemscore.Fitness>
14.3333

> <Gold.Chemscore.DG>
-15.4445

> <Gold.Chemscore.ZeroCoef>
-5.4800

> <Gold.Chemscore.Hbond>
1.9414

> <Gold.Chemscore.Metal>
0.0000

> <Gold.Chemscore.Lipo>
89.1961

> <Gold.Chemscore.Internal_Hbond>
0.0000

> <Gold.Chemscore.DEClash>
0.0279

> <Gold.Chemscore.DEInternal>
1.0833

> <Gold.Chemscore.Rot>
2.7171

> <Gold.Chemscore.Internal.Correction>
   9.000000E+99

> <Gold.Chemscore.Hbonds>
donor molecule, donor type, donor heavy atom, donor atom, acceptor molecule, acceptor atom, score
      L1  H    22    47       P1 10747  0.94
      P1  H  6896  6907       L1    12  0.85

> <Gold.Chemscore.Hbond.Weighted>
-6.4843

> <Gold.Chemscore.Metal.Weighted>
-0.0000

> <Gold.Chemscore.Lipo.Weighted>
-10.4359

> <Gold.Chemscore.Internal_Hbond.Weighted>
0.0000

> <Gold.Chemscore.DEClash.Weighted>
0.0279

> <Gold.Chemscore.DEInternal.Weighted>
1.0833

> <Gold.Chemscore.Rot.Weighted>
6.9557

> <Gold.Chemscore.Internal.Correction.Weighted>
   9.000000E+99

> <Gold.Protein.RotatedTorsions>
[ 6907 6896 6895 6894 ] final -106.79 input  -60.11 | X-H torsion
[ 7974 7965 7964 7962 ] final  -22.89 input  175.53 | X-H torsion
[ 8008 7997 7996 7995 ] final  135.91 input   59.86 | X-H torsion
[ 10167 10162 10161 10158 ] final   20.93 input  -65.29 | X-H torsion
[ 10718 10713 10712 10709 ] final  116.40 input   66.30 | X-H torsion
[ 10763 10752 10751 10750 ] final  107.58 input  -60.55 | X-H torsion
[ 11005 11000 10999 10996 ] final  174.08 input  -57.11 | X-H torsion

> <Gold.Protein.ActiveResidues>
 VAL166  LYS551  ARG553  GLY616  TRP617  ASP618  TYR619  PRO620  LYS621  CYS622 
 ASP623  PHE694  ASN695  SER759  ASP760  ASP761  ALA762  ILE779  LEU786  VAL792 
 PHE793  MET794  SER795  GLU796  ALA797  LYS798  CYS799  TRP800  GLU811  SER814 

> <Gold.Protein.RotatedAtoms>
  150.7408  133.9923  159.3610 H   0  0  0  0  0  0  0  0  0  0  0  0  # atno 6907 bound_to 6896
  151.7872  135.0743  160.0391 H   0  0  0  0  0  0  0  0  0  0  0  0  # atno 6908 bound_to 6896
  152.3233  133.5841  159.5795 H   0  0  0  0  0  0  0  0  0  0  0  0  # atno 6909 bound_to 6896
  146.1649  140.4541  142.8556 H   0  0  0  0  0  0  0  0  0  0  0  0  # atno 7974 bound_to 7965
  156.3004  140.2458  156.3659 H   0  0  0  0  0  0  0  0  0  0  0  0  # atno 8008 bound_to 7997
  154.8834  140.0412  157.1815 H   0  0  0  0  0  0  0  0  0  0  0  0  # atno 8009 bound_to 7997
  154.8672  140.2929  155.5507 H   0  0  0  0  0  0  0  0  0  0  0  0  # atno 8010 bound_to 7997
  140.5465  143.9584  150.6551 H   0  0  0  0  0  0  0  0  0  0  0  0  # atno 10167 bound_to 10162
  157.6162  131.1025  150.7468 H   0  0  0  0  0  0  0  0  0  0  0  0  # atno 10718 bound_to 10713
  153.4087  135.3839  155.2036 H   0  0  0  0  0  0  0  0  0  0  0  0  # atno 10763 bound_to 10752
  154.8736  135.3789  154.4527 H   0  0  0  0  0  0  0  0  0  0  0  0  # atno 10764 bound_to 10752
  153.5033  135.7088  153.5882 H   0  0  0  0  0  0  0  0  0  0  0  0  # atno 10765 bound_to 10752
  140.3475  134.7224  157.4245 H   0  0  0  0  0  0  0  0  0  0  0  0  # atno 11005 bound_to 11000
  144.8078  140.6331  143.6435 LP  0  0  0  0  0  0  0  0  0  0  0  0  # atno 17320 bound_to 7965
  145.4494  139.1525  143.3927 LP  0  0  0  0  0  0  0  0  0  0  0  0  # atno 17321 bound_to 7965
  140.2999  143.3267  152.0982 LP  0  0  0  0  0  0  0  0  0  0  0  0  # atno 17342 bound_to 10162
  139.5009  144.6703  151.6258 LP  0  0  0  0  0  0  0  0  0  0  0  0  # atno 17343 bound_to 10162
  156.7834  130.4867  149.5397 LP  0  0  0  0  0  0  0  0  0  0  0  0  # atno 17370 bound_to 10713
  156.1286  130.6161  151.0300 LP  0  0  0  0  0  0  0  0  0  0  0  0  # atno 17371 bound_to 10713
  140.0730  134.5836  155.8621 LP  0  0  0  0  0  0  0  0  0  0  0  0  # atno 17394 bound_to 11000
  141.2021  133.6623  156.5990 LP  0  0  0  0  0  0  0  0  0  0  0  0  # atno 17395 bound_to 11000

$$$$
