AV-unprocessed.smi:100|AV-procd|sdf|900|dock3
  -GOLD-   2262017393D 1   1.00000     0.00000
 Structure written by MMmdl.
 31 33  0  0  0  0  0  0  0  0  1 V2000
  149.2666  138.4422  153.4166 N   0  0  0  0  0  0  0  0  0  0  0  0
  150.2899  138.9287  154.1322 C   0  0  0  0  0  0  0  0  0  0  0  0
  151.4757  138.2787  154.0814 N   0  0  0  0  0  0  0  0  0  0  0  0
  152.5111  138.7448  154.7867 C   0  0  0  0  0  0  0  0  0  0  0  0
  152.5640  139.8148  155.5839 N   0  0  0  0  0  0  0  0  0  0  0  0
  151.3678  140.4702  155.6367 C   0  0  0  0  0  0  0  0  0  0  0  0
  150.1873  140.0907  154.9383 C   0  0  0  0  0  0  0  0  0  0  0  0
  149.1626  140.9838  155.2184 N   0  0  0  0  0  0  0  0  0  0  0  0
  149.7100  141.8402  156.0380 C   0  0  0  0  0  0  0  0  0  0  0  0
  151.0331  141.6085  156.3466 N   0  0  0  0  0  0  0  0  0  0  0  0
  151.9006  142.4264  157.2589 C   0  0  1  0  0  0  0  0  0  0  0  0
  151.2777  143.6458  157.5414 O   0  0  0  0  0  0  0  0  0  0  0  0
  150.9893  143.7410  158.9352 C   0  0  2  0  0  0  0  0  0  0  0  0
  150.9866  145.2060  159.3983 C   0  0  0  0  0  0  0  0  0  0  0  0
  150.6861  145.2794  160.7756 O   0  0  0  0  0  0  0  0  0  0  0  0
  152.0747  142.8779  159.5809 C   0  0  2  0  0  0  0  0  0  0  0  0
  153.2322  143.5407  159.6400 F   0  0  0  0  0  0  0  0  0  0  0  0
  152.2036  141.7277  158.5997 C   0  0  1  0  0  0  0  0  0  0  0  0
  151.3146  140.6754  158.9307 O   0  0  0  0  0  0  0  0  0  0  0  0
  148.3717  138.9095  153.4382 H   0  0  0  0  0  0  0  0  0  0  0  0
  149.3916  137.6073  152.8628 H   0  0  0  0  0  0  0  0  0  0  0  0
  153.4284  138.1814  154.6999 H   0  0  0  0  0  0  0  0  0  0  0  0
  149.1574  142.6745  156.4452 H   0  0  0  0  0  0  0  0  0  0  0  0
  152.8007  142.6259  156.6756 H   0  0  0  0  0  0  0  0  0  0  0  0
  150.0234  143.2797  159.1443 H   0  0  0  0  0  0  0  0  0  0  0  0
  151.9743  145.6458  159.2562 H   0  0  0  0  0  0  0  0  0  0  0  0
  150.2785  145.8033  158.8232 H   0  0  0  0  0  0  0  0  0  0  0  0
  150.0908  145.9998  160.9157 H   0  0  0  0  0  0  0  0  0  0  0  0
  151.8299  142.5643  160.5963 H   0  0  0  0  0  0  0  0  0  0  0  0
  153.2150  141.3200  158.5794 H   0  0  0  0  0  0  0  0  0  0  0  0
  151.0196  140.8016  159.8197 H   0  0  0  0  0  0  0  0  0  0  0  0
  1  2  1  0  0  0  0
  1 20  1  0  0  0  0
  1 21  1  0  0  0  0
  2  7  1  0  0  0  0
  2  3  2  0  0  0  0
  3  4  1  0  0  0  0
  4  5  2  0  0  0  0
  4 22  1  0  0  0  0
  5  6  1  0  0  0  0
  6 10  1  0  0  0  0
  6  7  2  0  0  0  0
  7  8  1  0  0  0  0
  8  9  2  0  0  0  0
  9 10  1  0  0  0  0
  9 23  1  0  0  0  0
 10 11  1  0  0  0  0
 11 18  1  0  0  0  0
 11 12  1  0  0  0  0
 11 24  1  0  0  0  0
 12 13  1  0  0  0  0
 13 14  1  0  0  0  0
 13 16  1  0  0  0  0
 13 25  1  0  0  0  0
 14 15  1  0  0  0  0
 14 26  1  0  0  0  0
 14 27  1  0  0  0  0
 15 28  1  0  0  0  0
 16 17  1  0  0  0  0
 16 18  1  0  0  0  0
 16 29  1  0  0  0  0
 18 19  1  0  0  0  0
 18 30  1  0  0  0  0
 19 31  1  0  0  0  0
M  END
> <s_m_source_file>
AV-unprocessed.smi

> <i_m_source_file_index>
100

> <i_lp_mmshare_version>
43012

> <i_f3d_flags>
0

> <s_epik_input>
bjFbY0hdbmMoW05IMl0pYyhjMTIpbltjSF1uMltDQEBIXTNPW0NAQEhdKFtDSDJdW09IXSlbQ0BIXShGKVtDQEhdM1tPSF0=

> <s_epik_cmdline>
J2VwaWtfcHl0aG9uJywgJy1waCcsICc3LjAnLCAnLXRuJywgJzgnLCAnLW1hJywgJzIwMCcsICctbWV0YWxfYmluZGluZycsICctaW1hZScsICc8aW5maWxlLm1hZT4nLCAnLW9tYWUnLCAnPG91dGZpbGUubWFlPic=

> <r_lp_tautomer_probability>
1

> <r_epik_Ionization_Penalty>
0.000750324

> <r_epik_Ionization_Penalty_Charging>
0

> <r_epik_Ionization_Penalty_Neutral>
0.000750324

> <r_epik_State_Penalty>
-0

> <r_epik_Charging_Adjusted_Penalty>
0

> <i_epik_Tot_Q>
0

> <i_epik_Tot_abs_Q>
0

> <r_epik_Metal_State_Penalty>
-0

> <b_epik_Metal_Only>
0

> <s_epik_Chemistry_Notes>
This compound contains an acetal/aminal-like group ( X-CH(R)-Y where X, Y are N, S, or O) that may be acid/base labile, releasing an aldehyde.

> <s_lp_Force_Field>
OPLS_2005

> <r_lp_Energy>
36.2821

> <b_lp_Chiralities_Consistent>
1

> <s_lp_Variant>
AV-unprocessed.smi:100-4

> <Gold.Version>
5.8.1

> <Gold.Id.Protein>
6NUR|6NUR_protein|mol2

> <Gold.PLP.Fitness>
44.7500

> <Gold.PLP.PLP>
-36.3192

> <Gold.PLP.part.hbond>
-4.0996

> <Gold.PLP.part.metal>
0.0000

> <Gold.PLP.part.buried>
-5.0399

> <Gold.PLP.part.nonpolar>
-27.4126

> <Gold.PLP.part.repulsive>
0.4962

> <Gold.PLP.ligand.clash>
0.0000

> <Gold.PLP.ligand.torsion>
0.2869

> <Gold.PLP.Chemscore.Hbond>
2.0000

> <Gold.PLP.Chemscore.CHOScore>
1.0000

> <Gold.PLP.Chemscore.Metal>
0.0000

> <Gold.Chemscore.Hbonds>
donor molecule, donor type, donor heavy atom, donor atom, acceptor molecule, acceptor atom, score
      L1  H     1    21       P1  7948  1.00
      P1  H  7997  8010       L1     5  1.00
      L1  C     9    23       P1  8028  1.00

> <Gold.PLP.Chemscore.Internal.Correction>
0.0044

> <Gold.Rescore>
     Score         DG    S(hbond)    S(metal)    S(lipo)     H(rot)  DE(clash)    DE(int)     intcor
      6.31      -8.55       1.80        0.00      44.52       3.19       1.80       0.44       ----

> <Gold.Chemscore.Fitness>
6.3091

> <Gold.Chemscore.DG>
-8.5463

> <Gold.Chemscore.ZeroCoef>
-5.4800

> <Gold.Chemscore.Hbond>
1.8035

> <Gold.Chemscore.Metal>
0.0000

> <Gold.Chemscore.Lipo>
44.5228

> <Gold.Chemscore.Internal_Hbond>
0.0000

> <Gold.Chemscore.DEClash>
1.7994

> <Gold.Chemscore.DEInternal>
0.4378

> <Gold.Chemscore.Rot>
3.1901

> <Gold.Chemscore.Internal.Correction>
   9.000000E+99

> <Gold.Chemscore.Hbonds>
donor molecule, donor type, donor heavy atom, donor atom, acceptor molecule, acceptor atom, score
      L1  H     1    21       P1  7948  0.90
      P1  H  7997  8010       L1     5  0.78

> <Gold.Chemscore.Hbond.Weighted>
-6.0238

> <Gold.Chemscore.Metal.Weighted>
-0.0000

> <Gold.Chemscore.Lipo.Weighted>
-5.2092

> <Gold.Chemscore.Internal_Hbond.Weighted>
0.0000

> <Gold.Chemscore.DEClash.Weighted>
1.7994

> <Gold.Chemscore.DEInternal.Weighted>
0.4378

> <Gold.Chemscore.Rot.Weighted>
8.1667

> <Gold.Chemscore.Internal.Correction.Weighted>
   9.000000E+99

> <Gold.Protein.RotatedTorsions>
[ 6907 6896 6895 6894 ] final  -56.12 input  -60.11 | X-H torsion
[ 7974 7965 7964 7962 ] final   50.52 input  175.53 | X-H torsion
[ 8008 7997 7996 7995 ] final   88.43 input   59.86 | X-H torsion
[ 10167 10162 10161 10158 ] final   36.05 input  -65.29 | X-H torsion
[ 10718 10713 10712 10709 ] final  -43.35 input   66.30 | X-H torsion
[ 10763 10752 10751 10750 ] final -177.84 input  -60.55 | X-H torsion
[ 11005 11000 10999 10996 ] final   40.65 input  -57.11 | X-H torsion

> <Gold.Protein.ActiveResidues>
 VAL166  LYS551  ARG553  GLY616  TRP617  ASP618  TYR619  PRO620  LYS621  CYS622 
 ASP623  PHE694  ASN695  SER759  ASP760  ASP761  ALA762  ILE779  LEU786  VAL792 
 PHE793  MET794  SER795  GLU796  ALA797  LYS798  CYS799  TRP800  GLU811  SER814 

> <Gold.Protein.RotatedAtoms>
  150.8194  134.7394  159.6758 H   0  0  0  0  0  0  0  0  0  0  0  0  # atno 6907 bound_to 6896
  152.4311  134.5773  159.9948 H   0  0  0  0  0  0  0  0  0  0  0  0  # atno 6908 bound_to 6896
  151.5961  133.3324  159.3073 H   0  0  0  0  0  0  0  0  0  0  0  0  # atno 6909 bound_to 6896
  146.0004  139.4433  143.0018 H   0  0  0  0  0  0  0  0  0  0  0  0  # atno 7974 bound_to 7965
  155.9876  140.3371  155.6722 H   0  0  0  0  0  0  0  0  0  0  0  0  # atno 8008 bound_to 7997
  155.6464  140.0701  157.2619 H   0  0  0  0  0  0  0  0  0  0  0  0  # atno 8009 bound_to 7997
  154.4210  140.1733  156.1615 H   0  0  0  0  0  0  0  0  0  0  0  0  # atno 8010 bound_to 7997
  140.4164  144.1520  150.6144 H   0  0  0  0  0  0  0  0  0  0  0  0  # atno 10167 bound_to 10162
  156.2499  130.4187  149.8662 H   0  0  0  0  0  0  0  0  0  0  0  0  # atno 10718 bound_to 10713
  154.5551  135.2816  155.0972 H   0  0  0  0  0  0  0  0  0  0  0  0  # atno 10763 bound_to 10752
  154.2402  135.6358  153.5208 H   0  0  0  0  0  0  0  0  0  0  0  0  # atno 10764 bound_to 10752
  153.0013  135.5558  154.6129 H   0  0  0  0  0  0  0  0  0  0  0  0  # atno 10765 bound_to 10752
  140.1910  134.3987  155.8147 H   0  0  0  0  0  0  0  0  0  0  0  0  # atno 11005 bound_to 11000
  145.7496  140.9977  143.1257 LP  0  0  0  0  0  0  0  0  0  0  0  0  # atno 17320 bound_to 7965
  144.6917  139.9199  143.7467 LP  0  0  0  0  0  0  0  0  0  0  0  0  # atno 17321 bound_to 7965
  140.4581  143.2459  151.9257 LP  0  0  0  0  0  0  0  0  0  0  0  0  # atno 17342 bound_to 10162
  139.4782  144.5495  151.8408 LP  0  0  0  0  0  0  0  0  0  0  0  0  # atno 17343 bound_to 10162
  156.6214  130.8628  151.3476 LP  0  0  0  0  0  0  0  0  0  0  0  0  # atno 17370 bound_to 10713
  157.7210  130.9559  150.1439 LP  0  0  0  0  0  0  0  0  0  0  0  0  # atno 17371 bound_to 10713
  141.2226  133.7046  156.8095 LP  0  0  0  0  0  0  0  0  0  0  0  0  # atno 17394 bound_to 11000
  140.2160  134.8792  157.3326 LP  0  0  0  0  0  0  0  0  0  0  0  0  # atno 17395 bound_to 11000

$$$$
