AV-unprocessed.smi:926|AV-procd|sdf|4186|dock4
  -GOLD-   22720 2 93D 1   1.00000     0.00000
 Structure written by MMmdl.
 37 39  0  0  0  0  0  0  0  0  1 V2000
  152.6857  139.8095  154.9455 O   0  0  0  0  0  0  0  0  0  0  0  0
  151.6087  139.4527  155.4265 C   0  0  0  0  0  0  0  0  0  0  0  0
  150.7403  138.3942  154.7358 C   0  0  0  0  0  0  0  0  0  0  0  0
  150.9245  137.0636  155.2894 N   0  0  0  0  0  0  0  0  0  0  0  0
  150.3071  135.9097  155.0260 C   0  0  0  0  0  0  0  0  0  0  0  0
  150.7845  134.9198  155.7647 N   0  0  0  0  0  0  0  0  0  0  0  0
  151.7622  135.5386  156.5259 N   0  0  0  0  0  0  0  0  0  0  0  0
  151.8499  136.8107  156.2480 N   0  0  0  0  0  0  0  0  0  0  0  0
  151.1213  139.9461  156.5750 N   0  0  0  0  0  0  0  0  0  0  0  0
  151.7817  140.9519  157.3980 C   0  0  0  0  0  0  0  0  0  0  0  0
  150.7688  141.7488  158.2384 C   0  0  0  0  0  0  0  0  0  0  0  0
  151.0540  143.2635  158.2621 C   0  0  1  0  0  0  0  0  0  0  0  0
  150.1657  144.0543  159.2469 C   0  0  0  0  0  0  0  0  0  0  0  0
  151.1895  144.8779  160.0502 C   0  0  1  0  0  0  0  0  0  0  0  0
  151.9410  143.9446  161.0175 C   0  0  0  0  0  0  0  0  0  0  0  0
  152.8609  143.1491  160.0734 C   0  0  0  0  0  0  0  0  0  0  0  0
  152.4800  143.6982  158.6831 C   0  0  2  0  0  0  0  0  0  0  0  0
  152.2565  145.1730  159.0018 C   0  0  0  0  0  0  0  0  0  0  0  0
  149.6893  138.6674  154.8361 H   0  0  0  0  0  0  0  0  0  0  0  0
  150.9688  138.3716  153.6689 H   0  0  0  0  0  0  0  0  0  0  0  0
  149.5134  135.7979  154.3020 H   0  0  0  0  0  0  0  0  0  0  0  0
  150.2301  139.6015  156.9023 H   0  0  0  0  0  0  0  0  0  0  0  0
  152.5245  140.4718  158.0369 H   0  0  0  0  0  0  0  0  0  0  0  0
  152.3294  141.6256  156.7385 H   0  0  0  0  0  0  0  0  0  0  0  0
  149.7698  141.5897  157.8304 H   0  0  0  0  0  0  0  0  0  0  0  0
  150.7323  141.3566  159.2546 H   0  0  0  0  0  0  0  0  0  0  0  0
  150.8711  143.6496  157.2576 H   0  0  0  0  0  0  0  0  0  0  0  0
  149.4806  144.7066  158.7038 H   0  0  0  0  0  0  0  0  0  0  0  0
  149.5658  143.4115  159.8924 H   0  0  0  0  0  0  0  0  0  0  0  0
  150.7612  145.7559  160.5345 H   0  0  0  0  0  0  0  0  0  0  0  0
  152.5308  144.5171  161.7346 H   0  0  0  0  0  0  0  0  0  0  0  0
  151.2643  143.2999  161.5798 H   0  0  0  0  0  0  0  0  0  0  0  0
  153.9061  143.3701  160.2938 H   0  0  0  0  0  0  0  0  0  0  0  0
  152.7360  142.0708  160.1655 H   0  0  0  0  0  0  0  0  0  0  0  0
  153.2365  143.5133  157.9202 H   0  0  0  0  0  0  0  0  0  0  0  0
  151.8831  145.7503  158.1540 H   0  0  0  0  0  0  0  0  0  0  0  0
  153.1395  145.6682  159.4100 H   0  0  0  0  0  0  0  0  0  0  0  0
  1  2  2  0  0  0  0
  2  3  1  0  0  0  0
  2  9  1  0  0  0  0
  3  4  1  0  0  0  0
  3 19  1  0  0  0  0
  3 20  1  0  0  0  0
  4  8  1  0  0  0  0
  4  5  1  0  0  0  0
  5  6  2  0  0  0  0
  5 21  1  0  0  0  0
  6  7  1  0  0  0  0
  7  8  2  0  0  0  0
  9 10  1  0  0  0  0
  9 22  1  0  0  0  0
 10 11  1  0  0  0  0
 10 23  1  0  0  0  0
 10 24  1  0  0  0  0
 11 12  1  0  0  0  0
 11 25  1  0  0  0  0
 11 26  1  0  0  0  0
 12 17  1  0  0  0  0
 12 13  1  0  0  0  0
 12 27  1  0  0  0  0
 13 14  1  0  0  0  0
 13 28  1  0  0  0  0
 13 29  1  0  0  0  0
 14 18  1  0  0  0  0
 14 15  1  0  0  0  0
 14 30  1  0  0  0  0
 15 16  1  0  0  0  0
 15 31  1  0  0  0  0
 15 32  1  0  0  0  0
 16 17  1  0  0  0  0
 16 33  1  0  0  0  0
 16 34  1  0  0  0  0
 17 18  1  0  0  0  0
 17 35  1  0  0  0  0
 18 36  1  0  0  0  0
 18 37  1  0  0  0  0
M  END
> <s_m_source_file>
AV-unprocessed.smi

> <i_m_source_file_index>
926

> <i_lp_mmshare_version>
43012

> <i_f3d_flags>
0

> <s_epik_input>
bjFubltjSF1uMVtDSDJdQyg9TylbTkhdW0NIMl1bQ0gyXVtDQEhdKFtDSDJdW0NASF0yMylbQ0BIXShbQ0gyXTMpW0NIMl1bQ0gyXTI=

> <s_epik_cmdline>
J2VwaWtfcHl0aG9uJywgJy1waCcsICc3LjAnLCAnLXRuJywgJzgnLCAnLW1hJywgJzIwMCcsICctbWV0YWxfYmluZGluZycsICctaW1hZScsICc8aW5maWxlLm1hZT4nLCAnLW9tYWUnLCAnPG91dGZpbGUubWFlPic=

> <r_lp_tautomer_probability>
1

> <r_epik_Ionization_Penalty>
4.22645e-07

> <r_epik_Ionization_Penalty_Charging>
0

> <r_epik_Ionization_Penalty_Neutral>
4.22645e-07

> <r_epik_State_Penalty>
-0

> <r_epik_Charging_Adjusted_Penalty>
0

> <i_epik_Tot_Q>
0

> <i_epik_Tot_abs_Q>
0

> <r_epik_Metal_State_Penalty>
-0

> <b_epik_Metal_Only>
0

> <s_lp_Force_Field>
OPLS_2005

> <r_lp_Energy>
51.6894

> <b_lp_Chiralities_Consistent>
1

> <s_lp_Variant>
AV-unprocessed.smi:926-4

> <Gold.Version>
5.8.1

> <Gold.Id.Protein>
6NUR|6NUR_protein|mol2

> <Gold.PLP.Fitness>
48.2528

> <Gold.PLP.PLP>
-42.0439

> <Gold.PLP.part.hbond>
-4.7929

> <Gold.PLP.part.metal>
0.0000

> <Gold.PLP.part.buried>
-4.9979

> <Gold.PLP.part.nonpolar>
-32.7443

> <Gold.PLP.part.repulsive>
0.1919

> <Gold.PLP.ligand.clash>
0.0000

> <Gold.PLP.ligand.torsion>
0.8512

> <Gold.PLP.Chemscore.Hbond>
1.6320

> <Gold.PLP.Chemscore.CHOScore>
1.0000

> <Gold.PLP.Chemscore.Metal>
0.0000

> <Gold.Chemscore.Hbonds>
donor molecule, donor type, donor heavy atom, donor atom, acceptor molecule, acceptor atom, score
      P1  H  7989  7998       L1     1  0.25
      P1  H  7997  8010       L1     1  0.98
      P1  H 10752 10763       L1     7  0.16
      L1  C     5    21       P1  7948  1.00

> <Gold.PLP.Chemscore.Internal.Correction>
0.0152

> <Gold.Rescore>
     Score         DG    S(hbond)    S(metal)    S(lipo)     H(rot)  DE(clash)    DE(int)     intcor
     14.72     -15.22       1.29        0.00     101.99       2.54       0.00       0.50       ----

> <Gold.Chemscore.Fitness>
14.7165

> <Gold.Chemscore.DG>
-15.2203

> <Gold.Chemscore.ZeroCoef>
-5.4800

> <Gold.Chemscore.Hbond>
1.2930

> <Gold.Chemscore.Metal>
0.0000

> <Gold.Chemscore.Lipo>
101.9944

> <Gold.Chemscore.Internal_Hbond>
0.0000

> <Gold.Chemscore.DEClash>
0.0038

> <Gold.Chemscore.DEInternal>
0.5000

> <Gold.Chemscore.Rot>
2.5436

> <Gold.Chemscore.Internal.Correction>
   9.000000E+99

> <Gold.Chemscore.Hbonds>
donor molecule, donor type, donor heavy atom, donor atom, acceptor molecule, acceptor atom, score
      P1  H  7989  7998       L1     1  0.01
      P1  H  7997  8010       L1     1  0.91

> <Gold.Chemscore.Hbond.Weighted>
-4.3187

> <Gold.Chemscore.Metal.Weighted>
-0.0000

> <Gold.Chemscore.Lipo.Weighted>
-11.9333

> <Gold.Chemscore.Internal_Hbond.Weighted>
0.0000

> <Gold.Chemscore.DEClash.Weighted>
0.0038

> <Gold.Chemscore.DEInternal.Weighted>
0.5000

> <Gold.Chemscore.Rot.Weighted>
6.5117

> <Gold.Chemscore.Internal.Correction.Weighted>
   9.000000E+99

> <Gold.Protein.RotatedTorsions>
[ 6907 6896 6895 6894 ] final   41.78 input  -60.11 | X-H torsion
[ 7974 7965 7964 7962 ] final  -24.52 input  175.53 | X-H torsion
[ 8008 7997 7996 7995 ] final  106.53 input   59.86 | X-H torsion
[ 10167 10162 10161 10158 ] final   -1.55 input  -65.29 | X-H torsion
[ 10718 10713 10712 10709 ] final  116.16 input   66.30 | X-H torsion
[ 10763 10752 10751 10750 ] final  114.81 input  -60.55 | X-H torsion
[ 11005 11000 10999 10996 ] final  -39.54 input  -57.11 | X-H torsion

> <Gold.Protein.ActiveResidues>
 VAL166  LYS551  ARG553  GLY616  TRP617  ASP618  TYR619  PRO620  LYS621  CYS622 
 ASP623  PHE694  ASN695  SER759  ASP760  ASP761  ALA762  ILE779  LEU786  VAL792 
 PHE793  MET794  SER795  GLU796  ALA797  LYS798  CYS799  TRP800  GLU811  SER814 

> <Gold.Protein.RotatedAtoms>
  152.1996  134.8600  160.0509 H   0  0  0  0  0  0  0  0  0  0  0  0  # atno 6907 bound_to 6896
  151.9458  133.3646  159.3990 H   0  0  0  0  0  0  0  0  0  0  0  0  # atno 6908 bound_to 6896
  150.6952  134.4315  159.5295 H   0  0  0  0  0  0  0  0  0  0  0  0  # atno 6909 bound_to 6896
  146.1549  140.4763  142.8595 H   0  0  0  0  0  0  0  0  0  0  0  0  # atno 7974 bound_to 7965
  156.1750  140.3111  155.9043 H   0  0  0  0  0  0  0  0  0  0  0  0  # atno 8008 bound_to 7997
  155.3506  140.0471  157.3063 H   0  0  0  0  0  0  0  0  0  0  0  0  # atno 8009 bound_to 7997
  154.5281  140.2221  155.8864 H   0  0  0  0  0  0  0  0  0  0  0  0  # atno 8010 bound_to 7997
  140.6814  143.6762  150.8143 H   0  0  0  0  0  0  0  0  0  0  0  0  # atno 10167 bound_to 10162
  157.6177  131.1022  150.7433 H   0  0  0  0  0  0  0  0  0  0  0  0  # atno 10718 bound_to 10713
  153.5128  135.3614  155.2595 H   0  0  0  0  0  0  0  0  0  0  0  0  # atno 10763 bound_to 10752
  154.8741  135.4027  154.3349 H   0  0  0  0  0  0  0  0  0  0  0  0  # atno 10764 bound_to 10752
  153.4005  135.7075  153.6496 H   0  0  0  0  0  0  0  0  0  0  0  0  # atno 10765 bound_to 10752
  141.0109  133.6908  156.2201 H   0  0  0  0  0  0  0  0  0  0  0  0  # atno 11005 bound_to 11000
  144.7951  140.6107  143.6515 LP  0  0  0  0  0  0  0  0  0  0  0  0  # atno 17320 bound_to 7965
  145.4732  139.1501  143.3803 LP  0  0  0  0  0  0  0  0  0  0  0  0  # atno 17321 bound_to 7965
  140.0463  143.5295  152.2694 LP  0  0  0  0  0  0  0  0  0  0  0  0  # atno 17342 bound_to 10162
  139.6140  144.7615  151.2887 LP  0  0  0  0  0  0  0  0  0  0  0  0  # atno 17343 bound_to 10162
  156.7797  130.4855  149.5403 LP  0  0  0  0  0  0  0  0  0  0  0  0  # atno 17370 bound_to 10713
  156.1307  130.6176  151.0330 LP  0  0  0  0  0  0  0  0  0  0  0  0  # atno 17371 bound_to 10713
  140.6734  134.4843  157.5588 LP  0  0  0  0  0  0  0  0  0  0  0  0  # atno 17394 bound_to 11000
  139.9089  134.8387  156.1600 LP  0  0  0  0  0  0  0  0  0  0  0  0  # atno 17395 bound_to 11000

$$$$
