AV-unprocessed.smi:221|AV-procd|sdf|1694|dock4
  -GOLD-   2262020143D 1   1.00000     0.00000
 Structure written by MMmdl.
 50 53  0  0  0  0  0  0  0  0  1 V2000
  141.9345  134.3190  154.3023 N   0  0  0  0  0  0  0  0  0  0  0  0
  142.1763  135.1106  153.2549 C   0  0  0  0  0  0  0  0  0  0  0  0
  141.5365  136.1414  153.0533 O   0  0  0  0  0  0  0  0  0  0  0  0
  143.3131  134.6854  152.3142 C   0  0  2  0  0  0  0  0  0  0  0  0
  143.0701  133.2942  151.7141 C   0  0  0  0  0  0  0  0  0  0  0  0
  144.4739  132.8265  151.3469 C   0  0  1  0  0  0  0  0  0  0  0  0
  144.8244  133.3477  150.1702 F   0  0  0  0  0  0  0  0  0  0  0  0
  145.3461  133.4258  152.4526 C   0  0  0  0  0  0  0  0  0  0  0  0
  144.5915  134.5431  153.0143 N   0  0  0  0  0  0  0  0  0  0  0  0
  145.2899  135.6840  153.2056 C   0  0  0  0  0  0  0  0  0  0  0  0
  145.0567  136.7045  152.3448 N   0  0  0  0  0  0  0  0  0  0  0  0
  145.7228  137.8557  152.4788 C   0  0  0  0  0  0  0  0  0  0  0  0
  146.6449  138.1871  153.3858 N   0  0  0  0  0  0  0  0  0  0  0  0
  146.8791  137.1597  154.2520 C   0  0  0  0  0  0  0  0  0  0  0  0
  146.2495  135.8842  154.2371 C   0  0  0  0  0  0  0  0  0  0  0  0
  146.7398  135.0996  155.2742 N   0  0  0  0  0  0  0  0  0  0  0  0
  147.6134  135.8670  155.8667 C   0  0  0  0  0  0  0  0  0  0  0  0
  147.7655  137.1183  155.3129 N   0  0  0  0  0  0  0  0  0  0  0  0
  148.6647  138.1667  155.7591 C   0  0  0  0  0  0  0  0  0  0  0  0
  149.9636  138.2663  154.9214 C   0  0  2  0  0  0  0  0  0  0  0  0
  150.7679  136.9407  154.8906 C   0  0  0  0  0  0  0  0  0  0  0  0
  151.8100  136.9858  153.9377 O   0  0  0  0  0  0  0  0  0  0  0  0
  150.8029  139.4819  155.3913 C   0  0  1  0  0  0  0  0  0  0  0  0
  150.1852  140.8551  155.1514 C   0  0  0  0  0  0  0  0  0  0  0  0
  150.8293  141.6916  156.2477 C   0  0  0  0  0  0  0  0  0  0  0  0
  150.8323  140.8063  157.3550 O   0  0  0  0  0  0  0  0  0  0  0  0
  151.1605  139.5018  156.8884 C   0  0  0  0  0  0  0  0  0  0  0  0
  143.4075  135.4127  151.5055 H   0  0  0  0  0  0  0  0  0  0  0  0
  144.5635  131.7429  151.2658 H   0  0  0  0  0  0  0  0  0  0  0  0
  141.1942  134.5552  154.9470 H   0  0  0  0  0  0  0  0  0  0  0  0
  142.4881  133.4868  154.4446 H   0  0  0  0  0  0  0  0  0  0  0  0
  142.6453  132.6176  152.4581 H   0  0  0  0  0  0  0  0  0  0  0  0
  142.3960  133.3145  150.8570 H   0  0  0  0  0  0  0  0  0  0  0  0
  145.4902  132.6956  153.2497 H   0  0  0  0  0  0  0  0  0  0  0  0
  146.3363  133.6998  152.0842 H   0  0  0  0  0  0  0  0  0  0  0  0
  145.4831  138.6201  151.7546 H   0  0  0  0  0  0  0  0  0  0  0  0
  148.1810  135.5357  156.7241 H   0  0  0  0  0  0  0  0  0  0  0  0
  148.1172  139.1093  155.7211 H   0  0  0  0  0  0  0  0  0  0  0  0
  148.9041  137.9916  156.8084 H   0  0  0  0  0  0  0  0  0  0  0  0
  149.6708  138.4937  153.8948 H   0  0  0  0  0  0  0  0  0  0  0  0
  151.2291  136.7339  155.8554 H   0  0  0  0  0  0  0  0  0  0  0  0
  150.1169  136.0946  154.6688 H   0  0  0  0  0  0  0  0  0  0  0  0
  151.4968  136.6058  153.1310 H   0  0  0  0  0  0  0  0  0  0  0  0
  151.7529  139.4595  154.8547 H   0  0  0  0  0  0  0  0  0  0  0  0
  150.3851  141.2429  154.1522 H   0  0  0  0  0  0  0  0  0  0  0  0
  149.1058  140.8417  155.2988 H   0  0  0  0  0  0  0  0  0  0  0  0
  151.8545  141.9586  155.9866 H   0  0  0  0  0  0  0  0  0  0  0  0
  150.2759  142.6059  156.4633 H   0  0  0  0  0  0  0  0  0  0  0  0
  150.6262  138.7535  157.4735 H   0  0  0  0  0  0  0  0  0  0  0  0
  152.2275  139.3228  157.0280 H   0  0  0  0  0  0  0  0  0  0  0  0
  1  2  1  0  0  0  0
  1 30  1  0  0  0  0
  1 31  1  0  0  0  0
  2  3  2  0  0  0  0
  2  4  1  0  0  0  0
  4 28  1  0  0  0  0
  4  9  1  0  0  0  0
  4  5  1  0  0  0  0
  5  6  1  0  0  0  0
  5 32  1  0  0  0  0
  5 33  1  0  0  0  0
  6 29  1  0  0  0  0
  6  7  1  0  0  0  0
  6  8  1  0  0  0  0
  8  9  1  0  0  0  0
  8 34  1  0  0  0  0
  8 35  1  0  0  0  0
  9 10  1  0  0  0  0
 10 15  1  0  0  0  0
 10 11  2  0  0  0  0
 11 12  1  0  0  0  0
 12 13  2  0  0  0  0
 12 36  1  0  0  0  0
 13 14  1  0  0  0  0
 14 18  1  0  0  0  0
 14 15  2  0  0  0  0
 15 16  1  0  0  0  0
 16 17  2  0  0  0  0
 17 18  1  0  0  0  0
 17 37  1  0  0  0  0
 18 19  1  0  0  0  0
 19 20  1  0  0  0  0
 19 38  1  0  0  0  0
 19 39  1  0  0  0  0
 20 21  1  0  0  0  0
 20 23  1  0  0  0  0
 20 40  1  0  0  0  0
 21 22  1  0  0  0  0
 21 41  1  0  0  0  0
 21 42  1  0  0  0  0
 22 43  1  0  0  0  0
 23 27  1  0  0  0  0
 23 24  1  0  0  0  0
 23 44  1  0  0  0  0
 24 25  1  0  0  0  0
 24 45  1  0  0  0  0
 24 46  1  0  0  0  0
 25 26  1  0  0  0  0
 25 47  1  0  0  0  0
 25 48  1  0  0  0  0
 26 27  1  0  0  0  0
 27 49  1  0  0  0  0
 27 50  1  0  0  0  0
M  END
> <s_m_source_file>
AV-unprocessed.smi

> <i_m_source_file_index>
221

> <i_lp_mmshare_version>
43012

> <i_f3d_flags>
0

> <s_epik_input>
W05IMl1DKD1PKVtDQEBIXTFbQ0gyXVtDQEBIXShGKVtDSDJdTjFjKG5bY0hdbjIpYyhjMjMpbltjSF1uM1tDSDJdW0NASF0oW0NIMl1bT0hdKVtDQEBIXTRbQ0gyXVtDSDJdT1tDSDJdNA==

> <s_epik_cmdline>
J2VwaWtfcHl0aG9uJywgJy1waCcsICc3LjAnLCAnLXRuJywgJzgnLCAnLW1hJywgJzIwMCcsICctbWV0YWxfYmluZGluZycsICctaW1hZScsICc8aW5maWxlLm1hZT4nLCAnLW9tYWUnLCAnPG91dGZpbGUubWFlPic=

> <r_lp_tautomer_probability>
1

> <r_epik_Ionization_Penalty>
0.000818822

> <r_epik_Ionization_Penalty_Charging>
0

> <r_epik_Ionization_Penalty_Neutral>
0.000818822

> <r_epik_State_Penalty>
0.000440551

> <r_epik_Charging_Adjusted_Penalty>
0.000440551

> <i_epik_Tot_Q>
0

> <i_epik_Tot_abs_Q>
0

> <r_epik_Metal_State_Penalty>
-0

> <b_epik_Metal_Only>
0

> <s_lp_Force_Field>
OPLS_2005

> <r_lp_Energy>
51.8706

> <b_lp_Chiralities_Consistent>
1

> <s_lp_Variant>
AV-unprocessed.smi:221-9

> <Gold.Version>
5.8.1

> <Gold.Id.Protein>
6NUR|6NUR_protein|mol2

> <Gold.PLP.Fitness>
49.2885

> <Gold.PLP.PLP>
-33.3818

> <Gold.PLP.part.hbond>
-4.0000

> <Gold.PLP.part.metal>
0.0000

> <Gold.PLP.part.buried>
-4.2658

> <Gold.PLP.part.nonpolar>
-26.4323

> <Gold.PLP.part.repulsive>
0.7499

> <Gold.PLP.ligand.clash>
0.0000

> <Gold.PLP.ligand.torsion>
0.9325

> <Gold.PLP.Chemscore.Hbond>
3.9840

> <Gold.PLP.Chemscore.CHOScore>
1.8475

> <Gold.PLP.Chemscore.Metal>
0.0000

> <Gold.Chemscore.Hbonds>
donor molecule, donor type, donor heavy atom, donor atom, acceptor molecule, acceptor atom, score
      L1  H     1    30       P1 11000  0.91
      L1  H     1    31       P1 10957  1.00
      L1  H    22    43       P1  7949  1.00
      P1  H 10752 10763       L1    22  0.80
      L1  C    12    36       P1 10171  1.00
      L1  C    12    36       P1 10175  0.51

> <Gold.PLP.Chemscore.Internal.Correction>
0.2774

> <Gold.Rescore>
     Score         DG    S(hbond)    S(metal)    S(lipo)     H(rot)  DE(clash)    DE(int)     intcor
     12.27     -13.66       3.28        0.00      57.77       3.72       0.02       1.37       ----

> <Gold.Chemscore.Fitness>
12.2659

> <Gold.Chemscore.DG>
-13.6616

> <Gold.Chemscore.ZeroCoef>
-5.4800

> <Gold.Chemscore.Hbond>
3.2772

> <Gold.Chemscore.Metal>
0.0000

> <Gold.Chemscore.Lipo>
57.7733

> <Gold.Chemscore.Internal_Hbond>
0.0000

> <Gold.Chemscore.DEClash>
0.0234

> <Gold.Chemscore.DEInternal>
1.3722

> <Gold.Chemscore.Rot>
3.7202

> <Gold.Chemscore.Internal.Correction>
   9.000000E+99

> <Gold.Chemscore.Hbonds>
donor molecule, donor type, donor heavy atom, donor atom, acceptor molecule, acceptor atom, score
      L1  H     1    30       P1 11000  0.84
      L1  H     1    31       P1 10957  0.95
      L1  H    22    43       P1  7949  0.91
      P1  H 10752 10763       L1    22  0.06

> <Gold.Chemscore.Hbond.Weighted>
-10.9458

> <Gold.Chemscore.Metal.Weighted>
-0.0000

> <Gold.Chemscore.Lipo.Weighted>
-6.7595

> <Gold.Chemscore.Internal_Hbond.Weighted>
0.0000

> <Gold.Chemscore.DEClash.Weighted>
0.0234

> <Gold.Chemscore.DEInternal.Weighted>
1.3722

> <Gold.Chemscore.Rot.Weighted>
9.5237

> <Gold.Chemscore.Internal.Correction.Weighted>
   9.000000E+99

> <Gold.Protein.RotatedTorsions>
[ 6907 6896 6895 6894 ] final   49.32 input  -60.11 | X-H torsion
[ 7974 7965 7964 7962 ] final   85.02 input  175.53 | X-H torsion
[ 8008 7997 7996 7995 ] final  -43.83 input   59.86 | X-H torsion
[ 10167 10162 10161 10158 ] final  137.99 input  -65.29 | X-H torsion
[ 10718 10713 10712 10709 ] final  -18.46 input   66.30 | X-H torsion
[ 10763 10752 10751 10750 ] final   46.99 input  -60.55 | X-H torsion
[ 11005 11000 10999 10996 ] final -143.13 input  -57.11 | X-H torsion

> <Gold.Protein.ActiveResidues>
 VAL166  LYS551  ARG553  GLY616  TRP617  ASP618  TYR619  PRO620  LYS621  CYS622 
 ASP623  PHE694  ASN695  SER759  ASP760  ASP761  ALA762  ILE779  LEU786  VAL792 
 PHE793  MET794  SER795  GLU796  ALA797  LYS798  CYS799  TRP800  GLU811  SER814 

> <Gold.Protein.RotatedAtoms>
  152.2894  134.7739  160.0380 H   0  0  0  0  0  0  0  0  0  0  0  0  # atno 6907 bound_to 6896
  151.8290  133.3400  159.3615 H   0  0  0  0  0  0  0  0  0  0  0  0  # atno 6908 bound_to 6896
  150.7223  134.5430  159.5801 H   0  0  0  0  0  0  0  0  0  0  0  0  # atno 6909 bound_to 6896
  145.5911  139.2338  143.2299 H   0  0  0  0  0  0  0  0  0  0  0  0  # atno 7974 bound_to 7965
  154.3997  140.1438  156.3583 H   0  0  0  0  0  0  0  0  0  0  0  0  # atno 8008 bound_to 7997
  155.8205  140.3469  155.5490 H   0  0  0  0  0  0  0  0  0  0  0  0  # atno 8009 bound_to 7997
  155.8293  140.0910  157.1793 H   0  0  0  0  0  0  0  0  0  0  0  0  # atno 8010 bound_to 7997
  139.5126  144.6379  151.5648 H   0  0  0  0  0  0  0  0  0  0  0  0  # atno 10167 bound_to 10162
  156.5592  130.4721  149.6415 H   0  0  0  0  0  0  0  0  0  0  0  0  # atno 10718 bound_to 10713
  152.9804  135.5990  154.3689 H   0  0  0  0  0  0  0  0  0  0  0  0  # atno 10763 bound_to 10752
  154.3364  135.2768  155.2447 H   0  0  0  0  0  0  0  0  0  0  0  0  # atno 10764 bound_to 10752
  154.4548  135.5981  153.6271 H   0  0  0  0  0  0  0  0  0  0  0  0  # atno 10765 bound_to 10752
  140.8156  134.2692  157.4922 H   0  0  0  0  0  0  0  0  0  0  0  0  # atno 11005 bound_to 11000
  146.1646  140.6737  142.9261 LP  0  0  0  0  0  0  0  0  0  0  0  0  # atno 17320 bound_to 7965
  144.7351  140.4785  143.6910 LP  0  0  0  0  0  0  0  0  0  0  0  0  # atno 17321 bound_to 7965
  140.6135  143.9393  150.6470 LP  0  0  0  0  0  0  0  0  0  0  0  0  # atno 17342 bound_to 10162
  140.2643  143.3501  152.1295 LP  0  0  0  0  0  0  0  0  0  0  0  0  # atno 17343 bound_to 10162
  156.2814  130.7073  151.1898 LP  0  0  0  0  0  0  0  0  0  0  0  0  # atno 17370 bound_to 10713
  157.7372  131.0554  150.5370 LP  0  0  0  0  0  0  0  0  0  0  0  0  # atno 17371 bound_to 10713
  139.8711  134.9507  156.4063 LP  0  0  0  0  0  0  0  0  0  0  0  0  # atno 17394 bound_to 11000
  140.9152  133.7683  155.9840 LP  0  0  0  0  0  0  0  0  0  0  0  0  # atno 17395 bound_to 11000

$$$$
