#       Name:                AV-unprocessed.smi:1457
#       Creating user name   scv26
#       Creation time:       Fri Mar 27 06:00:30 2020


#       File generated by GOLD software.
#

@<TRIPOS>MOLECULE
AV-unprocessed.smi:1457
    39    40     1
SMALL
NO_CHARGES


@<TRIPOS>ATOM
      1 ****        -4.9096  -2.1705  -0.0490 C.3            1 S1                 0.0000
      2 ****        -3.4579  -1.8900  -0.0324 N.4            1 S1                 1.0000
      3 ****        -3.0290  -1.2057   1.2130 C.3            1 S1                 0.0000
      4 ****        -1.5003  -1.0441   1.2561 C.3            1 S1                 0.0000
      5 ****        -0.9869  -0.2953   0.0153 C.3            1 S1                 0.0000
      6 ****         0.4729  -0.2478   0.0313 N.am           1 S1                 0.0000
      7 ****         1.2213   0.8624  -0.0426 C.2            1 S1                 0.0000
      8 ****         0.7526   1.9957  -0.1467 O.2            1 S1                 0.0000
      9 ****         2.5314   0.5652  -0.0092 N.am           1 S1                 0.0000
     10 ****         3.6379   1.4565  -0.0144 C.ar           1 S1                 0.0000
     11 ****         3.5729   2.8065   0.4078 C.ar           1 S1                 0.0000
     12 ****         4.7458   3.5851   0.3779 C.ar           1 S1                 0.0000
     13 ****         5.9402   2.9852  -0.0658 C.ar           1 S1                 0.0000
     14 ****         6.0198   1.6961  -0.4577 N.ar           1 S1                 0.0000
     15 ****         4.8915   0.9554  -0.4249 C.ar           1 S1                 0.0000
     16 ****        -1.4788  -1.0013  -1.2595 C.3            1 S1                 0.0000
     17 ****        -3.0080  -1.1666  -1.2479 C.3            1 S1                 0.0000
     18 ****        -5.4878  -1.2456  -0.0400 H              1 S1                 0.0000
     19 ****        -5.1973  -2.7627   0.8204 H              1 S1                 0.0000
     20 ****        -5.1821  -2.7363  -0.9405 H              1 S1                 0.0000
     21 ****        -3.5119  -0.2292   1.2791 H              1 S1                 0.0000
     22 ****        -3.3578  -1.7815   2.0791 H              1 S1                 0.0000
     23 ****        -1.2112  -0.5090   2.1617 H              1 S1                 0.0000
     24 ****        -1.0340  -2.0288   1.3162 H              1 S1                 0.0000
     25 ****        -1.4029   0.7137   0.0319 H              1 S1                 0.0000
     26 ****         0.9532  -1.1324   0.1084 H              1 S1                 0.0000
     27 ****         2.7670  -0.4165  -0.0229 H              1 S1                 0.0000
     28 ****         2.6580   3.2526   0.7658 H              1 S1                 0.0000
     29 ****         4.7305   4.6180   0.6928 H              1 S1                 0.0000
     30 ****         6.8570   3.5548  -0.1017 H              1 S1                 0.0000
     31 ****         4.9934  -0.0725  -0.7415 H              1 S1                 0.0000
     32 ****        -1.1754  -0.4356  -2.1414 H              1 S1                 0.0000
     33 ****        -1.0097  -1.9828  -1.3457 H              1 S1                 0.0000
     34 ****        -3.3205  -1.7159  -2.1369 H              1 S1                 0.0000
     35 ****        -3.4917  -0.1894  -1.2926 H              1 S1                 0.0000
     36 ****        -2.9936  -2.7872  -0.0425 H              1 S1                 0.0000
     37 ****        -0.2383   2.1258  -0.1805 LP             1 S1                 0.0000
     38 ****         1.3627   2.7864  -0.1976 LP             1 S1                 0.0000
     39 ****         6.8869   1.3022  -0.7627 LP             1 S1                 0.0000
@<TRIPOS>BOND
    1    1    2 1     
    2    1   18 1     
    3    1   19 1     
    4    1   20 1     
    5    2   17 1     
    6    2    3 1     
    7    2   36 1     
    8    3    4 1     
    9    3   21 1     
   10    3   22 1     
   11    4    5 1     
   12    4   23 1     
   13    4   24 1     
   14    5    6 1     
   15    5   16 1     
   16    5   25 1     
   17    6    7 am    
   18    6   26 1     
   19    7    8 2     
   20    7    9 am    
   21    9   10 1     
   22    9   27 1     
   23   10   15 ar    
   24   10   11 ar    
   25   11   12 ar    
   26   11   28 1     
   27   12   13 ar    
   28   12   29 1     
   29   13   14 ar    
   30   13   30 1     
   31   14   15 ar    
   32   15   31 1     
   33   16   17 1     
   34   16   32 1     
   35   16   33 1     
   36   17   34 1     
   37   17   35 1     
   38    8   37 1     
   39    8   38 1     
   40   14   39 1     
@<TRIPOS>SUBSTRUCTURE
      1 S1             1
@<TRIPOS>SET
LONE_PAIRS      STATIC     ATOMS    <user>   **** ""
3 37 38 39
DONOR_HYDROGENS      STATIC     ATOMS    <user>   **** ""
3 36 26 27
ATOM$BLUE        STATIC     ATOMS    COLORGROUP SYSTEM
3 37 38 39
ATOM$RED        STATIC     ATOMS    COLORGROUP SYSTEM
3 36 26 27
