AV-unprocessed.smi:1966|AV-procd|sdf|7952|dock1
  -GOLD-   2272010123D 1   1.00000     0.00000
 Structure written by MMmdl.
 53 54  0  0  0  0  0  0  0  0  1 V2000
  145.5036  136.2609  152.5022 C   0  0  0  0  0  0  0  0  0  0  0  0
  146.1130  135.3671  153.5768 C   0  0  0  0  0  0  0  0  0  0  0  0
  145.3865  134.6726  154.2868 O   0  0  0  0  0  0  0  0  0  0  0  0
  147.4511  135.3911  153.6833 N   0  0  0  0  0  0  0  0  0  0  0  0
  148.2396  134.6201  154.6475 C   0  0  2  0  0  0  0  0  0  0  0  0
  148.9498  135.5979  155.6044 C   0  0  0  0  0  0  0  0  0  0  0  0
  149.1306  135.2832  156.7816 O   0  0  0  0  0  0  0  0  0  0  0  0
  149.3386  136.7662  155.0613 N   0  0  0  0  0  0  0  0  0  0  0  0
  149.9751  137.8643  155.6992 C   0  0  0  0  0  0  0  0  0  0  0  0
  150.7130  138.8576  155.0131 C   0  0  0  0  0  0  0  0  0  0  0  0
  151.3227  139.8870  155.7552 C   0  0  0  0  0  0  0  0  0  0  0  0
  151.1840  139.8886  157.1581 C   0  0  0  0  0  0  0  0  0  0  0  0
  151.7907  140.9130  157.8985 N   0  0  0  0  0  0  0  0  0  0  0  0
  151.9274  140.6047  159.3159 C   0  0  0  0  0  0  0  0  0  0  0  0
  152.7260  141.7069  160.0398 C   0  0  1  0  0  0  0  0  0  0  0  0
  154.2363  141.6656  159.7463 C   0  0  0  0  0  0  0  0  0  0  0  0
  152.1583  142.9902  159.7615 O   0  0  0  0  0  0  0  0  0  0  0  0
  152.0389  143.3067  158.3739 C   0  0  2  0  0  0  0  0  0  0  0  0
  151.3996  144.6940  158.2568 C   0  0  0  0  0  0  0  0  0  0  0  0
  151.1996  142.2241  157.6716 C   0  0  0  0  0  0  0  0  0  0  0  0
  150.4913  138.9337  157.8230 N   0  0  0  0  0  0  0  0  0  0  0  0
  149.9105  137.9485  157.1056 C   0  0  0  0  0  0  0  0  0  0  0  0
  149.2929  133.7713  153.8751 C   0  0  0  0  0  0  0  0  0  0  0  0
  148.6338  132.8438  152.8350 C   0  0  0  0  0  0  0  0  0  0  0  0
  150.1875  132.9267  154.8065 C   0  0  0  0  0  0  0  0  0  0  0  0
  145.9974  137.2329  152.4809 H   0  0  0  0  0  0  0  0  0  0  0  0
  144.4421  136.4230  152.6924 H   0  0  0  0  0  0  0  0  0  0  0  0
  145.6093  135.7970  151.5214 H   0  0  0  0  0  0  0  0  0  0  0  0
  147.9648  135.9993  153.0623 H   0  0  0  0  0  0  0  0  0  0  0  0
  147.5813  133.9546  155.2104 H   0  0  0  0  0  0  0  0  0  0  0  0
  149.2184  136.8524  154.0622 H   0  0  0  0  0  0  0  0  0  0  0  0
  150.8355  138.8411  153.9412 H   0  0  0  0  0  0  0  0  0  0  0  0
  151.8904  140.6573  155.2540 H   0  0  0  0  0  0  0  0  0  0  0  0
  150.9350  140.5251  159.7620 H   0  0  0  0  0  0  0  0  0  0  0  0
  152.4128  139.6365  159.4445 H   0  0  0  0  0  0  0  0  0  0  0  0
  152.6098  141.5491  161.1121 H   0  0  0  0  0  0  0  0  0  0  0  0
  154.6669  140.7197  160.0756 H   0  0  0  0  0  0  0  0  0  0  0  0
  154.7570  142.4653  160.2734 H   0  0  0  0  0  0  0  0  0  0  0  0
  154.4548  141.7668  158.6836 H   0  0  0  0  0  0  0  0  0  0  0  0
  153.0296  143.3521  157.9213 H   0  0  0  0  0  0  0  0  0  0  0  0
  151.2899  144.9889  157.2130 H   0  0  0  0  0  0  0  0  0  0  0  0
  152.0120  145.4480  158.7519 H   0  0  0  0  0  0  0  0  0  0  0  0
  150.4110  144.7130  158.7164 H   0  0  0  0  0  0  0  0  0  0  0  0
  151.1473  142.4243  156.6005 H   0  0  0  0  0  0  0  0  0  0  0  0
  150.1776  142.2366  158.0534 H   0  0  0  0  0  0  0  0  0  0  0  0
  149.3723  137.2051  157.6755 H   0  0  0  0  0  0  0  0  0  0  0  0
  149.9490  134.4492  153.3259 H   0  0  0  0  0  0  0  0  0  0  0  0
  147.9298  132.1585  153.3080 H   0  0  0  0  0  0  0  0  0  0  0  0
  149.3806  132.2434  152.3147 H   0  0  0  0  0  0  0  0  0  0  0  0
  148.0924  133.4041  152.0728 H   0  0  0  0  0  0  0  0  0  0  0  0
  149.5902  132.2574  155.4263 H   0  0  0  0  0  0  0  0  0  0  0  0
  150.7922  133.5453  155.4698 H   0  0  0  0  0  0  0  0  0  0  0  0
  150.8817  132.3127  154.2321 H   0  0  0  0  0  0  0  0  0  0  0  0
  1  2  1  0  0  0  0
  1 26  1  0  0  0  0
  1 27  1  0  0  0  0
  1 28  1  0  0  0  0
  2  3  2  0  0  0  0
  2  4  1  0  0  0  0
  4  5  1  0  0  0  0
  4 29  1  0  0  0  0
  5  6  1  0  0  0  0
  5 23  1  0  0  0  0
  5 30  1  0  0  0  0
  6  7  2  0  0  0  0
  6  8  1  0  0  0  0
  8  9  1  0  0  0  0
  8 31  1  0  0  0  0
  9 22  1  0  0  0  0
  9 10  2  0  0  0  0
 10 11  1  0  0  0  0
 10 32  1  0  0  0  0
 11 12  2  0  0  0  0
 11 33  1  0  0  0  0
 12 13  1  0  0  0  0
 12 21  1  0  0  0  0
 13 20  1  0  0  0  0
 13 14  1  0  0  0  0
 14 15  1  0  0  0  0
 14 34  1  0  0  0  0
 14 35  1  0  0  0  0
 15 16  1  0  0  0  0
 15 17  1  0  0  0  0
 15 36  1  0  0  0  0
 16 37  1  0  0  0  0
 16 38  1  0  0  0  0
 16 39  1  0  0  0  0
 17 18  1  0  0  0  0
 18 19  1  0  0  0  0
 18 20  1  0  0  0  0
 18 40  1  0  0  0  0
 19 41  1  0  0  0  0
 19 42  1  0  0  0  0
 19 43  1  0  0  0  0
 20 44  1  0  0  0  0
 20 45  1  0  0  0  0
 21 22  2  0  0  0  0
 22 46  1  0  0  0  0
 23 24  1  0  0  0  0
 23 25  1  0  0  0  0
 23 47  1  0  0  0  0
 24 48  1  0  0  0  0
 24 49  1  0  0  0  0
 24 50  1  0  0  0  0
 25 51  1  0  0  0  0
 25 52  1  0  0  0  0
 25 53  1  0  0  0  0
M  END
> <s_m_source_file>
AV-unprocessed.smi

> <i_m_source_file_index>
1966

> <i_lp_mmshare_version>
43012

> <i_f3d_flags>
0

> <s_epik_input>
W0NIM11DKD1PKVtOSF1bQ0BASF0oW0NIXShbQ0gzXSlbQ0gzXSlDKD1PKVtOSF1jMVtjSF1bY0hdYyhuW2NIXTEpTjJbQ0gyXVtDQEBIXShbQ0gzXSlPW0NAQEhdKFtDSDNdKVtDSDJdMg==

> <s_epik_cmdline>
J2VwaWtfcHl0aG9uJywgJy1waCcsICc3LjAnLCAnLXRuJywgJzgnLCAnLW1hJywgJzIwMCcsICctbWV0YWxfYmluZGluZycsICctaW1hZScsICc8aW5maWxlLm1hZT4nLCAnLW9tYWUnLCAnPG91dGZpbGUubWFlPic=

> <r_lp_tautomer_probability>
1

> <r_epik_Ionization_Penalty>
0.000679699

> <r_epik_Ionization_Penalty_Charging>
0

> <r_epik_Ionization_Penalty_Neutral>
0.000679699

> <r_epik_State_Penalty>
0.000430485

> <r_epik_Charging_Adjusted_Penalty>
0.000430485

> <i_epik_Tot_Q>
0

> <i_epik_Tot_abs_Q>
0

> <r_epik_Metal_State_Penalty>
-0

> <b_epik_Metal_Only>
0

> <s_lp_Force_Field>
OPLS_2005

> <r_lp_Energy>
29.6381

> <b_lp_Chiralities_Consistent>
1

> <s_lp_Variant>
AV-unprocessed.smi:1966-5

> <Gold.Version>
5.8.1

> <Gold.Id.Protein>
6NUR|6NUR_protein|mol2

> <Gold.PLP.Fitness>
41.7761

> <Gold.PLP.PLP>
-39.7033

> <Gold.PLP.part.hbond>
-1.0413

> <Gold.PLP.part.metal>
0.0000

> <Gold.PLP.part.buried>
-5.9481

> <Gold.PLP.part.nonpolar>
-33.0144

> <Gold.PLP.part.repulsive>
0.0755

> <Gold.PLP.ligand.clash>
0.0000

> <Gold.PLP.ligand.torsion>
1.1061

> <Gold.PLP.Chemscore.Hbond>
1.3575

> <Gold.PLP.Chemscore.CHOScore>
0.0000

> <Gold.PLP.Chemscore.Metal>
0.0000

> <Gold.Chemscore.Hbonds>
donor molecule, donor type, donor heavy atom, donor atom, acceptor molecule, acceptor atom, score
      L1  H     4    29       P1  7948  1.00
      L1  H     8    31       P1  7948  0.37

> <Gold.PLP.Chemscore.Internal.Correction>
0.2126

> <Gold.Rescore>
     Score         DG    S(hbond)    S(metal)    S(lipo)     H(rot)  DE(clash)    DE(int)     intcor
     17.11     -19.75       1.89        0.00     104.53       1.68       0.13       2.50       ----

> <Gold.Chemscore.Fitness>
17.1135

> <Gold.Chemscore.DG>
-19.7484

> <Gold.Chemscore.ZeroCoef>
-5.4800

> <Gold.Chemscore.Hbond>
1.8947

> <Gold.Chemscore.Metal>
0.0000

> <Gold.Chemscore.Lipo>
104.5324

> <Gold.Chemscore.Internal_Hbond>
0.0000

> <Gold.Chemscore.DEClash>
0.1303

> <Gold.Chemscore.DEInternal>
2.5045

> <Gold.Chemscore.Rot>
1.6759

> <Gold.Chemscore.Internal.Correction>
   9.000000E+99

> <Gold.Chemscore.Hbonds>
donor molecule, donor type, donor heavy atom, donor atom, acceptor molecule, acceptor atom, score
      L1  H     4    29       P1  7948  0.92
      L1  H     8    31       P1  7948  0.36

> <Gold.Chemscore.Hbond.Weighted>
-6.3283

> <Gold.Chemscore.Metal.Weighted>
-0.0000

> <Gold.Chemscore.Lipo.Weighted>
-12.2303

> <Gold.Chemscore.Internal_Hbond.Weighted>
0.0000

> <Gold.Chemscore.DEClash.Weighted>
0.1303

> <Gold.Chemscore.DEInternal.Weighted>
2.5045

> <Gold.Chemscore.Rot.Weighted>
4.2902

> <Gold.Chemscore.Internal.Correction.Weighted>
   9.000000E+99

> <Gold.Protein.RotatedTorsions>
[ 6907 6896 6895 6894 ] final  122.32 input  -60.11 | X-H torsion
[ 7974 7965 7964 7962 ] final  137.86 input  175.53 | X-H torsion
[ 8008 7997 7996 7995 ] final   62.79 input   59.86 | X-H torsion
[ 10167 10162 10161 10158 ] final  167.08 input  -65.29 | X-H torsion
[ 10718 10713 10712 10709 ] final  108.23 input   66.30 | X-H torsion
[ 10763 10752 10751 10750 ] final  -30.50 input  -60.55 | X-H torsion
[ 11005 11000 10999 10996 ] final  139.36 input  -57.11 | X-H torsion

> <Gold.Protein.ActiveResidues>
 VAL166  LYS551  ARG553  GLY616  TRP617  ASP618  TYR619  PRO620  LYS621  CYS622 
 ASP623  PHE694  ASN695  SER759  ASP760  ASP761  ALA762  ILE779  LEU786  VAL792 
 PHE793  MET794  SER795  GLU796  ALA797  LYS798  CYS799  TRP800  GLU811  SER814 

> <Gold.Protein.RotatedAtoms>
  152.4252  133.7183  159.6518 H   0  0  0  0  0  0  0  0  0  0  0  0  # atno 6907 bound_to 6896
  150.8128  133.8379  159.3180 H   0  0  0  0  0  0  0  0  0  0  0  0  # atno 6908 bound_to 6896
  151.6084  135.1044  160.0127 H   0  0  0  0  0  0  0  0  0  0  0  0  # atno 6909 bound_to 6896
  144.9427  139.4911  143.5564 H   0  0  0  0  0  0  0  0  0  0  0  0  # atno 7974 bound_to 7965
  155.6199  140.3495  155.4649 H   0  0  0  0  0  0  0  0  0  0  0  0  # atno 8008 bound_to 7997
  156.0087  140.1228  157.0499 H   0  0  0  0  0  0  0  0  0  0  0  0  # atno 8009 bound_to 7997
  154.4273  140.1086  156.5785 H   0  0  0  0  0  0  0  0  0  0  0  0  # atno 8010 bound_to 7997
  139.4938  144.3960  151.9464 H   0  0  0  0  0  0  0  0  0  0  0  0  # atno 10167 bound_to 10162
  157.6595  131.0889  150.6275 H   0  0  0  0  0  0  0  0  0  0  0  0  # atno 10718 bound_to 10713
  153.7819  135.6904  153.4887 H   0  0  0  0  0  0  0  0  0  0  0  0  # atno 10763 bound_to 10752
  153.1806  135.4508  155.0021 H   0  0  0  0  0  0  0  0  0  0  0  0  # atno 10764 bound_to 10752
  154.8078  135.3364  154.7322 H   0  0  0  0  0  0  0  0  0  0  0  0  # atno 10765 bound_to 10752
  140.0249  134.9379  157.0548 H   0  0  0  0  0  0  0  0  0  0  0  0  # atno 11005 bound_to 11000
  146.3292  139.8458  142.8882 LP  0  0  0  0  0  0  0  0  0  0  0  0  # atno 17320 bound_to 7965
  145.2966  141.0182  143.3633 LP  0  0  0  0  0  0  0  0  0  0  0  0  # atno 17321 bound_to 7965
  140.3398  144.3217  150.5969 LP  0  0  0  0  0  0  0  0  0  0  0  0  # atno 17342 bound_to 10162
  140.5575  143.2197  151.7822 LP  0  0  0  0  0  0  0  0  0  0  0  0  # atno 17343 bound_to 10162
  156.6579  130.4503  149.5697 LP  0  0  0  0  0  0  0  0  0  0  0  0  # atno 17370 bound_to 10713
  156.2089  130.6666  151.1248 LP  0  0  0  0  0  0  0  0  0  0  0  0  # atno 17371 bound_to 10713
  140.4324  134.1767  155.7169 LP  0  0  0  0  0  0  0  0  0  0  0  0  # atno 17394 bound_to 11000
  141.1796  133.8441  157.1302 LP  0  0  0  0  0  0  0  0  0  0  0  0  # atno 17395 bound_to 11000

$$$$
