AV-unprocessed.smi:1058|AV-procd|sdf|4652|dock5
  -GOLD-   22720 3163D 1   1.00000     0.00000
 Structure written by MMmdl.
 40 41  0  0  0  0  0  0  0  0  1 V2000
  148.1522  141.3084  153.9129 C   0  0  0  0  0  0  0  0  0  0  0  0
  148.6622  140.8495  155.2896 C   0  0  2  0  0  0  0  0  0  0  0  0
  149.2427  142.0115  155.9645 N   0  0  0  0  0  0  0  0  0  0  0  0
  149.8513  141.9821  157.1604 C   0  0  0  0  0  0  0  0  0  0  0  0
  149.9685  140.9572  157.8337 O   0  0  0  0  0  0  0  0  0  0  0  0
  150.3083  143.1987  157.5064 N   0  0  0  0  0  0  0  0  0  0  0  0
  150.9993  143.5722  158.6901 C   0  0  0  0  0  0  0  0  0  0  0  0
  151.1298  144.9647  158.8942 C   0  0  0  0  0  0  0  0  0  0  0  0
  151.7999  145.4375  160.0393 C   0  0  0  0  0  0  0  0  0  0  0  0
  152.3214  144.5042  160.9530 C   0  0  0  0  0  0  0  0  0  0  0  0
  152.1472  143.1360  160.6755 C   0  0  0  0  0  0  0  0  0  0  0  0
  151.5062  142.6809  159.5784 N   0  0  0  0  0  0  0  0  0  0  0  0
  149.7303  139.7526  155.0678 C   0  0  0  0  0  0  0  0  0  0  0  0
  150.7088  140.0213  154.3669 O   0  0  0  0  0  0  0  0  0  0  0  0
  149.5737  138.5311  155.6384 N   0  0  0  0  0  0  0  0  0  0  0  0
  148.4544  138.1256  156.4977 C   0  0  0  0  0  0  0  0  0  0  0  0
  148.8749  138.2779  157.9679 C   0  0  0  0  0  0  0  0  0  0  0  0
  150.3057  137.1633  158.3249 S   0  0  0  0  0  0  0  0  0  0  0  0
  150.9550  137.5958  159.5713 O   0  0  0  0  0  0  0  0  0  0  0  0
  149.8407  135.7755  158.1768 O   0  0  0  0  0  0  0  0  0  0  0  0
  151.4202  137.5385  156.8986 C   0  0  0  0  0  0  0  0  0  0  0  0
  150.6243  137.5064  155.5830 C   0  0  0  0  0  0  0  0  0  0  0  0
  147.6899  140.4869  153.3643 H   0  0  0  0  0  0  0  0  0  0  0  0
  148.9579  141.7077  153.2947 H   0  0  0  0  0  0  0  0  0  0  0  0
  147.3992  142.0902  154.0173 H   0  0  0  0  0  0  0  0  0  0  0  0
  147.8315  140.4942  155.8989 H   0  0  0  0  0  0  0  0  0  0  0  0
  149.1960  142.8922  155.4736 H   0  0  0  0  0  0  0  0  0  0  0  0
  150.1463  143.9442  156.8456 H   0  0  0  0  0  0  0  0  0  0  0  0
  150.7229  145.6680  158.1822 H   0  0  0  0  0  0  0  0  0  0  0  0
  151.9112  146.4977  160.2130 H   0  0  0  0  0  0  0  0  0  0  0  0
  152.8410  144.8277  161.8430 H   0  0  0  0  0  0  0  0  0  0  0  0
  152.5324  142.3867  161.3511 H   0  0  0  0  0  0  0  0  0  0  0  0
  147.5408  138.6816  156.2951 H   0  0  0  0  0  0  0  0  0  0  0  0
  148.1887  137.0867  156.2976 H   0  0  0  0  0  0  0  0  0  0  0  0
  149.1715  139.3042  158.1887 H   0  0  0  0  0  0  0  0  0  0  0  0
  148.0599  138.0143  158.6419 H   0  0  0  0  0  0  0  0  0  0  0  0
  151.8674  138.5202  157.0597 H   0  0  0  0  0  0  0  0  0  0  0  0
  152.2257  136.8043  156.8908 H   0  0  0  0  0  0  0  0  0  0  0  0
  150.1851  136.5193  155.4330 H   0  0  0  0  0  0  0  0  0  0  0  0
  151.2983  137.6511  154.7375 H   0  0  0  0  0  0  0  0  0  0  0  0
  1  2  1  0  0  0  0
  1 23  1  0  0  0  0
  1 24  1  0  0  0  0
  1 25  1  0  0  0  0
  2  3  1  0  0  0  0
  2 13  1  0  0  0  0
  2 26  1  0  0  0  0
  3  4  1  0  0  0  0
  3 27  1  0  0  0  0
  4  5  2  0  0  0  0
  4  6  1  0  0  0  0
  6  7  1  0  0  0  0
  6 28  1  0  0  0  0
  7 12  1  0  0  0  0
  7  8  2  0  0  0  0
  8  9  1  0  0  0  0
  8 29  1  0  0  0  0
  9 10  2  0  0  0  0
  9 30  1  0  0  0  0
 10 11  1  0  0  0  0
 10 31  1  0  0  0  0
 11 12  2  0  0  0  0
 11 32  1  0  0  0  0
 13 14  2  0  0  0  0
 13 15  1  0  0  0  0
 15 22  1  0  0  0  0
 15 16  1  0  0  0  0
 16 17  1  0  0  0  0
 16 33  1  0  0  0  0
 16 34  1  0  0  0  0
 17 18  1  0  0  0  0
 17 35  1  0  0  0  0
 17 36  1  0  0  0  0
 18 19  2  0  0  0  0
 18 20  2  0  0  0  0
 18 21  1  0  0  0  0
 21 22  1  0  0  0  0
 21 37  1  0  0  0  0
 21 38  1  0  0  0  0
 22 39  1  0  0  0  0
 22 40  1  0  0  0  0
M  END
> <s_m_source_file>
AV-unprocessed.smi

> <i_m_source_file_index>
1058

> <i_lp_mmshare_version>
43012

> <i_f3d_flags>
0

> <s_epik_input>
Tz1TMSg9TylbQ0gyXVtDSDJdTihbQ0gyXVtDSDJdMSlDKD1PKVtDQEhdKFtDSDNdKVtOSF1DKD1PKVtOSF1jMltjSF1bY0hdW2NIXVtjSF1uMg==

> <s_epik_cmdline>
J2VwaWtfcHl0aG9uJywgJy1waCcsICc3LjAnLCAnLXRuJywgJzgnLCAnLW1hJywgJzIwMCcsICctbWV0YWxfYmluZGluZycsICctaW1hZScsICc8aW5maWxlLm1hZT4nLCAnLW9tYWUnLCAnPG91dGZpbGUubWFlPic=

> <r_lp_tautomer_probability>
1

> <r_epik_Ionization_Penalty>
3.69864e-05

> <r_epik_Ionization_Penalty_Charging>
0

> <r_epik_Ionization_Penalty_Neutral>
3.69864e-05

> <r_epik_State_Penalty>
-0

> <r_epik_Charging_Adjusted_Penalty>
0

> <i_epik_Tot_Q>
0

> <i_epik_Tot_abs_Q>
0

> <r_epik_Metal_State_Penalty>
-0

> <b_epik_Metal_Only>
0

> <s_lp_Force_Field>
OPLS_2005

> <r_lp_Energy>
18.4379

> <b_lp_Chiralities_Consistent>
1

> <s_lp_Variant>
AV-unprocessed.smi:1058-1

> <Gold.Version>
5.8.1

> <Gold.Id.Protein>
6NUR|6NUR_protein|mol2

> <Gold.PLP.Fitness>
47.0279

> <Gold.PLP.PLP>
-35.6992

> <Gold.PLP.part.hbond>
-4.3540

> <Gold.PLP.part.metal>
0.0000

> <Gold.PLP.part.buried>
-8.4290

> <Gold.PLP.part.nonpolar>
-24.7316

> <Gold.PLP.part.repulsive>
0.2435

> <Gold.PLP.ligand.clash>
0.0000

> <Gold.PLP.ligand.torsion>
0.0615

> <Gold.PLP.Chemscore.Hbond>
3.8080

> <Gold.PLP.Chemscore.CHOScore>
0.0000

> <Gold.PLP.Chemscore.Metal>
0.0000

> <Gold.Chemscore.Hbonds>
donor molecule, donor type, donor heavy atom, donor atom, acceptor molecule, acceptor atom, score
      L1  H     3    27       P1  8028  0.91
      L1  H     6    28       P1  8028  0.91
      P1  H  6896  6908       L1    20  0.89
      P1  H  7989  7998       L1    14  0.98

> <Gold.PLP.Chemscore.Internal.Correction>
0.0277

> <Gold.Rescore>
     Score         DG    S(hbond)    S(metal)    S(lipo)     H(rot)  DE(clash)    DE(int)     intcor
     20.49     -21.84       3.61        0.00      66.69       1.36       0.01       1.33       ----

> <Gold.Chemscore.Fitness>
20.4942

> <Gold.Chemscore.DG>
-21.8399

> <Gold.Chemscore.ZeroCoef>
-5.4800

> <Gold.Chemscore.Hbond>
3.6058

> <Gold.Chemscore.Metal>
0.0000

> <Gold.Chemscore.Lipo>
66.6898

> <Gold.Chemscore.Internal_Hbond>
0.0000

> <Gold.Chemscore.DEClash>
0.0115

> <Gold.Chemscore.DEInternal>
1.3342

> <Gold.Chemscore.Rot>
1.3617

> <Gold.Chemscore.Internal.Correction>
   9.000000E+99

> <Gold.Chemscore.Hbonds>
donor molecule, donor type, donor heavy atom, donor atom, acceptor molecule, acceptor atom, score
      L1  H     3    27       P1  8028  0.88
      L1  H     6    28       P1  8028  0.89
      P1  H  6896  6908       L1    20  0.74
      P1  H  7989  7998       L1    14  0.92

> <Gold.Chemscore.Hbond.Weighted>
-12.0433

> <Gold.Chemscore.Metal.Weighted>
-0.0000

> <Gold.Chemscore.Lipo.Weighted>
-7.8027

> <Gold.Chemscore.Internal_Hbond.Weighted>
0.0000

> <Gold.Chemscore.DEClash.Weighted>
0.0115

> <Gold.Chemscore.DEInternal.Weighted>
1.3342

> <Gold.Chemscore.Rot.Weighted>
3.4861

> <Gold.Chemscore.Internal.Correction.Weighted>
   9.000000E+99

> <Gold.Protein.RotatedTorsions>
[ 6907 6896 6895 6894 ] final  157.98 input  -60.11 | X-H torsion
[ 7974 7965 7964 7962 ] final  136.36 input  175.53 | X-H torsion
[ 8008 7997 7996 7995 ] final  117.53 input   59.86 | X-H torsion
[ 10167 10162 10161 10158 ] final  162.89 input  -65.29 | X-H torsion
[ 10718 10713 10712 10709 ] final  142.18 input   66.30 | X-H torsion
[ 10763 10752 10751 10750 ] final  -18.61 input  -60.55 | X-H torsion
[ 11005 11000 10999 10996 ] final  -36.66 input  -57.11 | X-H torsion

> <Gold.Protein.ActiveResidues>
 VAL166  LYS551  ARG553  GLY616  TRP617  ASP618  TYR619  PRO620  LYS621  CYS622 
 ASP623  PHE694  ASN695  SER759  ASP760  ASP761  ALA762  ILE779  LEU786  VAL792 
 PHE793  MET794  SER795  GLU796  ALA797  LYS798  CYS799  TRP800  GLU811  SER814 

> <Gold.Protein.RotatedAtoms>
  152.0072  133.3847  159.4204 H   0  0  0  0  0  0  0  0  0  0  0  0  # atno 6907 bound_to 6896
  150.6903  134.3770  159.5026 H   0  0  0  0  0  0  0  0  0  0  0  0  # atno 6908 bound_to 6896
  152.1526  134.8976  160.0598 H   0  0  0  0  0  0  0  0  0  0  0  0  # atno 6909 bound_to 6896
  144.9573  139.4750  143.5497 H   0  0  0  0  0  0  0  0  0  0  0  0  # atno 7974 bound_to 7965
  156.2499  140.2894  156.0692 H   0  0  0  0  0  0  0  0  0  0  0  0  # atno 8008 bound_to 7997
  155.1689  140.0401  157.2876 H   0  0  0  0  0  0  0  0  0  0  0  0  # atno 8009 bound_to 7997
  154.6340  140.2506  155.7407 H   0  0  0  0  0  0  0  0  0  0  0  0  # atno 8010 bound_to 7997
  139.4866  144.4392  151.8973 H   0  0  0  0  0  0  0  0  0  0  0  0  # atno 10167 bound_to 10162
  157.3835  131.0995  151.0716 H   0  0  0  0  0  0  0  0  0  0  0  0  # atno 10718 bound_to 10713
  153.5919  135.7002  153.5419 H   0  0  0  0  0  0  0  0  0  0  0  0  # atno 10763 bound_to 10752
  153.3171  135.4084  155.1385 H   0  0  0  0  0  0  0  0  0  0  0  0  # atno 10764 bound_to 10752
  154.8599  135.3686  154.5451 H   0  0  0  0  0  0  0  0  0  0  0  0  # atno 10765 bound_to 10752
  140.9891  133.7014  156.1819 H   0  0  0  0  0  0  0  0  0  0  0  0  # atno 11005 bound_to 11000
  146.3341  139.8699  142.8842 LP  0  0  0  0  0  0  0  0  0  0  0  0  # atno 17320 bound_to 7965
  145.2753  141.0122  143.3748 LP  0  0  0  0  0  0  0  0  0  0  0  0  # atno 17321 bound_to 7965
  140.3843  144.2696  150.5905 LP  0  0  0  0  0  0  0  0  0  0  0  0  # atno 17342 bound_to 10162
  140.5204  143.2267  151.8397 LP  0  0  0  0  0  0  0  0  0  0  0  0  # atno 17343 bound_to 10162
  157.1776  130.6295  149.5661 LP  0  0  0  0  0  0  0  0  0  0  0  0  # atno 17370 bound_to 10713
  155.9781  130.4764  150.6636 LP  0  0  0  0  0  0  0  0  0  0  0  0  # atno 17371 bound_to 10713
  140.7067  134.4505  157.5584 LP  0  0  0  0  0  0  0  0  0  0  0  0  # atno 17394 bound_to 11000
  139.8984  134.8614  156.2003 LP  0  0  0  0  0  0  0  0  0  0  0  0  # atno 17395 bound_to 11000

$$$$
