#       Name:                AV-unprocessed.smi:2888
#       Creating user name   scv26
#       Creation time:       Fri Mar 27 15:57:19 2020


#       File generated by GOLD software.
#

@<TRIPOS>MOLECULE
AV-unprocessed.smi:2888
    37    39     1
SMALL
NO_CHARGES


@<TRIPOS>ATOM
      1 ****        -3.4415  -1.9949   0.1662 C.3            1 S1                 0.0000
      2 ****        -2.7130  -0.6755   0.3112 C.ar           1 S1                 0.0000
      3 ****        -3.3916   0.5541   0.2545 C.ar           1 S1                 0.0000
      4 ****        -2.6086   1.7155   0.4023 C.ar           1 S1                 0.0000
      5 ****        -3.2119   3.1032   0.3577 C.3            1 S1                 0.0000
      6 ****        -1.2686   1.6135   0.5883 N.pl3          1 S1                 1.0000
      7 ****        -0.6868   0.4050   0.6301 C.ar           1 S1                 0.0000
      8 ****         0.6829   0.3623   0.8183 N.pl3          1 S1                 0.0000
      9 ****         1.5240   1.5437   0.9726 C.3            1 S1                 0.0000
     10 ****         3.0188   1.2187   1.0323 C.3            1 S1                 0.0000
     11 ****         3.4400   1.9163   2.3338 C.3            1 S1                 0.0000
     12 ****         2.9633   1.1390   3.5673 C.3            1 S1                 0.0000
     13 ****         1.4618   1.4199   3.5497 C.3            1 S1                 0.0000
     14 ****         1.3166   2.3029   2.2981 C.3            1 S1                 0.0000
     15 ****         2.5417   3.0135   2.3562 O.3            1 S1                 0.0000
     16 ****        -1.3791  -0.7357   0.4962 N.ar           1 S1                 0.0000
     17 ****        -4.5203  -1.8457   0.1127 H              1 S1                 0.0000
     18 ****        -3.2305  -2.6422   1.0180 H              1 S1                 0.0000
     19 ****        -3.1223  -2.5062  -0.7425 H              1 S1                 0.0000
     20 ****        -4.4605   0.6056   0.1043 H              1 S1                 0.0000
     21 ****        -4.3012   3.0576   0.3431 H              1 S1                 0.0000
     22 ****        -2.8803   3.6312  -0.5367 H              1 S1                 0.0000
     23 ****        -2.9081   3.6807   1.2312 H              1 S1                 0.0000
     24 ****         1.0934  -0.5373   1.0218 H              1 S1                 0.0000
     25 ****         1.3456   2.2194   0.1347 H              1 S1                 0.0000
     26 ****         3.2383   0.1501   1.0538 H              1 S1                 0.0000
     27 ****         3.5340   1.6510   0.1738 H              1 S1                 0.0000
     28 ****         4.4938   2.1947   2.3668 H              1 S1                 0.0000
     29 ****         3.1977   0.0759   3.5047 H              1 S1                 0.0000
     30 ****         3.4159   1.5357   4.4768 H              1 S1                 0.0000
     31 ****         0.8584   0.5129   3.5085 H              1 S1                 0.0000
     32 ****         1.1715   1.9741   4.4428 H              1 S1                 0.0000
     33 ****         0.4327   2.9414   2.3098 H              1 S1                 0.0000
     34 ****        -0.7138   2.4633   0.6926 H              1 S1                 0.0000
     35 ****         2.6642   3.6138   1.5658 LP             1 S1                 0.0000
     36 ****         2.6249   3.5483   3.1970 LP             1 S1                 0.0000
     37 ****        -0.9120  -1.6192   0.5331 LP             1 S1                 0.0000
@<TRIPOS>BOND
    1    1    2 1     
    2    1   17 1     
    3    1   18 1     
    4    1   19 1     
    5    2   16 ar    
    6    2    3 ar    
    7    3    4 ar    
    8    3   20 1     
    9    4    5 1     
   10    4    6 ar    
   11    5   21 1     
   12    5   22 1     
   13    5   23 1     
   14    6    7 ar    
   15    6   34 1     
   16    7    8 1     
   17    7   16 ar    
   18    8    9 1     
   19    8   24 1     
   20    9   14 1     
   21    9   10 1     
   22    9   25 1     
   23   10   11 1     
   24   10   26 1     
   25   10   27 1     
   26   11   15 1     
   27   11   12 1     
   28   11   28 1     
   29   12   13 1     
   30   12   29 1     
   31   12   30 1     
   32   13   14 1     
   33   13   31 1     
   34   13   32 1     
   35   14   15 1     
   36   14   33 1     
   37   15   35 1     
   38   15   36 1     
   39   16   37 1     
@<TRIPOS>SUBSTRUCTURE
      1 S1             1
@<TRIPOS>SET
LONE_PAIRS      STATIC     ATOMS    <user>   **** ""
3 35 36 37
DONOR_HYDROGENS      STATIC     ATOMS    <user>   **** ""
2 34 24
ATOM$BLUE        STATIC     ATOMS    COLORGROUP SYSTEM
3 35 36 37
ATOM$RED        STATIC     ATOMS    COLORGROUP SYSTEM
2 34 24
