AV-unprocessed.smi:2473|AV-procd|sdf|9745|dock3
  -GOLD-   2272013383D 1   1.00000     0.00000
 Structure written by MMmdl.
 48 49  0  0  0  0  0  0  0  0  2 V2000
  149.6459  141.4111  157.7145 C   0  0  0  0  0  0  0  0  0  0  0  0
  150.9570  142.0613  158.1796 C   0  0  2  0  0  0  0  0  0  0  0  0
  151.7014  141.1607  159.1815 C   0  0  0  0  0  0  0  0  0  0  0  0
  153.0204  141.8082  159.6464 C   0  0  2  0  0  0  0  0  0  0  0  0
  153.7593  140.9182  160.6542 C   0  0  0  0  0  0  0  0  0  0  0  0
  154.3201  141.4131  161.6322 O   0  0  0  0  0  0  0  0  0  0  0  0
  153.7767  139.6041  160.3863 N   0  0  0  0  0  0  0  0  0  0  0  0
  154.4975  138.5979  161.1601 C   0  0  0  0  0  0  0  0  0  0  0  0
  153.6737  137.3137  161.3875 C   0  0  0  0  0  0  0  0  0  0  0  0
  154.3845  136.2681  162.1977 C   0  0  0  0  0  0  0  0  0  0  0  0
  155.0023  135.1934  161.6929 N   0  3  0  0  0  0  0  0  0  0  0  0
  155.5612  134.4478  162.6944 C   0  0  0  0  0  0  0  0  0  0  0  0
  155.2685  135.0938  163.8664 C   0  0  0  0  0  0  0  0  0  0  0  0
  154.5420  136.2079  163.5319 N   0  0  0  0  0  0  0  0  0  0  0  0
  154.0014  137.1999  164.4639 C   0  0  0  0  0  0  0  0  0  0  0  0
  152.7473  143.1988  160.2604 C   0  0  0  0  0  0  0  0  0  0  0  0
  151.9852  144.1549  159.3108 C   0  0  0  0  0  0  0  0  0  0  0  0
  151.5789  145.4150  160.0996 C   0  0  0  0  0  0  0  0  0  0  0  0
  152.8860  144.6038  158.1392 C   0  0  0  0  0  0  0  0  0  0  0  0
  150.7037  143.4553  158.7920 C   0  0  0  0  0  0  0  0  0  0  0  0
  148.9634  141.2518  158.5499 H   0  0  0  0  0  0  0  0  0  0  0  0
  149.8313  140.4436  157.2474 H   0  0  0  0  0  0  0  0  0  0  0  0
  149.1351  142.0370  156.9823 H   0  0  0  0  0  0  0  0  0  0  0  0
  151.5851  142.1782  157.2966 H   0  0  0  0  0  0  0  0  0  0  0  0
  151.0549  140.9653  160.0391 H   0  0  0  0  0  0  0  0  0  0  0  0
  151.9057  140.1920  158.7228 H   0  0  0  0  0  0  0  0  0  0  0  0
  153.6646  141.9258  158.7740 H   0  0  0  0  0  0  0  0  0  0  0  0
  153.2788  139.2825  159.5686 H   0  0  0  0  0  0  0  0  0  0  0  0
  155.4499  138.3620  160.6831 H   0  0  0  0  0  0  0  0  0  0  0  0
  154.7390  139.0470  162.1239 H   0  0  0  0  0  0  0  0  0  0  0  0
  152.7333  137.5481  161.8851 H   0  0  0  0  0  0  0  0  0  0  0  0
  153.4165  136.8526  160.4337 H   0  0  0  0  0  0  0  0  0  0  0  0
  156.1095  133.5368  162.5027 H   0  0  0  0  0  0  0  0  0  0  0  0
  155.5158  134.8471  164.8890 H   0  0  0  0  0  0  0  0  0  0  0  0
  154.3162  136.9575  165.4792 H   0  0  0  0  0  0  0  0  0  0  0  0
  152.9124  137.1890  164.4106 H   0  0  0  0  0  0  0  0  0  0  0  0
  154.3739  138.1896  164.2018 H   0  0  0  0  0  0  0  0  0  0  0  0
  152.1668  143.0717  161.1760 H   0  0  0  0  0  0  0  0  0  0  0  0
  153.6879  143.6600  160.5665 H   0  0  0  0  0  0  0  0  0  0  0  0
  151.0311  146.1179  159.4710 H   0  0  0  0  0  0  0  0  0  0  0  0
  152.4522  145.9370  160.4925 H   0  0  0  0  0  0  0  0  0  0  0  0
  150.9380  145.1682  160.9469 H   0  0  0  0  0  0  0  0  0  0  0  0
  152.3604  145.2971  157.4818 H   0  0  0  0  0  0  0  0  0  0  0  0
  153.2216  143.7714  157.5226 H   0  0  0  0  0  0  0  0  0  0  0  0
  153.7784  145.1144  158.5025 H   0  0  0  0  0  0  0  0  0  0  0  0
  150.2063  144.0931  158.0599 H   0  0  0  0  0  0  0  0  0  0  0  0
  149.9983  143.3452  159.6174 H   0  0  0  0  0  0  0  0  0  0  0  0
  155.0490  134.9672  160.7072 H   0  0  0  0  0  0  0  0  0  0  0  0
  1  2  1  0  0  0  0
  1 21  1  0  0  0  0
  1 22  1  0  0  0  0
  1 23  1  0  0  0  0
  2 20  1  0  0  0  0
  2  3  1  0  0  0  0
  2 24  1  0  0  0  0
  3  4  1  0  0  0  0
  3 25  1  0  0  0  0
  3 26  1  0  0  0  0
  4  5  1  0  0  0  0
  4 16  1  0  0  0  0
  4 27  1  0  0  0  0
  5  6  2  0  0  0  0
  5  7  1  0  0  0  0
  7  8  1  0  0  0  0
  7 28  1  0  0  0  0
  8  9  1  0  0  0  0
  8 29  1  0  0  0  0
  8 30  1  0  0  0  0
  9 10  1  0  0  0  0
  9 31  1  0  0  0  0
  9 32  1  0  0  0  0
 10 14  1  0  0  0  0
 10 11  2  0  0  0  0
 11 12  1  0  0  0  0
 11 48  1  0  0  0  0
 12 13  2  0  0  0  0
 12 33  1  0  0  0  0
 13 14  1  0  0  0  0
 13 34  1  0  0  0  0
 14 15  1  0  0  0  0
 15 35  1  0  0  0  0
 15 36  1  0  0  0  0
 15 37  1  0  0  0  0
 16 17  1  0  0  0  0
 16 38  1  0  0  0  0
 16 39  1  0  0  0  0
 17 18  1  0  0  0  0
 17 19  1  0  0  0  0
 17 20  1  0  0  0  0
 18 40  1  0  0  0  0
 18 41  1  0  0  0  0
 18 42  1  0  0  0  0
 19 43  1  0  0  0  0
 19 44  1  0  0  0  0
 19 45  1  0  0  0  0
 20 46  1  0  0  0  0
 20 47  1  0  0  0  0
M  CHG  1  11   1
M  END
> <s_m_source_file>
AV-unprocessed.smi

> <i_m_source_file_index>
2473

> <i_lp_mmshare_version>
43012

> <i_f3d_flags>
0

> <s_epik_input>
W0NIM11bQ0BASF0oW0NIMl0xKVtDSDJdW0NASF0oW0NIMl1DMShbQ0gzXSlbQ0gzXSlDKD1PKVtOSF1bQ0gyXVtDSDJdYzJuW2NIXVtjSF1uMltDSDNd

> <s_epik_cmdline>
J2VwaWtfcHl0aG9uJywgJy1waCcsICc3LjAnLCAnLXRuJywgJzgnLCAnLW1hJywgJzIwMCcsICctbWV0YWxfYmluZGluZycsICctaW1hZScsICc8aW5maWxlLm1hZT4nLCAnLW9tYWUnLCAnPG91dGZpbGUubWFlPic=

> <r_lp_tautomer_probability>
1

> <r_epik_Ionization_Penalty>
0.0796112

> <r_epik_Ionization_Penalty_Charging>
0

> <r_epik_Ionization_Penalty_Neutral>
0.0796112

> <r_epik_State_Penalty>
0.0704541

> <r_epik_Charging_Adjusted_Penalty>
0.0704541

> <i_epik_Tot_Q>
1

> <i_epik_Tot_abs_Q>
1

> <r_epik_Metal_State_Penalty>
0.409899

> <b_epik_Metal_Only>
0

> <s_lp_Force_Field>
OPLS_2005

> <r_lp_Energy>
16.1806

> <b_lp_Chiralities_Consistent>
1

> <s_lp_Variant>
AV-unprocessed.smi:2473-3

> <Gold.Version>
5.8.1

> <Gold.Id.Protein>
6NUR|6NUR_protein|mol2

> <Gold.PLP.Fitness>
46.6841

> <Gold.PLP.PLP>
-48.4020

> <Gold.PLP.part.hbond>
-1.0000

> <Gold.PLP.part.metal>
0.0000

> <Gold.PLP.part.buried>
-6.4518

> <Gold.PLP.part.nonpolar>
-41.7220

> <Gold.PLP.part.repulsive>
0.1101

> <Gold.PLP.ligand.clash>
0.0000

> <Gold.PLP.ligand.torsion>
0.8704

> <Gold.PLP.Chemscore.Hbond>
0.0000

> <Gold.PLP.Chemscore.CHOScore>
0.0000

> <Gold.PLP.Chemscore.Metal>
0.0000

> <Gold.PLP.Chemscore.Internal.Correction>
0.0228

> <Gold.Rescore>
     Score         DG    S(hbond)    S(metal)    S(lipo)     H(rot)  DE(clash)    DE(int)     intcor
     15.24     -15.85       0.00        0.00     123.27       1.58       0.18       0.43       ----

> <Gold.Chemscore.Fitness>
15.2417

> <Gold.Chemscore.DG>
-15.8526

> <Gold.Chemscore.ZeroCoef>
-5.4800

> <Gold.Chemscore.Hbond>
0.0000

> <Gold.Chemscore.Metal>
0.0000

> <Gold.Chemscore.Lipo>
123.2650

> <Gold.Chemscore.Internal_Hbond>
0.0000

> <Gold.Chemscore.DEClash>
0.1810

> <Gold.Chemscore.DEInternal>
0.4298

> <Gold.Chemscore.Rot>
1.5818

> <Gold.Chemscore.Internal.Correction>
   9.000000E+99

> <Gold.Chemscore.Hbond.Weighted>
-0.0000

> <Gold.Chemscore.Metal.Weighted>
-0.0000

> <Gold.Chemscore.Lipo.Weighted>
-14.4220

> <Gold.Chemscore.Internal_Hbond.Weighted>
0.0000

> <Gold.Chemscore.DEClash.Weighted>
0.1810

> <Gold.Chemscore.DEInternal.Weighted>
0.4298

> <Gold.Chemscore.Rot.Weighted>
4.0495

> <Gold.Chemscore.Internal.Correction.Weighted>
   9.000000E+99

> <Gold.Protein.RotatedTorsions>
[ 6907 6896 6895 6894 ] final  150.07 input  -60.11 | X-H torsion
[ 7974 7965 7964 7962 ] final  179.44 input  175.53 | X-H torsion
[ 8008 7997 7996 7995 ] final  -98.23 input   59.86 | X-H torsion
[ 10167 10162 10161 10158 ] final -139.02 input  -65.29 | X-H torsion
[ 10718 10713 10712 10709 ] final  -48.37 input   66.30 | X-H torsion
[ 10763 10752 10751 10750 ] final  139.63 input  -60.55 | X-H torsion
[ 11005 11000 10999 10996 ] final   36.02 input  -57.11 | X-H torsion

> <Gold.Protein.ActiveResidues>
 VAL166  LYS551  ARG553  GLY616  TRP617  ASP618  TYR619  PRO620  LYS621  CYS622 
 ASP623  PHE694  ASN695  SER759  ASP760  ASP761  ALA762  ILE779  LEU786  VAL792 
 PHE793  MET794  SER795  GLU796  ALA797  LYS798  CYS799  TRP800  GLU811  SER814 

> <Gold.Protein.RotatedAtoms>
  152.1194  133.4345  159.4668 H   0  0  0  0  0  0  0  0  0  0  0  0  # atno 6907 bound_to 6896
  150.6871  134.2553  159.4536 H   0  0  0  0  0  0  0  0  0  0  0  0  # atno 6908 bound_to 6896
  152.0428  134.9700  160.0624 H   0  0  0  0  0  0  0  0  0  0  0  0  # atno 6909 bound_to 6896
  144.7146  140.0548  143.6434 H   0  0  0  0  0  0  0  0  0  0  0  0  # atno 7974 bound_to 7965
  154.7983  140.0457  157.1254 H   0  0  0  0  0  0  0  0  0  0  0  0  # atno 8008 bound_to 7997
  154.9508  140.3065  155.5056 H   0  0  0  0  0  0  0  0  0  0  0  0  # atno 8009 bound_to 7997
  156.2958  140.2288  156.4586 H   0  0  0  0  0  0  0  0  0  0  0  0  # atno 8010 bound_to 7997
  139.8420  143.7309  152.2662 H   0  0  0  0  0  0  0  0  0  0  0  0  # atno 10167 bound_to 10162
  156.1994  130.4155  149.9261 H   0  0  0  0  0  0  0  0  0  0  0  0  # atno 10718 bound_to 10713
  153.9094  135.3013  155.3448 H   0  0  0  0  0  0  0  0  0  0  0  0  # atno 10763 bound_to 10752
  154.7631  135.4924  153.9505 H   0  0  0  0  0  0  0  0  0  0  0  0  # atno 10764 bound_to 10752
  153.1201  135.6780  153.9451 H   0  0  0  0  0  0  0  0  0  0  0  0  # atno 10765 bound_to 10752
  140.2368  134.3462  155.7941 H   0  0  0  0  0  0  0  0  0  0  0  0  # atno 11005 bound_to 11000
  145.9914  139.3018  143.0983 LP  0  0  0  0  0  0  0  0  0  0  0  0  # atno 17320 bound_to 7965
  145.8899  140.9310  143.0557 LP  0  0  0  0  0  0  0  0  0  0  0  0  # atno 17321 bound_to 7965
  139.7549  144.7523  151.0450 LP  0  0  0  0  0  0  0  0  0  0  0  0  # atno 17342 bound_to 10162
  140.7797  143.4817  151.0009 LP  0  0  0  0  0  0  0  0  0  0  0  0  # atno 17343 bound_to 10162
  156.6976  130.8920  151.3595 LP  0  0  0  0  0  0  0  0  0  0  0  0  # atno 17370 bound_to 10713
  157.6977  130.9299  150.0692 LP  0  0  0  0  0  0  0  0  0  0  0  0  # atno 17371 bound_to 10713
  141.2214  133.7276  156.8821 LP  0  0  0  0  0  0  0  0  0  0  0  0  # atno 17394 bound_to 11000
  140.1694  134.9110  157.2814 LP  0  0  0  0  0  0  0  0  0  0  0  0  # atno 17395 bound_to 11000

$$$$
