#       Name:                AV-unprocessed.smi:3078
#       Creating user name   scv26
#       Creation time:       Fri Mar 27 17:13:15 2020


#       File generated by GOLD software.
#

@<TRIPOS>MOLECULE
AV-unprocessed.smi:3078
    25    25     1
SMALL
NO_CHARGES


@<TRIPOS>ATOM
      1 ****        -3.5116  -0.8699   0.1958 C.3            1 S1                 0.0000
      2 ****        -2.2620  -0.1478   0.3028 N.pl3          1 S1                 0.0000
      3 ****        -0.9803  -0.6116   0.1006 C.2            1 S1                 0.0000
      4 ****        -0.1246   0.4361   0.3065 C.2            1 S1                 0.0000
      5 ****         1.3807   0.4768   0.2127 C.3            1 S1                 0.0000
      6 ****         1.9655  -0.0176   1.4698 N.4            1 S1                 1.0000
      7 ****         1.9294  -0.3250  -0.9830 C.3            1 S1                 0.0000
      8 ****         1.5072   0.2649  -2.2392 N.3            1 S1                 0.0000
      9 ****        -0.9997   1.5109   0.6368 C.2            1 S1                 0.0000
     10 ****        -2.2745   1.1588   0.6353 N.2            1 S1                 0.0000
     11 ****        -3.3197  -1.9407   0.1225 H              1 S1                 0.0000
     12 ****        -4.0488  -0.5435  -0.6950 H              1 S1                 0.0000
     13 ****        -4.1275  -0.6809   1.0758 H              1 S1                 0.0000
     14 ****        -0.7860  -1.6380  -0.1746 H              1 S1                 0.0000
     15 ****         1.7175   1.5097   0.1122 H              1 S1                 0.0000
     16 ****         1.6345   0.5468   2.2391 H              1 S1                 0.0000
     17 ****         2.9726   0.0399   1.4189 H              1 S1                 0.0000
     18 ****         3.0196  -0.3293  -0.9642 H              1 S1                 0.0000
     19 ****         1.6037  -1.3649  -0.9423 H              1 S1                 0.0000
     20 ****         1.8473   1.2137  -2.3090 H              1 S1                 0.0000
     21 ****         1.9137  -0.2434  -3.0121 H              1 S1                 0.0000
     22 ****        -0.7463   2.5333   0.8759 H              1 S1                 0.0000
     23 ****         1.6897  -0.9781   1.6146 H              1 S1                 0.0000
     24 ****         0.5081   0.2364  -2.2702 LP             1 S1                 0.0000
     25 ****        -3.0688   1.7324   0.8356 LP             1 S1                 0.0000
@<TRIPOS>BOND
    1    1    2 1     
    2    1   11 1     
    3    1   12 1     
    4    1   13 1     
    5    2   10 1     
    6    2    3 1     
    7    3    4 2     
    8    3   14 1     
    9    4    5 1     
   10    4    9 1     
   11    5    6 1     
   12    5    7 1     
   13    5   15 1     
   14    6   16 1     
   15    6   17 1     
   16    6   23 1     
   17    7    8 1     
   18    7   18 1     
   19    7   19 1     
   20    8   20 1     
   21    8   21 1     
   22    9   10 2     
   23    9   22 1     
   24    8   24 1     
   25   10   25 1     
@<TRIPOS>SUBSTRUCTURE
      1 S1             1
@<TRIPOS>SET
LONE_PAIRS      STATIC     ATOMS    <user>   **** ""
2 24 25
DONOR_HYDROGENS      STATIC     ATOMS    <user>   **** ""
5 16 17 23 20 21
ATOM$BLUE        STATIC     ATOMS    COLORGROUP SYSTEM
2 24 25
ATOM$RED        STATIC     ATOMS    COLORGROUP SYSTEM
5 16 17 23 20 21
