#       Name:                AV-unprocessed.smi:632
#       Creating user name   scv26
#       Creation time:       Fri Mar 27 00:05:00 2020


#       File generated by GOLD software.
#

@<TRIPOS>MOLECULE
AV-unprocessed.smi:632
    48    49     1
SMALL
NO_CHARGES


@<TRIPOS>ATOM
      1 ****        -6.2954   0.4921  -0.6744 C.3            1 S1                 0.0000
      2 ****        -5.3310   1.6322  -0.2936 C.3            1 S1                 0.0000
      3 ****        -5.3985   2.6943  -1.4130 C.3            1 S1                 0.0000
      4 ****        -5.7829   2.3099   1.0149 C.3            1 S1                 0.0000
      5 ****        -3.9312   1.0863  -0.1318 C.2            1 S1                 0.0000
      6 ****        -3.6340   0.1628   0.7951 N.2            1 S1                 0.0000
      7 ****        -2.2981  -0.2089   0.7766 N.2            1 S1                 0.0000
      8 ****        -1.6110   0.4419  -0.1700 C.2            1 S1                 0.0000
      9 ****        -0.2255   0.2480  -0.4143 N.am           1 S1                 0.0000
     10 ****         0.6247  -0.5783   0.2204 C.2            1 S1                 0.0000
     11 ****         0.3331  -1.3094   1.1674 O.2            1 S1                 0.0000
     12 ****         1.8544  -0.5108  -0.3105 N.am           1 S1                 0.0000
     13 ****         3.0053  -1.2931   0.1312 C.3            1 S1                 0.0000
     14 ****         3.7106  -0.6041   1.3160 C.3            1 S1                 0.0000
     15 ****         4.9550  -1.3912   1.7632 C.3            1 S1                 0.0000
     16 ****         5.9343  -1.6493   0.6019 C.3            1 S1                 0.0000
     17 ****         6.5592  -0.4407   0.2170 O.3            1 S1                 0.0000
     18 ****         5.2258  -2.2861  -0.6091 C.3            1 S1                 0.0000
     19 ****         3.9821  -1.4899  -1.0421 C.3            1 S1                 0.0000
     20 ****        -2.5507   1.5751  -1.1227 S.3            1 S1                 0.0000
     21 ****        -7.3129   0.8597  -0.8112 H              1 S1                 0.0000
     22 ****        -6.3309  -0.2767   0.0985 H              1 S1                 0.0000
     23 ****        -5.9915   0.0091  -1.6038 H              1 S1                 0.0000
     24 ****        -5.1095   2.2808  -2.3800 H              1 S1                 0.0000
     25 ****        -4.7457   3.5426  -1.2036 H              1 S1                 0.0000
     26 ****        -6.4095   3.0883  -1.5232 H              1 S1                 0.0000
     27 ****        -6.7847   2.7299   0.9205 H              1 S1                 0.0000
     28 ****        -5.1100   3.1216   1.2941 H              1 S1                 0.0000
     29 ****        -5.8067   1.6028   1.8448 H              1 S1                 0.0000
     30 ****         0.1610   0.7941  -1.1698 H              1 S1                 0.0000
     31 ****         2.0065   0.1235  -1.0811 H              1 S1                 0.0000
     32 ****         2.6624  -2.2791   0.4508 H              1 S1                 0.0000
     33 ****         4.0009   0.4097   1.0364 H              1 S1                 0.0000
     34 ****         3.0235  -0.5056   2.1573 H              1 S1                 0.0000
     35 ****         5.4597  -0.8659   2.5749 H              1 S1                 0.0000
     36 ****         4.6344  -2.3486   2.1760 H              1 S1                 0.0000
     37 ****         6.7237  -2.3186   0.9453 H              1 S1                 0.0000
     38 ****         7.1935  -0.6321  -0.4569 H              1 S1                 0.0000
     39 ****         5.9190  -2.3845  -1.4454 H              1 S1                 0.0000
     40 ****         4.9204  -3.3002  -0.3481 H              1 S1                 0.0000
     41 ****         3.4830  -2.0109  -1.8602 H              1 S1                 0.0000
     42 ****         4.2887  -0.5201  -1.4369 H              1 S1                 0.0000
     43 ****        -4.3049  -0.2173   1.4319 LP             1 S1                 0.0000
     44 ****        -1.8961  -0.8828   1.3965 LP             1 S1                 0.0000
     45 ****        -0.6016  -1.3184   1.5228 LP             1 S1                 0.0000
     46 ****         1.0309  -1.8941   1.5810 LP             1 S1                 0.0000
     47 ****         7.0182  -0.0322   1.0059 LP             1 S1                 0.0000
     48 ****         5.8736   0.1959  -0.1362 LP             1 S1                 0.0000
@<TRIPOS>BOND
    1    1    2 1     
    2    1   21 1     
    3    1   22 1     
    4    1   23 1     
    5    2    3 1     
    6    2    4 1     
    7    2    5 1     
    8    3   24 1     
    9    3   25 1     
   10    3   26 1     
   11    4   27 1     
   12    4   28 1     
   13    4   29 1     
   14    5   20 1     
   15    5    6 2     
   16    6    7 1     
   17    7    8 2     
   18    8    9 1     
   19    8   20 1     
   20    9   10 am    
   21    9   30 1     
   22   10   11 2     
   23   10   12 am    
   24   12   13 1     
   25   12   31 1     
   26   13   19 1     
   27   13   14 1     
   28   13   32 1     
   29   14   15 1     
   30   14   33 1     
   31   14   34 1     
   32   15   16 1     
   33   15   35 1     
   34   15   36 1     
   35   16   17 1     
   36   16   18 1     
   37   16   37 1     
   38   17   38 1     
   39   18   19 1     
   40   18   39 1     
   41   18   40 1     
   42   19   41 1     
   43   19   42 1     
   44    6   43 1     
   45    7   44 1     
   46   11   45 1     
   47   11   46 1     
   48   17   47 1     
   49   17   48 1     
@<TRIPOS>SUBSTRUCTURE
      1 S1             1
@<TRIPOS>SET
LONE_PAIRS      STATIC     ATOMS    <user>   **** ""
6 43 44 45 46 47 48
DONOR_HYDROGENS      STATIC     ATOMS    <user>   **** ""
3 30 31 38
ATOM$BLUE        STATIC     ATOMS    COLORGROUP SYSTEM
6 43 44 45 46 47 48
ATOM$RED        STATIC     ATOMS    COLORGROUP SYSTEM
3 30 31 38
