AV-unprocessed.smi:249|AV-procd|sdf|1925|dock3
  -GOLD-   2262021 33D 1   1.00000     0.00000
 Structure written by MMmdl.
 64 67  0  0  0  0  0  0  0  0  2 V2000
  144.4781  132.9140  149.1908 C   0  0  0  0  0  0  0  0  0  0  0  0
  144.9808  132.8906  150.6458 C   0  0  0  0  0  0  0  0  0  0  0  0
  145.4929  134.2000  151.1401 N   0  3  1  0  0  0  0  0  0  0  0  0
  144.6317  135.3375  150.7170 C   0  0  0  0  0  0  0  0  0  0  0  0
  145.3080  136.6867  150.9955 C   0  0  0  0  0  0  0  0  0  0  0  0
  145.6697  136.8045  152.4881 C   0  0  2  0  0  0  0  0  0  0  0  0
  146.2282  138.1114  152.8644 N   0  0  0  0  0  0  0  0  0  0  0  0
  146.7291  138.9673  151.7941 C   0  0  0  0  0  0  0  0  0  0  0  0
  146.8299  138.3310  154.0640 C   0  0  0  0  0  0  0  0  0  0  0  0
  146.8460  137.3586  155.0131 N   0  0  0  0  0  0  0  0  0  0  0  0
  147.4557  137.5630  156.1842 C   0  0  0  0  0  0  0  0  0  0  0  0
  148.1076  138.6470  156.6064 N   0  0  0  0  0  0  0  0  0  0  0  0
  148.1026  139.6264  155.6580 C   0  0  0  0  0  0  0  0  0  0  0  0
  147.4911  139.5537  154.3743 C   0  0  0  0  0  0  0  0  0  0  0  0
  147.6794  140.7513  153.6943 N   0  0  0  0  0  0  0  0  0  0  0  0
  148.3680  141.4862  154.5241 C   0  0  0  0  0  0  0  0  0  0  0  0
  148.6849  140.8804  155.7191 N   0  0  0  0  0  0  0  0  0  0  0  0
  149.4311  141.4670  156.8185 C   0  0  0  0  0  0  0  0  0  0  0  0
  150.9158  141.8008  156.4998 C   0  0  2  0  0  0  0  0  0  0  0  0
  151.6101  140.5346  155.9421 C   0  0  0  0  0  0  0  0  0  0  0  0
  151.1029  140.1868  154.6699 O   0  0  0  0  0  0  0  0  0  0  0  0
  151.6888  142.3834  157.7213 C   0  0  1  0  0  0  0  0  0  0  0  0
  151.2314  143.7614  158.1781 C   0  0  0  0  0  0  0  0  0  0  0  0
  151.8008  143.8440  159.5864 C   0  0  0  0  0  0  0  0  0  0  0  0
  151.6385  142.5353  160.1083 O   0  0  0  0  0  0  0  0  0  0  0  0
  151.5491  141.5989  159.0381 C   0  0  0  0  0  0  0  0  0  0  0  0
  146.5317  135.6010  152.9213 C   0  0  0  0  0  0  0  0  0  0  0  0
  145.8413  134.2597  152.5948 C   0  0  2  0  0  0  0  0  0  0  0  0
  146.7491  133.0964  153.0413 C   0  0  0  0  0  0  0  0  0  0  0  0
  144.1342  131.9231  148.8938 H   0  0  0  0  0  0  0  0  0  0  0  0
  145.2634  133.2037  148.4932 H   0  0  0  0  0  0  0  0  0  0  0  0
  143.6394  133.5971  149.0585 H   0  0  0  0  0  0  0  0  0  0  0  0
  144.1892  132.5337  151.3039 H   0  0  0  0  0  0  0  0  0  0  0  0
  145.7754  132.1490  150.7365 H   0  0  0  0  0  0  0  0  0  0  0  0
  144.4156  135.2617  149.6507 H   0  0  0  0  0  0  0  0  0  0  0  0
  143.6746  135.2940  151.2377 H   0  0  0  0  0  0  0  0  0  0  0  0
  146.1924  136.7757  150.3659 H   0  0  0  0  0  0  0  0  0  0  0  0
  144.6381  137.4954  150.7022 H   0  0  0  0  0  0  0  0  0  0  0  0
  144.7361  136.7247  153.0472 H   0  0  0  0  0  0  0  0  0  0  0  0
  146.2572  139.9491  151.8350 H   0  0  0  0  0  0  0  0  0  0  0  0
  146.5143  138.5413  150.8135 H   0  0  0  0  0  0  0  0  0  0  0  0
  147.8095  139.0998  151.8694 H   0  0  0  0  0  0  0  0  0  0  0  0
  147.4197  136.7389  156.8812 H   0  0  0  0  0  0  0  0  0  0  0  0
  148.6751  142.4928  154.2800 H   0  0  0  0  0  0  0  0  0  0  0  0
  148.9122  142.3683  157.1473 H   0  0  0  0  0  0  0  0  0  0  0  0
  149.3667  140.7627  157.6482 H   0  0  0  0  0  0  0  0  0  0  0  0
  150.9416  142.5497  155.7074 H   0  0  0  0  0  0  0  0  0  0  0  0
  152.6803  140.6887  155.8124 H   0  0  0  0  0  0  0  0  0  0  0  0
  151.4876  139.6924  156.6238 H   0  0  0  0  0  0  0  0  0  0  0  0
  150.3050  139.6945  154.7884 H   0  0  0  0  0  0  0  0  0  0  0  0
  152.7485  142.4534  157.4706 H   0  0  0  0  0  0  0  0  0  0  0  0
  151.5949  144.5701  157.5437 H   0  0  0  0  0  0  0  0  0  0  0  0
  150.1420  143.8122  158.2125 H   0  0  0  0  0  0  0  0  0  0  0  0
  152.8645  144.0844  159.5555 H   0  0  0  0  0  0  0  0  0  0  0  0
  151.2984  144.5894  160.2033 H   0  0  0  0  0  0  0  0  0  0  0  0
  150.5785  141.1064  159.1061 H   0  0  0  0  0  0  0  0  0  0  0  0
  152.3224  140.8397  159.1480 H   0  0  0  0  0  0  0  0  0  0  0  0
  147.5054  135.6179  152.4329 H   0  0  0  0  0  0  0  0  0  0  0  0
  146.7259  135.6637  153.9930 H   0  0  0  0  0  0  0  0  0  0  0  0
  144.9162  134.2090  153.1711 H   0  0  0  0  0  0  0  0  0  0  0  0
  147.0544  133.2201  154.0807 H   0  0  0  0  0  0  0  0  0  0  0  0
  147.6555  133.0441  152.4372 H   0  0  0  0  0  0  0  0  0  0  0  0
  146.2448  132.1324  152.9797 H   0  0  0  0  0  0  0  0  0  0  0  0
  146.3669  134.3353  150.6520 H   0  0  0  0  0  0  0  0  0  0  0  0
  1  2  1  0  0  0  0
  1 30  1  0  0  0  0
  1 31  1  0  0  0  0
  1 32  1  0  0  0  0
  2  3  1  0  0  0  0
  2 33  1  0  0  0  0
  2 34  1  0  0  0  0
  3 28  1  0  0  0  0
  3  4  1  0  0  0  0
  3 64  1  0  0  0  0
  4  5  1  0  0  0  0
  4 35  1  0  0  0  0
  4 36  1  0  0  0  0
  5  6  1  0  0  0  0
  5 37  1  0  0  0  0
  5 38  1  0  0  0  0
  6  7  1  0  0  0  0
  6 27  1  0  0  0  0
  6 39  1  0  0  0  0
  7  8  1  0  0  0  0
  7  9  1  0  0  0  0
  8 40  1  0  0  0  0
  8 41  1  0  0  0  0
  8 42  1  0  0  0  0
  9 14  1  0  0  0  0
  9 10  2  0  0  0  0
 10 11  1  0  0  0  0
 11 12  2  0  0  0  0
 11 43  1  0  0  0  0
 12 13  1  0  0  0  0
 13 17  1  0  0  0  0
 13 14  2  0  0  0  0
 14 15  1  0  0  0  0
 15 16  2  0  0  0  0
 16 17  1  0  0  0  0
 16 44  1  0  0  0  0
 17 18  1  0  0  0  0
 18 19  1  0  0  0  0
 18 45  1  0  0  0  0
 18 46  1  0  0  0  0
 19 20  1  0  0  0  0
 19 22  1  0  0  0  0
 19 47  1  0  0  0  0
 20 21  1  0  0  0  0
 20 48  1  0  0  0  0
 20 49  1  0  0  0  0
 21 50  1  0  0  0  0
 22 26  1  0  0  0  0
 22 23  1  0  0  0  0
 22 51  1  0  0  0  0
 23 24  1  0  0  0  0
 23 52  1  0  0  0  0
 23 53  1  0  0  0  0
 24 25  1  0  0  0  0
 24 54  1  0  0  0  0
 24 55  1  0  0  0  0
 25 26  1  0  0  0  0
 26 56  1  0  0  0  0
 26 57  1  0  0  0  0
 27 28  1  0  0  0  0
 27 58  1  0  0  0  0
 27 59  1  0  0  0  0
 28 29  1  0  0  0  0
 28 60  1  0  0  0  0
 29 61  1  0  0  0  0
 29 62  1  0  0  0  0
 29 63  1  0  0  0  0
M  CHG  1   3   1
M  END
> <s_m_source_file>
AV-unprocessed.smi

> <i_m_source_file_index>
249

> <i_lp_mmshare_version>
43012

> <i_f3d_flags>
0

> <s_epik_input>
W0NIM11bQ0gyXU4xW0NIMl1bQ0gyXVtDQEhdKFtDSDJdW0NASF0xW0NIM10pTihbQ0gzXSljKG5bY0hdbjIpYyhjMjMpbltjSF1uM1tDSDJdW0NASF0oW0NIMl1bT0hdKVtDQEBIXTRbQ0gyXVtDSDJdT1tDSDJdNA==

> <s_epik_cmdline>
J2VwaWtfcHl0aG9uJywgJy1waCcsICc3LjAnLCAnLXRuJywgJzgnLCAnLW1hJywgJzIwMCcsICctbWV0YWxfYmluZGluZycsICctaW1hZScsICc8aW5maWxlLm1hZT4nLCAnLW9tYWUnLCAnPG91dGZpbGUubWFlPic=

> <r_lp_tautomer_probability>
1

> <r_epik_Ionization_Penalty>
0.00294688

> <r_epik_Ionization_Penalty_Charging>
0.00169971

> <r_epik_Ionization_Penalty_Neutral>
0.00124717

> <r_epik_State_Penalty>
-0

> <r_epik_Charging_Adjusted_Penalty>
0.00169971

> <i_epik_Tot_Q>
1

> <i_epik_Tot_abs_Q>
1

> <r_epik_Metal_State_Penalty>
-0

> <b_epik_Metal_Only>
0

> <s_lp_Force_Field>
OPLS_2005

> <r_lp_Energy>
53.7488

> <b_lp_Chiralities_Consistent>
1

> <s_lp_Variant>
AV-unprocessed.smi:249-28

> <Gold.Version>
5.8.1

> <Gold.Id.Protein>
6NUR|6NUR_protein|mol2

> <Gold.PLP.Fitness>
48.5564

> <Gold.PLP.PLP>
-44.4121

> <Gold.PLP.part.hbond>
-1.4667

> <Gold.PLP.part.metal>
0.0000

> <Gold.PLP.part.buried>
-0.9107

> <Gold.PLP.part.nonpolar>
-41.9040

> <Gold.PLP.part.repulsive>
0.5358

> <Gold.PLP.ligand.clash>
0.0000

> <Gold.PLP.ligand.torsion>
0.7876

> <Gold.PLP.Chemscore.Hbond>
1.0000

> <Gold.PLP.Chemscore.CHOScore>
0.5113

> <Gold.PLP.Chemscore.Metal>
0.0000

> <Gold.Chemscore.Hbonds>
donor molecule, donor type, donor heavy atom, donor atom, acceptor molecule, acceptor atom, score
      P1  H  7989  7998       L1    21  0.81
      L1  C    16    44       P1  8028  0.82

> <Gold.PLP.Chemscore.Internal.Correction>
1.1855

> <Gold.Rescore>
     Score         DG    S(hbond)    S(metal)    S(lipo)     H(rot)  DE(clash)    DE(int)     intcor
      9.95     -15.33       0.98        0.00     114.33       2.65       0.33       5.04       ----

> <Gold.Chemscore.Fitness>
9.9524

> <Gold.Chemscore.DG>
-15.3258

> <Gold.Chemscore.ZeroCoef>
-5.4800

> <Gold.Chemscore.Hbond>
0.9750

> <Gold.Chemscore.Metal>
0.0000

> <Gold.Chemscore.Lipo>
114.3346

> <Gold.Chemscore.Internal_Hbond>
0.0000

> <Gold.Chemscore.DEClash>
0.3316

> <Gold.Chemscore.DEInternal>
5.0418

> <Gold.Chemscore.Rot>
2.6515

> <Gold.Chemscore.Internal.Correction>
   9.000000E+99

> <Gold.Chemscore.Hbonds>
donor molecule, donor type, donor heavy atom, donor atom, acceptor molecule, acceptor atom, score
      P1  H  7989  7998       L1    21  0.77

> <Gold.Chemscore.Hbond.Weighted>
-3.2566

> <Gold.Chemscore.Metal.Weighted>
-0.0000

> <Gold.Chemscore.Lipo.Weighted>
-13.3772

> <Gold.Chemscore.Internal_Hbond.Weighted>
0.0000

> <Gold.Chemscore.DEClash.Weighted>
0.3316

> <Gold.Chemscore.DEInternal.Weighted>
5.0418

> <Gold.Chemscore.Rot.Weighted>
6.7880

> <Gold.Chemscore.Internal.Correction.Weighted>
   9.000000E+99

> <Gold.Protein.RotatedTorsions>
[ 6907 6896 6895 6894 ] final  173.72 input  -60.11 | X-H torsion
[ 7974 7965 7964 7962 ] final -144.34 input  175.53 | X-H torsion
[ 8008 7997 7996 7995 ] final  117.29 input   59.86 | X-H torsion
[ 10167 10162 10161 10158 ] final -131.85 input  -65.29 | X-H torsion
[ 10718 10713 10712 10709 ] final  154.90 input   66.30 | X-H torsion
[ 10763 10752 10751 10750 ] final -161.38 input  -60.55 | X-H torsion
[ 11005 11000 10999 10996 ] final -146.46 input  -57.11 | X-H torsion

> <Gold.Protein.ActiveResidues>
 VAL166  LYS551  ARG553  GLY616  TRP617  ASP618  TYR619  PRO620  LYS621  CYS622 
 ASP623  PHE694  ASN695  SER759  ASP760  ASP761  ALA762  ILE779  LEU786  VAL792 
 PHE793  MET794  SER795  GLU796  ALA797  LYS798  CYS799  TRP800  GLU811  SER814 

> <Gold.Protein.RotatedAtoms>
  151.7638  133.3336  159.3424 H   0  0  0  0  0  0  0  0  0  0  0  0  # atno 6907 bound_to 6896
  150.7487  134.6081  159.6081 H   0  0  0  0  0  0  0  0  0  0  0  0  # atno 6908 bound_to 6896
  152.3387  134.7165  160.0321 H   0  0  0  0  0  0  0  0  0  0  0  0  # atno 6909 bound_to 6896
  144.8304  140.5722  143.5519 H   0  0  0  0  0  0  0  0  0  0  0  0  # atno 7974 bound_to 7965
  156.2486  140.2899  156.0655 H   0  0  0  0  0  0  0  0  0  0  0  0  # atno 8008 bound_to 7997
  155.1729  140.0402  157.2884 H   0  0  0  0  0  0  0  0  0  0  0  0  # atno 8009 bound_to 7997
  154.6313  140.2500  155.7437 H   0  0  0  0  0  0  0  0  0  0  0  0  # atno 8010 bound_to 7997
  139.9146  143.6453  152.2567 H   0  0  0  0  0  0  0  0  0  0  0  0  # atno 10167 bound_to 10162
  157.2255  131.0728  151.1886 H   0  0  0  0  0  0  0  0  0  0  0  0  # atno 10718 bound_to 10713
  154.7309  135.3046  154.8893 H   0  0  0  0  0  0  0  0  0  0  0  0  # atno 10763 bound_to 10752
  153.9736  135.6739  153.4752 H   0  0  0  0  0  0  0  0  0  0  0  0  # atno 10764 bound_to 10752
  153.0917  135.4956  154.8624 H   0  0  0  0  0  0  0  0  0  0  0  0  # atno 10765 bound_to 10752
  140.7818  134.3070  157.5043 H   0  0  0  0  0  0  0  0  0  0  0  0  # atno 11005 bound_to 11000
  145.4907  139.1489  143.3711 LP  0  0  0  0  0  0  0  0  0  0  0  0  # atno 17320 bound_to 7965
  146.2607  140.5045  142.8854 LP  0  0  0  0  0  0  0  0  0  0  0  0  # atno 17321 bound_to 7965
  139.6913  144.7646  151.1434 LP  0  0  0  0  0  0  0  0  0  0  0  0  # atno 17342 bound_to 10162
  140.7677  143.5585  150.9125 LP  0  0  0  0  0  0  0  0  0  0  0  0  # atno 17343 bound_to 10162
  157.3532  130.7093  149.6454 LP  0  0  0  0  0  0  0  0  0  0  0  0  # atno 17370 bound_to 10713
  155.9679  130.4246  150.4618 LP  0  0  0  0  0  0  0  0  0  0  0  0  # atno 17371 bound_to 10713
  139.8741  134.9323  156.3550 LP  0  0  0  0  0  0  0  0  0  0  0  0  # atno 17394 bound_to 11000
  140.9475  133.7473  156.0228 LP  0  0  0  0  0  0  0  0  0  0  0  0  # atno 17395 bound_to 11000

$$$$
