AV-unprocessed.smi:2963|AV-procd|sdf|11320|dock6
  -GOLD-   2272016223D 1   1.00000     0.00000
 Structure written by MMmdl.
 42 44  0  0  0  0  0  0  0  0  2 V2000
  153.5927  138.2437  160.4956 C   0  0  0  0  0  0  0  0  0  0  0  0
  152.7169  138.1690  159.3818 O   0  0  0  0  0  0  0  0  0  0  0  0
  151.9527  139.3462  159.1659 C   0  0  0  0  0  0  0  0  0  0  0  0
  152.8497  140.5756  158.9408 C   0  0  0  0  0  0  0  0  0  0  0  0
  152.0918  141.7083  158.3939 N   0  0  0  0  0  0  0  0  0  0  0  0
  151.4038  141.8331  157.2245 C   0  0  0  0  0  0  0  0  0  0  0  0
  151.2253  140.5951  155.9805 S   0  0  0  0  0  0  0  0  0  0  0  0
  149.4382  140.2866  155.8445 C   0  0  0  0  0  0  0  0  0  0  0  0
  148.7502  141.0229  154.6821 C   0  0  0  0  0  0  0  0  0  0  0  0
  149.2824  140.9973  153.5695 O   0  0  0  0  0  0  0  0  0  0  0  0
  147.5794  141.6635  154.9453 N   0  0  0  0  0  0  0  0  0  0  0  0
  146.8112  142.3897  153.9325 C   0  0  0  0  0  0  0  0  0  0  0  0
  145.6046  142.9324  154.6908 C   0  0  0  0  0  0  0  0  0  0  0  0
  145.8427  142.4424  156.0256 N   0  0  0  0  0  0  0  0  0  0  0  0
  146.9628  141.7268  156.1500 C   0  0  0  0  0  0  0  0  0  0  0  0
  147.3342  141.2266  157.2122 O   0  0  0  0  0  0  0  0  0  0  0  0
  150.8689  143.0856  157.1922 N   0  3  0  0  0  0  0  0  0  0  0  0
  151.2124  143.7694  158.3598 C   0  0  0  0  0  0  0  0  0  0  0  0
  150.9020  145.0567  158.7876 C   0  0  0  0  0  0  0  0  0  0  0  0
  151.4103  145.4458  160.0445 C   0  0  0  0  0  0  0  0  0  0  0  0
  152.1943  144.5697  160.8232 C   0  0  0  0  0  0  0  0  0  0  0  0
  152.5039  143.2671  160.3793 C   0  0  0  0  0  0  0  0  0  0  0  0
  151.9972  142.8904  159.1360 C   0  0  0  0  0  0  0  0  0  0  0  0
  154.0966  137.2859  160.6243 H   0  0  0  0  0  0  0  0  0  0  0  0
  153.0461  138.4592  161.4147 H   0  0  0  0  0  0  0  0  0  0  0  0
  154.3607  139.0045  160.3577 H   0  0  0  0  0  0  0  0  0  0  0  0
  151.3488  139.1797  158.2731 H   0  0  0  0  0  0  0  0  0  0  0  0
  151.2520  139.5086  159.9863 H   0  0  0  0  0  0  0  0  0  0  0  0
  153.3387  140.8984  159.8598 H   0  0  0  0  0  0  0  0  0  0  0  0
  153.6452  140.3337  158.2354 H   0  0  0  0  0  0  0  0  0  0  0  0
  149.2888  139.2135  155.7224 H   0  0  0  0  0  0  0  0  0  0  0  0
  148.9764  140.5807  156.7870 H   0  0  0  0  0  0  0  0  0  0  0  0
  147.3961  143.2036  153.5012 H   0  0  0  0  0  0  0  0  0  0  0  0
  146.4936  141.7240  153.1284 H   0  0  0  0  0  0  0  0  0  0  0  0
  145.5695  144.0225  154.6827 H   0  0  0  0  0  0  0  0  0  0  0  0
  144.6637  142.5423  154.3010 H   0  0  0  0  0  0  0  0  0  0  0  0
  145.2110  142.6317  156.7907 H   0  0  0  0  0  0  0  0  0  0  0  0
  150.3006  145.7304  158.1948 H   0  0  0  0  0  0  0  0  0  0  0  0
  151.1939  146.4360  160.4191 H   0  0  0  0  0  0  0  0  0  0  0  0
  152.5650  144.9030  161.7817 H   0  0  0  0  0  0  0  0  0  0  0  0
  153.1029  142.6022  160.9843 H   0  0  0  0  0  0  0  0  0  0  0  0
  150.3072  143.4411  156.4297 H   0  0  0  0  0  0  0  0  0  0  0  0
  1  2  1  0  0  0  0
  1 24  1  0  0  0  0
  1 25  1  0  0  0  0
  1 26  1  0  0  0  0
  2  3  1  0  0  0  0
  3  4  1  0  0  0  0
  3 27  1  0  0  0  0
  3 28  1  0  0  0  0
  4  5  1  0  0  0  0
  4 29  1  0  0  0  0
  4 30  1  0  0  0  0
  5 23  1  0  0  0  0
  5  6  1  0  0  0  0
  6  7  1  0  0  0  0
  6 17  2  0  0  0  0
  7  8  1  0  0  0  0
  8  9  1  0  0  0  0
  8 31  1  0  0  0  0
  8 32  1  0  0  0  0
  9 10  2  0  0  0  0
  9 11  1  0  0  0  0
 11 15  1  0  0  0  0
 11 12  1  0  0  0  0
 12 13  1  0  0  0  0
 12 33  1  0  0  0  0
 12 34  1  0  0  0  0
 13 14  1  0  0  0  0
 13 35  1  0  0  0  0
 13 36  1  0  0  0  0
 14 15  1  0  0  0  0
 14 37  1  0  0  0  0
 15 16  2  0  0  0  0
 17 18  1  0  0  0  0
 17 42  1  0  0  0  0
 18 23  2  0  0  0  0
 18 19  1  0  0  0  0
 19 20  2  0  0  0  0
 19 38  1  0  0  0  0
 20 21  1  0  0  0  0
 20 39  1  0  0  0  0
 21 22  2  0  0  0  0
 21 40  1  0  0  0  0
 22 23  1  0  0  0  0
 22 41  1  0  0  0  0
M  CHG  1  17   1
M  END
> <s_m_source_file>
AV-unprocessed.smi

> <i_m_source_file_index>
2963

> <i_lp_mmshare_version>
43012

> <i_f3d_flags>
0

> <s_epik_input>
W2NIXTFbY0hdW2NIXVtjSF1jKGMxMiluKFtDSDJdW0NIMl1PW0NIM10pYyhuMilTW0NIMl1DKD1PKU4zW0NIMl1bQ0gyXVtOSF1DMz1P

> <s_epik_cmdline>
J2VwaWtfcHl0aG9uJywgJy1waCcsICc3LjAnLCAnLXRuJywgJzgnLCAnLW1hJywgJzIwMCcsICctbWV0YWxfYmluZGluZycsICctaW1hZScsICc8aW5maWxlLm1hZT4nLCAnLW9tYWUnLCAnPG91dGZpbGUubWFlPic=

> <r_lp_tautomer_probability>
0.9999

> <r_epik_Ionization_Penalty>
1.70838

> <r_epik_Ionization_Penalty_Charging>
1.70836

> <r_epik_Ionization_Penalty_Neutral>
2.53969e-05

> <r_epik_State_Penalty>
1.81492

> <r_epik_Charging_Adjusted_Penalty>
3.52327

> <i_epik_Tot_Q>
1

> <i_epik_Tot_abs_Q>
1

> <r_epik_Metal_State_Penalty>
1.84772

> <b_epik_Metal_Only>
0

> <s_lp_Force_Field>
OPLS_2005

> <r_lp_Energy>
48.5569

> <b_lp_Chiralities_Consistent>
1

> <s_lp_Variant>
AV-unprocessed.smi:2963-2

> <Gold.Version>
5.8.1

> <Gold.Id.Protein>
6NUR|6NUR_protein|mol2

> <Gold.PLP.Fitness>
53.3039

> <Gold.PLP.PLP>
-47.5070

> <Gold.PLP.part.hbond>
-3.0000

> <Gold.PLP.part.metal>
0.0000

> <Gold.PLP.part.buried>
-8.2383

> <Gold.PLP.part.nonpolar>
-38.9532

> <Gold.PLP.part.repulsive>
3.5055

> <Gold.PLP.ligand.clash>
2.5208

> <Gold.PLP.ligand.torsion>
0.4860

> <Gold.PLP.Chemscore.Hbond>
3.0811

> <Gold.PLP.Chemscore.CHOScore>
0.0000

> <Gold.PLP.Chemscore.Metal>
0.0000

> <Gold.Chemscore.Hbonds>
donor molecule, donor type, donor heavy atom, donor atom, acceptor molecule, acceptor atom, score
      L1  H    17    42       P1  8028  1.89
      P1  H  7989  7998       L1    10  0.08
      P1  H  8011  8017       L1    10  1.00

> <Gold.PLP.Chemscore.Internal.Correction>
0.0465

> <Gold.Rescore>
     Score         DG    S(hbond)    S(metal)    S(lipo)     H(rot)  DE(clash)    DE(int)     intcor
     16.09     -19.63       2.14        0.00     112.26       2.39       1.58       1.96       ----

> <Gold.Chemscore.Fitness>
16.0882

> <Gold.Chemscore.DG>
-19.6294

> <Gold.Chemscore.ZeroCoef>
-5.4800

> <Gold.Chemscore.Hbond>
2.1383

> <Gold.Chemscore.Metal>
0.0000

> <Gold.Chemscore.Lipo>
112.2605

> <Gold.Chemscore.Internal_Hbond>
0.0000

> <Gold.Chemscore.DEClash>
1.5815

> <Gold.Chemscore.DEInternal>
1.9597

> <Gold.Chemscore.Rot>
2.3933

> <Gold.Chemscore.Internal.Correction>
   9.000000E+99

> <Gold.Chemscore.Hbonds>
donor molecule, donor type, donor heavy atom, donor atom, acceptor molecule, acceptor atom, score
      L1  H    17    42       P1  8028  0.87
      P1  H  7989  7998       L1    10  0.08
      P1  H  8011  8017       L1    10  0.96

> <Gold.Chemscore.Hbond.Weighted>
-7.1418

> <Gold.Chemscore.Metal.Weighted>
-0.0000

> <Gold.Chemscore.Lipo.Weighted>
-13.1345

> <Gold.Chemscore.Internal_Hbond.Weighted>
0.0000

> <Gold.Chemscore.DEClash.Weighted>
1.5815

> <Gold.Chemscore.DEInternal.Weighted>
1.9597

> <Gold.Chemscore.Rot.Weighted>
6.1270

> <Gold.Chemscore.Internal.Correction.Weighted>
   9.000000E+99

> <Gold.Protein.RotatedTorsions>
[ 6907 6896 6895 6894 ] final   45.85 input  -60.11 | X-H torsion
[ 7974 7965 7964 7962 ] final -163.24 input  175.53 | X-H torsion
[ 8008 7997 7996 7995 ] final    3.83 input   59.86 | X-H torsion
[ 10167 10162 10161 10158 ] final  -39.83 input  -65.29 | X-H torsion
[ 10718 10713 10712 10709 ] final  125.62 input   66.30 | X-H torsion
[ 10763 10752 10751 10750 ] final  134.65 input  -60.55 | X-H torsion
[ 11005 11000 10999 10996 ] final   81.96 input  -57.11 | X-H torsion

> <Gold.Protein.ActiveResidues>
 VAL166  LYS551  ARG553  GLY616  TRP617  ASP618  TYR619  PRO620  LYS621  CYS622 
 ASP623  PHE694  ASN695  SER759  ASP760  ASP761  ALA762  ILE779  LEU786  VAL792 
 PHE793  MET794  SER795  GLU796  ALA797  LYS798  CYS799  TRP800  GLU811  SER814 

> <Gold.Protein.RotatedAtoms>
  152.2494  134.8148  160.0448 H   0  0  0  0  0  0  0  0  0  0  0  0  # atno 6907 bound_to 6896
  151.8834  133.3495  159.3782 H   0  0  0  0  0  0  0  0  0  0  0  0  # atno 6908 bound_to 6896
  150.7079  134.4923  159.5565 H   0  0  0  0  0  0  0  0  0  0  0  0  # atno 6909 bound_to 6896
  144.7332  140.3136  143.6183 H   0  0  0  0  0  0  0  0  0  0  0  0  # atno 7974 bound_to 7965
  154.7084  140.2687  155.6652 H   0  0  0  0  0  0  0  0  0  0  0  0  # atno 8008 bound_to 7997
  156.2788  140.2758  156.1642 H   0  0  0  0  0  0  0  0  0  0  0  0  # atno 8009 bound_to 7997
  155.0668  140.0372  157.2585 H   0  0  0  0  0  0  0  0  0  0  0  0  # atno 8010 bound_to 7997
  140.7052  143.3190  151.2838 H   0  0  0  0  0  0  0  0  0  0  0  0  # atno 10167 bound_to 10162
  157.5488  131.1095  150.8738 H   0  0  0  0  0  0  0  0  0  0  0  0  # atno 10718 bound_to 10713
  153.8270  135.3108  155.3415 H   0  0  0  0  0  0  0  0  0  0  0  0  # atno 10763 bound_to 10752
  154.7989  135.4739  154.0230 H   0  0  0  0  0  0  0  0  0  0  0  0  # atno 10764 bound_to 10752
  153.1658  135.6869  153.8768 H   0  0  0  0  0  0  0  0  0  0  0  0  # atno 10765 bound_to 10752
  139.9080  134.8036  156.2111 H   0  0  0  0  0  0  0  0  0  0  0  0  # atno 11005 bound_to 11000
  145.7640  139.1834  143.2250 LP  0  0  0  0  0  0  0  0  0  0  0  0  # atno 17320 bound_to 7965
  146.0964  140.7596  142.9570 LP  0  0  0  0  0  0  0  0  0  0  0  0  # atno 17321 bound_to 7965
  139.6638  144.0141  152.2710 LP  0  0  0  0  0  0  0  0  0  0  0  0  # atno 17342 bound_to 10162
  139.9717  144.6489  150.7982 LP  0  0  0  0  0  0  0  0  0  0  0  0  # atno 17343 bound_to 10162
  156.9269  130.5335  149.5279 LP  0  0  0  0  0  0  0  0  0  0  0  0  # atno 17370 bound_to 10713
  156.0558  130.5620  150.9089 LP  0  0  0  0  0  0  0  0  0  0  0  0  # atno 17371 bound_to 10713
  141.0465  133.6911  156.1692 LP  0  0  0  0  0  0  0  0  0  0  0  0  # atno 17394 bound_to 11000
  140.6876  134.4700  157.5589 LP  0  0  0  0  0  0  0  0  0  0  0  0  # atno 17395 bound_to 11000

$$$$
