#       Name:                AV-unprocessed.smi:306
#       Creating user name   scv26
#       Creation time:       Thu Mar 26 22:18:18 2020


#       File generated by GOLD software.
#

@<TRIPOS>MOLECULE
AV-unprocessed.smi:306
    55    57     1
SMALL
NO_CHARGES


@<TRIPOS>ATOM
      1 ****        -4.2909   2.2978  -0.0889 C.3            1 S1                 0.0000
      2 ****        -4.1494   1.1150  -1.0539 C.3            1 S1                 0.0000
      3 ****        -3.0672   0.1658  -0.6241 C.2            1 S1                 0.0000
      4 ****        -3.2077  -1.0914   0.0277 C.2            1 S1                 0.0000
      5 ****        -1.9244  -1.5290   0.1986 C.2            1 S1                 0.0000
      6 ****        -1.4117  -2.7900   0.8201 C.3            1 S1                 0.0000
      7 ****        -1.0118  -3.8538  -0.2084 C.3            1 S1                 0.0000
      8 ****        -1.0978  -0.5548  -0.3321 N.pl3          1 S1                 0.0000
      9 ****         0.3097  -0.5342  -0.3871 C.2            1 S1                 0.0000
     10 ****         1.0166  -0.9422  -1.4415 N.2            1 S1                 0.0000
     11 ****         2.3236  -0.7338  -1.0240 C.2            1 S1                 0.0000
     12 ****         2.3669  -0.2173   0.2351 C.2            1 S1                 0.0000
     13 ****         3.6209   0.1206   0.9441 C.2            1 S1                 0.0000
     14 ****         3.6035   0.5975   2.0768 O.2            1 S1                 0.0000
     15 ****         4.7313  -0.1623   0.1917 N.pl3          1 S1                -1.0000
     16 ****         4.7350  -0.6903  -1.0816 C.2            1 S1                 0.0000
     17 ****         5.7829  -0.9188  -1.6873 O.2            1 S1                 0.0000
     18 ****         3.5481  -0.9759  -1.7043 N.am           1 S1                 0.0000
     19 ****         3.5223  -1.5364  -3.0584 C.3            1 S1                 0.0000
     20 ****         1.0421  -0.0856   0.6619 N.pl3          1 S1                 0.0000
     21 ****         0.5344   0.4248   1.9330 C.3            1 S1                 0.0000
     22 ****         0.2030   1.9229   1.8667 C.3            1 S1                 0.0000
     23 ****         1.3436   2.6582   1.4560 O.3            1 S1                 0.0000
     24 ****         1.0874   4.0466   1.3487 C.3            1 S1                 0.0000
     25 ****        -1.8003   0.4769  -0.8437 N.2            1 S1                 0.0000
     26 ****        -5.0842   2.9713  -0.4135 H              1 S1                 0.0000
     27 ****        -3.3670   2.8743  -0.0329 H              1 S1                 0.0000
     28 ****        -4.5342   1.9565   0.9176 H              1 S1                 0.0000
     29 ****        -5.1009   0.5864  -1.1181 H              1 S1                 0.0000
     30 ****        -3.9431   1.4868  -2.0581 H              1 S1                 0.0000
     31 ****        -4.1148  -1.5954   0.3263 H              1 S1                 0.0000
     32 ****        -0.5572  -2.5659   1.4593 H              1 S1                 0.0000
     33 ****        -2.1764  -3.2017   1.4794 H              1 S1                 0.0000
     34 ****        -0.6568  -4.7578   0.2865 H              1 S1                 0.0000
     35 ****        -0.2133  -3.4973  -0.8592 H              1 S1                 0.0000
     36 ****        -1.8587  -4.1285  -0.8378 H              1 S1                 0.0000
     37 ****         4.0490  -0.8824  -3.7549 H              1 S1                 0.0000
     38 ****         2.5104  -1.6672  -3.4412 H              1 S1                 0.0000
     39 ****         4.0075  -2.5131  -3.0745 H              1 S1                 0.0000
     40 ****        -0.3576  -0.1357   2.2118 H              1 S1                 0.0000
     41 ****         1.2550   0.2248   2.7233 H              1 S1                 0.0000
     42 ****        -0.6168   2.0915   1.1673 H              1 S1                 0.0000
     43 ****        -0.1313   2.2689   2.8456 H              1 S1                 0.0000
     44 ****         1.9952   4.5625   1.0361 H              1 S1                 0.0000
     45 ****         0.7740   4.4655   2.3057 H              1 S1                 0.0000
     46 ****         0.3133   4.2474   0.6071 H              1 S1                 0.0000
     47 ****         0.6879  -1.3064  -2.3130 LP             1 S1                 0.0000
     48 ****         2.7308   0.7638   2.5359 LP             1 S1                 0.0000
     49 ****         4.4620   0.8191   2.5392 LP             1 S1                 0.0000
     50 ****         5.6209   0.0324   0.6047 LP             1 S1                 0.0000
     51 ****         6.6631  -0.7209  -1.2560 LP             1 S1                 0.0000
     52 ****         5.7534  -1.3023  -2.6104 LP             1 S1                 0.0000
     53 ****         1.6400   2.3174   0.5638 LP             1 S1                 0.0000
     54 ****         2.0730   2.5180   2.1255 LP             1 S1                 0.0000
     55 ****        -1.4422   1.2966  -1.2907 LP             1 S1                 0.0000
@<TRIPOS>BOND
    1    1    2 1     
    2    1   26 1     
    3    1   27 1     
    4    1   28 1     
    5    2    3 1     
    6    2   29 1     
    7    2   30 1     
    8    3   25 2     
    9    3    4 1     
   10    4    5 2     
   11    4   31 1     
   12    5    6 1     
   13    5    8 1     
   14    6    7 1     
   15    6   32 1     
   16    6   33 1     
   17    7   34 1     
   18    7   35 1     
   19    7   36 1     
   20    8    9 1     
   21    8   25 1     
   22    9   20 1     
   23    9   10 2     
   24   10   11 1     
   25   11   18 1     
   26   11   12 2     
   27   12   13 1     
   28   12   20 1     
   29   13   14 2     
   30   13   15 1     
   31   15   16 1     
   32   16   17 2     
   33   16   18 am    
   34   18   19 1     
   35   19   37 1     
   36   19   38 1     
   37   19   39 1     
   38   20   21 1     
   39   21   22 1     
   40   21   40 1     
   41   21   41 1     
   42   22   23 1     
   43   22   42 1     
   44   22   43 1     
   45   23   24 1     
   46   24   44 1     
   47   24   45 1     
   48   24   46 1     
   49   10   47 1     
   50   14   48 1     
   51   14   49 1     
   52   15   50 1     
   53   17   51 1     
   54   17   52 1     
   55   23   53 1     
   56   23   54 1     
   57   25   55 1     
@<TRIPOS>SUBSTRUCTURE
      1 S1             1
@<TRIPOS>SET
LONE_PAIRS      STATIC     ATOMS    <user>   **** ""
9 47 48 49 50 51 52 53 54 55
ATOM$BLUE        STATIC     ATOMS    COLORGROUP SYSTEM
9 47 48 49 50 51 52 53 54 55
