AV-unprocessed.smi:1978|AV-procd|sdf|8006|dock7
  -GOLD-   2272010193D 1   1.00000     0.00000
 Structure written by MMmdl.
 44 45  0  0  0  0  0  0  0  0  3 V2000
  147.1999  136.0248  163.1605 C   0  0  0  0  0  0  0  0  0  0  0  0
  147.7286  135.9444  161.7692 C   0  0  0  0  0  0  0  0  0  0  0  0
  148.0583  134.8928  160.9621 C   0  0  0  0  0  0  0  0  0  0  0  0
  148.4903  135.5254  159.7645 C   0  0  0  0  0  0  0  0  0  0  0  0
  148.9341  134.9049  158.6605 N   0  5  0  0  0  0  0  0  0  0  0  0
  148.5706  135.3499  157.4367 C   0  0  0  0  0  0  0  0  0  0  0  0
  147.8349  136.3097  157.1943 O   0  0  0  0  0  0  0  0  0  0  0  0
  149.0857  134.6325  156.4280 N   0  0  0  0  0  0  0  0  0  0  0  0
  148.8418  134.8634  155.0069 C   0  0  0  0  0  0  0  0  0  0  0  0
  148.2711  133.6151  154.2729 C   0  0  2  0  0  0  0  0  0  0  0  0
  149.4244  132.6153  153.9956 C   0  0  0  0  0  0  0  0  0  0  0  0
  147.5226  133.9997  153.0256 N   0  3  2  0  0  0  0  0  0  0  0  0
  146.3930  134.9501  153.2641 C   0  0  0  0  0  0  0  0  0  0  0  0
  145.8230  135.4996  151.9459 C   0  0  0  0  0  0  0  0  0  0  0  0
  145.3719  134.3711  151.0165 C   0  0  0  0  0  0  0  0  0  0  0  0
  146.5289  133.3884  150.8052 C   0  0  0  0  0  0  0  0  0  0  0  0
  147.0998  132.8628  152.1395 C   0  0  2  0  0  0  0  0  0  0  0  0
  146.1355  131.8700  152.8284 C   0  0  0  0  0  0  0  0  0  0  0  0
  148.4433  136.8445  159.8440 N   0  0  0  0  0  0  0  0  0  0  0  0
  147.9503  137.1215  161.1248 O   0  0  0  0  0  0  0  0  0  0  0  0
  147.9655  135.7357  163.8803 H   0  0  0  0  0  0  0  0  0  0  0  0
  146.3467  135.3585  163.2878 H   0  0  0  0  0  0  0  0  0  0  0  0
  146.8749  137.0376  163.4002 H   0  0  0  0  0  0  0  0  0  0  0  0
  147.9979  133.8393  161.1903 H   0  0  0  0  0  0  0  0  0  0  0  0
  149.6886  133.8596  156.6708 H   0  0  0  0  0  0  0  0  0  0  0  0
  148.1849  135.7284  154.9450 H   0  0  0  0  0  0  0  0  0  0  0  0
  149.7852  135.1628  154.5493 H   0  0  0  0  0  0  0  0  0  0  0  0
  147.5604  133.1220  154.9370 H   0  0  0  0  0  0  0  0  0  0  0  0
  149.9871  132.3792  154.8983 H   0  0  0  0  0  0  0  0  0  0  0  0
  150.1305  133.0180  153.2688 H   0  0  0  0  0  0  0  0  0  0  0  0
  149.0699  131.6542  153.6267 H   0  0  0  0  0  0  0  0  0  0  0  0
  145.6101  134.4646  153.8473 H   0  0  0  0  0  0  0  0  0  0  0  0
  146.7066  135.8138  153.8428 H   0  0  0  0  0  0  0  0  0  0  0  0
  144.9854  136.1667  152.1524 H   0  0  0  0  0  0  0  0  0  0  0  0
  146.5814  136.1035  151.4459 H   0  0  0  0  0  0  0  0  0  0  0  0
  144.5098  133.8574  151.4428 H   0  0  0  0  0  0  0  0  0  0  0  0
  145.0461  134.7799  150.0597 H   0  0  0  0  0  0  0  0  0  0  0  0
  146.2017  132.5568  150.1796 H   0  0  0  0  0  0  0  0  0  0  0  0
  147.3229  133.8888  150.2490 H   0  0  0  0  0  0  0  0  0  0  0  0
  147.9881  132.3045  151.8481 H   0  0  0  0  0  0  0  0  0  0  0  0
  145.8911  131.0459  152.1578 H   0  0  0  0  0  0  0  0  0  0  0  0
  145.1948  132.3355  153.1194 H   0  0  0  0  0  0  0  0  0  0  0  0
  146.5700  131.4285  153.7244 H   0  0  0  0  0  0  0  0  0  0  0  0
  148.1934  134.5168  152.4759 H   0  0  0  0  0  0  0  0  0  0  0  0
  1  2  1  0  0  0  0
  1 21  1  0  0  0  0
  1 22  1  0  0  0  0
  1 23  1  0  0  0  0
  2 20  1  0  0  0  0
  2  3  2  0  0  0  0
  3  4  1  0  0  0  0
  3 24  1  0  0  0  0
  4  5  1  0  0  0  0
  4 19  2  0  0  0  0
  5  6  1  0  0  0  0
  6  7  2  0  0  0  0
  6  8  1  0  0  0  0
  8  9  1  0  0  0  0
  8 25  1  0  0  0  0
  9 10  1  0  0  0  0
  9 26  1  0  0  0  0
  9 27  1  0  0  0  0
 10 11  1  0  0  0  0
 10 12  1  0  0  0  0
 10 28  1  0  0  0  0
 11 29  1  0  0  0  0
 11 30  1  0  0  0  0
 11 31  1  0  0  0  0
 12 17  1  0  0  0  0
 12 13  1  0  0  0  0
 12 44  1  0  0  0  0
 13 14  1  0  0  0  0
 13 32  1  0  0  0  0
 13 33  1  0  0  0  0
 14 15  1  0  0  0  0
 14 34  1  0  0  0  0
 14 35  1  0  0  0  0
 15 16  1  0  0  0  0
 15 36  1  0  0  0  0
 15 37  1  0  0  0  0
 16 17  1  0  0  0  0
 16 38  1  0  0  0  0
 16 39  1  0  0  0  0
 17 18  1  0  0  0  0
 17 40  1  0  0  0  0
 18 41  1  0  0  0  0
 18 42  1  0  0  0  0
 18 43  1  0  0  0  0
 19 20  1  0  0  0  0
M  CHG  1   5  -1
M  CHG  1  12   1
M  END
> <s_m_source_file>
AV-unprocessed.smi

> <i_m_source_file_index>
1978

> <i_lp_mmshare_version>
43012

> <i_f3d_flags>
0

> <s_epik_input>
W0NIM11jMVtjSF1jKG5vMSlbTkhdQyg9TylbTkhdW0NIMl1bQ0BIXShbQ0gzXSlOMltDSDJdW0NIMl1bQ0gyXVtDSDJdW0NASF0yW0NIM10=

> <s_epik_cmdline>
J2VwaWtfcHl0aG9uJywgJy1waCcsICc3LjAnLCAnLXRuJywgJzgnLCAnLW1hJywgJzIwMCcsICctbWV0YWxfYmluZGluZycsICctaW1hZScsICc8aW5maWxlLm1hZT4nLCAnLW9tYWUnLCAnPG91dGZpbGUubWFlPic=

> <r_epik_Ionization_Penalty>
6.22372

> <r_epik_Ionization_Penalty_Charging>
6.22362

> <r_epik_Ionization_Penalty_Neutral>
9.65074e-05

> <r_epik_State_Penalty>
6.22363

> <r_epik_Charging_Adjusted_Penalty>
12.4472

> <i_epik_Tot_Q>
0

> <i_epik_Tot_abs_Q>
2

> <r_epik_Metal_State_Penalty>
2.16675

> <b_epik_Metal_Only>
1

> <s_lp_Force_Field>
OPLS_2005

> <r_lp_Energy>
13.4454

> <b_lp_Chiralities_Consistent>
1

> <s_lp_Variant>
AV-unprocessed.smi:1978-15

> <Gold.Version>
5.8.1

> <Gold.Id.Protein>
6NUR|6NUR_protein|mol2

> <Gold.PLP.Fitness>
46.4555

> <Gold.PLP.PLP>
-30.3257

> <Gold.PLP.part.hbond>
-4.0456

> <Gold.PLP.part.metal>
0.0000

> <Gold.PLP.part.buried>
-3.0743

> <Gold.PLP.part.nonpolar>
-23.4936

> <Gold.PLP.part.repulsive>
0.0362

> <Gold.PLP.ligand.clash>
0.0000

> <Gold.PLP.ligand.torsion>
0.5855

> <Gold.PLP.Chemscore.Hbond>
5.7180

> <Gold.PLP.Chemscore.CHOScore>
0.0000

> <Gold.PLP.Chemscore.Metal>
0.0000

> <Gold.Chemscore.Hbonds>
donor molecule, donor type, donor heavy atom, donor atom, acceptor molecule, acceptor atom, score
      L1  H    12    44       P1  7948  2.00
      P1  H  6896  6908       L1     5  2.00
      P1  H  6931  6943       L1    20  1.00
      P1  H  6934  6947       L1    20  0.71

> <Gold.PLP.Chemscore.Internal.Correction>
0.1469

> <Gold.Rescore>
     Score         DG    S(hbond)    S(metal)    S(lipo)     H(rot)  DE(clash)    DE(int)     intcor
     14.40     -16.55       2.05        0.00      69.26       1.52       0.07       2.09       ----

> <Gold.Chemscore.Fitness>
14.3985

> <Gold.Chemscore.DG>
-16.5524

> <Gold.Chemscore.ZeroCoef>
-5.4800

> <Gold.Chemscore.Hbond>
2.0531

> <Gold.Chemscore.Metal>
0.0000

> <Gold.Chemscore.Lipo>
69.2625

> <Gold.Chemscore.Internal_Hbond>
0.0000

> <Gold.Chemscore.DEClash>
0.0663

> <Gold.Chemscore.DEInternal>
2.0876

> <Gold.Chemscore.Rot>
1.5190

> <Gold.Chemscore.Internal.Correction>
   9.000000E+99

> <Gold.Chemscore.Hbonds>
donor molecule, donor type, donor heavy atom, donor atom, acceptor molecule, acceptor atom, score
      L1  H    12    44       P1  7948  0.25
      P1  H  6896  6908       L1     5  0.23
      P1  H  6931  6943       L1    20  0.59
      P1  H  6934  6947       L1    20  0.27

> <Gold.Chemscore.Hbond.Weighted>
-6.8573

> <Gold.Chemscore.Metal.Weighted>
-0.0000

> <Gold.Chemscore.Lipo.Weighted>
-8.1037

> <Gold.Chemscore.Internal_Hbond.Weighted>
0.0000

> <Gold.Chemscore.DEClash.Weighted>
0.0663

> <Gold.Chemscore.DEInternal.Weighted>
2.0876

> <Gold.Chemscore.Rot.Weighted>
3.8886

> <Gold.Chemscore.Internal.Correction.Weighted>
   9.000000E+99

> <Gold.Protein.RotatedTorsions>
[ 6907 6896 6895 6894 ] final  138.72 input  -60.11 | X-H torsion
[ 7974 7965 7964 7962 ] final  -92.56 input  175.53 | X-H torsion
[ 8008 7997 7996 7995 ] final   57.19 input   59.86 | X-H torsion
[ 10167 10162 10161 10158 ] final  -59.67 input  -65.29 | X-H torsion
[ 10718 10713 10712 10709 ] final -148.79 input   66.30 | X-H torsion
[ 10763 10752 10751 10750 ] final  -83.18 input  -60.55 | X-H torsion
[ 11005 11000 10999 10996 ] final   38.15 input  -57.11 | X-H torsion

> <Gold.Protein.ActiveResidues>
 VAL166  LYS551  ARG553  GLY616  TRP617  ASP618  TYR619  PRO620  LYS621  CYS622 
 ASP623  PHE694  ASN695  SER759  ASP760  ASP761  ALA762  ILE779  LEU786  VAL792 
 PHE793  MET794  SER795  GLU796  ALA797  LYS798  CYS799  TRP800  GLU811  SER814 

> <Gold.Protein.RotatedAtoms>
  152.2633  133.5317  159.5394 H   0  0  0  0  0  0  0  0  0  0  0  0  # atno 6907 bound_to 6896
  150.7133  134.0799  159.3903 H   0  0  0  0  0  0  0  0  0  0  0  0  # atno 6908 bound_to 6896
  151.8716  135.0487  160.0530 H   0  0  0  0  0  0  0  0  0  0  0  0  # atno 6909 bound_to 6896
  145.3981  140.9535  143.2302 H   0  0  0  0  0  0  0  0  0  0  0  0  # atno 7974 bound_to 7965
  155.5298  140.3482  155.4424 H   0  0  0  0  0  0  0  0  0  0  0  0  # atno 8008 bound_to 7997
  156.0726  140.1367  156.9836 H   0  0  0  0  0  0  0  0  0  0  0  0  # atno 8009 bound_to 7997
  154.4536  140.0962  156.6667 H   0  0  0  0  0  0  0  0  0  0  0  0  # atno 8010 bound_to 7997
  140.6120  143.2390  151.5686 H   0  0  0  0  0  0  0  0  0  0  0  0  # atno 10167 bound_to 10162
  156.4248  130.8046  151.2271 H   0  0  0  0  0  0  0  0  0  0  0  0  # atno 10718 bound_to 10713
  154.5847  135.5565  153.7219 H   0  0  0  0  0  0  0  0  0  0  0  0  # atno 10763 bound_to 10752
  153.0094  135.6328  154.1933 H   0  0  0  0  0  0  0  0  0  0  0  0  # atno 10764 bound_to 10752
  154.1874  135.2884  155.3013 H   0  0  0  0  0  0  0  0  0  0  0  0  # atno 10765 bound_to 10752
  140.2155  134.3703  155.8029 H   0  0  0  0  0  0  0  0  0  0  0  0  # atno 11005 bound_to 11000
  144.8393  139.5499  143.6908 LP  0  0  0  0  0  0  0  0  0  0  0  0  # atno 17320 bound_to 7965
  146.2765  139.6766  142.9259 LP  0  0  0  0  0  0  0  0  0  0  0  0  # atno 17321 bound_to 7965
  139.5369  144.2756  152.1270 LP  0  0  0  0  0  0  0  0  0  0  0  0  # atno 17342 bound_to 10162
  140.1957  144.4707  150.6456 LP  0  0  0  0  0  0  0  0  0  0  0  0  # atno 17343 bound_to 10162
  157.7508  131.0217  150.3760 LP  0  0  0  0  0  0  0  0  0  0  0  0  # atno 17370 bound_to 10713
  156.4085  130.3929  149.6908 LP  0  0  0  0  0  0  0  0  0  0  0  0  # atno 17371 bound_to 10713
  141.2225  133.7165  156.8489 LP  0  0  0  0  0  0  0  0  0  0  0  0  # atno 17394 bound_to 11000
  140.1905  134.8969  157.3055 LP  0  0  0  0  0  0  0  0  0  0  0  0  # atno 17395 bound_to 11000

$$$$
