AV-unprocessed.smi:2971|AV-procd|sdf|11332|dock7
  -GOLD-   2272016243D 1   1.00000     0.00000
 Structure written by MMmdl.
 36 38  0  0  0  0  0  0  0  0  1 V2000
  152.4093  138.2175  158.3814 O   0  0  0  0  0  0  0  0  0  0  0  0
  152.8432  139.0719  159.4219 C   0  0  2  0  0  0  0  0  0  0  0  0
  152.7903  140.5218  158.9151 C   0  0  0  0  0  0  0  0  0  0  0  0
  152.7059  141.3973  160.0321 O   0  0  0  0  0  0  0  0  0  0  0  0
  152.3699  142.7159  159.8071 C   0  0  0  0  0  0  0  0  0  0  0  0
  152.1053  143.2612  158.5246 C   0  0  0  0  0  0  0  0  0  0  0  0
  151.7680  144.6214  158.3831 C   0  0  0  0  0  0  0  0  0  0  0  0
  151.6918  145.4527  159.5156 C   0  0  0  0  0  0  0  0  0  0  0  0
  151.9536  144.9213  160.7918 C   0  0  0  0  0  0  0  0  0  0  0  0
  152.2896  143.5609  160.9349 C   0  0  0  0  0  0  0  0  0  0  0  0
  152.5374  143.0618  162.1695 F   0  0  0  0  0  0  0  0  0  0  0  0
  154.2683  138.6635  159.8434 C   0  0  0  0  0  0  0  0  0  0  0  0
  154.3277  137.3145  160.3786 N   0  0  0  0  0  0  0  0  0  0  0  0
  154.4282  136.1699  159.6761 C   0  0  0  0  0  0  0  0  0  0  0  0
  154.4627  135.0325  160.3645 N   0  0  0  0  0  0  0  0  0  0  0  0
  154.3750  135.4925  161.6674 C   0  0  0  0  0  0  0  0  0  0  0  0
  154.3576  134.7845  162.8905 C   0  0  0  0  0  0  0  0  0  0  0  0
  154.2604  135.4768  164.1156 C   0  0  0  0  0  0  0  0  0  0  0  0
  154.1810  136.8845  164.1372 C   0  0  0  0  0  0  0  0  0  0  0  0
  154.1963  137.6116  162.9314 C   0  0  0  0  0  0  0  0  0  0  0  0
  154.2907  136.9172  161.7111 C   0  0  0  0  0  0  0  0  0  0  0  0
  151.8222  138.7029  157.8219 H   0  0  0  0  0  0  0  0  0  0  0  0
  152.1745  138.9580  160.2764 H   0  0  0  0  0  0  0  0  0  0  0  0
  153.7099  140.7470  158.3724 H   0  0  0  0  0  0  0  0  0  0  0  0
  151.9542  140.6613  158.2271 H   0  0  0  0  0  0  0  0  0  0  0  0
  152.1544  142.6573  157.6317 H   0  0  0  0  0  0  0  0  0  0  0  0
  151.5676  145.0273  157.4023 H   0  0  0  0  0  0  0  0  0  0  0  0
  151.4332  146.4957  159.4058 H   0  0  0  0  0  0  0  0  0  0  0  0
  151.8966  145.5573  161.6628 H   0  0  0  0  0  0  0  0  0  0  0  0
  154.9543  138.7371  158.9982 H   0  0  0  0  0  0  0  0  0  0  0  0
  154.6445  139.3452  160.6073 H   0  0  0  0  0  0  0  0  0  0  0  0
  154.4780  136.1724  158.5970 H   0  0  0  0  0  0  0  0  0  0  0  0
  154.4194  133.7063  162.8860 H   0  0  0  0  0  0  0  0  0  0  0  0
  154.2476  134.9249  165.0439 H   0  0  0  0  0  0  0  0  0  0  0  0
  154.1094  137.4060  165.0805 H   0  0  0  0  0  0  0  0  0  0  0  0
  154.1393  138.6899  162.9436 H   0  0  0  0  0  0  0  0  0  0  0  0
  1  2  1  0  0  0  0
  1 22  1  0  0  0  0
  2  3  1  0  0  0  0
  2 12  1  0  0  0  0
  2 23  1  0  0  0  0
  3  4  1  0  0  0  0
  3 24  1  0  0  0  0
  3 25  1  0  0  0  0
  4  5  1  0  0  0  0
  5 10  1  0  0  0  0
  5  6  2  0  0  0  0
  6  7  1  0  0  0  0
  6 26  1  0  0  0  0
  7  8  2  0  0  0  0
  7 27  1  0  0  0  0
  8  9  1  0  0  0  0
  8 28  1  0  0  0  0
  9 10  2  0  0  0  0
  9 29  1  0  0  0  0
 10 11  1  0  0  0  0
 12 13  1  0  0  0  0
 12 30  1  0  0  0  0
 12 31  1  0  0  0  0
 13 21  1  0  0  0  0
 13 14  1  0  0  0  0
 14 15  2  0  0  0  0
 14 32  1  0  0  0  0
 15 16  1  0  0  0  0
 16 21  2  0  0  0  0
 16 17  1  0  0  0  0
 17 18  2  0  0  0  0
 17 33  1  0  0  0  0
 18 19  1  0  0  0  0
 18 34  1  0  0  0  0
 19 20  2  0  0  0  0
 19 35  1  0  0  0  0
 20 21  1  0  0  0  0
 20 36  1  0  0  0  0
M  END
> <s_m_source_file>
AV-unprocessed.smi

> <i_m_source_file_index>
2971

> <i_lp_mmshare_version>
43012

> <i_f3d_flags>
0

> <s_epik_input>
W2NIXTFbY0hdW2NIXVtjSF1jKGMxMiluKFtjSF1uMilbQ0gyXVtDQEhdKFtPSF0pW0NIMl1PYzNbY0hdW2NIXVtjSF1bY0hdYzNG

> <s_epik_cmdline>
J2VwaWtfcHl0aG9uJywgJy1waCcsICc3LjAnLCAnLXRuJywgJzgnLCAnLW1hJywgJzIwMCcsICctbWV0YWxfYmluZGluZycsICctaW1hZScsICc8aW5maWxlLm1hZT4nLCAnLW9tYWUnLCAnPG91dGZpbGUubWFlPic=

> <r_lp_tautomer_probability>
1

> <r_epik_Ionization_Penalty>
0.0600913

> <r_epik_Ionization_Penalty_Charging>
0

> <r_epik_Ionization_Penalty_Neutral>
0.0600913

> <r_epik_State_Penalty>
0.0520726

> <r_epik_Charging_Adjusted_Penalty>
0.0520726

> <i_epik_Tot_Q>
0

> <i_epik_Tot_abs_Q>
0

> <r_epik_Metal_State_Penalty>
5.44269e-05

> <b_epik_Metal_Only>
0

> <s_lp_Force_Field>
OPLS_2005

> <r_lp_Energy>
16.3694

> <b_lp_Chiralities_Consistent>
1

> <s_lp_Variant>
AV-unprocessed.smi:2971-1

> <Gold.Version>
5.8.1

> <Gold.Id.Protein>
6NUR|6NUR_protein|mol2

> <Gold.PLP.Fitness>
51.9374

> <Gold.PLP.PLP>
-50.1104

> <Gold.PLP.part.hbond>
-1.0000

> <Gold.PLP.part.metal>
0.0000

> <Gold.PLP.part.buried>
-5.6274

> <Gold.PLP.part.nonpolar>
-43.4178

> <Gold.PLP.part.repulsive>
0.0000

> <Gold.PLP.ligand.clash>
0.0000

> <Gold.PLP.ligand.torsion>
0.6146

> <Gold.PLP.Chemscore.Hbond>
0.9913

> <Gold.PLP.Chemscore.CHOScore>
0.0000

> <Gold.PLP.Chemscore.Metal>
0.0000

> <Gold.Chemscore.Hbonds>
donor molecule, donor type, donor heavy atom, donor atom, acceptor molecule, acceptor atom, score
      P1  H  6896  6908       L1    15  0.89

> <Gold.PLP.Chemscore.Internal.Correction>
0.0825

> <Gold.Rescore>
     Score         DG    S(hbond)    S(metal)    S(lipo)     H(rot)  DE(clash)    DE(int)     intcor
     16.69     -17.45       0.52        0.00     139.48       2.37       0.13       0.64       ----

> <Gold.Chemscore.Fitness>
16.6857

> <Gold.Chemscore.DG>
-17.4489

> <Gold.Chemscore.ZeroCoef>
-5.4800

> <Gold.Chemscore.Hbond>
0.5166

> <Gold.Chemscore.Metal>
0.0000

> <Gold.Chemscore.Lipo>
139.4848

> <Gold.Chemscore.Internal_Hbond>
0.0000

> <Gold.Chemscore.DEClash>
0.1280

> <Gold.Chemscore.DEInternal>
0.6353

> <Gold.Chemscore.Rot>
2.3735

> <Gold.Chemscore.Internal.Correction>
   9.000000E+99

> <Gold.Chemscore.Hbonds>
donor molecule, donor type, donor heavy atom, donor atom, acceptor molecule, acceptor atom, score
      P1  H  6896  6908       L1    15  0.07

> <Gold.Chemscore.Hbond.Weighted>
-1.7254

> <Gold.Chemscore.Metal.Weighted>
-0.0000

> <Gold.Chemscore.Lipo.Weighted>
-16.3197

> <Gold.Chemscore.Internal_Hbond.Weighted>
0.0000

> <Gold.Chemscore.DEClash.Weighted>
0.1280

> <Gold.Chemscore.DEInternal.Weighted>
0.6353

> <Gold.Chemscore.Rot.Weighted>
6.0762

> <Gold.Chemscore.Internal.Correction.Weighted>
   9.000000E+99

> <Gold.Protein.RotatedTorsions>
[ 6907 6896 6895 6894 ] final  -42.08 input  -60.11 | X-H torsion
[ 7974 7965 7964 7962 ] final   58.77 input  175.53 | X-H torsion
[ 8008 7997 7996 7995 ] final  161.41 input   59.86 | X-H torsion
[ 10167 10162 10161 10158 ] final  -36.49 input  -65.29 | X-H torsion
[ 10718 10713 10712 10709 ] final    0.28 input   66.30 | X-H torsion
[ 10763 10752 10751 10750 ] final  169.97 input  -60.55 | X-H torsion
[ 11005 11000 10999 10996 ] final  124.41 input  -57.11 | X-H torsion

> <Gold.Protein.ActiveResidues>
 VAL166  LYS551  ARG553  GLY616  TRP617  ASP618  TYR619  PRO620  LYS621  CYS622 
 ASP623  PHE694  ASN695  SER759  ASP760  ASP761  ALA762  ILE779  LEU786  VAL792 
 PHE793  MET794  SER795  GLU796  ALA797  LYS798  CYS799  TRP800  GLU811  SER814 

> <Gold.Protein.RotatedAtoms>
  150.9594  134.8984  159.7720 H   0  0  0  0  0  0  0  0  0  0  0  0  # atno 6907 bound_to 6896
  152.5150  134.3694  159.9323 H   0  0  0  0  0  0  0  0  0  0  0  0  # atno 6908 bound_to 6896
  151.3707  133.3815  159.2734 H   0  0  0  0  0  0  0  0  0  0  0  0  # atno 6909 bound_to 6896
  145.9145  139.3680  143.0515 H   0  0  0  0  0  0  0  0  0  0  0  0  # atno 7974 bound_to 7965
  156.2105  140.1778  156.7706 H   0  0  0  0  0  0  0  0  0  0  0  0  # atno 8008 bound_to 7997
  154.5715  140.0681  156.9001 H   0  0  0  0  0  0  0  0  0  0  0  0  # atno 8009 bound_to 7997
  155.2664  140.3339  155.4271 H   0  0  0  0  0  0  0  0  0  0  0  0  # atno 8010 bound_to 7997
  140.7141  143.3405  151.2368 H   0  0  0  0  0  0  0  0  0  0  0  0  # atno 10167 bound_to 10162
  156.8310  130.5488  149.5687 H   0  0  0  0  0  0  0  0  0  0  0  0  # atno 10718 bound_to 10713
  154.3909  135.2754  155.2155 H   0  0  0  0  0  0  0  0  0  0  0  0  # atno 10763 bound_to 10752
  154.4222  135.5997  153.6020 H   0  0  0  0  0  0  0  0  0  0  0  0  # atno 10764 bound_to 10752
  152.9832  135.5975  154.4164 H   0  0  0  0  0  0  0  0  0  0  0  0  # atno 10765 bound_to 10752
  139.9357  134.9639  156.8405 H   0  0  0  0  0  0  0  0  0  0  0  0  # atno 11005 bound_to 11000
  145.8629  140.9465  143.0690 LP  0  0  0  0  0  0  0  0  0  0  0  0  # atno 17320 bound_to 7965
  144.6746  140.0554  143.7477 LP  0  0  0  0  0  0  0  0  0  0  0  0  # atno 17321 bound_to 7965
  139.6911  143.9690  152.2859 LP  0  0  0  0  0  0  0  0  0  0  0  0  # atno 17342 bound_to 10162
  139.9352  144.6716  150.8322 LP  0  0  0  0  0  0  0  0  0  0  0  0  # atno 17343 bound_to 10162
  156.0934  130.5913  150.9772 LP  0  0  0  0  0  0  0  0  0  0  0  0  # atno 17370 bound_to 10713
  157.6406  131.0910  150.8258 LP  0  0  0  0  0  0  0  0  0  0  0  0  # atno 17371 bound_to 10713
  140.6082  134.0108  155.7565 LP  0  0  0  0  0  0  0  0  0  0  0  0  # atno 17394 bound_to 11000
  141.0970  133.9828  157.3144 LP  0  0  0  0  0  0  0  0  0  0  0  0  # atno 17395 bound_to 11000

$$$$
