AV-unprocessed.smi:1406|AV-procd|sdf|5709|dock2
  -GOLD-   22720 5343D 1   1.00000     0.00000
 Structure written by MMmdl.
 41 43  0  0  0  0  0  0  0  0  2 V2000
  151.5483  144.5321  157.9388 C   0  0  0  0  0  0  0  0  0  0  0  0
  152.1071  143.1791  158.4243 C   0  0  2  0  0  0  0  0  0  0  0  0
  151.2189  141.9917  158.0218 C   0  0  0  0  0  0  0  0  0  0  0  0
  150.6808  141.2894  158.8781 O   0  0  0  0  0  0  0  0  0  0  0  0
  151.0770  141.7775  156.7040 N   0  0  0  0  0  0  0  0  0  0  0  0
  150.3034  140.6957  156.1024 C   0  0  2  0  0  0  0  0  0  0  0  0
  151.1772  139.5974  155.5080 C   0  0  0  0  0  0  0  0  0  0  0  0
  150.2111  138.9005  154.5493 C   0  0  0  0  0  0  0  0  0  0  0  0
  149.3257  139.9640  154.0231 N   0  3  1  0  0  0  0  0  0  0  0  0
  147.9353  139.5298  153.7425 C   0  0  0  0  0  0  0  0  0  0  0  0
  147.1032  140.7034  153.1949 C   0  0  0  0  0  0  0  0  0  0  0  0
  147.1857  141.9658  154.0783 C   0  0  0  0  0  0  0  0  0  0  0  0
  148.0998  141.7731  155.2985 C   0  0  0  0  0  0  0  0  0  0  0  0
  149.4627  141.1616  154.9005 C   0  0  1  0  0  0  0  0  0  0  0  0
  152.3434  143.1637  159.8626 N   0  0  0  0  0  0  0  0  0  0  0  0
  152.8964  142.2224  160.6307 C   0  0  0  0  0  0  0  0  0  0  0  0
  152.9089  142.5193  161.9224 N   0  0  0  0  0  0  0  0  0  0  0  0
  152.2968  143.7400  161.8818 C   0  0  0  0  0  0  0  0  0  0  0  0
  151.9272  144.1674  160.6747 N   0  0  0  0  0  0  0  0  0  0  0  0
  151.4271  144.5411  156.8552 H   0  0  0  0  0  0  0  0  0  0  0  0
  152.2262  145.3462  158.1972 H   0  0  0  0  0  0  0  0  0  0  0  0
  150.5776  144.7596  158.3813 H   0  0  0  0  0  0  0  0  0  0  0  0
  153.0757  143.0407  157.9402 H   0  0  0  0  0  0  0  0  0  0  0  0
  151.5538  142.4036  156.0712 H   0  0  0  0  0  0  0  0  0  0  0  0
  149.6550  140.2341  156.8506 H   0  0  0  0  0  0  0  0  0  0  0  0
  152.0095  140.0297  154.9502 H   0  0  0  0  0  0  0  0  0  0  0  0
  151.5863  138.9232  156.2613 H   0  0  0  0  0  0  0  0  0  0  0  0
  150.7264  138.3758  153.7444 H   0  0  0  0  0  0  0  0  0  0  0  0
  149.6227  138.1665  155.1027 H   0  0  0  0  0  0  0  0  0  0  0  0
  147.9496  138.7133  153.0198 H   0  0  0  0  0  0  0  0  0  0  0  0
  147.4783  139.1362  154.6520 H   0  0  0  0  0  0  0  0  0  0  0  0
  147.4503  140.9494  152.1904 H   0  0  0  0  0  0  0  0  0  0  0  0
  146.0632  140.3940  153.0843 H   0  0  0  0  0  0  0  0  0  0  0  0
  147.5581  142.7973  153.4788 H   0  0  0  0  0  0  0  0  0  0  0  0
  146.1887  142.2572  154.4102 H   0  0  0  0  0  0  0  0  0  0  0  0
  148.2481  142.7291  155.8009 H   0  0  0  0  0  0  0  0  0  0  0  0
  147.5990  141.1285  156.0224 H   0  0  0  0  0  0  0  0  0  0  0  0
  150.0279  141.8950  154.3226 H   0  0  0  0  0  0  0  0  0  0  0  0
  153.2939  141.2982  160.2378 H   0  0  0  0  0  0  0  0  0  0  0  0
  152.1109  144.3273  162.7689 H   0  0  0  0  0  0  0  0  0  0  0  0
  149.7155  140.2425  153.1339 H   0  0  0  0  0  0  0  0  0  0  0  0
  1  2  1  0  0  0  0
  1 20  1  0  0  0  0
  1 21  1  0  0  0  0
  1 22  1  0  0  0  0
  2  3  1  0  0  0  0
  2 15  1  0  0  0  0
  2 23  1  0  0  0  0
  3  4  2  0  0  0  0
  3  5  1  0  0  0  0
  5  6  1  0  0  0  0
  5 24  1  0  0  0  0
  6 14  1  0  0  0  0
  6  7  1  0  0  0  0
  6 25  1  0  0  0  0
  7  8  1  0  0  0  0
  7 26  1  0  0  0  0
  7 27  1  0  0  0  0
  8  9  1  0  0  0  0
  8 28  1  0  0  0  0
  8 29  1  0  0  0  0
  9 14  1  0  0  0  0
  9 10  1  0  0  0  0
  9 41  1  0  0  0  0
 10 11  1  0  0  0  0
 10 30  1  0  0  0  0
 10 31  1  0  0  0  0
 11 12  1  0  0  0  0
 11 32  1  0  0  0  0
 11 33  1  0  0  0  0
 12 13  1  0  0  0  0
 12 34  1  0  0  0  0
 12 35  1  0  0  0  0
 13 14  1  0  0  0  0
 13 36  1  0  0  0  0
 13 37  1  0  0  0  0
 14 38  1  0  0  0  0
 15 19  1  0  0  0  0
 15 16  1  0  0  0  0
 16 17  2  0  0  0  0
 16 39  1  0  0  0  0
 17 18  1  0  0  0  0
 18 19  2  0  0  0  0
 18 40  1  0  0  0  0
M  CHG  1   9   1
M  END
> <s_m_source_file>
AV-unprocessed.smi

> <i_m_source_file_index>
1406

> <i_lp_mmshare_version>
43012

> <i_f3d_flags>
0

> <s_epik_input>
bjFbY0hdbltjSF1uMVtDQEhdKFtDSDNdKUMoPU8pW05IXVtDQEhdKFtDSDJdW0NIMl0yKVtDQEBIXShOMjMpW0NIMl1bQ0gyXVtDSDJdW0NIMl0z

> <s_epik_cmdline>
J2VwaWtfcHl0aG9uJywgJy1waCcsICc3LjAnLCAnLXRuJywgJzgnLCAnLW1hJywgJzIwMCcsICctbWV0YWxfYmluZGluZycsICctaW1hZScsICc8aW5maWxlLm1hZT4nLCAnLW9tYWUnLCAnPG91dGZpbGUubWFlPic=

> <r_lp_tautomer_probability>
1

> <r_epik_Ionization_Penalty>
0.00197066

> <r_epik_Ionization_Penalty_Charging>
0.00196223

> <r_epik_Ionization_Penalty_Neutral>
8.43107e-06

> <r_epik_State_Penalty>
0.00133866

> <r_epik_Charging_Adjusted_Penalty>
0.00330089

> <i_epik_Tot_Q>
1

> <i_epik_Tot_abs_Q>
1

> <r_epik_Metal_State_Penalty>
-0

> <b_epik_Metal_Only>
0

> <s_lp_Force_Field>
OPLS_2005

> <r_lp_Energy>
45.3265

> <b_lp_Chiralities_Consistent>
1

> <s_lp_Variant>
AV-unprocessed.smi:1406-1

> <Gold.Version>
5.8.1

> <Gold.Id.Protein>
6NUR|6NUR_protein|mol2

> <Gold.PLP.Fitness>
47.6254

> <Gold.PLP.PLP>
-45.3158

> <Gold.PLP.part.hbond>
-1.0000

> <Gold.PLP.part.metal>
0.0000

> <Gold.PLP.part.buried>
-4.8435

> <Gold.PLP.part.nonpolar>
-39.4642

> <Gold.PLP.part.repulsive>
0.3729

> <Gold.PLP.ligand.clash>
0.0000

> <Gold.PLP.ligand.torsion>
0.3366

> <Gold.PLP.Chemscore.Hbond>
0.9600

> <Gold.PLP.Chemscore.CHOScore>
0.0000

> <Gold.PLP.Chemscore.Metal>
0.0000

> <Gold.Chemscore.Hbonds>
donor molecule, donor type, donor heavy atom, donor atom, acceptor molecule, acceptor atom, score
      L1  H     9    41       P1  7957  0.93

> <Gold.PLP.Chemscore.Internal.Correction>
0.1028

> <Gold.Rescore>
     Score         DG    S(hbond)    S(metal)    S(lipo)     H(rot)  DE(clash)    DE(int)     intcor
     12.44     -13.21       0.97        0.00      79.73       1.89       0.14       0.63       ----

> <Gold.Chemscore.Fitness>
12.4406

> <Gold.Chemscore.DG>
-13.2082

> <Gold.Chemscore.ZeroCoef>
-5.4800

> <Gold.Chemscore.Hbond>
0.9669

> <Gold.Chemscore.Metal>
0.0000

> <Gold.Chemscore.Lipo>
79.7295

> <Gold.Chemscore.Internal_Hbond>
0.0000

> <Gold.Chemscore.DEClash>
0.1418

> <Gold.Chemscore.DEInternal>
0.6258

> <Gold.Chemscore.Rot>
1.8865

> <Gold.Chemscore.Internal.Correction>
   9.000000E+99

> <Gold.Chemscore.Hbonds>
donor molecule, donor type, donor heavy atom, donor atom, acceptor molecule, acceptor atom, score
      L1  H     9    41       P1  7957  0.87

> <Gold.Chemscore.Hbond.Weighted>
-3.2294

> <Gold.Chemscore.Metal.Weighted>
-0.0000

> <Gold.Chemscore.Lipo.Weighted>
-9.3284

> <Gold.Chemscore.Internal_Hbond.Weighted>
0.0000

> <Gold.Chemscore.DEClash.Weighted>
0.1418

> <Gold.Chemscore.DEInternal.Weighted>
0.6258

> <Gold.Chemscore.Rot.Weighted>
4.8295

> <Gold.Chemscore.Internal.Correction.Weighted>
   9.000000E+99

> <Gold.Protein.RotatedTorsions>
[ 6907 6896 6895 6894 ] final  135.16 input  -60.11 | X-H torsion
[ 7974 7965 7964 7962 ] final -116.88 input  175.53 | X-H torsion
[ 8008 7997 7996 7995 ] final   62.88 input   59.86 | X-H torsion
[ 10167 10162 10161 10158 ] final   51.81 input  -65.29 | X-H torsion
[ 10718 10713 10712 10709 ] final  -98.80 input   66.30 | X-H torsion
[ 10763 10752 10751 10750 ] final  151.83 input  -60.55 | X-H torsion
[ 11005 11000 10999 10996 ] final -124.99 input  -57.11 | X-H torsion

> <Gold.Protein.ActiveResidues>
 VAL166  LYS551  ARG553  GLY616  TRP617  ASP618  TYR619  PRO620  LYS621  CYS622 
 ASP623  PHE694  ASN695  SER759  ASP760  ASP761  ALA762  ILE779  LEU786  VAL792 
 PHE793  MET794  SER795  GLU796  ALA797  LYS798  CYS799  TRP800  GLU811  SER814 

> <Gold.Protein.RotatedAtoms>
  152.3034  133.5679  159.5633 H   0  0  0  0  0  0  0  0  0  0  0  0  # atno 6907 bound_to 6896
  150.7288  134.0257  159.3725 H   0  0  0  0  0  0  0  0  0  0  0  0  # atno 6908 bound_to 6896
  151.8156  135.0668  160.0469 H   0  0  0  0  0  0  0  0  0  0  0  0  # atno 6909 bound_to 6896
  145.0916  140.8493  143.3979 H   0  0  0  0  0  0  0  0  0  0  0  0  # atno 7974 bound_to 7965
  155.6213  140.3496  155.4653 H   0  0  0  0  0  0  0  0  0  0  0  0  # atno 8008 bound_to 7997
  156.0077  140.1226  157.0509 H   0  0  0  0  0  0  0  0  0  0  0  0  # atno 8009 bound_to 7997
  154.4270  140.1088  156.5771 H   0  0  0  0  0  0  0  0  0  0  0  0  # atno 8010 bound_to 7997
  140.2580  144.3405  150.6327 H   0  0  0  0  0  0  0  0  0  0  0  0  # atno 10167 bound_to 10162
  156.0117  130.5254  150.6577 H   0  0  0  0  0  0  0  0  0  0  0  0  # atno 10718 bound_to 10713
  154.1101  135.2839  155.3232 H   0  0  0  0  0  0  0  0  0  0  0  0  # atno 10763 bound_to 10752
  154.6496  135.5374  153.7888 H   0  0  0  0  0  0  0  0  0  0  0  0  # atno 10764 bound_to 10752
  153.0348  135.6506  154.1260 H   0  0  0  0  0  0  0  0  0  0  0  0  # atno 10765 bound_to 10752
  140.9798  134.0690  157.3778 H   0  0  0  0  0  0  0  0  0  0  0  0  # atno 11005 bound_to 11000
  145.1059  139.2790  143.5662 LP  0  0  0  0  0  0  0  0  0  0  0  0  # atno 17320 bound_to 7965
  146.3531  140.0640  142.8627 LP  0  0  0  0  0  0  0  0  0  0  0  0  # atno 17321 bound_to 7965
  140.5988  143.2167  151.7112 LP  0  0  0  0  0  0  0  0  0  0  0  0  # atno 17342 bound_to 10162
  139.5025  144.3825  152.0362 LP  0  0  0  0  0  0  0  0  0  0  0  0  # atno 17343 bound_to 10162
  157.4325  131.0851  151.1024 LP  0  0  0  0  0  0  0  0  0  0  0  0  # atno 17370 bound_to 10713
  157.1592  130.6218  149.5605 LP  0  0  0  0  0  0  0  0  0  0  0  0  # atno 17371 bound_to 10713
  139.8945  135.0136  156.6955 LP  0  0  0  0  0  0  0  0  0  0  0  0  # atno 17394 bound_to 11000
  140.7204  133.9145  155.8143 LP  0  0  0  0  0  0  0  0  0  0  0  0  # atno 17395 bound_to 11000

$$$$
