#       Name:                AV-unprocessed.smi:770
#       Creating user name   scv26
#       Creation time:       Fri Mar 27 01:09:31 2020


#       File generated by GOLD software.
#

@<TRIPOS>MOLECULE
AV-unprocessed.smi:770
    40    41     1
SMALL
NO_CHARGES


@<TRIPOS>ATOM
      1 ****        -3.7183   0.4989   1.5489 C.1            1 S1                 0.0000
      2 ****        -2.8110   1.3128   1.6240 C.1            1 S1                 0.0000
      3 ****        -1.7063   2.2810   1.6952 C.3            1 S1                 0.0000
      4 ****        -0.4528   1.6380   2.0640 N.am           1 S1                 0.0000
      5 ****         0.7620   2.0403   1.6677 C.2            1 S1                 0.0000
      6 ****         0.9696   3.0322   0.9693 O.2            1 S1                 0.0000
      7 ****         1.7207   1.2036   2.0885 N.am           1 S1                 0.0000
      8 ****         3.1363   1.2890   1.7345 C.3            1 S1                 0.0000
      9 ****         3.4225   1.0041   0.2427 C.3            1 S1                 0.0000
     10 ****         2.6697  -0.1753  -0.3030 C.2            1 S1                 0.0000
     11 ****         3.1336  -1.4671  -0.2754 C.2            1 S1                 0.0000
     12 ****         1.9895  -2.5954  -0.9435 S.3            1 S1                 0.0000
     13 ****         0.8753  -1.2947  -1.2487 C.2            1 S1                 0.0000
     14 ****        -0.3537  -1.3873  -1.7864 N.pl3          1 S1                 0.0000
     15 ****        -1.2956  -0.2841  -1.6639 C.3            1 S1                 0.0000
     16 ****        -2.6439  -0.8721  -2.0752 C.3            1 S1                 0.0000
     17 ****        -2.5372  -2.3258  -1.6170 C.3            1 S1                 0.0000
     18 ****        -1.0532  -2.6649  -1.7996 C.3            1 S1                 0.0000
     19 ****         1.4050  -0.1194  -0.8805 N.pl3          1 S1                 1.0000
     20 ****        -4.5128  -0.2100   1.4795 H              1 S1                 0.0000
     21 ****        -1.6336   2.7703   0.7225 H              1 S1                 0.0000
     22 ****        -1.9594   3.0424   2.4334 H              1 S1                 0.0000
     23 ****        -0.5185   0.8105   2.6386 H              1 S1                 0.0000
     24 ****         1.4457   0.4212   2.6642 H              1 S1                 0.0000
     25 ****         3.5413   2.2595   2.0245 H              1 S1                 0.0000
     26 ****         3.6540   0.5464   2.3421 H              1 S1                 0.0000
     27 ****         3.1682   1.8904  -0.3398 H              1 S1                 0.0000
     28 ****         4.4954   0.8671   0.1034 H              1 S1                 0.0000
     29 ****         4.0779  -1.8246   0.1086 H              1 S1                 0.0000
     30 ****        -1.3276   0.0570  -0.6284 H              1 S1                 0.0000
     31 ****        -1.0137   0.5587  -2.2960 H              1 S1                 0.0000
     32 ****        -3.4895  -0.3442  -1.6333 H              1 S1                 0.0000
     33 ****        -2.7504  -0.8337  -3.1602 H              1 S1                 0.0000
     34 ****        -2.8004  -2.3923  -0.5604 H              1 S1                 0.0000
     35 ****        -3.1962  -2.9965  -2.1690 H              1 S1                 0.0000
     36 ****        -0.8834  -3.1450  -2.7637 H              1 S1                 0.0000
     37 ****        -0.7134  -3.3439  -1.0169 H              1 S1                 0.0000
     38 ****         0.9041   0.7535  -0.9901 H              1 S1                 0.0000
     39 ****         0.2033   3.5958   0.6609 LP             1 S1                 0.0000
     40 ****         1.9046   3.2745   0.7103 LP             1 S1                 0.0000
@<TRIPOS>BOND
    1    1    2 3     
    2    1   20 1     
    3    2    3 1     
    4    3    4 1     
    5    3   21 1     
    6    3   22 1     
    7    4    5 am    
    8    4   23 1     
    9    5    6 2     
   10    5    7 am    
   11    7    8 1     
   12    7   24 1     
   13    8    9 1     
   14    8   25 1     
   15    8   26 1     
   16    9   10 1     
   17    9   27 1     
   18    9   28 1     
   19   10   19 1     
   20   10   11 2     
   21   11   12 1     
   22   11   29 1     
   23   12   13 1     
   24   13   14 1     
   25   13   19 2     
   26   14   18 1     
   27   14   15 1     
   28   15   16 1     
   29   15   30 1     
   30   15   31 1     
   31   16   17 1     
   32   16   32 1     
   33   16   33 1     
   34   17   18 1     
   35   17   34 1     
   36   17   35 1     
   37   18   36 1     
   38   18   37 1     
   39   19   38 1     
   40    6   39 1     
   41    6   40 1     
@<TRIPOS>SUBSTRUCTURE
      1 S1             1
@<TRIPOS>SET
LONE_PAIRS      STATIC     ATOMS    <user>   **** ""
2 39 40
DONOR_HYDROGENS      STATIC     ATOMS    <user>   **** ""
3 23 24 38
ATOM$BLUE        STATIC     ATOMS    COLORGROUP SYSTEM
2 39 40
ATOM$RED        STATIC     ATOMS    COLORGROUP SYSTEM
3 23 24 38
