AV-unprocessed.smi:2157|AV-procd|sdf|8786|dock4
  -GOLD-   2272011563D 1   1.00000     0.00000
 Structure written by MMmdl.
 41 42  0  0  0  0  0  0  0  0  1 V2000
  150.8072  142.5397  158.3511 C   0  0  0  0  0  0  0  0  0  0  0  0
  150.5618  141.3043  157.4733 C   0  0  1  0  0  0  0  0  0  0  0  0
  150.6944  141.6423  155.9761 C   0  0  0  0  0  0  0  0  0  0  0  0
  150.4510  140.4075  155.0941 C   0  0  0  0  0  0  0  0  0  0  0  0
  151.3922  139.2518  155.4753 C   0  0  0  0  0  0  0  0  0  0  0  0
  151.3001  138.8953  156.9716 C   0  0  2  0  0  0  0  0  0  0  0  0
  150.0209  138.2483  157.2594 N   0  0  0  0  0  0  0  0  0  0  0  0
  149.6329  137.7844  158.4567 C   0  0  0  0  0  0  0  0  0  0  0  0
  150.3287  137.8633  159.4703 O   0  0  0  0  0  0  0  0  0  0  0  0
  148.2324  137.1595  158.5106 C   0  0  0  0  0  0  0  0  0  0  0  0
  148.1620  135.9695  159.3684 N   0  0  0  0  0  0  0  0  0  0  0  0
  148.4569  134.7261  158.8394 C   0  0  0  0  0  0  0  0  0  0  0  0
  148.4017  133.5808  159.5534 C   0  0  0  0  0  0  0  0  0  0  0  0
  148.0218  133.5943  160.9605 C   0  0  0  0  0  0  0  0  0  0  0  0
  147.9364  132.5736  161.6446 O   0  0  0  0  0  0  0  0  0  0  0  0
  147.7416  134.8797  161.4814 N   0  0  0  0  0  0  0  0  0  0  0  0
  147.3358  134.9718  162.8688 C   0  0  0  0  0  0  0  0  0  0  0  0
  147.7810  136.0725  160.7237 C   0  0  0  0  0  0  0  0  0  0  0  0
  147.4895  137.1681  161.2098 O   0  0  0  0  0  0  0  0  0  0  0  0
  151.5111  140.1478  157.8508 C   0  0  0  0  0  0  0  0  0  0  0  0
  151.8186  142.9253  158.2194 H   0  0  0  0  0  0  0  0  0  0  0  0
  150.6758  142.3028  159.4073 H   0  0  0  0  0  0  0  0  0  0  0  0
  150.1102  143.3409  158.1043 H   0  0  0  0  0  0  0  0  0  0  0  0
  149.5373  140.9763  157.6550 H   0  0  0  0  0  0  0  0  0  0  0  0
  149.9872  142.4278  155.7067 H   0  0  0  0  0  0  0  0  0  0  0  0
  151.6895  142.0412  155.7743 H   0  0  0  0  0  0  0  0  0  0  0  0
  149.4131  140.0873  155.1913 H   0  0  0  0  0  0  0  0  0  0  0  0
  150.5933  140.6686  154.0452 H   0  0  0  0  0  0  0  0  0  0  0  0
  151.1766  138.3751  154.8631 H   0  0  0  0  0  0  0  0  0  0  0  0
  152.4181  139.5388  155.2406 H   0  0  0  0  0  0  0  0  0  0  0  0
  152.0948  138.1798  157.1908 H   0  0  0  0  0  0  0  0  0  0  0  0
  149.3816  138.1461  156.4845 H   0  0  0  0  0  0  0  0  0  0  0  0
  147.5366  137.9185  158.8706 H   0  0  0  0  0  0  0  0  0  0  0  0
  147.9000  136.9121  157.5005 H   0  0  0  0  0  0  0  0  0  0  0  0
  148.7397  134.6633  157.7987 H   0  0  0  0  0  0  0  0  0  0  0  0
  148.6386  132.6413  159.0762 H   0  0  0  0  0  0  0  0  0  0  0  0
  147.6469  135.9336  163.2784 H   0  0  0  0  0  0  0  0  0  0  0  0
  147.8282  134.1877  163.4457 H   0  0  0  0  0  0  0  0  0  0  0  0
  146.2506  134.8614  162.8887 H   0  0  0  0  0  0  0  0  0  0  0  0
  152.5435  140.4833  157.7413 H   0  0  0  0  0  0  0  0  0  0  0  0
  151.3914  139.8926  158.9045 H   0  0  0  0  0  0  0  0  0  0  0  0
  1  2  1  0  0  0  0
  1 21  1  0  0  0  0
  1 22  1  0  0  0  0
  1 23  1  0  0  0  0
  2 20  1  0  0  0  0
  2  3  1  0  0  0  0
  2 24  1  0  0  0  0
  3  4  1  0  0  0  0
  3 25  1  0  0  0  0
  3 26  1  0  0  0  0
  4  5  1  0  0  0  0
  4 27  1  0  0  0  0
  4 28  1  0  0  0  0
  5  6  1  0  0  0  0
  5 29  1  0  0  0  0
  5 30  1  0  0  0  0
  6  7  1  0  0  0  0
  6 20  1  0  0  0  0
  6 31  1  0  0  0  0
  7  8  1  0  0  0  0
  7 32  1  0  0  0  0
  8  9  2  0  0  0  0
  8 10  1  0  0  0  0
 10 11  1  0  0  0  0
 10 33  1  0  0  0  0
 10 34  1  0  0  0  0
 11 18  1  0  0  0  0
 11 12  1  0  0  0  0
 12 13  2  0  0  0  0
 12 35  1  0  0  0  0
 13 14  1  0  0  0  0
 13 36  1  0  0  0  0
 14 15  2  0  0  0  0
 14 16  1  0  0  0  0
 16 17  1  0  0  0  0
 16 18  1  0  0  0  0
 17 37  1  0  0  0  0
 17 38  1  0  0  0  0
 17 39  1  0  0  0  0
 18 19  2  0  0  0  0
 20 40  1  0  0  0  0
 20 41  1  0  0  0  0
M  END
> <s_m_source_file>
AV-unprocessed.smi

> <i_m_source_file_index>
2157

> <i_lp_mmshare_version>
43012

> <i_f3d_flags>
0

> <s_epik_input>
W0NIM11bQ0BASF0xW0NIMl1bQ0gyXVtDSDJdW0NASF0oW0NIMl0xKVtOSF1DKD1PKVtDSDJdbjJbY0hdW2NIXWMoPU8pbihbQ0gzXSljMj1P

> <s_epik_cmdline>
J2VwaWtfcHl0aG9uJywgJy1waCcsICc3LjAnLCAnLXRuJywgJzgnLCAnLW1hJywgJzIwMCcsICctbWV0YWxfYmluZGluZycsICctaW1hZScsICc8aW5maWxlLm1hZT4nLCAnLW9tYWUnLCAnPG91dGZpbGUubWFlPic=

> <r_lp_tautomer_probability>
1

> <r_epik_Ionization_Penalty>
3.1838e-08

> <r_epik_Ionization_Penalty_Charging>
1.27911e-08

> <r_epik_Ionization_Penalty_Neutral>
1.90469e-08

> <r_epik_State_Penalty>
-0

> <r_epik_Charging_Adjusted_Penalty>
1.27911e-08

> <i_epik_Tot_Q>
0

> <i_epik_Tot_abs_Q>
0

> <r_epik_Metal_State_Penalty>
-0

> <b_epik_Metal_Only>
0

> <s_lp_Force_Field>
OPLS_2005

> <r_lp_Energy>
16.1054

> <b_lp_Chiralities_Consistent>
1

> <s_lp_Variant>
AV-unprocessed.smi:2157-4

> <Gold.Version>
5.8.1

> <Gold.Id.Protein>
6NUR|6NUR_protein|mol2

> <Gold.PLP.Fitness>
38.9364

> <Gold.PLP.PLP>
-34.7230

> <Gold.PLP.part.hbond>
-3.0000

> <Gold.PLP.part.metal>
0.0000

> <Gold.PLP.part.buried>
-4.1075

> <Gold.PLP.part.nonpolar>
-27.0129

> <Gold.PLP.part.repulsive>
0.0239

> <Gold.PLP.ligand.clash>
0.0000

> <Gold.PLP.ligand.torsion>
0.6578

> <Gold.PLP.Chemscore.Hbond>
1.8400

> <Gold.PLP.Chemscore.CHOScore>
0.0000

> <Gold.PLP.Chemscore.Metal>
0.0000

> <Gold.Chemscore.Hbonds>
donor molecule, donor type, donor heavy atom, donor atom, acceptor molecule, acceptor atom, score
      P1  H  6931  6943       L1    19  0.91
      P1  H  6934  6947       L1    19  0.96

> <Gold.PLP.Chemscore.Internal.Correction>
0.0091

> <Gold.Rescore>
     Score         DG    S(hbond)    S(metal)    S(lipo)     H(rot)  DE(clash)    DE(int)     intcor
     13.99     -14.70       1.74        0.00      62.48       1.52       0.02       0.69       ----

> <Gold.Chemscore.Fitness>
13.9856

> <Gold.Chemscore.DG>
-14.6966

> <Gold.Chemscore.ZeroCoef>
-5.4800

> <Gold.Chemscore.Hbond>
1.7389

> <Gold.Chemscore.Metal>
0.0000

> <Gold.Chemscore.Lipo>
62.4829

> <Gold.Chemscore.Internal_Hbond>
0.0000

> <Gold.Chemscore.DEClash>
0.0228

> <Gold.Chemscore.DEInternal>
0.6882

> <Gold.Chemscore.Rot>
1.5242

> <Gold.Chemscore.Internal.Correction>
   9.000000E+99

> <Gold.Chemscore.Hbonds>
donor molecule, donor type, donor heavy atom, donor atom, acceptor molecule, acceptor atom, score
      P1  H  6931  6943       L1    19  0.78
      P1  H  6934  6947       L1    19  0.92

> <Gold.Chemscore.Hbond.Weighted>
-5.8080

> <Gold.Chemscore.Metal.Weighted>
-0.0000

> <Gold.Chemscore.Lipo.Weighted>
-7.3105

> <Gold.Chemscore.Internal_Hbond.Weighted>
0.0000

> <Gold.Chemscore.DEClash.Weighted>
0.0228

> <Gold.Chemscore.DEInternal.Weighted>
0.6882

> <Gold.Chemscore.Rot.Weighted>
3.9019

> <Gold.Chemscore.Internal.Correction.Weighted>
   9.000000E+99

> <Gold.Protein.RotatedTorsions>
[ 6907 6896 6895 6894 ] final  102.08 input  -60.11 | X-H torsion
[ 7974 7965 7964 7962 ] final   18.36 input  175.53 | X-H torsion
[ 8008 7997 7996 7995 ] final -158.20 input   59.86 | X-H torsion
[ 10167 10162 10161 10158 ] final  135.74 input  -65.29 | X-H torsion
[ 10718 10713 10712 10709 ] final  -87.00 input   66.30 | X-H torsion
[ 10763 10752 10751 10750 ] final  -44.06 input  -60.55 | X-H torsion
[ 11005 11000 10999 10996 ] final  -98.02 input  -57.11 | X-H torsion

> <Gold.Protein.ActiveResidues>
 VAL166  LYS551  ARG553  GLY616  TRP617  ASP618  TYR619  PRO620  LYS621  CYS622 
 ASP623  PHE694  ASN695  SER759  ASP760  ASP761  ALA762  ILE779  LEU786  VAL792 
 PHE793  MET794  SER795  GLU796  ALA797  LYS798  CYS799  TRP800  GLU811  SER814 

> <Gold.Protein.RotatedAtoms>
  152.5333  134.0030  159.7903 H   0  0  0  0  0  0  0  0  0  0  0  0  # atno 6907 bound_to 6896
  151.0245  133.5838  159.2674 H   0  0  0  0  0  0  0  0  0  0  0  0  # atno 6908 bound_to 6896
  151.2865  135.0736  159.9242 H   0  0  0  0  0  0  0  0  0  0  0  0  # atno 6909 bound_to 6896
  146.2187  139.8468  142.8630 H   0  0  0  0  0  0  0  0  0  0  0  0  # atno 7974 bound_to 7965
  155.7439  140.0818  157.2233 H   0  0  0  0  0  0  0  0  0  0  0  0  # atno 8008 bound_to 7997
  154.4019  140.1573  156.2703 H   0  0  0  0  0  0  0  0  0  0  0  0  # atno 8009 bound_to 7997
  155.8994  140.3410  155.6018 H   0  0  0  0  0  0  0  0  0  0  0  0  # atno 8010 bound_to 7997
  139.5206  144.6501  151.5326 H   0  0  0  0  0  0  0  0  0  0  0  0  # atno 10167 bound_to 10162
  155.9987  130.4784  150.4800 H   0  0  0  0  0  0  0  0  0  0  0  0  # atno 10718 bound_to 10713
  154.0058  135.6688  153.4762 H   0  0  0  0  0  0  0  0  0  0  0  0  # atno 10763 bound_to 10752
  153.0642  135.5010  154.8159 H   0  0  0  0  0  0  0  0  0  0  0  0  # atno 10764 bound_to 10752
  154.7025  135.3081  154.9283 H   0  0  0  0  0  0  0  0  0  0  0  0  # atno 10765 bound_to 10752
  141.1359  133.8214  157.0784 H   0  0  0  0  0  0  0  0  0  0  0  0  # atno 11005 bound_to 11000
  145.2842  141.0148  143.3700 LP  0  0  0  0  0  0  0  0  0  0  0  0  # atno 17320 bound_to 7965
  144.9126  139.4509  143.6579 LP  0  0  0  0  0  0  0  0  0  0  0  0  # atno 17321 bound_to 7965
  140.6303  143.9089  150.6599 LP  0  0  0  0  0  0  0  0  0  0  0  0  # atno 17342 bound_to 10162
  140.2391  143.3677  152.1501 LP  0  0  0  0  0  0  0  0  0  0  0  0  # atno 17343 bound_to 10162
  157.2806  131.0606  151.2200 LP  0  0  0  0  0  0  0  0  0  0  0  0  # atno 17370 bound_to 10713
  157.3248  130.6955  149.6290 LP  0  0  0  0  0  0  0  0  0  0  0  0  # atno 17371 bound_to 10713
  140.0467  134.9827  157.1062 LP  0  0  0  0  0  0  0  0  0  0  0  0  # atno 17394 bound_to 11000
  140.4052  134.2040  155.7163 LP  0  0  0  0  0  0  0  0  0  0  0  0  # atno 17395 bound_to 11000

$$$$
