AV-unprocessed.smi:55|AV-procd|sdf|570|dock6
  -GOLD-   2262016473D 1   1.00000     0.00000
 Structure written by MMmdl.
 30 31  0  0  0  0  0  0  0  0  2 V2000
  150.7952  142.7849  158.9862 C   0  0  0  0  0  0  0  0  0  0  0  0
  151.0165  141.8870  157.7816 C   0  0  0  0  0  0  0  0  0  0  0  0
  150.2122  141.9248  156.6963 C   0  0  0  0  0  0  0  0  0  0  0  0
  150.4155  141.1032  155.6018 N   0  0  0  0  0  0  0  0  0  0  0  0
  149.4864  141.1738  154.4110 C   0  0  1  0  0  0  0  0  0  0  0  0
  148.5713  139.9480  154.3626 C   0  0  0  0  0  0  0  0  0  0  0  0
  147.2652  140.5622  153.9038 C   0  0  1  0  0  0  0  0  0  0  0  0
  146.1665  139.7768  154.3193 O   0  0  0  0  0  0  0  0  0  0  0  0
  147.3022  141.9309  154.5906 C   0  0  2  0  0  0  0  0  0  0  0  0
  146.4518  143.0162  153.9126 C   0  0  0  0  0  0  0  0  0  0  0  0
  145.0789  142.8048  154.1663 O   0  0  0  0  0  0  0  0  0  0  0  0
  148.6760  142.3075  154.5315 O   0  0  0  0  0  0  0  0  0  0  0  0
  151.4841  140.1685  155.6149 C   0  0  0  0  0  0  0  0  0  0  0  0
  151.6197  139.4229  154.6447 O   0  0  0  0  0  0  0  0  0  0  0  0
  152.3066  140.1297  156.7020 N   0  5  0  0  0  0  0  0  0  0  0  0
  152.1370  140.9389  157.7868 C   0  0  0  0  0  0  0  0  0  0  0  0
  152.8891  140.8947  158.7598 O   0  0  0  0  0  0  0  0  0  0  0  0
  150.0954  141.2999  153.5155 H   0  0  0  0  0  0  0  0  0  0  0  0
  147.2643  140.6727  152.8185 H   0  0  0  0  0  0  0  0  0  0  0  0
  147.0302  141.8342  155.6432 H   0  0  0  0  0  0  0  0  0  0  0  0
  149.9325  143.4358  158.8420 H   0  0  0  0  0  0  0  0  0  0  0  0
  151.6686  143.4146  159.1575 H   0  0  0  0  0  0  0  0  0  0  0  0
  150.6212  142.1862  159.8810 H   0  0  0  0  0  0  0  0  0  0  0  0
  149.3828  142.6152  156.6890 H   0  0  0  0  0  0  0  0  0  0  0  0
  148.9650  139.1853  153.6901 H   0  0  0  0  0  0  0  0  0  0  0  0
  148.4705  139.5233  155.3631 H   0  0  0  0  0  0  0  0  0  0  0  0
  145.4546  139.9177  153.7134 H   0  0  0  0  0  0  0  0  0  0  0  0
  146.7226  143.9979  154.3019 H   0  0  0  0  0  0  0  0  0  0  0  0
  146.6282  143.0368  152.8370 H   0  0  0  0  0  0  0  0  0  0  0  0
  144.7953  143.4270  154.8190 H   0  0  0  0  0  0  0  0  0  0  0  0
  1  2  1  0  0  0  0
  1 21  1  0  0  0  0
  1 22  1  0  0  0  0
  1 23  1  0  0  0  0
  2 16  1  0  0  0  0
  2  3  2  0  0  0  0
  3  4  1  0  0  0  0
  3 24  1  0  0  0  0
  4  5  1  0  0  0  0
  4 13  1  0  0  0  0
  5 18  1  0  0  0  0
  5 12  1  0  0  0  0
  5  6  1  0  0  0  0
  6  7  1  0  0  0  0
  6 25  1  0  0  0  0
  6 26  1  0  0  0  0
  7 19  1  0  0  0  0
  7  8  1  0  0  0  0
  7  9  1  0  0  0  0
  8 27  1  0  0  0  0
  9 20  1  0  0  0  0
  9 10  1  0  0  0  0
  9 12  1  0  0  0  0
 10 11  1  0  0  0  0
 10 28  1  0  0  0  0
 10 29  1  0  0  0  0
 11 30  1  0  0  0  0
 13 14  2  0  0  0  0
 13 15  1  0  0  0  0
 15 16  1  0  0  0  0
 16 17  2  0  0  0  0
M  CHG  1  15  -1
M  END
> <s_m_source_file>
AV-unprocessed.smi

> <i_m_source_file_index>
55

> <i_lp_mmshare_version>
43012

> <i_f3d_flags>
0

> <s_epik_input>
Tz1jMVtuSF1jKD1PKW4oW2NIXWMxW0NIM10pW0NAQEhdMltDSDJdW0NAQEhdKFtPSF0pW0NAQEhdKE8yKVtDSDJdW09IXQ==

> <s_epik_cmdline>
J2VwaWtfcHl0aG9uJywgJy1waCcsICc3LjAnLCAnLXRuJywgJzgnLCAnLW1hJywgJzIwMCcsICctbWV0YWxfYmluZGluZycsICctaW1hZScsICc8aW5maWxlLm1hZT4nLCAnLW9tYWUnLCAnPG91dGZpbGUubWFlPic=

> <r_lp_tautomer_probability>
0.999537

> <r_epik_Ionization_Penalty>
3.66603

> <r_epik_Ionization_Penalty_Charging>
1.09773e-07

> <r_epik_Ionization_Penalty_Neutral>
3.66603

> <r_epik_State_Penalty>
3.66562

> <r_epik_Charging_Adjusted_Penalty>
3.66562

> <i_epik_Tot_Q>
-1

> <i_epik_Tot_abs_Q>
1

> <r_epik_Metal_State_Penalty>
0.234536

> <b_epik_Metal_Only>
1

> <s_epik_Chemistry_Notes>
This compound contains an acetal/aminal-like group ( X-CH(R)-Y where X, Y are N, S, or O) that may be acid/base labile, releasing an aldehyde.

> <s_lp_Force_Field>
OPLS_2005

> <r_lp_Energy>
34.2111

> <b_lp_Chiralities_Consistent>
1

> <s_lp_Variant>
AV-unprocessed.smi:55-10

> <Gold.Version>
5.8.1

> <Gold.Id.Protein>
6NUR|6NUR_protein|mol2

> <Gold.PLP.Fitness>
39.6801

> <Gold.PLP.PLP>
-28.5709

> <Gold.PLP.part.hbond>
-4.7432

> <Gold.PLP.part.metal>
0.0000

> <Gold.PLP.part.buried>
-0.0157

> <Gold.PLP.part.nonpolar>
-23.6335

> <Gold.PLP.part.repulsive>
3.0062

> <Gold.PLP.ligand.clash>
0.0000

> <Gold.PLP.ligand.torsion>
0.3316

> <Gold.PLP.Chemscore.Hbond>
2.9213

> <Gold.PLP.Chemscore.CHOScore>
1.0000

> <Gold.PLP.Chemscore.Metal>
0.0000

> <Gold.Chemscore.Hbonds>
donor molecule, donor type, donor heavy atom, donor atom, acceptor molecule, acceptor atom, score
      L1  H     8    27       P1 10175  0.49
      P1  H  7989  7998       L1    14  0.60
      P1  H  7997  8009       L1    15  1.95
      L1  C     3    24       P1  8028  1.00

> <Gold.PLP.Chemscore.Internal.Correction>
0.0085

> <Gold.Rescore>
     Score         DG    S(hbond)    S(metal)    S(lipo)     H(rot)  DE(clash)    DE(int)     intcor
      6.38      -8.69       1.45        0.00      44.96       2.69       1.82       0.49       ----

> <Gold.Chemscore.Fitness>
6.3795

> <Gold.Chemscore.DG>
-8.6882

> <Gold.Chemscore.ZeroCoef>
-5.4800

> <Gold.Chemscore.Hbond>
1.4452

> <Gold.Chemscore.Metal>
0.0000

> <Gold.Chemscore.Lipo>
44.9587

> <Gold.Chemscore.Internal_Hbond>
0.0000

> <Gold.Chemscore.DEClash>
1.8201

> <Gold.Chemscore.DEInternal>
0.4885

> <Gold.Chemscore.Rot>
2.6871

> <Gold.Chemscore.Internal.Correction>
   9.000000E+99

> <Gold.Chemscore.Hbonds>
donor molecule, donor type, donor heavy atom, donor atom, acceptor molecule, acceptor atom, score
      L1  H     8    27       P1 10175  0.50
      P1  H  7989  7998       L1    14  0.04
      P1  H  7997  8009       L1    15  0.31

> <Gold.Chemscore.Hbond.Weighted>
-4.8270

> <Gold.Chemscore.Metal.Weighted>
-0.0000

> <Gold.Chemscore.Lipo.Weighted>
-5.2602

> <Gold.Chemscore.Internal_Hbond.Weighted>
0.0000

> <Gold.Chemscore.DEClash.Weighted>
1.8201

> <Gold.Chemscore.DEInternal.Weighted>
0.4885

> <Gold.Chemscore.Rot.Weighted>
6.8791

> <Gold.Chemscore.Internal.Correction.Weighted>
   9.000000E+99

> <Gold.Protein.RotatedTorsions>
[ 6907 6896 6895 6894 ] final  -34.52 input  -60.11 | X-H torsion
[ 7974 7965 7964 7962 ] final  122.86 input  175.53 | X-H torsion
[ 8008 7997 7996 7995 ] final -170.28 input   59.86 | X-H torsion
[ 10167 10162 10161 10158 ] final  134.01 input  -65.29 | X-H torsion
[ 10718 10713 10712 10709 ] final   16.58 input   66.30 | X-H torsion
[ 10763 10752 10751 10750 ] final  153.19 input  -60.55 | X-H torsion
[ 11005 11000 10999 10996 ] final  112.47 input  -57.11 | X-H torsion

> <Gold.Protein.ActiveResidues>
 VAL166  LYS551  ARG553  GLY616  TRP617  ASP618  TYR619  PRO620  LYS621  CYS622 
 ASP623  PHE694  ASN695  SER759  ASP760  ASP761  ALA762  ILE779  LEU786  VAL792 
 PHE793  MET794  SER795  GLU796  ALA797  LYS798  CYS799  TRP800  GLU811  SER814 

> <Gold.Protein.RotatedAtoms>
  151.0515  134.9676  159.8213 H   0  0  0  0  0  0  0  0  0  0  0  0  # atno 6907 bound_to 6896
  152.5381  134.2531  159.8916 H   0  0  0  0  0  0  0  0  0  0  0  0  # atno 6908 bound_to 6896
  151.2547  133.4289  159.2647 H   0  0  0  0  0  0  0  0  0  0  0  0  # atno 6909 bound_to 6896
  145.1027  139.3507  143.4804 H   0  0  0  0  0  0  0  0  0  0  0  0  # atno 7974 bound_to 7965
  155.9163  140.1066  157.1241 H   0  0  0  0  0  0  0  0  0  0  0  0  # atno 8008 bound_to 7997
  154.4047  140.1264  156.4686 H   0  0  0  0  0  0  0  0  0  0  0  0  # atno 8009 bound_to 7997
  155.7250  140.3469  155.5035 H   0  0  0  0  0  0  0  0  0  0  0  0  # atno 8010 bound_to 7997
  139.5273  144.6588  151.5078 H   0  0  0  0  0  0  0  0  0  0  0  0  # atno 10167 bound_to 10162
  157.0699  130.6344  149.5803 H   0  0  0  0  0  0  0  0  0  0  0  0  # atno 10718 bound_to 10713
  154.1323  135.2826  155.3182 H   0  0  0  0  0  0  0  0  0  0  0  0  # atno 10763 bound_to 10752
  154.6347  135.5423  153.7723 H   0  0  0  0  0  0  0  0  0  0  0  0  # atno 10764 bound_to 10752
  153.0277  135.6471  154.1473 H   0  0  0  0  0  0  0  0  0  0  0  0  # atno 10765 bound_to 10752
  139.8928  134.9530  156.6591 H   0  0  0  0  0  0  0  0  0  0  0  0  # atno 11005 bound_to 11000
  146.3529  140.0911  142.8612 LP  0  0  0  0  0  0  0  0  0  0  0  0  # atno 17320 bound_to 7965
  145.0937  140.9301  143.4754 LP  0  0  0  0  0  0  0  0  0  0  0  0  # atno 17321 bound_to 7965
  140.6426  143.8858  150.6707 LP  0  0  0  0  0  0  0  0  0  0  0  0  # atno 17342 bound_to 10162
  140.2197  143.3818  152.1653 LP  0  0  0  0  0  0  0  0  0  0  0  0  # atno 17343 bound_to 10162
  155.9953  130.5020  150.7455 LP  0  0  0  0  0  0  0  0  0  0  0  0  # atno 17370 bound_to 10713
  157.4886  131.0909  151.0453 LP  0  0  0  0  0  0  0  0  0  0  0  0  # atno 17371 bound_to 10713
  140.7461  133.8936  155.8313 LP  0  0  0  0  0  0  0  0  0  0  0  0  # atno 17394 bound_to 11000
  141.0038  134.1114  157.4290 LP  0  0  0  0  0  0  0  0  0  0  0  0  # atno 17395 bound_to 11000

$$$$
