#       Name:                AV-unprocessed.smi:36
#       Creating user name   scv26
#       Creation time:       Thu Mar 26 16:07:45 2020


#       File generated by GOLD software.
#

@<TRIPOS>MOLECULE
AV-unprocessed.smi:36
    73    76     1
SMALL
NO_CHARGES


@<TRIPOS>ATOM
      1 ****        -4.5054   4.8060   0.6326 C.3            1 S1                 0.0000
      2 ****        -3.5604   3.6118   0.8451 C.3            1 S1                 0.0000
      3 ****        -4.2471   2.5509   1.7213 C.3            1 S1                 0.0000
      4 ****        -3.1825   2.9958  -0.5123 C.3            1 S1                 0.0000
      5 ****        -1.9697   4.2074   1.7201 Si             1 S1                 0.0000
      6 ****        -1.0465   5.4878   0.6617 C.3            1 S1                 0.0000
      7 ****        -2.3574   4.9430   3.4286 C.3            1 S1                 0.0000
      8 ****        -0.9634   2.8657   1.9372 O.3            1 S1                 0.0000
      9 ****         0.3168   2.9394   2.5279 C.3            1 S1                 0.0000
     10 ****         1.0384   1.6010   2.3165 C.3            1 S1                 0.0000
     11 ****         1.4483   1.4430   0.9581 O.3            1 S1                 0.0000
     12 ****         2.6765   0.7817   0.8946 C.3            1 S1                 0.0000
     13 ****         2.5425  -0.4051  -0.0043 N.pl3          1 S1                 0.0000
     14 ****         3.3842  -0.7470  -0.9976 C.2            1 S1                 0.0000
     15 ****         3.0617  -1.8513  -1.6653 N.2            1 S1                 0.0000
     16 ****         1.8882  -2.2545  -1.0367 C.2            1 S1                 0.0000
     17 ****         1.0163  -3.4195  -1.3009 C.2            1 S1                 0.0000
     18 ****         1.3685  -4.2326  -2.2504 N.2            1 S1                 0.0000
     19 ****         0.5873  -5.3428  -2.5437 C.2            1 S1                 0.0000
     20 ****        -0.4768  -5.6977  -2.0289 O.2            1 S1                 0.0000
     21 ****         1.1809  -6.2194  -3.5982 C.ar           1 S1                 0.0000
     22 ****         1.8545  -7.4050  -3.2350 C.ar           1 S1                 0.0000
     23 ****         2.4196  -8.2290  -4.2280 C.ar           1 S1                 0.0000
     24 ****         2.3152  -7.8691  -5.5858 C.ar           1 S1                 0.0000
     25 ****         1.6469  -6.6842  -5.9511 C.ar           1 S1                 0.0000
     26 ****         1.0808  -5.8595  -4.9592 C.ar           1 S1                 0.0000
     27 ****        -0.0710  -3.4097  -0.4176 N.pl3          1 S1                 0.0000
     28 ****        -0.3083  -2.4567   0.5846 C.2            1 S1                 0.0000
     29 ****         0.4591  -1.4299   0.8350 N.2            1 S1                 0.0000
     30 ****         1.5502  -1.3844  -0.0221 C.2            1 S1                 0.0000
     31 ****         3.0485   0.3556   2.3161 C.3            1 S1                 0.0000
     32 ****         2.3140   1.3896   3.1436 C.3            1 S1                 0.0000
     33 ****         3.0776   2.5758   3.2611 O.3            1 S1                 0.0000
     34 ****        -5.4275   4.4981   0.1385 H              1 S1                 0.0000
     35 ****        -4.0420   5.5741   0.0130 H              1 S1                 0.0000
     36 ****        -4.7802   5.2693   1.5804 H              1 S1                 0.0000
     37 ****        -4.5314   2.9592   2.6914 H              1 S1                 0.0000
     38 ****        -3.5884   1.7010   1.9025 H              1 S1                 0.0000
     39 ****        -5.1528   2.1708   1.2475 H              1 S1                 0.0000
     40 ****        -4.0627   2.6256  -1.0390 H              1 S1                 0.0000
     41 ****        -2.4952   2.1580  -0.3893 H              1 S1                 0.0000
     42 ****        -2.6969   3.7267  -1.1593 H              1 S1                 0.0000
     43 ****        -1.6693   6.3563   0.4495 H              1 S1                 0.0000
     44 ****        -0.7363   5.0673  -0.2946 H              1 S1                 0.0000
     45 ****        -0.1488   5.8492   1.1627 H              1 S1                 0.0000
     46 ****        -3.0306   5.7966   3.3545 H              1 S1                 0.0000
     47 ****        -1.4523   5.2865   3.9289 H              1 S1                 0.0000
     48 ****        -2.8304   4.2106   4.0823 H              1 S1                 0.0000
     49 ****         0.8876   3.7649   2.1020 H              1 S1                 0.0000
     50 ****         0.1931   3.1380   3.5930 H              1 S1                 0.0000
     51 ****         0.3520   0.7858   2.5501 H              1 S1                 0.0000
     52 ****         3.4226   1.4250   0.4260 H              1 S1                 0.0000
     53 ****         4.2651  -0.1694  -1.2366 H              1 S1                 0.0000
     54 ****         1.9397  -7.6874  -2.1952 H              1 S1                 0.0000
     55 ****         2.9340  -9.1367  -3.9482 H              1 S1                 0.0000
     56 ****         2.7493  -8.5010  -6.3466 H              1 S1                 0.0000
     57 ****         1.5696  -6.4072  -6.9922 H              1 S1                 0.0000
     58 ****         0.5716  -4.9509  -5.2470 H              1 S1                 0.0000
     59 ****        -1.2138  -2.6393   1.1651 H              1 S1                 0.0000
     60 ****         2.6515  -0.6391   2.5239 H              1 S1                 0.0000
     61 ****         4.1293   0.3419   2.4607 H              1 S1                 0.0000
     62 ****         2.0902   1.0233   4.1459 H              1 S1                 0.0000
     63 ****         3.2549   2.9030   2.3924 H              1 S1                 0.0000
     64 ****        -0.7410  -4.1600  -0.5078 H              1 S1                 0.0000
     65 ****         1.5368   2.3441   0.5336 LP             1 S1                 0.0000
     66 ****         0.7606   0.9090   0.4663 LP             1 S1                 0.0000
     67 ****         3.5426  -2.2834  -2.4282 LP             1 S1                 0.0000
     68 ****         2.2041  -4.0588  -2.7715 LP             1 S1                 0.0000
     69 ****        -0.8833  -5.1533  -1.2951 LP             1 S1                 0.0000
     70 ****        -0.9325  -6.5296  -2.3456 LP             1 S1                 0.0000
     71 ****         0.2825  -0.7591   1.5553 LP             1 S1                 0.0000
     72 ****         3.9385   2.3784   3.7300 LP             1 S1                 0.0000
     73 ****         2.5638   3.2583   3.7809 LP             1 S1                 0.0000
@<TRIPOS>BOND
    1    1    2 1     
    2    1   34 1     
    3    1   35 1     
    4    1   36 1     
    5    2    3 1     
    6    2    4 1     
    7    2    5 1     
    8    3   37 1     
    9    3   38 1     
   10    3   39 1     
   11    4   40 1     
   12    4   41 1     
   13    4   42 1     
   14    5    6 1     
   15    5    7 1     
   16    5    8 1     
   17    6   43 1     
   18    6   44 1     
   19    6   45 1     
   20    7   46 1     
   21    7   47 1     
   22    7   48 1     
   23    8    9 1     
   24    9   10 1     
   25    9   49 1     
   26    9   50 1     
   27   10   32 1     
   28   10   11 1     
   29   10   51 1     
   30   11   12 1     
   31   12   13 1     
   32   12   31 1     
   33   12   52 1     
   34   13   30 1     
   35   13   14 1     
   36   14   15 2     
   37   14   53 1     
   38   15   16 1     
   39   16   30 2     
   40   16   17 1     
   41   17   18 2     
   42   17   27 1     
   43   18   19 1     
   44   19   20 2     
   45   19   21 1     
   46   21   26 ar    
   47   21   22 ar    
   48   22   23 ar    
   49   22   54 1     
   50   23   24 ar    
   51   23   55 1     
   52   24   25 ar    
   53   24   56 1     
   54   25   26 ar    
   55   25   57 1     
   56   26   58 1     
   57   27   28 1     
   58   27   64 1     
   59   28   29 2     
   60   28   59 1     
   61   29   30 1     
   62   31   32 1     
   63   31   60 1     
   64   31   61 1     
   65   32   33 1     
   66   32   62 1     
   67   33   63 1     
   68   11   65 1     
   69   11   66 1     
   70   15   67 1     
   71   18   68 1     
   72   20   69 1     
   73   20   70 1     
   74   29   71 1     
   75   33   72 1     
   76   33   73 1     
@<TRIPOS>SUBSTRUCTURE
      1 S1             1
@<TRIPOS>SET
LONE_PAIRS      STATIC     ATOMS    <user>   **** ""
9 65 66 67 68 69 70 71 72 73
DONOR_HYDROGENS      STATIC     ATOMS    <user>   **** ""
2 64 63
ATOM$BLUE        STATIC     ATOMS    COLORGROUP SYSTEM
9 65 66 67 68 69 70 71 72 73
ATOM$RED        STATIC     ATOMS    COLORGROUP SYSTEM
2 64 63
