#       Name:                AV-unprocessed.smi:398
#       Creating user name   scv26
#       Creation time:       Thu Mar 26 22:43:22 2020


#       File generated by GOLD software.
#

@<TRIPOS>MOLECULE
AV-unprocessed.smi:398
    41    43     1
SMALL
NO_CHARGES


@<TRIPOS>ATOM
      1 ****        -4.2327  -3.2500   1.1491 N.1            1 S1                 0.0000
      2 ****        -3.5257  -2.3416   1.0288 C.1            1 S1                 0.0000
      3 ****        -2.6779  -1.2048   0.8845 C.2            1 S1                 0.0000
      4 ****        -3.1761   0.0375   0.7162 C.2            1 S1                 0.0000
      5 ****        -2.3704   1.1476   0.5847 N.am           1 S1                 0.0000
      6 ****        -2.9133   2.4334   0.2480 C.3            1 S1                 0.0000
      7 ****        -2.6201   3.6356   1.1245 C.3            1 S1                 0.0000
      8 ****        -4.0002   3.0258   1.1187 C.3            1 S1                 0.0000
      9 ****        -0.9663   1.0046   0.5422 C.2            1 S1                 0.0000
     10 ****        -0.2328   1.9727   0.3265 O.2            1 S1                 0.0000
     11 ****        -0.4256  -0.2888   0.7421 N.am           1 S1                 0.0000
     12 ****         1.0442  -0.4567   0.7175 C.3            1 S1                 0.0000
     13 ****         1.6028  -0.7804  -0.6772 C.2            1 S1                 0.0000
     14 ****         0.8878  -0.7132  -1.6785 O.2            1 S1                 0.0000
     15 ****         2.8973  -1.1274  -0.7189 N.am           1 S1                 0.0000
     16 ****         3.6260  -1.4709  -1.8970 C.3            1 S1                 0.0000
     17 ****         4.6982  -2.5319  -1.7744 C.3            1 S1                 0.0000
     18 ****         5.0901  -1.0914  -1.9545 C.3            1 S1                 0.0000
     19 ****        -1.2362  -1.4391   0.9197 C.2            1 S1                 0.0000
     20 ****        -0.7321  -2.5524   1.0779 O.2            1 S1                 0.0000
     21 ****        -4.2482   0.1708   0.6886 H              1 S1                 0.0000
     22 ****        -2.9999   2.6352  -0.8182 H              1 S1                 0.0000
     23 ****        -2.0163   3.4871   2.0178 H              1 S1                 0.0000
     24 ****        -2.4913   4.5964   0.6303 H              1 S1                 0.0000
     25 ****        -4.7925   3.5823   0.6222 H              1 S1                 0.0000
     26 ****        -4.3044   2.4751   2.0068 H              1 S1                 0.0000
     27 ****         1.5488   0.4365   1.0891 H              1 S1                 0.0000
     28 ****         1.3540  -1.2415   1.4100 H              1 S1                 0.0000
     29 ****         3.4065  -1.1531   0.1526 H              1 S1                 0.0000
     30 ****         3.0883  -1.4427  -2.8439 H              1 S1                 0.0000
     31 ****         4.8651  -2.9781  -0.7957 H              1 S1                 0.0000
     32 ****         4.8410  -3.2010  -2.6207 H              1 S1                 0.0000
     33 ****         5.4943  -0.7986  -2.9214 H              1 S1                 0.0000
     34 ****         5.5180  -0.5769  -1.0960 H              1 S1                 0.0000
     35 ****        -4.8436  -4.0349   1.2530 LP             1 S1                 0.0000
     36 ****        -0.6306   2.8781   0.1780 LP             1 S1                 0.0000
     37 ****         0.7595   1.8521   0.3001 LP             1 S1                 0.0000
     38 ****        -0.0715  -0.4448  -1.5908 LP             1 S1                 0.0000
     39 ****         1.2668  -0.9271  -2.5789 LP             1 S1                 0.0000
     40 ****        -1.3178  -3.3550   1.1906 LP             1 S1                 0.0000
     41 ****         0.2627  -2.6532   1.0935 LP             1 S1                 0.0000
@<TRIPOS>BOND
    1    1    2 3     
    2    2    3 1     
    3    3   19 1     
    4    3    4 2     
    5    4    5 1     
    6    4   21 1     
    7    5    6 1     
    8    5    9 am    
    9    6    8 1     
   10    6    7 1     
   11    6   22 1     
   12    7    8 1     
   13    7   23 1     
   14    7   24 1     
   15    8   25 1     
   16    8   26 1     
   17    9   10 2     
   18    9   11 am    
   19   11   12 1     
   20   11   19 am    
   21   12   13 1     
   22   12   27 1     
   23   12   28 1     
   24   13   14 2     
   25   13   15 am    
   26   15   16 1     
   27   15   29 1     
   28   16   18 1     
   29   16   17 1     
   30   16   30 1     
   31   17   18 1     
   32   17   31 1     
   33   17   32 1     
   34   18   33 1     
   35   18   34 1     
   36   19   20 2     
   37    1   35 1     
   38   10   36 1     
   39   10   37 1     
   40   14   38 1     
   41   14   39 1     
   42   20   40 1     
   43   20   41 1     
@<TRIPOS>SUBSTRUCTURE
      1 S1             1
@<TRIPOS>SET
LONE_PAIRS      STATIC     ATOMS    <user>   **** ""
7 35 36 37 38 39 40 41
DONOR_HYDROGENS      STATIC     ATOMS    <user>   **** ""
1 29
ATOM$BLUE        STATIC     ATOMS    COLORGROUP SYSTEM
7 35 36 37 38 39 40 41
ATOM$RED        STATIC     ATOMS    COLORGROUP SYSTEM
1 29
