AV-unprocessed.smi:3266|AV-procd|sdf|12501|dock2
  -GOLD-   2272018403D 1   1.00000     0.00000
 Structure written by MMmdl.
 38 39  0  0  0  0  0  0  0  0  1 V2000
  150.9421  140.3720  155.1453 O   0  0  0  0  0  0  0  0  0  0  0  0
  150.0115  141.1655  155.2881 C   0  0  0  0  0  0  0  0  0  0  0  0
  148.6897  140.9453  154.5486 C   0  0  0  0  0  0  0  0  0  0  0  0
  147.5107  140.7244  155.5125 C   0  0  0  0  0  0  0  0  0  0  0  0
  146.8129  142.0345  155.9052 C   0  0  1  0  0  0  0  0  0  0  0  0
  146.0499  142.6941  154.7608 C   0  0  0  0  0  0  0  0  0  0  0  0
  145.0527  143.5795  155.4867 C   0  0  0  0  0  0  0  0  0  0  0  0
  144.9288  142.9373  156.8728 C   0  0  0  0  0  0  0  0  0  0  0  0
  145.7848  141.8006  156.8546 O   0  0  0  0  0  0  0  0  0  0  0  0
  150.0813  142.2457  156.0810 N   0  0  0  0  0  0  0  0  0  0  0  0
  151.2452  142.6257  156.8759 C   0  0  0  0  0  0  0  0  0  0  0  0
  150.8952  143.5781  158.0363 C   0  0  0  0  0  0  0  0  0  0  0  0
  151.6698  143.2976  159.3138 C   0  0  0  0  0  0  0  0  0  0  0  0
  151.4937  144.1160  160.4501 C   0  0  0  0  0  0  0  0  0  0  0  0
  152.2254  143.8154  161.6152 C   0  0  0  0  0  0  0  0  0  0  0  0
  153.1001  142.7121  161.6006 C   0  0  0  0  0  0  0  0  0  0  0  0
  153.2055  141.9564  160.4159 C   0  0  0  0  0  0  0  0  0  0  0  0
  152.5089  142.2367  159.2936 N   0  0  0  0  0  0  0  0  0  0  0  0
  148.5003  141.8161  153.9197 H   0  0  0  0  0  0  0  0  0  0  0  0
  148.7817  140.0902  153.8771 H   0  0  0  0  0  0  0  0  0  0  0  0
  146.7814  140.0640  155.0409 H   0  0  0  0  0  0  0  0  0  0  0  0
  147.8525  140.2122  156.4134 H   0  0  0  0  0  0  0  0  0  0  0  0
  147.5317  142.7411  156.3243 H   0  0  0  0  0  0  0  0  0  0  0  0
  146.6985  143.2495  154.0826 H   0  0  0  0  0  0  0  0  0  0  0  0
  145.5165  141.9407  154.1792 H   0  0  0  0  0  0  0  0  0  0  0  0
  145.4356  144.5967  155.5765 H   0  0  0  0  0  0  0  0  0  0  0  0
  144.0974  143.6250  154.9630 H   0  0  0  0  0  0  0  0  0  0  0  0
  145.2584  143.6298  157.6484 H   0  0  0  0  0  0  0  0  0  0  0  0
  143.9054  142.6367  157.0986 H   0  0  0  0  0  0  0  0  0  0  0  0
  149.2685  142.8410  156.1463 H   0  0  0  0  0  0  0  0  0  0  0  0
  151.7388  141.7322  157.2618 H   0  0  0  0  0  0  0  0  0  0  0  0
  151.9631  143.1067  156.2111 H   0  0  0  0  0  0  0  0  0  0  0  0
  151.0696  144.6117  157.7341 H   0  0  0  0  0  0  0  0  0  0  0  0
  149.8282  143.5078  158.2507 H   0  0  0  0  0  0  0  0  0  0  0  0
  150.8131  144.9545  160.4312 H   0  0  0  0  0  0  0  0  0  0  0  0
  152.1167  144.4195  162.5037 H   0  0  0  0  0  0  0  0  0  0  0  0
  153.6763  142.4511  162.4758 H   0  0  0  0  0  0  0  0  0  0  0  0
  153.8669  141.1039  160.3687 H   0  0  0  0  0  0  0  0  0  0  0  0
  1  2  2  0  0  0  0
  2  3  1  0  0  0  0
  2 10  1  0  0  0  0
  3  4  1  0  0  0  0
  3 19  1  0  0  0  0
  3 20  1  0  0  0  0
  4  5  1  0  0  0  0
  4 21  1  0  0  0  0
  4 22  1  0  0  0  0
  5  9  1  0  0  0  0
  5  6  1  0  0  0  0
  5 23  1  0  0  0  0
  6  7  1  0  0  0  0
  6 24  1  0  0  0  0
  6 25  1  0  0  0  0
  7  8  1  0  0  0  0
  7 26  1  0  0  0  0
  7 27  1  0  0  0  0
  8  9  1  0  0  0  0
  8 28  1  0  0  0  0
  8 29  1  0  0  0  0
 10 11  1  0  0  0  0
 10 30  1  0  0  0  0
 11 12  1  0  0  0  0
 11 31  1  0  0  0  0
 11 32  1  0  0  0  0
 12 13  1  0  0  0  0
 12 33  1  0  0  0  0
 12 34  1  0  0  0  0
 13 18  1  0  0  0  0
 13 14  2  0  0  0  0
 14 15  1  0  0  0  0
 14 35  1  0  0  0  0
 15 16  2  0  0  0  0
 15 36  1  0  0  0  0
 16 17  1  0  0  0  0
 16 37  1  0  0  0  0
 17 18  2  0  0  0  0
 17 38  1  0  0  0  0
M  END
> <s_m_source_file>
AV-unprocessed.smi

> <i_m_source_file_index>
3266

> <i_lp_mmshare_version>
43012

> <i_f3d_flags>
0

> <s_epik_input>
TzFbQ0gyXVtDSDJdW0NIMl1bQ0BIXTFbQ0gyXVtDSDJdQyg9TylbTkhdW0NIMl1bQ0gyXWMyW2NIXVtjSF1bY0hdW2NIXW4y

> <s_epik_cmdline>
J2VwaWtfcHl0aG9uJywgJy1waCcsICc3LjAnLCAnLXRuJywgJzgnLCAnLW1hJywgJzIwMCcsICctbWV0YWxfYmluZGluZycsICctaW1hZScsICc8aW5maWxlLm1hZT4nLCAnLW9tYWUnLCAnPG91dGZpbGUubWFlPic=

> <r_epik_Ionization_Penalty>
0.0267142

> <r_epik_Ionization_Penalty_Charging>
0

> <r_epik_Ionization_Penalty_Neutral>
0.0267142

> <r_epik_State_Penalty>
0.0218233

> <r_epik_Charging_Adjusted_Penalty>
0.0218233

> <i_epik_Tot_Q>
0

> <i_epik_Tot_abs_Q>
0

> <r_epik_Metal_State_Penalty>
0.0208786

> <b_epik_Metal_Only>
0

> <s_lp_Force_Field>
OPLS_2005

> <r_lp_Energy>
16.882

> <b_lp_Chiralities_Consistent>
1

> <s_lp_Variant>
AV-unprocessed.smi:3266-2

> <Gold.Version>
5.8.1

> <Gold.Id.Protein>
6NUR|6NUR_protein|mol2

> <Gold.PLP.Fitness>
43.4532

> <Gold.PLP.PLP>
-39.2379

> <Gold.PLP.part.hbond>
-2.0000

> <Gold.PLP.part.metal>
0.0000

> <Gold.PLP.part.buried>
-5.5653

> <Gold.PLP.part.nonpolar>
-30.9050

> <Gold.PLP.part.repulsive>
0.2346

> <Gold.PLP.ligand.clash>
0.0000

> <Gold.PLP.ligand.torsion>
0.6352

> <Gold.PLP.Chemscore.Hbond>
1.8000

> <Gold.PLP.Chemscore.CHOScore>
0.0000

> <Gold.PLP.Chemscore.Metal>
0.0000

> <Gold.Chemscore.Hbonds>
donor molecule, donor type, donor heavy atom, donor atom, acceptor molecule, acceptor atom, score
      L1  H    10    30       P1  8028  0.69
      P1  H  7989  7998       L1     1  1.00

> <Gold.PLP.Chemscore.Internal.Correction>
0.0857

> <Gold.Rescore>
     Score         DG    S(hbond)    S(metal)    S(lipo)     H(rot)  DE(clash)    DE(int)     intcor
     17.22     -18.00       1.49        0.00     101.90       1.71       0.18       0.60       ----

> <Gold.Chemscore.Fitness>
17.2235

> <Gold.Chemscore.DG>
-18.0018

> <Gold.Chemscore.ZeroCoef>
-5.4800

> <Gold.Chemscore.Hbond>
1.4923

> <Gold.Chemscore.Metal>
0.0000

> <Gold.Chemscore.Lipo>
101.8984

> <Gold.Chemscore.Internal_Hbond>
0.0000

> <Gold.Chemscore.DEClash>
0.1828

> <Gold.Chemscore.DEInternal>
0.5955

> <Gold.Chemscore.Rot>
1.7127

> <Gold.Chemscore.Internal.Correction>
   9.000000E+99

> <Gold.Chemscore.Hbonds>
donor molecule, donor type, donor heavy atom, donor atom, acceptor molecule, acceptor atom, score
      L1  H    10    30       P1  8028  0.68
      P1  H  7989  7998       L1     1  0.34

> <Gold.Chemscore.Hbond.Weighted>
-4.9842

> <Gold.Chemscore.Metal.Weighted>
-0.0000

> <Gold.Chemscore.Lipo.Weighted>
-11.9221

> <Gold.Chemscore.Internal_Hbond.Weighted>
0.0000

> <Gold.Chemscore.DEClash.Weighted>
0.1828

> <Gold.Chemscore.DEInternal.Weighted>
0.5955

> <Gold.Chemscore.Rot.Weighted>
4.3846

> <Gold.Chemscore.Internal.Correction.Weighted>
   9.000000E+99

> <Gold.Protein.RotatedTorsions>
[ 6907 6896 6895 6894 ] final -137.62 input  -60.11 | X-H torsion
[ 7974 7965 7964 7962 ] final  -82.72 input  175.53 | X-H torsion
[ 8008 7997 7996 7995 ] final -156.18 input   59.86 | X-H torsion
[ 10167 10162 10161 10158 ] final   77.47 input  -65.29 | X-H torsion
[ 10718 10713 10712 10709 ] final   19.02 input   66.30 | X-H torsion
[ 10763 10752 10751 10750 ] final  -93.10 input  -60.55 | X-H torsion
[ 11005 11000 10999 10996 ] final  153.34 input  -57.11 | X-H torsion

> <Gold.Protein.ActiveResidues>
 VAL166  LYS551  ARG553  GLY616  TRP617  ASP618  TYR619  PRO620  LYS621  CYS622 
 ASP623  PHE694  ASN695  SER759  ASP760  ASP761  ALA762  ILE779  LEU786  VAL792 
 PHE793  MET794  SER795  GLU796  ALA797  LYS798  CYS799  TRP800  GLU811  SER814 

> <Gold.Protein.RotatedAtoms>
  151.0247  133.5844  159.2667 H   0  0  0  0  0  0  0  0  0  0  0  0  # atno 6907 bound_to 6896
  151.2948  135.0751  159.9227 H   0  0  0  0  0  0  0  0  0  0  0  0  # atno 6908 bound_to 6896
  152.5331  133.9939  159.7918 H   0  0  0  0  0  0  0  0  0  0  0  0  # atno 6909 bound_to 6896
  145.5296  140.9523  143.1610 H   0  0  0  0  0  0  0  0  0  0  0  0  # atno 7974 bound_to 7965
  155.7132  140.0781  157.2362 H   0  0  0  0  0  0  0  0  0  0  0  0  # atno 8008 bound_to 7997
  154.4055  140.1626  156.2373 H   0  0  0  0  0  0  0  0  0  0  0  0  # atno 8009 bound_to 7997
  155.9263  140.3394  155.6216 H   0  0  0  0  0  0  0  0  0  0  0  0  # atno 8010 bound_to 7997
  139.9813  144.5824  150.7898 H   0  0  0  0  0  0  0  0  0  0  0  0  # atno 10167 bound_to 10162
  157.1045  130.6482  149.5881 H   0  0  0  0  0  0  0  0  0  0  0  0  # atno 10718 bound_to 10713
  154.6926  135.5207  153.8414 H   0  0  0  0  0  0  0  0  0  0  0  0  # atno 10763 bound_to 10752
  153.0644  135.6579  154.0398 H   0  0  0  0  0  0  0  0  0  0  0  0  # atno 10764 bound_to 10752
  154.0270  135.2988  155.3353 H   0  0  0  0  0  0  0  0  0  0  0  0  # atno 10765 bound_to 10752
  140.1389  134.8752  157.2305 H   0  0  0  0  0  0  0  0  0  0  0  0  # atno 11005 bound_to 11000
  144.7633  139.6905  143.7225 LP  0  0  0  0  0  0  0  0  0  0  0  0  # atno 17320 bound_to 7965
  146.2053  139.5373  142.9717 LP  0  0  0  0  0  0  0  0  0  0  0  0  # atno 17321 bound_to 7965
  140.7488  143.2928  151.3284 LP  0  0  0  0  0  0  0  0  0  0  0  0  # atno 17342 bound_to 10162
  139.6408  144.0543  152.2553 LP  0  0  0  0  0  0  0  0  0  0  0  0  # atno 17343 bound_to 10162
  155.9865  130.4900  150.7083 LP  0  0  0  0  0  0  0  0  0  0  0  0  # atno 17370 bound_to 10713
  157.4612  131.0883  151.0743 LP  0  0  0  0  0  0  0  0  0  0  0  0  # atno 17371 bound_to 10713
  140.2747  134.3420  155.7362 LP  0  0  0  0  0  0  0  0  0  0  0  0  # atno 17394 bound_to 11000
  141.2183  133.7443  156.9274 LP  0  0  0  0  0  0  0  0  0  0  0  0  # atno 17395 bound_to 11000

$$$$
