#       Name:                AV-unprocessed.smi:55
#       Creating user name   scv26
#       Creation time:       Thu Mar 26 16:47:16 2020


#       File generated by GOLD software.
#

@<TRIPOS>MOLECULE
AV-unprocessed.smi:55
    41    42     1
SMALL
NO_CHARGES


@<TRIPOS>ATOM
      1 ****        -3.1967   1.8311   0.0616 C.3            1 S1                 0.0000
      2 ****        -2.6457   0.4161   0.1210 C.2            1 S1                 0.0000
      3 ****        -1.3139   0.1534   0.1186 C.2            1 S1                 0.0000
      4 ****        -0.7795  -1.1264   0.1688 N.am           1 S1                 0.0000
      5 ****         0.7176  -1.3408   0.1637 C.3            1 S1                 0.0000
      6 ****         1.2910  -1.1559  -1.2450 C.3            1 S1                 0.0000
      7 ****         1.9737   0.1952  -1.1432 C.3            1 S1                 0.0000
      8 ****         3.0781   0.2729  -2.0212 O.3            1 S1                 0.0000
      9 ****         2.3926   0.2422   0.3283 C.3            1 S1                 0.0000
     10 ****         2.5817   1.6676   0.8687 C.3            1 S1                 0.0000
     11 ****         3.3360   1.6349   2.0614 O.3            1 S1                 0.0000
     12 ****         1.3045  -0.3878   0.9982 O.3            1 S1                 0.0000
     13 ****        -1.6493  -2.2364   0.2167 C.2            1 S1                 0.0000
     14 ****        -1.2545  -3.4014   0.2424 O.2            1 S1                 0.0000
     15 ****        -3.0170  -1.9671   0.2238 N.am           1 S1                 0.0000
     16 ****        -3.5969  -0.6969   0.1800 C.2            1 S1                 0.0000
     17 ****        -4.8219  -0.5879   0.1913 O.2            1 S1                 0.0000
     18 ****         0.9162  -2.3303   0.5775 H              1 S1                 0.0000
     19 ****         1.2642   0.9919  -1.3699 H              1 S1                 0.0000
     20 ****         3.2926  -0.3597   0.4714 H              1 S1                 0.0000
     21 ****        -3.6426  -2.7585   0.2608 H              1 S1                 0.0000
     22 ****        -2.3999   2.5747   0.0344 H              1 S1                 0.0000
     23 ****        -3.8157   2.0365   0.9354 H              1 S1                 0.0000
     24 ****        -3.8088   1.9641  -0.8311 H              1 S1                 0.0000
     25 ****        -0.6338   0.9909   0.0745 H              1 S1                 0.0000
     26 ****         2.0152  -1.9522  -1.4236 H              1 S1                 0.0000
     27 ****         0.5208  -1.2022  -2.0164 H              1 S1                 0.0000
     28 ****         3.6844  -0.4194  -1.8056 H              1 S1                 0.0000
     29 ****         3.1350   2.2719   0.1492 H              1 S1                 0.0000
     30 ****         1.6230   2.1595   1.0362 H              1 S1                 0.0000
     31 ****         3.4482   2.5207   2.3709 H              1 S1                 0.0000
     32 ****         3.5288   1.1596  -1.9179 LP             1 S1                 0.0000
     33 ****         2.7662   0.1655  -2.9652 LP             1 S1                 0.0000
     34 ****         4.2303   1.2242   1.8835 LP             1 S1                 0.0000
     35 ****         2.8529   1.0955   2.7511 LP             1 S1                 0.0000
     36 ****         1.6403  -0.8352   1.8271 LP             1 S1                 0.0000
     37 ****         0.6232   0.3016   1.2442 LP             1 S1                 0.0000
     38 ****        -0.2739  -3.5975   0.2296 LP             1 S1                 0.0000
     39 ****        -1.9141  -4.1523   0.2762 LP             1 S1                 0.0000
     40 ****        -5.2435   0.3182   0.1588 LP             1 S1                 0.0000
     41 ****        -5.3962  -1.4055   0.2331 LP             1 S1                 0.0000
@<TRIPOS>BOND
    1    1    2 1     
    2    1   22 1     
    3    1   23 1     
    4    1   24 1     
    5    2   16 1     
    6    2    3 2     
    7    3    4 1     
    8    3   25 1     
    9    4    5 1     
   10    4   13 1     
   11    5   18 1     
   12    5   12 1     
   13    5    6 1     
   14    6    7 1     
   15    6   26 1     
   16    6   27 1     
   17    7   19 1     
   18    7    8 1     
   19    7    9 1     
   20    8   28 1     
   21    9   20 1     
   22    9   10 1     
   23    9   12 1     
   24   10   11 1     
   25   10   29 1     
   26   10   30 1     
   27   11   31 1     
   28   13   14 2     
   29   13   15 1     
   30   15   21 1     
   31   15   16 1     
   32   16   17 2     
   33    8   32 1     
   34    8   33 1     
   35   11   34 1     
   36   11   35 1     
   37   12   36 1     
   38   12   37 1     
   39   14   38 1     
   40   14   39 1     
   41   17   40 1     
   42   17   41 1     
@<TRIPOS>SUBSTRUCTURE
      1 S1             1
@<TRIPOS>SET
LONE_PAIRS      STATIC     ATOMS    <user>   **** ""
10 32 33 34 35 36 37 38 39 40 41
DONOR_HYDROGENS      STATIC     ATOMS    <user>   **** ""
3 28 31 21
ATOM$BLUE        STATIC     ATOMS    COLORGROUP SYSTEM
10 32 33 34 35 36 37 38 39 40 41
ATOM$RED        STATIC     ATOMS    COLORGROUP SYSTEM
3 28 31 21
