AV-unprocessed.smi:2949|AV-procd|sdf|11287|dock2
  -GOLD-   2272016183D 1   1.00000     0.00000
 Structure written by MMmdl.
 34 35  0  0  0  0  0  0  0  0  1 V2000
  146.8398  139.4220  155.6253 N   0  0  0  0  0  0  0  0  0  0  0  0
  146.7922  139.3552  154.3413 C   0  0  0  0  0  0  0  0  0  0  0  0
  145.8877  138.1152  153.3496 S   0  0  0  0  0  0  0  0  0  0  0  0
  146.4358  138.9000  151.8840 C   0  0  0  0  0  0  0  0  0  0  0  0
  147.2056  139.9569  152.1379 C   0  0  0  0  0  0  0  0  0  0  0  0
  147.4336  140.2383  153.4696 N   0  0  0  0  0  0  0  0  0  0  0  0
  148.1952  141.4104  153.9010 C   0  0  0  0  0  0  0  0  0  0  0  0
  149.4064  141.1230  154.7976 C   0  0  0  0  0  0  0  0  0  0  0  0
  150.0121  140.0541  154.6861 O   0  0  0  0  0  0  0  0  0  0  0  0
  149.7088  142.1123  155.6697 N   0  0  0  0  0  0  0  0  0  0  0  0
  150.6886  142.2107  156.5997 C   0  0  0  0  0  0  0  0  0  0  0  0
  151.4197  141.2517  156.8417 O   0  0  0  0  0  0  0  0  0  0  0  0
  150.8171  143.3907  157.2349 N   0  0  0  0  0  0  0  0  0  0  0  0
  151.9222  143.7643  158.1127 C   0  0  0  0  0  0  0  0  0  0  0  0
  151.9737  142.8815  159.3776 C   0  0  0  0  0  0  0  0  0  0  0  0
  152.0468  143.8425  160.5656 C   0  0  0  0  0  0  0  0  0  0  0  0
  151.3384  145.1019  160.0777 C   0  0  0  0  0  0  0  0  0  0  0  0
  151.7458  145.2108  158.6086 C   0  0  0  0  0  0  0  0  0  0  0  0
  147.4072  140.2041  155.9170 H   0  0  0  0  0  0  0  0  0  0  0  0
  146.1495  138.5312  150.9104 H   0  0  0  0  0  0  0  0  0  0  0  0
  147.6615  140.6078  151.4061 H   0  0  0  0  0  0  0  0  0  0  0  0
  148.5276  141.9771  153.0297 H   0  0  0  0  0  0  0  0  0  0  0  0
  147.5261  142.0793  154.4443 H   0  0  0  0  0  0  0  0  0  0  0  0
  149.0993  142.9157  155.6229 H   0  0  0  0  0  0  0  0  0  0  0  0
  150.0936  144.0821  157.0951 H   0  0  0  0  0  0  0  0  0  0  0  0
  152.8609  143.6918  157.5602 H   0  0  0  0  0  0  0  0  0  0  0  0
  151.0685  142.2782  159.4651 H   0  0  0  0  0  0  0  0  0  0  0  0
  152.8178  142.1914  159.3617 H   0  0  0  0  0  0  0  0  0  0  0  0
  151.5957  143.4293  161.4680 H   0  0  0  0  0  0  0  0  0  0  0  0
  153.0892  144.0730  160.7893 H   0  0  0  0  0  0  0  0  0  0  0  0
  150.2583  144.9687  160.1518 H   0  0  0  0  0  0  0  0  0  0  0  0
  151.6073  145.9868  160.6551 H   0  0  0  0  0  0  0  0  0  0  0  0
  152.7015  145.7320  158.5412 H   0  0  0  0  0  0  0  0  0  0  0  0
  151.0263  145.7859  158.0240 H   0  0  0  0  0  0  0  0  0  0  0  0
  1  2  2  0  0  0  0
  1 19  1  0  0  0  0
  2  6  1  0  0  0  0
  2  3  1  0  0  0  0
  3  4  1  0  0  0  0
  4  5  2  0  0  0  0
  4 20  1  0  0  0  0
  5  6  1  0  0  0  0
  5 21  1  0  0  0  0
  6  7  1  0  0  0  0
  7  8  1  0  0  0  0
  7 22  1  0  0  0  0
  7 23  1  0  0  0  0
  8  9  2  0  0  0  0
  8 10  1  0  0  0  0
 10 11  1  0  0  0  0
 10 24  1  0  0  0  0
 11 12  2  0  0  0  0
 11 13  1  0  0  0  0
 13 14  1  0  0  0  0
 13 25  1  0  0  0  0
 14 18  1  0  0  0  0
 14 15  1  0  0  0  0
 14 26  1  0  0  0  0
 15 16  1  0  0  0  0
 15 27  1  0  0  0  0
 15 28  1  0  0  0  0
 16 17  1  0  0  0  0
 16 29  1  0  0  0  0
 16 30  1  0  0  0  0
 17 18  1  0  0  0  0
 17 31  1  0  0  0  0
 17 32  1  0  0  0  0
 18 33  1  0  0  0  0
 18 34  1  0  0  0  0
M  END
> <s_m_source_file>
AV-unprocessed.smi

> <i_m_source_file_index>
2949

> <i_lp_mmshare_version>
43012

> <i_f3d_flags>
0

> <s_epik_input>
W0hdL049YzFcc1tjSF1bY0hdbjFbQ0gyXUMoPU8pW05IXUMoPU8pW05IXVtDSF0yW0NIMl1bQ0gyXVtDSDJdW0NIMl0y

> <s_epik_cmdline>
J2VwaWtfcHl0aG9uJywgJy1waCcsICc3LjAnLCAnLXRuJywgJzgnLCAnLW1hJywgJzIwMCcsICctbWV0YWxfYmluZGluZycsICctaW1hZScsICc8aW5maWxlLm1hZT4nLCAnLW9tYWUnLCAnPG91dGZpbGUubWFlPic=

> <r_epik_Ionization_Penalty>
2.0346

> <r_epik_Ionization_Penalty_Charging>
2.03458

> <r_epik_Ionization_Penalty_Neutral>
2.61125e-05

> <r_epik_State_Penalty>
2.18096

> <r_epik_Charging_Adjusted_Penalty>
4.21554

> <i_epik_Tot_Q>
0

> <i_epik_Tot_abs_Q>
0

> <r_epik_Metal_State_Penalty>
2.18096

> <b_epik_Metal_Only>
0

> <s_lp_Force_Field>
OPLS_2005

> <r_lp_Energy>
19.3427

> <b_lp_Chiralities_Consistent>
1

> <s_lp_Variant>
AV-unprocessed.smi:2949-3

> <Gold.Version>
5.8.1

> <Gold.Id.Protein>
6NUR|6NUR_protein|mol2

> <Gold.PLP.Fitness>
51.0924

> <Gold.PLP.PLP>
-39.4092

> <Gold.PLP.part.hbond>
-3.0000

> <Gold.PLP.part.metal>
0.0000

> <Gold.PLP.part.buried>
1.6901

> <Gold.PLP.part.nonpolar>
-37.7649

> <Gold.PLP.part.repulsive>
0.2827

> <Gold.PLP.ligand.clash>
0.0000

> <Gold.PLP.ligand.torsion>
0.4262

> <Gold.PLP.Chemscore.Hbond>
2.6960

> <Gold.PLP.Chemscore.CHOScore>
1.4741

> <Gold.PLP.Chemscore.Metal>
0.0000

> <Gold.Chemscore.Hbonds>
donor molecule, donor type, donor heavy atom, donor atom, acceptor molecule, acceptor atom, score
      L1  H    10    24       P1  8028  0.99
      L1  H    13    25       P1  8028  0.80
      P1  H  7989  7998       L1     9  0.50
      L1  C     4    20       P1 10171  0.98
      L1  C     5    21       P1  7957  0.54

> <Gold.PLP.Chemscore.Internal.Correction>
0.0254

> <Gold.Rescore>
     Score         DG    S(hbond)    S(metal)    S(lipo)     H(rot)  DE(clash)    DE(int)     intcor
     15.06     -18.67       1.90        0.00      95.42       1.69       2.03       1.57       ----

> <Gold.Chemscore.Fitness>
15.0588

> <Gold.Chemscore.DG>
-18.6656

> <Gold.Chemscore.ZeroCoef>
-5.4800

> <Gold.Chemscore.Hbond>
1.8983

> <Gold.Chemscore.Metal>
0.0000

> <Gold.Chemscore.Lipo>
95.4211

> <Gold.Chemscore.Internal_Hbond>
0.0000

> <Gold.Chemscore.DEClash>
2.0319

> <Gold.Chemscore.DEInternal>
1.5749

> <Gold.Chemscore.Rot>
1.6871

> <Gold.Chemscore.Internal.Correction>
   9.000000E+99

> <Gold.Chemscore.Hbonds>
donor molecule, donor type, donor heavy atom, donor atom, acceptor molecule, acceptor atom, score
      L1  H    10    24       P1  8028  0.94
      L1  H    13    25       P1  8028  0.69
      P1  H  7989  7998       L1     9  0.06

> <Gold.Chemscore.Hbond.Weighted>
-6.3404

> <Gold.Chemscore.Metal.Weighted>
-0.0000

> <Gold.Chemscore.Lipo.Weighted>
-11.1643

> <Gold.Chemscore.Internal_Hbond.Weighted>
0.0000

> <Gold.Chemscore.DEClash.Weighted>
2.0319

> <Gold.Chemscore.DEInternal.Weighted>
1.5749

> <Gold.Chemscore.Rot.Weighted>
4.3191

> <Gold.Chemscore.Internal.Correction.Weighted>
   9.000000E+99

> <Gold.Protein.RotatedTorsions>
[ 6907 6896 6895 6894 ] final    6.80 input  -60.11 | X-H torsion
[ 7974 7965 7964 7962 ] final  131.99 input  175.53 | X-H torsion
[ 8008 7997 7996 7995 ] final   21.81 input   59.86 | X-H torsion
[ 10167 10162 10161 10158 ] final -140.69 input  -65.29 | X-H torsion
[ 10718 10713 10712 10709 ] final   26.70 input   66.30 | X-H torsion
[ 10763 10752 10751 10750 ] final  -53.75 input  -60.55 | X-H torsion
[ 11005 11000 10999 10996 ] final -102.00 input  -57.11 | X-H torsion

> <Gold.Protein.ActiveResidues>
 VAL166  LYS551  ARG553  GLY616  TRP617  ASP618  TYR619  PRO620  LYS621  CYS622 
 ASP623  PHE694  ASN695  SER759  ASP760  ASP761  ALA762  ILE779  LEU786  VAL792 
 PHE793  MET794  SER795  GLU796  ALA797  LYS798  CYS799  TRP800  GLU811  SER814 

> <Gold.Protein.RotatedAtoms>
  151.6796  135.0964  160.0213 H   0  0  0  0  0  0  0  0  0  0  0  0  # atno 6907 bound_to 6896
  152.3843  133.6585  159.6195 H   0  0  0  0  0  0  0  0  0  0  0  0  # atno 6908 bound_to 6896
  150.7772  133.8978  159.3373 H   0  0  0  0  0  0  0  0  0  0  0  0  # atno 6909 bound_to 6896
  145.0015  139.4307  143.5290 H   0  0  0  0  0  0  0  0  0  0  0  0  # atno 7974 bound_to 7965
  154.9562  140.3072  155.5052 H   0  0  0  0  0  0  0  0  0  0  0  0  # atno 8008 bound_to 7997
  156.2982  140.2310  156.4582 H   0  0  0  0  0  0  0  0  0  0  0  0  # atno 8009 bound_to 7997
  154.8008  140.0434  157.1260 H   0  0  0  0  0  0  0  0  0  0  0  0  # atno 8010 bound_to 7997
  139.8257  143.7514  152.2666 H   0  0  0  0  0  0  0  0  0  0  0  0  # atno 10167 bound_to 10162
  157.2104  130.6931  149.6226 H   0  0  0  0  0  0  0  0  0  0  0  0  # atno 10718 bound_to 10713
  154.1638  135.6470  153.4992 H   0  0  0  0  0  0  0  0  0  0  0  0  # atno 10763 bound_to 10752
  153.0103  135.5367  154.6683 H   0  0  0  0  0  0  0  0  0  0  0  0  # atno 10764 bound_to 10752
  154.6004  135.2943  155.0513 H   0  0  0  0  0  0  0  0  0  0  0  0  # atno 10765 bound_to 10752
  141.1208  133.8523  157.1303 H   0  0  0  0  0  0  0  0  0  0  0  0  # atno 11005 bound_to 11000
  146.3453  139.9406  142.8741 LP  0  0  0  0  0  0  0  0  0  0  0  0  # atno 17320 bound_to 7965
  145.2147  140.9910  143.4080 LP  0  0  0  0  0  0  0  0  0  0  0  0  # atno 17321 bound_to 7965
  139.7706  144.7478  151.0230 LP  0  0  0  0  0  0  0  0  0  0  0  0  # atno 17342 bound_to 10162
  140.7810  143.4649  151.0226 LP  0  0  0  0  0  0  0  0  0  0  0  0  # atno 17343 bound_to 10162
  155.9691  130.4553  150.5882 LP  0  0  0  0  0  0  0  0  0  0  0  0  # atno 17370 bound_to 10713
  157.3678  131.0760  151.1583 LP  0  0  0  0  0  0  0  0  0  0  0  0  # atno 17371 bound_to 10713
  140.0163  134.9966  157.0501 LP  0  0  0  0  0  0  0  0  0  0  0  0  # atno 17394 bound_to 11000
  140.4514  134.1579  155.7182 LP  0  0  0  0  0  0  0  0  0  0  0  0  # atno 17395 bound_to 11000

$$$$
