#       Name:                AV-unprocessed.smi:3182
#       Creating user name   scv26
#       Creation time:       Fri Mar 27 17:59:02 2020


#       File generated by GOLD software.
#

@<TRIPOS>MOLECULE
AV-unprocessed.smi:3182
    42    43     1
SMALL
NO_CHARGES


@<TRIPOS>ATOM
      1 ****        -3.3935  -1.2081  -0.2131 C.3            1 S1                 0.0000
      2 ****        -2.2394  -0.6147  -0.7963 O.3            1 S1                 0.0000
      3 ****        -2.1196   0.8137  -0.7963 C.3            1 S1                 0.0000
      4 ****        -0.6489   1.0419  -1.2250 C.3            1 S1                 0.0000
      5 ****         0.3064   0.4987  -0.2696 N.pl3          1 S1                 0.0000
      6 ****         1.6843   0.6307  -0.4813 C.ar           1 S1                 0.0000
      7 ****         2.6781   0.1332   0.3958 C.ar           1 S1                 0.0000
      8 ****         4.0387   0.3257   0.0789 C.ar           1 S1                 0.0000
      9 ****         4.3842   1.0104  -1.1035 C.ar           1 S1                 0.0000
     10 ****         3.3571   1.4865  -1.9444 C.ar           1 S1                 0.0000
     11 ****         3.6434   2.2294  -3.2320 C.3            1 S1                 0.0000
     12 ****         2.0652   1.2800  -1.6040 N.pl3          1 S1                 1.0000
     13 ****        -3.0759   1.4156  -1.8520 C.3            1 S1                 0.0000
     14 ****        -3.0667   2.9563  -1.8208 C.3            1 S1                 0.0000
     15 ****        -3.3761   3.4255  -0.5129 O.3            1 S1                 0.0000
     16 ****        -2.4403   3.0054   0.4741 C.3            1 S1                 0.0000
     17 ****        -2.4441   1.4697   0.5719 C.3            1 S1                 0.0000
     18 ****        -3.3731  -2.2806  -0.4059 H              1 S1                 0.0000
     19 ****        -4.3233  -0.8220  -0.6277 H              1 S1                 0.0000
     20 ****        -3.4064  -1.0798   0.8693 H              1 S1                 0.0000
     21 ****        -0.4744   0.5748  -2.1953 H              1 S1                 0.0000
     22 ****        -0.4404   2.1038  -1.3477 H              1 S1                 0.0000
     23 ****        -0.0409   0.0053   0.5403 H              1 S1                 0.0000
     24 ****         2.4191  -0.3906   1.3040 H              1 S1                 0.0000
     25 ****         4.8095  -0.0482   0.7369 H              1 S1                 0.0000
     26 ****         5.4225   1.1659  -1.3583 H              1 S1                 0.0000
     27 ****         4.7165   2.3235  -3.4009 H              1 S1                 0.0000
     28 ****         3.2155   3.2316  -3.1958 H              1 S1                 0.0000
     29 ****         3.2106   1.6989  -4.0806 H              1 S1                 0.0000
     30 ****        -2.8182   1.0583  -2.8496 H              1 S1                 0.0000
     31 ****        -4.0995   1.0909  -1.6698 H              1 S1                 0.0000
     32 ****        -2.1070   3.3590  -2.1458 H              1 S1                 0.0000
     33 ****        -3.8144   3.3440  -2.5127 H              1 S1                 0.0000
     34 ****        -1.4468   3.3919   0.2448 H              1 S1                 0.0000
     35 ****        -2.7295   3.4381   1.4319 H              1 S1                 0.0000
     36 ****        -3.4396   1.1789   0.9069 H              1 S1                 0.0000
     37 ****        -1.7542   1.1354   1.3467 H              1 S1                 0.0000
     38 ****         1.3408   1.6339  -2.2292 H              1 S1                 0.0000
     39 ****        -2.2072  -0.9118  -1.7506 LP             1 S1                 0.0000
     40 ****        -1.4451  -0.9758  -0.3078 LP             1 S1                 0.0000
     41 ****        -4.2805   3.0826  -0.2588 LP             1 S1                 0.0000
     42 ****        -3.3915   4.4252  -0.5301 LP             1 S1                 0.0000
@<TRIPOS>BOND
    1    1    2 1     
    2    1   18 1     
    3    1   19 1     
    4    1   20 1     
    5    2    3 1     
    6    3   17 1     
    7    3    4 1     
    8    3   13 1     
    9    4    5 1     
   10    4   21 1     
   11    4   22 1     
   12    5    6 1     
   13    5   23 1     
   14    6   12 ar    
   15    6    7 ar    
   16    7    8 ar    
   17    7   24 1     
   18    8    9 ar    
   19    8   25 1     
   20    9   10 ar    
   21    9   26 1     
   22   10   11 1     
   23   10   12 ar    
   24   11   27 1     
   25   11   28 1     
   26   11   29 1     
   27   12   38 1     
   28   13   14 1     
   29   13   30 1     
   30   13   31 1     
   31   14   15 1     
   32   14   32 1     
   33   14   33 1     
   34   15   16 1     
   35   16   17 1     
   36   16   34 1     
   37   16   35 1     
   38   17   36 1     
   39   17   37 1     
   40    2   39 1     
   41    2   40 1     
   42   15   41 1     
   43   15   42 1     
@<TRIPOS>SUBSTRUCTURE
      1 S1             1
@<TRIPOS>SET
LONE_PAIRS      STATIC     ATOMS    <user>   **** ""
4 39 40 41 42
DONOR_HYDROGENS      STATIC     ATOMS    <user>   **** ""
2 23 38
ATOM$BLUE        STATIC     ATOMS    COLORGROUP SYSTEM
4 39 40 41 42
ATOM$RED        STATIC     ATOMS    COLORGROUP SYSTEM
2 23 38
