AV-unprocessed.smi:2709|AV-procd|sdf|10463|dock5
  -GOLD-   2272014503D 1   1.00000     0.00000
 Structure written by MMmdl.
 40 42  0  0  0  0  0  0  0  0  1 V2000
  142.4410  137.1720  153.2744 C   0  0  0  0  0  0  0  0  0  0  0  0
  143.3809  136.5461  154.1334 O   0  0  0  0  0  0  0  0  0  0  0  0
  144.3547  135.7697  153.4484 C   0  0  1  0  0  0  0  0  0  0  0  0
  143.7430  134.5230  152.7944 C   0  0  0  0  0  0  0  0  0  0  0  0
  144.6058  134.2774  151.5624 C   0  0  0  0  0  0  0  0  0  0  0  0
  144.9125  135.6820  151.0460 C   0  0  0  0  0  0  0  0  0  0  0  0
  144.9738  136.5872  152.2934 C   0  0  2  0  0  0  0  0  0  0  0  0
  146.3504  136.9632  152.6084 N   0  0  0  0  0  0  0  0  0  0  0  0
  146.7124  137.8502  153.5455 C   0  0  0  0  0  0  0  0  0  0  0  0
  145.9084  138.4565  154.2530 O   0  0  0  0  0  0  0  0  0  0  0  0
  148.0493  137.9690  153.6093 N   0  0  0  0  0  0  0  0  0  0  0  0
  148.8215  138.8245  154.4403 C   0  0  0  0  0  0  0  0  0  0  0  0
  150.1336  139.1584  154.0442 C   0  0  0  0  0  0  0  0  0  0  0  0
  150.9175  139.9776  154.7774 N   0  0  0  0  0  0  0  0  0  0  0  0
  150.3930  140.4619  155.9065 C   0  0  0  0  0  0  0  0  0  0  0  0
  151.2501  141.3985  156.7001 C   0  0  0  0  0  0  0  0  0  0  0  0
  151.7239  141.0297  158.0915 C   0  0  0  0  0  0  0  0  0  0  0  0
  150.6957  142.1119  157.9162 C   0  0  0  0  0  0  0  0  0  0  0  0
  149.1600  140.2400  156.3702 N   0  0  0  0  0  0  0  0  0  0  0  0
  148.3696  139.4198  155.6441 C   0  0  0  0  0  0  0  0  0  0  0  0
  141.7129  137.7208  153.8713 H   0  0  0  0  0  0  0  0  0  0  0  0
  141.8990  136.4360  152.6795 H   0  0  0  0  0  0  0  0  0  0  0  0
  142.9216  137.8817  152.6005 H   0  0  0  0  0  0  0  0  0  0  0  0
  145.1409  135.4595  154.1405 H   0  0  0  0  0  0  0  0  0  0  0  0
  143.7163  133.6643  153.4659 H   0  0  0  0  0  0  0  0  0  0  0  0
  142.7192  134.7320  152.4805 H   0  0  0  0  0  0  0  0  0  0  0  0
  145.5317  133.7794  151.8528 H   0  0  0  0  0  0  0  0  0  0  0  0
  144.1088  133.6554  150.8178 H   0  0  0  0  0  0  0  0  0  0  0  0
  145.8198  135.7067  150.4409 H   0  0  0  0  0  0  0  0  0  0  0  0
  144.0943  136.0132  150.4053 H   0  0  0  0  0  0  0  0  0  0  0  0
  144.3838  137.4884  152.1137 H   0  0  0  0  0  0  0  0  0  0  0  0
  147.0777  136.5069  152.0778 H   0  0  0  0  0  0  0  0  0  0  0  0
  148.5793  137.3482  153.0154 H   0  0  0  0  0  0  0  0  0  0  0  0
  150.5599  138.7656  153.1327 H   0  0  0  0  0  0  0  0  0  0  0  0
  151.9365  141.9470  156.0578 H   0  0  0  0  0  0  0  0  0  0  0  0
  151.3870  140.0831  158.5096 H   0  0  0  0  0  0  0  0  0  0  0  0
  152.7291  141.3333  158.3767 H   0  0  0  0  0  0  0  0  0  0  0  0
  151.0122  143.1396  158.0813 H   0  0  0  0  0  0  0  0  0  0  0  0
  149.6751  141.8844  158.2179 H   0  0  0  0  0  0  0  0  0  0  0  0
  147.3747  139.2712  156.0335 H   0  0  0  0  0  0  0  0  0  0  0  0
  1  2  1  0  0  0  0
  1 21  1  0  0  0  0
  1 22  1  0  0  0  0
  1 23  1  0  0  0  0
  2  3  1  0  0  0  0
  3  7  1  0  0  0  0
  3  4  1  0  0  0  0
  3 24  1  0  0  0  0
  4  5  1  0  0  0  0
  4 25  1  0  0  0  0
  4 26  1  0  0  0  0
  5  6  1  0  0  0  0
  5 27  1  0  0  0  0
  5 28  1  0  0  0  0
  6  7  1  0  0  0  0
  6 29  1  0  0  0  0
  6 30  1  0  0  0  0
  7  8  1  0  0  0  0
  7 31  1  0  0  0  0
  8  9  1  0  0  0  0
  8 32  1  0  0  0  0
  9 10  2  0  0  0  0
  9 11  1  0  0  0  0
 11 12  1  0  0  0  0
 11 33  1  0  0  0  0
 12 20  1  0  0  0  0
 12 13  2  0  0  0  0
 13 14  1  0  0  0  0
 13 34  1  0  0  0  0
 14 15  2  0  0  0  0
 15 16  1  0  0  0  0
 15 19  1  0  0  0  0
 16 18  1  0  0  0  0
 16 17  1  0  0  0  0
 16 35  1  0  0  0  0
 17 18  1  0  0  0  0
 17 36  1  0  0  0  0
 17 37  1  0  0  0  0
 18 38  1  0  0  0  0
 18 39  1  0  0  0  0
 19 20  2  0  0  0  0
 20 40  1  0  0  0  0
M  END
> <s_m_source_file>
AV-unprocessed.smi

> <i_m_source_file_index>
2709

> <i_lp_mmshare_version>
43012

> <i_f3d_flags>
0

> <s_epik_input>
W0NIM11PW0NAQEhdMVtDSDJdW0NIMl1bQ0gyXVtDQEhdMVtOSF1DKD1PKVtOSF1jMltjSF1uYyhuW2NIXTIpW0NIXTNbQ0gyXVtDSDJdMw==

> <s_epik_cmdline>
J2VwaWtfcHl0aG9uJywgJy1waCcsICc3LjAnLCAnLXRuJywgJzgnLCAnLW1hJywgJzIwMCcsICctbWV0YWxfYmluZGluZycsICctaW1hZScsICc8aW5maWxlLm1hZT4nLCAnLW9tYWUnLCAnPG91dGZpbGUubWFlPic=

> <r_lp_tautomer_probability>
1

> <r_epik_Ionization_Penalty>
2.49969e-05

> <r_epik_Ionization_Penalty_Charging>
0

> <r_epik_Ionization_Penalty_Neutral>
2.49969e-05

> <r_epik_State_Penalty>
-0

> <r_epik_Charging_Adjusted_Penalty>
0

> <i_epik_Tot_Q>
0

> <i_epik_Tot_abs_Q>
0

> <r_epik_Metal_State_Penalty>
-0

> <b_epik_Metal_Only>
0

> <s_lp_Force_Field>
OPLS_2005

> <r_lp_Energy>
19.78

> <b_lp_Chiralities_Consistent>
1

> <s_lp_Variant>
AV-unprocessed.smi:2709-4

> <Gold.Version>
5.8.1

> <Gold.Id.Protein>
6NUR|6NUR_protein|mol2

> <Gold.PLP.Fitness>
38.1475

> <Gold.PLP.PLP>
-28.0961

> <Gold.PLP.part.hbond>
-3.0000

> <Gold.PLP.part.metal>
0.0000

> <Gold.PLP.part.buried>
-4.1663

> <Gold.PLP.part.nonpolar>
-21.5793

> <Gold.PLP.part.repulsive>
0.3154

> <Gold.PLP.ligand.clash>
0.0000

> <Gold.PLP.ligand.torsion>
0.2748

> <Gold.PLP.Chemscore.Hbond>
2.9100

> <Gold.PLP.Chemscore.CHOScore>
0.5809

> <Gold.PLP.Chemscore.Metal>
0.0000

> <Gold.Chemscore.Hbonds>
donor molecule, donor type, donor heavy atom, donor atom, acceptor molecule, acceptor atom, score
      L1  H     8    32       P1  7948  0.96
      L1  H    11    33       P1  7948  1.00
      P1  H  7989  7998       L1    14  0.95
      L1  C    13    34       P1  7957  0.60

> <Gold.PLP.Chemscore.Internal.Correction>
0.1284

> <Gold.Rescore>
     Score         DG    S(hbond)    S(metal)    S(lipo)     H(rot)  DE(clash)    DE(int)     intcor
     15.18     -17.13       2.43        0.00      61.15       1.41       0.63       1.33       ----

> <Gold.Chemscore.Fitness>
15.1752

> <Gold.Chemscore.DG>
-17.1310

> <Gold.Chemscore.ZeroCoef>
-5.4800

> <Gold.Chemscore.Hbond>
2.4279

> <Gold.Chemscore.Metal>
0.0000

> <Gold.Chemscore.Lipo>
61.1532

> <Gold.Chemscore.Internal_Hbond>
0.0000

> <Gold.Chemscore.DEClash>
0.6303

> <Gold.Chemscore.DEInternal>
1.3255

> <Gold.Chemscore.Rot>
1.4114

> <Gold.Chemscore.Internal.Correction>
   9.000000E+99

> <Gold.Chemscore.Hbonds>
donor molecule, donor type, donor heavy atom, donor atom, acceptor molecule, acceptor atom, score
      L1  H     8    32       P1  7948  0.92
      L1  H    11    33       P1  7948  0.99
      P1  H  7989  7998       L1    14  0.22

> <Gold.Chemscore.Hbond.Weighted>
-8.1093

> <Gold.Chemscore.Metal.Weighted>
-0.0000

> <Gold.Chemscore.Lipo.Weighted>
-7.1549

> <Gold.Chemscore.Internal_Hbond.Weighted>
0.0000

> <Gold.Chemscore.DEClash.Weighted>
0.6303

> <Gold.Chemscore.DEInternal.Weighted>
1.3255

> <Gold.Chemscore.Rot.Weighted>
3.6133

> <Gold.Chemscore.Internal.Correction.Weighted>
   9.000000E+99

> <Gold.Protein.RotatedTorsions>
[ 6907 6896 6895 6894 ] final  142.56 input  -60.11 | X-H torsion
[ 7974 7965 7964 7962 ] final -118.51 input  175.53 | X-H torsion
[ 8008 7997 7996 7995 ] final   -2.71 input   59.86 | X-H torsion
[ 10167 10162 10161 10158 ] final   52.07 input  -65.29 | X-H torsion
[ 10718 10713 10712 10709 ] final   -1.53 input   66.30 | X-H torsion
[ 10763 10752 10751 10750 ] final   61.50 input  -60.55 | X-H torsion
[ 11005 11000 10999 10996 ] final  132.40 input  -57.11 | X-H torsion

> <Gold.Protein.ActiveResidues>
 VAL166  LYS551  ARG553  GLY616  TRP617  ASP618  TYR619  PRO620  LYS621  CYS622 
 ASP623  PHE694  ASN695  SER759  ASP760  ASP761  ALA762  ILE779  LEU786  VAL792 
 PHE793  MET794  SER795  GLU796  ALA797  LYS798  CYS799  TRP800  GLU811  SER814 

> <Gold.Protein.RotatedAtoms>
  152.2172  133.4956  159.5142 H   0  0  0  0  0  0  0  0  0  0  0  0  # atno 6907 bound_to 6896
  150.7004  134.1389  159.4106 H   0  0  0  0  0  0  0  0  0  0  0  0  # atno 6908 bound_to 6896
  151.9310  135.0256  160.0580 H   0  0  0  0  0  0  0  0  0  0  0  0  # atno 6909 bound_to 6896
  145.0730  140.8372  143.4084 H   0  0  0  0  0  0  0  0  0  0  0  0  # atno 7974 bound_to 7965
  154.6328  140.2527  155.7414 H   0  0  0  0  0  0  0  0  0  0  0  0  # atno 8008 bound_to 7997
  156.2488  140.2903  156.0607 H   0  0  0  0  0  0  0  0  0  0  0  0  # atno 8009 bound_to 7997
  155.1718  140.0387  157.2855 H   0  0  0  0  0  0  0  0  0  0  0  0  # atno 8010 bound_to 7997
  140.2553  144.3434  150.6335 H   0  0  0  0  0  0  0  0  0  0  0  0  # atno 10167 bound_to 10162
  156.8042  130.5403  149.5717 H   0  0  0  0  0  0  0  0  0  0  0  0  # atno 10718 bound_to 10713
  152.9952  135.5498  154.6044 H   0  0  0  0  0  0  0  0  0  0  0  0  # atno 10763 bound_to 10752
  154.5378  135.2818  155.1125 H   0  0  0  0  0  0  0  0  0  0  0  0  # atno 10764 bound_to 10752
  154.2414  135.6415  153.5261 H   0  0  0  0  0  0  0  0  0  0  0  0  # atno 10765 bound_to 10752
  139.9788  134.9555  156.9576 H   0  0  0  0  0  0  0  0  0  0  0  0  # atno 11005 bound_to 11000
  145.1269  139.2657  143.5559 LP  0  0  0  0  0  0  0  0  0  0  0  0  # atno 17320 bound_to 7965
  146.3529  140.0909  142.8612 LP  0  0  0  0  0  0  0  0  0  0  0  0  # atno 17321 bound_to 7965
  140.6009  143.2167  151.7074 LP  0  0  0  0  0  0  0  0  0  0  0  0  # atno 17342 bound_to 10162
  139.5033  144.3794  152.0391 LP  0  0  0  0  0  0  0  0  0  0  0  0  # atno 17343 bound_to 10162
  156.1083  130.6021  151.0006 LP  0  0  0  0  0  0  0  0  0  0  0  0  # atno 17370 bound_to 10713
  157.6538  131.0892  150.7992 LP  0  0  0  0  0  0  0  0  0  0  0  0  # atno 17371 bound_to 10713
  140.5140  134.0974  155.7276 LP  0  0  0  0  0  0  0  0  0  0  0  0  # atno 17394 bound_to 11000
  141.1462  133.9051  157.2209 LP  0  0  0  0  0  0  0  0  0  0  0  0  # atno 17395 bound_to 11000

$$$$
