AV-unprocessed.smi:2711|AV-procd|sdf|10473|dock2
  -GOLD-   2272014513D 1   1.00000     0.00000
 Structure written by MMmdl.
 33 34  0  0  0  0  0  0  0  0  2 V2000
  145.7707  134.3942  162.4397 C   0  0  0  0  0  0  0  0  0  0  0  0
  146.7741  135.2340  161.7245 C   0  0  0  0  0  0  0  0  0  0  0  0
  147.0207  136.5715  161.8966 C   0  0  0  0  0  0  0  0  0  0  0  0
  148.0300  137.0674  161.0699 N   0  0  0  0  0  0  0  0  0  0  0  0
  148.5685  136.1381  160.2734 C   0  0  0  0  0  0  0  0  0  0  0  0
  149.5482  136.4061  159.3947 N   0  5  0  0  0  0  0  0  0  0  0  0
  149.7208  137.6668  158.9362 C   0  0  0  0  0  0  0  0  0  0  0  0
  148.8648  138.5538  158.8952 O   0  0  0  0  0  0  0  0  0  0  0  0
  150.9635  137.9156  158.4967 N   0  0  0  0  0  0  0  0  0  0  0  0
  151.4419  139.1830  157.9468 C   0  0  0  0  0  0  0  0  0  0  0  0
  152.7428  139.6849  158.6006 C   0  0  0  0  0  0  0  0  0  0  0  0
  153.7767  139.0208  158.5068 O   0  0  0  0  0  0  0  0  0  0  0  0
  152.7111  140.8663  159.2517 N   0  0  0  0  0  0  0  0  0  0  0  0
  151.5427  141.7348  159.3901 C   0  0  0  0  0  0  0  0  0  0  0  0
  152.0698  143.0466  159.9725 C   0  0  0  0  0  0  0  0  0  0  0  0
  153.3367  142.6429  160.7137 C   0  0  0  0  0  0  0  0  0  0  0  0
  153.8727  141.4535  159.9166 C   0  0  0  0  0  0  0  0  0  0  0  0
  147.8185  134.5566  160.5043 S   0  0  0  0  0  0  0  0  0  0  0  0
  146.1367  134.1150  163.4277 H   0  0  0  0  0  0  0  0  0  0  0  0
  145.5583  133.4788  161.8872 H   0  0  0  0  0  0  0  0  0  0  0  0
  144.8324  134.9344  162.5665 H   0  0  0  0  0  0  0  0  0  0  0  0
  146.5271  137.2456  162.5810 H   0  0  0  0  0  0  0  0  0  0  0  0
  151.6334  137.1631  158.5560 H   0  0  0  0  0  0  0  0  0  0  0  0
  151.6212  139.0392  156.8813 H   0  0  0  0  0  0  0  0  0  0  0  0
  150.6578  139.9365  158.0353 H   0  0  0  0  0  0  0  0  0  0  0  0
  151.0357  141.9042  158.4393 H   0  0  0  0  0  0  0  0  0  0  0  0
  150.8343  141.2709  160.0781 H   0  0  0  0  0  0  0  0  0  0  0  0
  152.3247  143.7303  159.1615 H   0  0  0  0  0  0  0  0  0  0  0  0
  151.3438  143.5463  160.6149 H   0  0  0  0  0  0  0  0  0  0  0  0
  154.0577  143.4565  160.7961 H   0  0  0  0  0  0  0  0  0  0  0  0
  153.0800  142.3201  161.7237 H   0  0  0  0  0  0  0  0  0  0  0  0
  154.3799  140.7374  160.5651 H   0  0  0  0  0  0  0  0  0  0  0  0
  154.5832  141.7877  159.1590 H   0  0  0  0  0  0  0  0  0  0  0  0
  1  2  1  0  0  0  0
  1 19  1  0  0  0  0
  1 20  1  0  0  0  0
  1 21  1  0  0  0  0
  2 18  1  0  0  0  0
  2  3  2  0  0  0  0
  3  4  1  0  0  0  0
  3 22  1  0  0  0  0
  4  5  2  0  0  0  0
  5  6  1  0  0  0  0
  5 18  1  0  0  0  0
  6  7  1  0  0  0  0
  7  8  2  0  0  0  0
  7  9  1  0  0  0  0
  9 10  1  0  0  0  0
  9 23  1  0  0  0  0
 10 11  1  0  0  0  0
 10 24  1  0  0  0  0
 10 25  1  0  0  0  0
 11 12  2  0  0  0  0
 11 13  1  0  0  0  0
 13 17  1  0  0  0  0
 13 14  1  0  0  0  0
 14 15  1  0  0  0  0
 14 26  1  0  0  0  0
 14 27  1  0  0  0  0
 15 16  1  0  0  0  0
 15 28  1  0  0  0  0
 15 29  1  0  0  0  0
 16 17  1  0  0  0  0
 16 30  1  0  0  0  0
 16 31  1  0  0  0  0
 17 32  1  0  0  0  0
 17 33  1  0  0  0  0
M  CHG  1   6  -1
M  END
> <s_m_source_file>
AV-unprocessed.smi

> <i_m_source_file_index>
2711

> <i_lp_mmshare_version>
43012

> <i_f3d_flags>
0

> <s_epik_input>
W0NIM11jMVtjSF1uYyhzMSlbTkhdQyg9TylbTkhdW0NIMl1DKD1PKU4yW0NIMl1bQ0gyXVtDSDJdW0NIMl0y

> <s_epik_cmdline>
J2VwaWtfcHl0aG9uJywgJy1waCcsICc3LjAnLCAnLXRuJywgJzgnLCAnLW1hJywgJzIwMCcsICctbWV0YWxfYmluZGluZycsICctaW1hZScsICc8aW5maWxlLm1hZT4nLCAnLW9tYWUnLCAnPG91dGZpbGUubWFlPic=

> <r_lp_tautomer_probability>
1

> <r_epik_Ionization_Penalty>
6.8506

> <r_epik_Ionization_Penalty_Charging>
5.74941

> <r_epik_Ionization_Penalty_Neutral>
1.10119

> <r_epik_State_Penalty>
5.74937

> <r_epik_Charging_Adjusted_Penalty>
11.4988

> <i_epik_Tot_Q>
-1

> <i_epik_Tot_abs_Q>
1

> <r_epik_Metal_State_Penalty>
1.72493

> <b_epik_Metal_Only>
1

> <s_lp_Force_Field>
OPLS_2005

> <r_lp_Energy>
20.4432

> <b_lp_Chiralities_Consistent>
1

> <s_lp_Variant>
AV-unprocessed.smi:2711-2

> <Gold.Version>
5.8.1

> <Gold.Id.Protein>
6NUR|6NUR_protein|mol2

> <Gold.PLP.Fitness>
48.0802

> <Gold.PLP.PLP>
-35.5249

> <Gold.PLP.part.hbond>
-5.2929

> <Gold.PLP.part.metal>
0.0000

> <Gold.PLP.part.buried>
-3.2496

> <Gold.PLP.part.nonpolar>
-27.0960

> <Gold.PLP.part.repulsive>
0.1063

> <Gold.PLP.ligand.clash>
0.0000

> <Gold.PLP.ligand.torsion>
0.2878

> <Gold.PLP.Chemscore.Hbond>
4.3622

> <Gold.PLP.Chemscore.CHOScore>
0.0000

> <Gold.PLP.Chemscore.Metal>
0.0000

> <Gold.Chemscore.Hbonds>
donor molecule, donor type, donor heavy atom, donor atom, acceptor molecule, acceptor atom, score
      P1  H  6896  6907       L1     6  1.89
      P1  H  6931  6943       L1     4  1.00
      P1  H  6934  6947       L1     4  0.41
      P1  H  7997  8009       L1    12  1.00

> <Gold.PLP.Chemscore.Internal.Correction>
0.0442

> <Gold.Rescore>
     Score         DG    S(hbond)    S(metal)    S(lipo)     H(rot)  DE(clash)    DE(int)     intcor
     17.87     -19.79       2.67        0.00      74.50       1.31       0.09       1.83       ----

> <Gold.Chemscore.Fitness>
17.8671

> <Gold.Chemscore.DG>
-19.7868

> <Gold.Chemscore.ZeroCoef>
-5.4800

> <Gold.Chemscore.Hbond>
2.6745

> <Gold.Chemscore.Metal>
0.0000

> <Gold.Chemscore.Lipo>
74.4978

> <Gold.Chemscore.Internal_Hbond>
0.0000

> <Gold.Chemscore.DEClash>
0.0945

> <Gold.Chemscore.DEInternal>
1.8252

> <Gold.Chemscore.Rot>
1.3056

> <Gold.Chemscore.Internal.Correction>
   9.000000E+99

> <Gold.Chemscore.Hbonds>
donor molecule, donor type, donor heavy atom, donor atom, acceptor molecule, acceptor atom, score
      P1  H  6896  6907       L1     6  0.40
      P1  H  6931  6943       L1     4  0.78
      P1  H  6934  6947       L1     4  0.05
      P1  H  7997  8009       L1    12  0.39

> <Gold.Chemscore.Hbond.Weighted>
-8.9328

> <Gold.Chemscore.Metal.Weighted>
-0.0000

> <Gold.Chemscore.Lipo.Weighted>
-8.7162

> <Gold.Chemscore.Internal_Hbond.Weighted>
0.0000

> <Gold.Chemscore.DEClash.Weighted>
0.0945

> <Gold.Chemscore.DEInternal.Weighted>
1.8252

> <Gold.Chemscore.Rot.Weighted>
3.3422

> <Gold.Chemscore.Internal.Correction.Weighted>
   9.000000E+99

> <Gold.Protein.RotatedTorsions>
[ 6907 6896 6895 6894 ] final  -35.34 input  -60.11 | X-H torsion
[ 7974 7965 7964 7962 ] final  -94.04 input  175.53 | X-H torsion
[ 8008 7997 7996 7995 ] final  139.60 input   59.86 | X-H torsion
[ 10167 10162 10161 10158 ] final  110.13 input  -65.29 | X-H torsion
[ 10718 10713 10712 10709 ] final   12.39 input   66.30 | X-H torsion
[ 10763 10752 10751 10750 ] final -169.15 input  -60.55 | X-H torsion
[ 11005 11000 10999 10996 ] final   58.36 input  -57.11 | X-H torsion

> <Gold.Protein.ActiveResidues>
 VAL166  LYS551  ARG553  GLY616  TRP617  ASP618  TYR619  PRO620  LYS621  CYS622 
 ASP623  PHE694  ASN695  SER759  ASP760  ASP761  ALA762  ILE779  LEU786  VAL792 
 PHE793  MET794  SER795  GLU796  ALA797  LYS798  CYS799  TRP800  GLU811  SER814 

> <Gold.Protein.RotatedAtoms>
  151.0411  134.9608  159.8161 H   0  0  0  0  0  0  0  0  0  0  0  0  # atno 6907 bound_to 6896
  152.5364  134.2657  159.8962 H   0  0  0  0  0  0  0  0  0  0  0  0  # atno 6908 bound_to 6896
  151.2669  133.4232  159.2653 H   0  0  0  0  0  0  0  0  0  0  0  0  # atno 6909 bound_to 6896
  145.3785  140.9514  143.2407 H   0  0  0  0  0  0  0  0  0  0  0  0  # atno 7974 bound_to 7965
  156.2988  140.2363  156.4264 H   0  0  0  0  0  0  0  0  0  0  0  0  # atno 8008 bound_to 7997
  154.8309  140.0433  157.1496 H   0  0  0  0  0  0  0  0  0  0  0  0  # atno 8009 bound_to 7997
  154.9209  140.3003  155.5220 H   0  0  0  0  0  0  0  0  0  0  0  0  # atno 8010 bound_to 7997
  139.6712  144.7125  151.1684 H   0  0  0  0  0  0  0  0  0  0  0  0  # atno 10167 bound_to 10162
  157.0094  130.6111  149.5706 H   0  0  0  0  0  0  0  0  0  0  0  0  # atno 10718 bound_to 10713
  154.6553  135.2917  154.9935 H   0  0  0  0  0  0  0  0  0  0  0  0  # atno 10763 bound_to 10752
  154.1014  135.6576  153.4873 H   0  0  0  0  0  0  0  0  0  0  0  0  # atno 10764 bound_to 10752
  153.0399  135.5243  154.7480 H   0  0  0  0  0  0  0  0  0  0  0  0  # atno 10765 bound_to 10752
  140.0383  134.5910  155.9415 H   0  0  0  0  0  0  0  0  0  0  0  0  # atno 11005 bound_to 11000
  144.8524  139.5301  143.6850 LP  0  0  0  0  0  0  0  0  0  0  0  0  # atno 17320 bound_to 7965
  146.2853  139.6986  142.9200 LP  0  0  0  0  0  0  0  0  0  0  0  0  # atno 17321 bound_to 7965
  140.7619  143.5841  150.8864 LP  0  0  0  0  0  0  0  0  0  0  0  0  # atno 17342 bound_to 10162
  139.9506  143.6276  152.3030 LP  0  0  0  0  0  0  0  0  0  0  0  0  # atno 17343 bound_to 10162
  156.0141  130.5235  150.8081 LP  0  0  0  0  0  0  0  0  0  0  0  0  # atno 17370 bound_to 10713
  157.5331  131.0937  150.9928 LP  0  0  0  0  0  0  0  0  0  0  0  0  # atno 17371 bound_to 10713
  141.1869  133.6558  156.5260 LP  0  0  0  0  0  0  0  0  0  0  0  0  # atno 17394 bound_to 11000
  140.4111  134.7271  157.4836 LP  0  0  0  0  0  0  0  0  0  0  0  0  # atno 17395 bound_to 11000

$$$$
