#       Name:                AV-unprocessed.smi:3212
#       Creating user name   scv26
#       Creation time:       Fri Mar 27 18:11:50 2020


#       File generated by GOLD software.
#

@<TRIPOS>MOLECULE
AV-unprocessed.smi:3212
    43    43     1
SMALL
NO_CHARGES


@<TRIPOS>ATOM
      1 ****        -0.5155   2.8750   0.8821 C.3            1 S1                 0.0000
      2 ****        -0.0147   1.4889   0.4476 C.3            1 S1                 0.0000
      3 ****         1.4515   1.5232   0.2737 N.3            1 S1                 0.0000
      4 ****         2.1005   0.2604  -0.0833 C.3            1 S1                 0.0000
      5 ****         1.6602  -0.2935  -1.4542 C.3            1 S1                 0.0000
      6 ****         1.9585   0.6153  -2.5462 N.pl3          1 S1                 0.0000
      7 ****         1.0873   1.4046  -3.2669 C.2            1 S1                 0.0000
      8 ****         1.8263   2.0856  -4.1911 C.2            1 S1                 0.0000
      9 ****         3.1567   1.6397  -3.9552 C.2            1 S1                 0.0000
     10 ****         3.2322   0.7569  -2.9725 N.2            1 S1                 0.0000
     11 ****        -0.4922   0.4094   1.4327 C.2            1 S1                 0.0000
     12 ****        -0.1870   0.4862   2.6227 O.2            1 S1                 0.0000
     13 ****        -1.2093  -0.5984   0.9044 N.am           1 S1                 0.0000
     14 ****        -1.7500  -1.7857   1.5753 C.3            1 S1                 0.0000
     15 ****        -2.5058  -2.5948   0.5068 C.3            1 S1                 0.0000
     16 ****        -2.7369  -1.3854   2.6923 C.3            1 S1                 0.0000
     17 ****        -0.6051  -2.6502   2.1434 C.3            1 S1                 0.0000
     18 ****        -1.5994   2.8859   1.0031 H              1 S1                 0.0000
     19 ****        -0.2646   3.6308   0.1369 H              1 S1                 0.0000
     20 ****        -0.0717   3.1857   1.8289 H              1 S1                 0.0000
     21 ****        -0.4647   1.2835  -0.5245 H              1 S1                 0.0000
     22 ****         1.9008   1.8959   1.0981 H              1 S1                 0.0000
     23 ****         3.1753   0.4434  -0.1029 H              1 S1                 0.0000
     24 ****         1.9485  -0.4878   0.6948 H              1 S1                 0.0000
     25 ****         2.1739  -1.2359  -1.6481 H              1 S1                 0.0000
     26 ****         0.5954  -0.5256  -1.4675 H              1 S1                 0.0000
     27 ****         0.0269   1.4176  -3.0620 H              1 S1                 0.0000
     28 ****         1.4712   2.7953  -4.9233 H              1 S1                 0.0000
     29 ****         4.0634   1.9279  -4.4662 H              1 S1                 0.0000
     30 ****        -1.3874  -0.5457  -0.0879 H              1 S1                 0.0000
     31 ****        -2.9387  -3.5031   0.9276 H              1 S1                 0.0000
     32 ****        -1.8443  -2.8948  -0.3071 H              1 S1                 0.0000
     33 ****        -3.3209  -2.0153   0.0714 H              1 S1                 0.0000
     34 ****        -3.5265  -0.7371   2.3109 H              1 S1                 0.0000
     35 ****        -2.2435  -0.8586   3.5091 H              1 S1                 0.0000
     36 ****        -3.2154  -2.2645   3.1253 H              1 S1                 0.0000
     37 ****        -0.9879  -3.5796   2.5660 H              1 S1                 0.0000
     38 ****        -0.0608  -2.1389   2.9373 H              1 S1                 0.0000
     39 ****         0.1149  -2.9146   1.3680 H              1 S1                 0.0000
     40 ****         1.5720   2.1183  -0.5208 LP             1 S1                 0.0000
     41 ****         4.0491   0.2975  -2.6237 LP             1 S1                 0.0000
     42 ****         0.3708   1.2499   2.9476 LP             1 S1                 0.0000
     43 ****        -0.4969  -0.2152   3.2646 LP             1 S1                 0.0000
@<TRIPOS>BOND
    1    1    2 1     
    2    1   18 1     
    3    1   19 1     
    4    1   20 1     
    5    2    3 1     
    6    2   11 1     
    7    2   21 1     
    8    3    4 1     
    9    3   22 1     
   10    4    5 1     
   11    4   23 1     
   12    4   24 1     
   13    5    6 1     
   14    5   25 1     
   15    5   26 1     
   16    6   10 1     
   17    6    7 1     
   18    7    8 2     
   19    7   27 1     
   20    8    9 1     
   21    8   28 1     
   22    9   10 2     
   23    9   29 1     
   24   11   12 2     
   25   11   13 am    
   26   13   14 1     
   27   13   30 1     
   28   14   15 1     
   29   14   16 1     
   30   14   17 1     
   31   15   31 1     
   32   15   32 1     
   33   15   33 1     
   34   16   34 1     
   35   16   35 1     
   36   16   36 1     
   37   17   37 1     
   38   17   38 1     
   39   17   39 1     
   40    3   40 1     
   41   10   41 1     
   42   12   42 1     
   43   12   43 1     
@<TRIPOS>SUBSTRUCTURE
      1 S1             1
@<TRIPOS>SET
LONE_PAIRS      STATIC     ATOMS    <user>   **** ""
4 40 41 42 43
DONOR_HYDROGENS      STATIC     ATOMS    <user>   **** ""
2 22 30
ATOM$BLUE        STATIC     ATOMS    COLORGROUP SYSTEM
4 40 41 42 43
ATOM$RED        STATIC     ATOMS    COLORGROUP SYSTEM
2 22 30
