AV-unprocessed.smi:276|AV-procd|sdf|2074|dock10
  -GOLD-   2262021333D 1   1.00000     0.00000
 Structure written by MMmdl.
 57 61  0  0  0  0  0  0  0  0  1 V2000
  146.0540  130.1582  151.6761 C   0  0  0  0  0  0  0  0  0  0  0  0
  146.8942  131.1556  152.2292 O   0  0  0  0  0  0  0  0  0  0  0  0
  146.2971  132.4425  152.2132 C   0  0  2  0  0  0  0  0  0  0  0  0
  146.4043  133.1789  150.8716 C   0  0  0  0  0  0  0  0  0  0  0  0
  146.7003  134.4727  151.6566 C   0  0  1  0  0  0  0  0  0  0  0  0
  145.4707  135.2342  151.9218 N   0  0  0  0  0  0  0  0  0  0  0  0
  144.7584  135.7266  150.7470 C   0  0  0  0  0  0  0  0  0  0  0  0
  145.5888  136.2302  152.8268 C   0  0  0  0  0  0  0  0  0  0  0  0
  145.1557  135.9743  154.0861 N   0  0  0  0  0  0  0  0  0  0  0  0
  145.2535  136.9158  155.0294 C   0  0  0  0  0  0  0  0  0  0  0  0
  145.7338  138.1567  154.9245 N   0  0  0  0  0  0  0  0  0  0  0  0
  146.1521  138.4215  153.6536 C   0  0  0  0  0  0  0  0  0  0  0  0
  146.1161  137.5239  152.5502 C   0  0  0  0  0  0  0  0  0  0  0  0
  146.6229  138.1469  151.4159 N   0  0  0  0  0  0  0  0  0  0  0  0
  146.9395  139.3448  151.8251 C   0  0  0  0  0  0  0  0  0  0  0  0
  146.6806  139.5979  153.1531 N   0  0  0  0  0  0  0  0  0  0  0  0
  146.9201  140.8405  153.8644 C   0  0  0  0  0  0  0  0  0  0  0  0
  148.4152  141.2178  153.9513 C   0  0  1  0  0  0  0  0  0  0  0  0
  148.4783  142.6159  154.1505 O   0  0  0  0  0  0  0  0  0  0  0  0
  149.1983  140.5126  155.0827 C   0  0  2  0  0  0  0  0  0  0  0  0
  149.0185  141.1570  156.4614 C   0  0  0  0  0  0  0  0  0  0  0  0
  150.2936  140.7611  157.1680 C   0  0  0  0  0  0  0  0  0  0  0  0
  151.3115  140.8921  156.0432 C   0  0  0  0  0  0  0  0  0  0  0  0
  150.6069  140.5642  154.8504 O   0  0  0  0  0  0  0  0  0  0  0  0
  147.1847  133.5502  152.8090 C   0  0  0  0  0  0  0  0  0  0  0  0
  148.6933  133.3030  152.9968 C   0  0  0  0  0  0  0  0  0  0  0  0
  148.4134  133.0550  154.4815 C   0  0  0  0  0  0  0  0  0  0  0  0
  147.1406  133.8874  154.3115 C   0  0  0  0  0  0  0  0  0  0  0  0
  146.5551  129.1916  151.7235 H   0  0  0  0  0  0  0  0  0  0  0  0
  145.8250  130.3668  150.6304 H   0  0  0  0  0  0  0  0  0  0  0  0
  145.1182  130.0797  152.2306 H   0  0  0  0  0  0  0  0  0  0  0  0
  145.2882  132.4616  152.6312 H   0  0  0  0  0  0  0  0  0  0  0  0
  147.2599  132.8474  150.2807 H   0  0  0  0  0  0  0  0  0  0  0  0
  145.4905  133.1618  150.2784 H   0  0  0  0  0  0  0  0  0  0  0  0
  147.4982  135.0593  151.2008 H   0  0  0  0  0  0  0  0  0  0  0  0
  143.9962  136.4621  151.0110 H   0  0  0  0  0  0  0  0  0  0  0  0
  144.2514  134.9104  150.2338 H   0  0  0  0  0  0  0  0  0  0  0  0
  145.4508  136.1933  150.0451 H   0  0  0  0  0  0  0  0  0  0  0  0
  144.8956  136.6347  156.0088 H   0  0  0  0  0  0  0  0  0  0  0  0
  147.3630  140.0844  151.1615 H   0  0  0  0  0  0  0  0  0  0  0  0
  146.3616  141.6291  153.3582 H   0  0  0  0  0  0  0  0  0  0  0  0
  146.4958  140.7510  154.8656 H   0  0  0  0  0  0  0  0  0  0  0  0
  148.8992  141.0043  152.9979 H   0  0  0  0  0  0  0  0  0  0  0  0
  148.5989  142.7821  155.0727 H   0  0  0  0  0  0  0  0  0  0  0  0
  148.9111  139.4614  155.1414 H   0  0  0  0  0  0  0  0  0  0  0  0
  148.9671  142.2434  156.3748 H   0  0  0  0  0  0  0  0  0  0  0  0
  148.1215  140.8139  156.9778 H   0  0  0  0  0  0  0  0  0  0  0  0
  150.5233  141.3912  158.0277 H   0  0  0  0  0  0  0  0  0  0  0  0
  150.2319  139.7255  157.5050 H   0  0  0  0  0  0  0  0  0  0  0  0
  151.6626  141.9217  155.9640 H   0  0  0  0  0  0  0  0  0  0  0  0
  152.1784  140.2465  156.1855 H   0  0  0  0  0  0  0  0  0  0  0  0
  149.1036  132.4484  152.4580 H   0  0  0  0  0  0  0  0  0  0  0  0
  149.2898  134.2014  152.8287 H   0  0  0  0  0  0  0  0  0  0  0  0
  148.2065  132.0070  154.7050 H   0  0  0  0  0  0  0  0  0  0  0  0
  149.1503  133.4791  155.1638 H   0  0  0  0  0  0  0  0  0  0  0  0
  147.3247  134.9382  154.5363 H   0  0  0  0  0  0  0  0  0  0  0  0
  146.2688  133.5067  154.8440 H   0  0  0  0  0  0  0  0  0  0  0  0
  1  2  1  0  0  0  0
  1 29  1  0  0  0  0
  1 30  1  0  0  0  0
  1 31  1  0  0  0  0
  2  3  1  0  0  0  0
  3 25  1  0  0  0  0
  3  4  1  0  0  0  0
  3 32  1  0  0  0  0
  4  5  1  0  0  0  0
  4 33  1  0  0  0  0
  4 34  1  0  0  0  0
  5  6  1  0  0  0  0
  5 25  1  0  0  0  0
  5 35  1  0  0  0  0
  6  7  1  0  0  0  0
  6  8  1  0  0  0  0
  7 36  1  0  0  0  0
  7 37  1  0  0  0  0
  7 38  1  0  0  0  0
  8 13  1  0  0  0  0
  8  9  2  0  0  0  0
  9 10  1  0  0  0  0
 10 11  2  0  0  0  0
 10 39  1  0  0  0  0
 11 12  1  0  0  0  0
 12 16  1  0  0  0  0
 12 13  2  0  0  0  0
 13 14  1  0  0  0  0
 14 15  2  0  0  0  0
 15 16  1  0  0  0  0
 15 40  1  0  0  0  0
 16 17  1  0  0  0  0
 17 18  1  0  0  0  0
 17 41  1  0  0  0  0
 17 42  1  0  0  0  0
 18 19  1  0  0  0  0
 18 20  1  0  0  0  0
 18 43  1  0  0  0  0
 19 44  1  0  0  0  0
 20 24  1  0  0  0  0
 20 21  1  0  0  0  0
 20 45  1  0  0  0  0
 21 22  1  0  0  0  0
 21 46  1  0  0  0  0
 21 47  1  0  0  0  0
 22 23  1  0  0  0  0
 22 48  1  0  0  0  0
 22 49  1  0  0  0  0
 23 24  1  0  0  0  0
 23 50  1  0  0  0  0
 23 51  1  0  0  0  0
 25 28  1  0  0  0  0
 25 26  1  0  0  0  0
 26 27  1  0  0  0  0
 26 52  1  0  0  0  0
 26 53  1  0  0  0  0
 27 28  1  0  0  0  0
 27 54  1  0  0  0  0
 27 55  1  0  0  0  0
 28 56  1  0  0  0  0
 28 57  1  0  0  0  0
M  END
> <s_m_source_file>
AV-unprocessed.smi

> <i_m_source_file_index>
276

> <i_lp_mmshare_version>
43012

> <i_f3d_flags>
0

> <s_epik_input>
W0NIMl0xW0NIMl1bQ0gyXUMxMltDQEhdKE9bQ0gzXSlbQ0gyXVtDQEhdMk4oW0NIM10pYyhuW2NIXW4zKWMoYzM0KW5bY0hdbjRbQ0gyXVtDQEhdKFtPSF0pW0NAQEhdNVtDSDJdW0NIMl1bQ0gyXU81

> <s_epik_cmdline>
J2VwaWtfcHl0aG9uJywgJy1waCcsICc3LjAnLCAnLXRuJywgJzgnLCAnLW1hJywgJzIwMCcsICctbWV0YWxfYmluZGluZycsICctaW1hZScsICc8aW5maWxlLm1hZT4nLCAnLW9tYWUnLCAnPG91dGZpbGUubWFlPic=

> <r_lp_tautomer_probability>
1

> <r_epik_Ionization_Penalty>
0.00204117

> <r_epik_Ionization_Penalty_Charging>
0

> <r_epik_Ionization_Penalty_Neutral>
0.00204117

> <r_epik_State_Penalty>
0.00127401

> <r_epik_Charging_Adjusted_Penalty>
0.00127401

> <i_epik_Tot_Q>
0

> <i_epik_Tot_abs_Q>
0

> <r_epik_Metal_State_Penalty>
-0

> <b_epik_Metal_Only>
0

> <s_lp_Force_Field>
OPLS_2005

> <r_lp_Energy>
56.3497

> <b_lp_Chiralities_Consistent>
1

> <s_lp_Variant>
AV-unprocessed.smi:276-5

> <Gold.Version>
5.8.1

> <Gold.Id.Protein>
6NUR|6NUR_protein|mol2

> <Gold.PLP.Fitness>
47.1432

> <Gold.PLP.PLP>
-39.7255

> <Gold.PLP.part.hbond>
-4.2610

> <Gold.PLP.part.metal>
0.0000

> <Gold.PLP.part.buried>
2.7647

> <Gold.PLP.part.nonpolar>
-38.5594

> <Gold.PLP.part.repulsive>
2.8734

> <Gold.PLP.ligand.clash>
0.0000

> <Gold.PLP.ligand.torsion>
1.2339

> <Gold.PLP.Chemscore.Hbond>
2.3574

> <Gold.PLP.Chemscore.CHOScore>
0.7076

> <Gold.PLP.Chemscore.Metal>
0.0000

> <Gold.Chemscore.Hbonds>
donor molecule, donor type, donor heavy atom, donor atom, acceptor molecule, acceptor atom, score
      L1  H    19    44       P1  8028  0.34
      P1  H  7954  7966       L1    14  0.59
      P1  H  7989  7998       L1    24  0.99
      P1  H  8022  8030       L1    19  0.39
      L1  C    15    40       P1  7957  0.67

> <Gold.PLP.Chemscore.Internal.Correction>
0.6906

> <Gold.Rescore>
     Score         DG    S(hbond)    S(metal)    S(lipo)     H(rot)  DE(clash)    DE(int)     intcor
      9.42     -12.80       1.15        0.00      89.04       2.72       1.08       2.29       ----

> <Gold.Chemscore.Fitness>
9.4208

> <Gold.Chemscore.DG>
-12.7983

> <Gold.Chemscore.ZeroCoef>
-5.4800

> <Gold.Chemscore.Hbond>
1.1548

> <Gold.Chemscore.Metal>
0.0000

> <Gold.Chemscore.Lipo>
89.0361

> <Gold.Chemscore.Internal_Hbond>
0.0000

> <Gold.Chemscore.DEClash>
1.0843

> <Gold.Chemscore.DEInternal>
2.2932

> <Gold.Chemscore.Rot>
2.7172

> <Gold.Chemscore.Internal.Correction>
   9.000000E+99

> <Gold.Chemscore.Hbonds>
donor molecule, donor type, donor heavy atom, donor atom, acceptor molecule, acceptor atom, score
      L1  H    19    44       P1  8028  0.32
      P1  H  7954  7966       L1    14  0.13
      P1  H  7989  7998       L1    24  0.66
      P1  H  8022  8030       L1    19  0.04

> <Gold.Chemscore.Hbond.Weighted>
-3.8571

> <Gold.Chemscore.Metal.Weighted>
-0.0000

> <Gold.Chemscore.Lipo.Weighted>
-10.4172

> <Gold.Chemscore.Internal_Hbond.Weighted>
0.0000

> <Gold.Chemscore.DEClash.Weighted>
1.0843

> <Gold.Chemscore.DEInternal.Weighted>
2.2932

> <Gold.Chemscore.Rot.Weighted>
6.9560

> <Gold.Chemscore.Internal.Correction.Weighted>
   9.000000E+99

> <Gold.Protein.RotatedTorsions>
[ 6907 6896 6895 6894 ] final  177.17 input  -60.11 | X-H torsion
[ 7974 7965 7964 7962 ] final   17.54 input  175.53 | X-H torsion
[ 8008 7997 7996 7995 ] final  -15.14 input   59.86 | X-H torsion
[ 10167 10162 10161 10158 ] final  -27.92 input  -65.29 | X-H torsion
[ 10718 10713 10712 10709 ] final  -87.41 input   66.30 | X-H torsion
[ 10763 10752 10751 10750 ] final  169.71 input  -60.55 | X-H torsion
[ 11005 11000 10999 10996 ] final   77.81 input  -57.11 | X-H torsion

> <Gold.Protein.ActiveResidues>
 VAL166  LYS551  ARG553  GLY616  TRP617  ASP618  TYR619  PRO620  LYS621  CYS622 
 ASP623  PHE694  ASN695  SER759  ASP760  ASP761  ALA762  ILE779  LEU786  VAL792 
 PHE793  MET794  SER795  GLU796  ALA797  LYS798  CYS799  TRP800  GLU811  SER814 

> <Gold.Protein.RotatedAtoms>
  151.7083  133.3312  159.3283 H   0  0  0  0  0  0  0  0  0  0  0  0  # atno 6907 bound_to 6896
  150.7705  134.6555  159.6320 H   0  0  0  0  0  0  0  0  0  0  0  0  # atno 6908 bound_to 6896
  152.3727  134.6712  160.0222 H   0  0  0  0  0  0  0  0  0  0  0  0  # atno 6909 bound_to 6896
  146.2215  139.8587  142.8609 H   0  0  0  0  0  0  0  0  0  0  0  0  # atno 7974 bound_to 7965
  154.5154  140.2204  155.9076 H   0  0  0  0  0  0  0  0  0  0  0  0  # atno 8008 bound_to 7997
  156.1601  140.3144  155.8758 H   0  0  0  0  0  0  0  0  0  0  0  0  # atno 8009 bound_to 7997
  155.3768  140.0470  157.3035 H   0  0  0  0  0  0  0  0  0  0  0  0  # atno 8010 bound_to 7997
  140.7274  143.4053  151.1196 H   0  0  0  0  0  0  0  0  0  0  0  0  # atno 10167 bound_to 10162
  155.9985  130.4799  150.4863 H   0  0  0  0  0  0  0  0  0  0  0  0  # atno 10718 bound_to 10713
  154.3871  135.2754  155.2177 H   0  0  0  0  0  0  0  0  0  0  0  0  # atno 10763 bound_to 10752
  154.4259  135.5989  153.6042 H   0  0  0  0  0  0  0  0  0  0  0  0  # atno 10764 bound_to 10752
  152.9833  135.5984  154.4121 H   0  0  0  0  0  0  0  0  0  0  0  0  # atno 10765 bound_to 10752
  139.9239  134.7713  156.1569 H   0  0  0  0  0  0  0  0  0  0  0  0  # atno 11005 bound_to 11000
  145.2726  141.0113  143.3763 LP  0  0  0  0  0  0  0  0  0  0  0  0  # atno 17320 bound_to 7965
  144.9211  139.4410  143.6540 LP  0  0  0  0  0  0  0  0  0  0  0  0  # atno 17321 bound_to 7965
  139.7679  143.8538  152.3114 LP  0  0  0  0  0  0  0  0  0  0  0  0  # atno 17342 bound_to 10162
  139.8446  144.7193  150.9288 LP  0  0  0  0  0  0  0  0  0  0  0  0  # atno 17343 bound_to 10162
  157.2863  131.0617  151.2164 LP  0  0  0  0  0  0  0  0  0  0  0  0  # atno 17370 bound_to 10713
  157.3193  130.6929  149.6260 LP  0  0  0  0  0  0  0  0  0  0  0  0  # atno 17371 bound_to 10713
  141.0781  133.6766  156.2279 LP  0  0  0  0  0  0  0  0  0  0  0  0  # atno 17394 bound_to 11000
  140.6394  134.5182  157.5568 LP  0  0  0  0  0  0  0  0  0  0  0  0  # atno 17395 bound_to 11000

$$$$
