AV-unprocessed.smi:244|AV-procd|sdf|1871|dock8
  -GOLD-   2262020513D 1   1.00000     0.00000
 Structure written by MMmdl.
 57 61  0  0  0  0  0  0  0  0  2 V2000
  150.7677  144.5831  158.8647 C   0  0  0  0  0  0  0  0  0  0  0  0
  149.4178  144.7097  159.4552 N   0  3  2  0  0  0  0  0  0  0  0  0
  149.4612  145.1569  160.8700 C   0  0  0  0  0  0  0  0  0  0  0  0
  148.0448  145.3863  161.4220 C   0  0  0  0  0  0  0  0  0  0  0  0
  147.1985  144.1169  161.2680 C   0  0  1  0  0  0  0  0  0  0  0  0
  145.8748  144.3637  161.7284 O   0  0  0  0  0  0  0  0  0  0  0  0
  145.0682  143.1920  161.6643 C   0  0  0  0  0  0  0  0  0  0  0  0
  144.9726  142.7149  160.2059 C   0  0  0  0  0  0  0  0  0  0  0  0
  146.3062  142.5089  159.6470 N   0  0  0  0  0  0  0  0  0  0  0  0
  146.2654  141.9803  158.4034 C   0  0  0  0  0  0  0  0  0  0  0  0
  146.8132  142.6528  157.3572 N   0  0  0  0  0  0  0  0  0  0  0  0
  146.7891  142.1139  156.1342 C   0  0  0  0  0  0  0  0  0  0  0  0
  146.2904  140.9364  155.7502 N   0  0  0  0  0  0  0  0  0  0  0  0
  145.7496  140.2583  156.8034 C   0  0  0  0  0  0  0  0  0  0  0  0
  145.6927  140.7074  158.1515 C   0  0  0  0  0  0  0  0  0  0  0  0
  145.0729  139.7551  158.9491 N   0  0  0  0  0  0  0  0  0  0  0  0
  144.7731  138.7956  158.1160 C   0  0  0  0  0  0  0  0  0  0  0  0
  145.1600  139.0064  156.8107 N   0  0  0  0  0  0  0  0  0  0  0  0
  144.9618  138.1044  155.6866 C   0  0  0  0  0  0  0  0  0  0  0  0
  143.5378  138.1431  155.0751 C   0  0  0  0  0  0  0  0  0  0  0  0
  143.2756  139.5126  154.8269 O   0  0  0  0  0  0  0  0  0  0  0  0
  143.4334  137.3767  153.7386 C   0  0  0  0  0  0  0  0  0  0  0  0
  141.9909  137.3539  153.2016 C   0  0  0  0  0  0  0  0  0  0  0  0
  141.1165  136.8020  154.1791 O   0  0  0  0  0  0  0  0  0  0  0  0
  141.0656  137.5722  155.3745 C   0  0  0  0  0  0  0  0  0  0  0  0
  142.4547  137.6079  156.0372 C   0  0  0  0  0  0  0  0  0  0  0  0
  147.1585  143.6924  159.7844 C   0  0  2  0  0  0  0  0  0  0  0  0
  148.6050  143.4798  159.2756 C   0  0  0  0  0  0  0  0  0  0  0  0
  151.3445  143.8064  159.3685 H   0  0  0  0  0  0  0  0  0  0  0  0
  151.3137  145.5234  158.9481 H   0  0  0  0  0  0  0  0  0  0  0  0
  150.7039  144.3299  157.8061 H   0  0  0  0  0  0  0  0  0  0  0  0
  149.9826  144.4114  161.4728 H   0  0  0  0  0  0  0  0  0  0  0  0
  150.0345  146.0819  160.9437 H   0  0  0  0  0  0  0  0  0  0  0  0
  148.0958  145.6769  162.4717 H   0  0  0  0  0  0  0  0  0  0  0  0
  147.5716  146.2141  160.8921 H   0  0  0  0  0  0  0  0  0  0  0  0
  147.6433  143.3236  161.8728 H   0  0  0  0  0  0  0  0  0  0  0  0
  145.4853  142.4118  162.3029 H   0  0  0  0  0  0  0  0  0  0  0  0
  144.0752  143.4223  162.0503 H   0  0  0  0  0  0  0  0  0  0  0  0
  144.4019  141.7865  160.1554 H   0  0  0  0  0  0  0  0  0  0  0  0
  144.4332  143.4573  159.6158 H   0  0  0  0  0  0  0  0  0  0  0  0
  147.2364  142.7095  155.3519 H   0  0  0  0  0  0  0  0  0  0  0  0
  144.2679  137.8953  158.4347 H   0  0  0  0  0  0  0  0  0  0  0  0
  145.7024  138.3528  154.9247 H   0  0  0  0  0  0  0  0  0  0  0  0
  145.2001  137.0928  156.0193 H   0  0  0  0  0  0  0  0  0  0  0  0
  143.2065  139.6415  153.8932 H   0  0  0  0  0  0  0  0  0  0  0  0
  144.1054  137.8072  152.9952 H   0  0  0  0  0  0  0  0  0  0  0  0
  143.7511  136.3436  153.8787 H   0  0  0  0  0  0  0  0  0  0  0  0
  141.6575  138.3543  152.9213 H   0  0  0  0  0  0  0  0  0  0  0  0
  141.9387  136.7416  152.3013 H   0  0  0  0  0  0  0  0  0  0  0  0
  140.7040  138.5787  155.1584 H   0  0  0  0  0  0  0  0  0  0  0  0
  140.3426  137.1174  156.0518 H   0  0  0  0  0  0  0  0  0  0  0  0
  142.7005  136.5917  156.3438 H   0  0  0  0  0  0  0  0  0  0  0  0
  142.4215  138.2054  156.9492 H   0  0  0  0  0  0  0  0  0  0  0  0
  146.7047  144.4994  159.2060 H   0  0  0  0  0  0  0  0  0  0  0  0
  148.6024  143.2257  158.2150 H   0  0  0  0  0  0  0  0  0  0  0  0
  149.0754  142.6470  159.8012 H   0  0  0  0  0  0  0  0  0  0  0  0
  148.9481  145.4397  158.9386 H   0  0  0  0  0  0  0  0  0  0  0  0
  1  2  1  0  0  0  0
  1 29  1  0  0  0  0
  1 30  1  0  0  0  0
  1 31  1  0  0  0  0
  2 28  1  0  0  0  0
  2  3  1  0  0  0  0
  2 57  1  0  0  0  0
  3  4  1  0  0  0  0
  3 32  1  0  0  0  0
  3 33  1  0  0  0  0
  4  5  1  0  0  0  0
  4 34  1  0  0  0  0
  4 35  1  0  0  0  0
  5 27  1  0  0  0  0
  5  6  1  0  0  0  0
  5 36  1  0  0  0  0
  6  7  1  0  0  0  0
  7  8  1  0  0  0  0
  7 37  1  0  0  0  0
  7 38  1  0  0  0  0
  8  9  1  0  0  0  0
  8 39  1  0  0  0  0
  8 40  1  0  0  0  0
  9 10  1  0  0  0  0
  9 27  1  0  0  0  0
 10 15  1  0  0  0  0
 10 11  2  0  0  0  0
 11 12  1  0  0  0  0
 12 13  2  0  0  0  0
 12 41  1  0  0  0  0
 13 14  1  0  0  0  0
 14 18  1  0  0  0  0
 14 15  2  0  0  0  0
 15 16  1  0  0  0  0
 16 17  2  0  0  0  0
 17 18  1  0  0  0  0
 17 42  1  0  0  0  0
 18 19  1  0  0  0  0
 19 20  1  0  0  0  0
 19 43  1  0  0  0  0
 19 44  1  0  0  0  0
 20 26  1  0  0  0  0
 20 21  1  0  0  0  0
 20 22  1  0  0  0  0
 21 45  1  0  0  0  0
 22 23  1  0  0  0  0
 22 46  1  0  0  0  0
 22 47  1  0  0  0  0
 23 24  1  0  0  0  0
 23 48  1  0  0  0  0
 23 49  1  0  0  0  0
 24 25  1  0  0  0  0
 25 26  1  0  0  0  0
 25 50  1  0  0  0  0
 25 51  1  0  0  0  0
 26 52  1  0  0  0  0
 26 53  1  0  0  0  0
 27 28  1  0  0  0  0
 27 54  1  0  0  0  0
 28 55  1  0  0  0  0
 28 56  1  0  0  0  0
M  CHG  1   2   1
M  END
> <s_m_source_file>
AV-unprocessed.smi

> <i_m_source_file_index>
244

> <i_lp_mmshare_version>
43012

> <i_f3d_flags>
0

> <s_epik_input>
W0NIMl0xW0NIMl1OKFtDSDNdKVtDSDJdW0NAQEhdKFtDQEhdMTIpTihbQ0gyXVtDSDJdTzIpYyhuW2NIXW4zKWMoYzM0KW5bY0hdbjRbQ0gyXUM1KFtPSF0pW0NIMl1bQ0gyXU9bQ0gyXVtDSDJdNQ==

> <s_epik_cmdline>
J2VwaWtfcHl0aG9uJywgJy1waCcsICc3LjAnLCAnLXRuJywgJzgnLCAnLW1hJywgJzIwMCcsICctbWV0YWxfYmluZGluZycsICctaW1hZScsICc8aW5maWxlLm1hZT4nLCAnLW9tYWUnLCAnPG91dGZpbGUubWFlPic=

> <r_lp_tautomer_probability>
1

> <r_epik_Ionization_Penalty>
0.0136215

> <r_epik_Ionization_Penalty_Charging>
0.0131385

> <r_epik_Ionization_Penalty_Neutral>
0.000483022

> <r_epik_State_Penalty>
0.0104001

> <r_epik_Charging_Adjusted_Penalty>
0.0235387

> <i_epik_Tot_Q>
1

> <i_epik_Tot_abs_Q>
1

> <r_epik_Metal_State_Penalty>
0.0104469

> <b_epik_Metal_Only>
0

> <s_lp_Force_Field>
OPLS_2005

> <r_lp_Energy>
42.2984

> <b_lp_Chiralities_Consistent>
1

> <s_lp_Variant>
AV-unprocessed.smi:244-8

> <Gold.Version>
5.8.1

> <Gold.Id.Protein>
6NUR|6NUR_protein|mol2

> <Gold.PLP.Fitness>
40.3947

> <Gold.PLP.PLP>
-27.3487

> <Gold.PLP.part.hbond>
-3.5519

> <Gold.PLP.part.metal>
0.0000

> <Gold.PLP.part.buried>
-4.7190

> <Gold.PLP.part.nonpolar>
-20.6750

> <Gold.PLP.part.repulsive>
0.5963

> <Gold.PLP.ligand.clash>
0.0000

> <Gold.PLP.ligand.torsion>
0.4527

> <Gold.PLP.Chemscore.Hbond>
3.8143

> <Gold.PLP.Chemscore.CHOScore>
0.7986

> <Gold.PLP.Chemscore.Metal>
0.0000

> <Gold.Chemscore.Hbonds>
donor molecule, donor type, donor heavy atom, donor atom, acceptor molecule, acceptor atom, score
      L1  H     2    57       P1  8029  1.92
      L1  H    21    45       P1 10175  1.00
      P1  H  6934  6946       L1     9  0.94
      L1  C    12    41       P1  8028  0.82

> <Gold.PLP.Chemscore.Internal.Correction>
0.1127

> <Gold.Rescore>
     Score         DG    S(hbond)    S(metal)    S(lipo)     H(rot)  DE(clash)    DE(int)     intcor
     11.19     -13.12       1.91        0.00      56.57       2.09       0.02       1.92       ----

> <Gold.Chemscore.Fitness>
11.1853

> <Gold.Chemscore.DG>
-13.1176

> <Gold.Chemscore.ZeroCoef>
-5.4800

> <Gold.Chemscore.Hbond>
1.9079

> <Gold.Chemscore.Metal>
0.0000

> <Gold.Chemscore.Lipo>
56.5674

> <Gold.Chemscore.Internal_Hbond>
0.0000

> <Gold.Chemscore.DEClash>
0.0154

> <Gold.Chemscore.DEInternal>
1.9169

> <Gold.Chemscore.Rot>
2.0911

> <Gold.Chemscore.Internal.Correction>
   9.000000E+99

> <Gold.Chemscore.Hbonds>
donor molecule, donor type, donor heavy atom, donor atom, acceptor molecule, acceptor atom, score
      L1  H     2    57       P1  8029  0.86
      L1  H    21    45       P1 10175  0.95
      P1  H  6934  6946       L1     9  0.06

> <Gold.Chemscore.Hbond.Weighted>
-6.3724

> <Gold.Chemscore.Metal.Weighted>
-0.0000

> <Gold.Chemscore.Lipo.Weighted>
-6.6184

> <Gold.Chemscore.Internal_Hbond.Weighted>
0.0000

> <Gold.Chemscore.DEClash.Weighted>
0.0154

> <Gold.Chemscore.DEInternal.Weighted>
1.9169

> <Gold.Chemscore.Rot.Weighted>
5.3531

> <Gold.Chemscore.Internal.Correction.Weighted>
   9.000000E+99

> <Gold.Protein.RotatedTorsions>
[ 6907 6896 6895 6894 ] final  -42.21 input  -60.11 | X-H torsion
[ 7974 7965 7964 7962 ] final  125.46 input  175.53 | X-H torsion
[ 8008 7997 7996 7995 ] final   64.28 input   59.86 | X-H torsion
[ 10167 10162 10161 10158 ] final   10.56 input  -65.29 | X-H torsion
[ 10718 10713 10712 10709 ] final  106.10 input   66.30 | X-H torsion
[ 10763 10752 10751 10750 ] final   50.89 input  -60.55 | X-H torsion
[ 11005 11000 10999 10996 ] final  131.12 input  -57.11 | X-H torsion

> <Gold.Protein.ActiveResidues>
 VAL166  LYS551  ARG553  GLY616  TRP617  ASP618  TYR619  PRO620  LYS621  CYS622 
 ASP623  PHE694  ASN695  SER759  ASP760  ASP761  ALA762  ILE779  LEU786  VAL792 
 PHE793  MET794  SER795  GLU796  ALA797  LYS798  CYS799  TRP800  GLU811  SER814 

> <Gold.Protein.RotatedAtoms>
  150.9578  134.8970  159.7711 H   0  0  0  0  0  0  0  0  0  0  0  0  # atno 6907 bound_to 6896
  152.5144  134.3715  159.9330 H   0  0  0  0  0  0  0  0  0  0  0  0  # atno 6908 bound_to 6896
  151.3729  133.3808  159.2736 H   0  0  0  0  0  0  0  0  0  0  0  0  # atno 6909 bound_to 6896
  145.0727  139.3717  143.4949 H   0  0  0  0  0  0  0  0  0  0  0  0  # atno 7974 bound_to 7965
  155.6435  140.3497  155.4723 H   0  0  0  0  0  0  0  0  0  0  0  0  # atno 8008 bound_to 7997
  155.9906  140.1193  157.0665 H   0  0  0  0  0  0  0  0  0  0  0  0  # atno 8009 bound_to 7997
  154.4218  140.1120  156.5547 H   0  0  0  0  0  0  0  0  0  0  0  0  # atno 8010 bound_to 7997
  140.6186  143.8253  150.7148 H   0  0  0  0  0  0  0  0  0  0  0  0  # atno 10167 bound_to 10162
  157.6681  131.0843  150.5957 H   0  0  0  0  0  0  0  0  0  0  0  0  # atno 10718 bound_to 10713
  152.9784  135.5864  154.4327 H   0  0  0  0  0  0  0  0  0  0  0  0  # atno 10763 bound_to 10752
  154.3938  135.2768  155.2140 H   0  0  0  0  0  0  0  0  0  0  0  0  # atno 10764 bound_to 10752
  154.4001  135.6105  153.5946 H   0  0  0  0  0  0  0  0  0  0  0  0  # atno 10765 bound_to 10752
  139.9712  134.9577  156.9393 H   0  0  0  0  0  0  0  0  0  0  0  0  # atno 11005 bound_to 11000
  146.3529  140.0480  142.8638 LP  0  0  0  0  0  0  0  0  0  0  0  0  # atno 17320 bound_to 7965
  145.1273  140.9497  143.4565 LP  0  0  0  0  0  0  0  0  0  0  0  0  # atno 17321 bound_to 7965
  140.1838  143.4092  152.1913 LP  0  0  0  0  0  0  0  0  0  0  0  0  # atno 17342 bound_to 10162
  139.5419  144.7264  151.4705 LP  0  0  0  0  0  0  0  0  0  0  0  0  # atno 17343 bound_to 10162
  156.6257  130.4418  149.5805 LP  0  0  0  0  0  0  0  0  0  0  0  0  # atno 17370 bound_to 10713
  156.2321  130.6800  151.1473 LP  0  0  0  0  0  0  0  0  0  0  0  0  # atno 17371 bound_to 10713
  140.5290  134.0832  155.7311 LP  0  0  0  0  0  0  0  0  0  0  0  0  # atno 17394 bound_to 11000
  141.1391  133.9169  157.2366 LP  0  0  0  0  0  0  0  0  0  0  0  0  # atno 17395 bound_to 11000

$$$$
