AV-unprocessed.smi:288|AV-procd|sdf|2210|dock5
  -GOLD-   2262022 43D 1   1.00000     0.00000
 Structure written by MMmdl.
 33 34  0  0  0  0  0  0  0  0  1 V2000
  152.4800  139.9522  155.9736 O   0  0  0  0  0  0  0  0  0  0  0  0
  151.3679  139.9336  155.4431 C   0  0  0  0  0  0  0  0  0  0  0  0
  150.8273  138.7685  154.7512 C   0  0  0  0  0  0  0  0  0  0  0  0
  151.5687  137.6522  154.6517 F   0  0  0  0  0  0  0  0  0  0  0  0
  149.5907  138.7902  154.2084 C   0  0  0  0  0  0  0  0  0  0  0  0
  148.7588  139.8967  154.2684 N   0  0  0  0  0  0  0  0  0  0  0  0
  147.3733  139.8936  153.6583 C   0  0  1  0  0  0  0  0  0  0  0  0
  147.4518  139.6365  152.1427 C   0  0  0  0  0  0  0  0  0  0  0  0
  146.4334  138.5330  151.9406 C   0  0  0  0  0  0  0  0  0  0  0  0
  146.4996  137.7998  153.2721 C   0  0  0  0  0  0  0  0  0  0  0  0
  146.6108  138.8595  154.2136 O   0  0  0  0  0  0  0  0  0  0  0  0
  149.2004  141.0698  154.9183 C   0  0  0  0  0  0  0  0  0  0  0  0
  148.4685  142.0591  154.9975 O   0  0  0  0  0  0  0  0  0  0  0  0
  150.5017  141.0544  155.4725 N   0  0  0  0  0  0  0  0  0  0  0  0
  150.9680  142.2516  156.1528 C   0  0  0  0  0  0  0  0  0  0  0  0
  150.3719  142.4209  157.5685 C   0  0  2  0  0  0  0  0  0  0  0  0
  149.0473  142.9022  157.4452 O   0  0  0  0  0  0  0  0  0  0  0  0
  151.1645  143.4286  158.4240 C   0  0  0  0  0  0  0  0  0  0  0  0
  151.5376  144.4707  157.6806 F   0  0  0  0  0  0  0  0  0  0  0  0
  150.3872  143.8848  159.4062 F   0  0  0  0  0  0  0  0  0  0  0  0
  152.2411  142.8554  158.9640 F   0  0  0  0  0  0  0  0  0  0  0  0
  149.2538  137.8929  153.7128 H   0  0  0  0  0  0  0  0  0  0  0  0
  146.9249  140.8519  153.9268 H   0  0  0  0  0  0  0  0  0  0  0  0
  147.2270  140.5423  151.5787 H   0  0  0  0  0  0  0  0  0  0  0  0
  148.4492  139.2865  151.8708 H   0  0  0  0  0  0  0  0  0  0  0  0
  145.4398  138.9598  151.7970 H   0  0  0  0  0  0  0  0  0  0  0  0
  146.6591  137.8925  151.0876 H   0  0  0  0  0  0  0  0  0  0  0  0
  145.6189  137.1859  153.4612 H   0  0  0  0  0  0  0  0  0  0  0  0
  147.3823  137.1606  153.3187 H   0  0  0  0  0  0  0  0  0  0  0  0
  152.0561  142.1793  156.1877 H   0  0  0  0  0  0  0  0  0  0  0  0
  150.7835  143.1168  155.5137 H   0  0  0  0  0  0  0  0  0  0  0  0
  150.3470  141.4635  158.0909 H   0  0  0  0  0  0  0  0  0  0  0  0
  149.0462  143.6256  156.8371 H   0  0  0  0  0  0  0  0  0  0  0  0
  1  2  2  0  0  0  0
  2 14  1  0  0  0  0
  2  3  1  0  0  0  0
  3  4  1  0  0  0  0
  3  5  2  0  0  0  0
  5  6  1  0  0  0  0
  5 22  1  0  0  0  0
  6  7  1  0  0  0  0
  6 12  1  0  0  0  0
  7 11  1  0  0  0  0
  7  8  1  0  0  0  0
  7 23  1  0  0  0  0
  8  9  1  0  0  0  0
  8 24  1  0  0  0  0
  8 25  1  0  0  0  0
  9 10  1  0  0  0  0
  9 26  1  0  0  0  0
  9 27  1  0  0  0  0
 10 11  1  0  0  0  0
 10 28  1  0  0  0  0
 10 29  1  0  0  0  0
 12 13  2  0  0  0  0
 12 14  1  0  0  0  0
 14 15  1  0  0  0  0
 15 16  1  0  0  0  0
 15 30  1  0  0  0  0
 15 31  1  0  0  0  0
 16 17  1  0  0  0  0
 16 18  1  0  0  0  0
 16 32  1  0  0  0  0
 17 33  1  0  0  0  0
 18 19  1  0  0  0  0
 18 20  1  0  0  0  0
 18 21  1  0  0  0  0
M  END
> <s_m_source_file>
AV-unprocessed.smi

> <i_m_source_file_index>
288

> <i_lp_mmshare_version>
43012

> <i_f3d_flags>
0

> <s_epik_input>
TzFbQ0gyXVtDSDJdW0NIMl1bQ0BIXTFuKFtjSF1jKEYpYzI9TyljKD1PKW4yW0NIMl1bQ0BIXShbT0hdKUMoRikoRilG

> <s_epik_cmdline>
J2VwaWtfcHl0aG9uJywgJy1waCcsICc3LjAnLCAnLXRuJywgJzgnLCAnLW1hJywgJzIwMCcsICctbWV0YWxfYmluZGluZycsICctaW1hZScsICc8aW5maWxlLm1hZT4nLCAnLW9tYWUnLCAnPG91dGZpbGUubWFlPic=

> <r_lp_tautomer_probability>
1

> <r_epik_Ionization_Penalty>
0.000551119

> <r_epik_Ionization_Penalty_Charging>
2.51184e-08

> <r_epik_Ionization_Penalty_Neutral>
0.000551094

> <r_epik_State_Penalty>
0.000345115

> <r_epik_Charging_Adjusted_Penalty>
0.00034514

> <i_epik_Tot_Q>
0

> <i_epik_Tot_abs_Q>
0

> <r_epik_Metal_State_Penalty>
-0

> <b_epik_Metal_Only>
0

> <s_epik_Chemistry_Notes>
This compound contains an acetal/aminal-like group ( X-CH(R)-Y where X, Y are N, S, or O) that may be acid/base labile, releasing an aldehyde.

> <s_lp_Force_Field>
OPLS_2005

> <r_lp_Energy>
35.1555

> <b_lp_Chiralities_Consistent>
1

> <s_lp_Variant>
AV-unprocessed.smi:288-2

> <Gold.Version>
5.8.1

> <Gold.Id.Protein>
6NUR|6NUR_protein|mol2

> <Gold.PLP.Fitness>
46.3871

> <Gold.PLP.PLP>
-39.3964

> <Gold.PLP.part.hbond>
-2.0464

> <Gold.PLP.part.metal>
0.0000

> <Gold.PLP.part.buried>
0.7256

> <Gold.PLP.part.nonpolar>
-40.6022

> <Gold.PLP.part.repulsive>
2.4949

> <Gold.PLP.ligand.clash>
0.0000

> <Gold.PLP.ligand.torsion>
1.0095

> <Gold.PLP.Chemscore.Hbond>
2.0000

> <Gold.PLP.Chemscore.CHOScore>
1.0000

> <Gold.PLP.Chemscore.Metal>
0.0000

> <Gold.Chemscore.Hbonds>
donor molecule, donor type, donor heavy atom, donor atom, acceptor molecule, acceptor atom, score
      L1  H    17    33       P1  8028  1.00
      P1  H  7997  8010       L1     1  1.00
      L1  C     5    22       P1  7948  1.00

> <Gold.PLP.Chemscore.Internal.Correction>
0.0098

> <Gold.Rescore>
     Score         DG    S(hbond)    S(metal)    S(lipo)     H(rot)  DE(clash)    DE(int)     intcor
      8.78     -12.41       1.85        0.00      62.70       2.57       3.03       0.61       ----

> <Gold.Chemscore.Fitness>
8.7756

> <Gold.Chemscore.DG>
-12.4149

> <Gold.Chemscore.ZeroCoef>
-5.4800

> <Gold.Chemscore.Hbond>
1.8465

> <Gold.Chemscore.Metal>
0.0000

> <Gold.Chemscore.Lipo>
62.6952

> <Gold.Chemscore.Internal_Hbond>
0.0000

> <Gold.Chemscore.DEClash>
3.0340

> <Gold.Chemscore.DEInternal>
0.6054

> <Gold.Chemscore.Rot>
2.5656

> <Gold.Chemscore.Internal.Correction>
   9.000000E+99

> <Gold.Chemscore.Hbonds>
donor molecule, donor type, donor heavy atom, donor atom, acceptor molecule, acceptor atom, score
      L1  H    17    33       P1  8028  0.73
      P1  H  7997  8010       L1     1  1.00

> <Gold.Chemscore.Hbond.Weighted>
-6.1675

> <Gold.Chemscore.Metal.Weighted>
-0.0000

> <Gold.Chemscore.Lipo.Weighted>
-7.3353

> <Gold.Chemscore.Internal_Hbond.Weighted>
0.0000

> <Gold.Chemscore.DEClash.Weighted>
3.0340

> <Gold.Chemscore.DEInternal.Weighted>
0.6054

> <Gold.Chemscore.Rot.Weighted>
6.5679

> <Gold.Chemscore.Internal.Correction.Weighted>
   9.000000E+99

> <Gold.Protein.RotatedTorsions>
[ 6907 6896 6895 6894 ] final   91.07 input  -60.11 | X-H torsion
[ 7974 7965 7964 7962 ] final    6.44 input  175.53 | X-H torsion
[ 8008 7997 7996 7995 ] final   88.05 input   59.86 | X-H torsion
[ 10167 10162 10161 10158 ] final  -69.49 input  -65.29 | X-H torsion
[ 10718 10713 10712 10709 ] final    8.86 input   66.30 | X-H torsion
[ 10763 10752 10751 10750 ] final -146.28 input  -60.55 | X-H torsion
[ 11005 11000 10999 10996 ] final -161.82 input  -57.11 | X-H torsion

> <Gold.Protein.ActiveResidues>
 VAL166  LYS551  ARG553  GLY616  TRP617  ASP618  TYR619  PRO620  LYS621  CYS622 
 ASP623  PHE694  ASN695  SER759  ASP760  ASP761  ALA762  ILE779  LEU786  VAL792 
 PHE793  MET794  SER795  GLU796  ALA797  LYS798  CYS799  TRP800  GLU811  SER814 

> <Gold.Protein.RotatedAtoms>
  152.5448  134.1714  159.8597 H   0  0  0  0  0  0  0  0  0  0  0  0  # atno 6907 bound_to 6896
  151.1723  133.4769  159.2601 H   0  0  0  0  0  0  0  0  0  0  0  0  # atno 6908 bound_to 6896
  151.1262  135.0117  159.8616 H   0  0  0  0  0  0  0  0  0  0  0  0  # atno 6909 bound_to 6896
  146.2434  140.0234  142.8396 H   0  0  0  0  0  0  0  0  0  0  0  0  # atno 7974 bound_to 7965
  155.9829  140.3375  155.6680 H   0  0  0  0  0  0  0  0  0  0  0  0  # atno 8008 bound_to 7997
  155.6524  140.0707  157.2600 H   0  0  0  0  0  0  0  0  0  0  0  0  # atno 8009 bound_to 7997
  154.4197  140.1723  156.1676 H   0  0  0  0  0  0  0  0  0  0  0  0  # atno 8010 bound_to 7997
  140.5426  143.2314  151.7061 H   0  0  0  0  0  0  0  0  0  0  0  0  # atno 10167 bound_to 10162
  156.9579  130.5921  149.5660 H   0  0  0  0  0  0  0  0  0  0  0  0  # atno 10718 bound_to 10713
  154.8344  135.3391  154.6636 H   0  0  0  0  0  0  0  0  0  0  0  0  # atno 10763 bound_to 10752
  153.7252  135.6955  153.5007 H   0  0  0  0  0  0  0  0  0  0  0  0  # atno 10764 bound_to 10752
  153.2352  135.4403  155.0591 H   0  0  0  0  0  0  0  0  0  0  0  0  # atno 10765 bound_to 10752
  140.6161  134.4799  157.5220 H   0  0  0  0  0  0  0  0  0  0  0  0  # atno 11005 bound_to 11000
  145.1221  140.9468  143.4594 LP  0  0  0  0  0  0  0  0  0  0  0  0  # atno 17320 bound_to 7965
  145.0471  139.3212  143.5947 LP  0  0  0  0  0  0  0  0  0  0  0  0  # atno 17321 bound_to 7965
  139.4995  144.3945  152.0246 LP  0  0  0  0  0  0  0  0  0  0  0  0  # atno 17342 bound_to 10162
  140.3055  144.3598  150.6048 LP  0  0  0  0  0  0  0  0  0  0  0  0  # atno 17343 bound_to 10162
  156.0335  130.5424  150.8594 LP  0  0  0  0  0  0  0  0  0  0  0  0  # atno 17370 bound_to 10713
  157.5678  131.0946  150.9463 LP  0  0  0  0  0  0  0  0  0  0  0  0  # atno 17371 bound_to 10713
  139.9172  134.8222  156.1327 LP  0  0  0  0  0  0  0  0  0  0  0  0  # atno 17394 bound_to 11000
  141.0775  133.6769  156.2266 LP  0  0  0  0  0  0  0  0  0  0  0  0  # atno 17395 bound_to 11000

$$$$
