AV-unprocessed.smi:3328|AV-procd|sdf|12791|dock3
  -GOLD-   2272019143D 1   1.00000     0.00000
 Structure written by MMmdl.
 41 42  0  0  0  0  0  0  0  0  2 V2000
  150.6468  136.3116  154.6834 C   0  0  0  0  0  0  0  0  0  0  0  0
  150.6149  137.8116  154.6313 C   0  0  0  0  0  0  0  0  0  0  0  0
  151.7176  138.7113  154.6724 C   0  0  0  0  0  0  0  0  0  0  0  0
  151.3477  139.9804  154.6159 N   0  0  0  0  0  0  0  0  0  0  0  0
  150.0008  139.9353  154.5350 N   0  0  0  0  0  0  0  0  0  0  0  0
  149.2411  141.1713  154.4821 C   0  0  0  0  0  0  0  0  0  0  0  0
  148.2930  141.3462  155.6887 C   0  0  2  0  0  0  0  0  0  0  0  0
  146.9860  142.0242  155.2558 C   0  0  0  0  0  0  0  0  0  0  0  0
  148.9312  142.1453  156.7598 N   0  3  0  0  0  0  0  0  0  0  0  0
  150.2427  141.6408  157.2177 C   0  0  0  0  0  0  0  0  0  0  0  0
  151.3148  142.7359  157.1193 C   0  0  0  0  0  0  0  0  0  0  0  0
  151.7175  143.2178  158.4376 N   0  0  0  0  0  0  0  0  0  0  0  0
  151.6219  144.6280  158.7756 C   0  0  0  0  0  0  0  0  0  0  0  0
  151.9909  144.7091  160.2642 C   0  0  0  0  0  0  0  0  0  0  0  0
  152.5970  143.3472  160.6213 C   0  0  0  0  0  0  0  0  0  0  0  0
  152.2628  142.4850  159.4162 C   0  0  0  0  0  0  0  0  0  0  0  0
  152.4823  141.2751  159.3788 O   0  0  0  0  0  0  0  0  0  0  0  0
  149.5320  138.6390  154.5359 C   0  0  0  0  0  0  0  0  0  0  0  0
  151.6297  135.9369  154.9703 H   0  0  0  0  0  0  0  0  0  0  0  0
  150.4044  135.8713  153.7159 H   0  0  0  0  0  0  0  0  0  0  0  0
  149.9310  135.9184  155.4053 H   0  0  0  0  0  0  0  0  0  0  0  0
  152.7700  138.4803  154.7486 H   0  0  0  0  0  0  0  0  0  0  0  0
  149.9349  142.0113  154.4144 H   0  0  0  0  0  0  0  0  0  0  0  0
  148.6676  141.1700  153.5543 H   0  0  0  0  0  0  0  0  0  0  0  0
  148.0320  140.3623  156.0827 H   0  0  0  0  0  0  0  0  0  0  0  0
  146.4769  141.4411  154.4875 H   0  0  0  0  0  0  0  0  0  0  0  0
  147.1694  143.0197  154.8496 H   0  0  0  0  0  0  0  0  0  0  0  0
  146.2993  142.1280  156.0967 H   0  0  0  0  0  0  0  0  0  0  0  0
  149.0448  143.0899  156.4197 H   0  0  0  0  0  0  0  0  0  0  0  0
  150.1502  141.2909  158.2465 H   0  0  0  0  0  0  0  0  0  0  0  0
  150.5366  140.7805  156.6175 H   0  0  0  0  0  0  0  0  0  0  0  0
  152.1938  142.3540  156.5969 H   0  0  0  0  0  0  0  0  0  0  0  0
  150.9415  143.5711  156.5250 H   0  0  0  0  0  0  0  0  0  0  0  0
  152.3276  145.1943  158.1663 H   0  0  0  0  0  0  0  0  0  0  0  0
  150.6193  145.0141  158.5864 H   0  0  0  0  0  0  0  0  0  0  0  0
  152.6843  145.5273  160.4621 H   0  0  0  0  0  0  0  0  0  0  0  0
  151.0970  144.8864  160.8639 H   0  0  0  0  0  0  0  0  0  0  0  0
  153.6797  143.4099  160.7345 H   0  0  0  0  0  0  0  0  0  0  0  0
  152.1721  142.9342  161.5366 H   0  0  0  0  0  0  0  0  0  0  0  0
  148.4769  138.4146  154.4789 H   0  0  0  0  0  0  0  0  0  0  0  0
  148.3132  142.1638  157.5584 H   0  0  0  0  0  0  0  0  0  0  0  0
  1  2  1  0  0  0  0
  1 19  1  0  0  0  0
  1 20  1  0  0  0  0
  1 21  1  0  0  0  0
  2 18  2  0  0  0  0
  2  3  1  0  0  0  0
  3  4  2  0  0  0  0
  3 22  1  0  0  0  0
  4  5  1  0  0  0  0
  5  6  1  0  0  0  0
  5 18  1  0  0  0  0
  6  7  1  0  0  0  0
  6 23  1  0  0  0  0
  6 24  1  0  0  0  0
  7  8  1  0  0  0  0
  7  9  1  0  0  0  0
  7 25  1  0  0  0  0
  8 26  1  0  0  0  0
  8 27  1  0  0  0  0
  8 28  1  0  0  0  0
  9 10  1  0  0  0  0
  9 29  1  0  0  0  0
  9 41  1  0  0  0  0
 10 11  1  0  0  0  0
 10 30  1  0  0  0  0
 10 31  1  0  0  0  0
 11 12  1  0  0  0  0
 11 32  1  0  0  0  0
 11 33  1  0  0  0  0
 12 16  1  0  0  0  0
 12 13  1  0  0  0  0
 13 14  1  0  0  0  0
 13 34  1  0  0  0  0
 13 35  1  0  0  0  0
 14 15  1  0  0  0  0
 14 36  1  0  0  0  0
 14 37  1  0  0  0  0
 15 16  1  0  0  0  0
 15 38  1  0  0  0  0
 15 39  1  0  0  0  0
 16 17  2  0  0  0  0
 18 40  1  0  0  0  0
M  CHG  1   9   1
M  END
> <s_m_source_file>
AV-unprocessed.smi

> <i_m_source_file_index>
3328

> <i_lp_mmshare_version>
43012

> <i_f3d_flags>
0

> <s_epik_input>
W0NIM11jMVtjSF1ubihbY0hdMSlbQ0gyXVtDQEhdKFtDSDNdKVtOSF1bQ0gyXVtDSDJdTjJbQ0gyXVtDSDJdW0NIMl1DMj1P

> <s_epik_cmdline>
J2VwaWtfcHl0aG9uJywgJy1waCcsICc3LjAnLCAnLXRuJywgJzgnLCAnLW1hJywgJzIwMCcsICctbWV0YWxfYmluZGluZycsICctaW1hZScsICc8aW5maWxlLm1hZT4nLCAnLW9tYWUnLCAnPG91dGZpbGUubWFlPic=

> <r_lp_tautomer_probability>
1

> <r_epik_Ionization_Penalty>
0.00826719

> <r_epik_Ionization_Penalty_Charging>
0.00825899

> <r_epik_Ionization_Penalty_Neutral>
8.19932e-06

> <r_epik_State_Penalty>
0.00621436

> <r_epik_Charging_Adjusted_Penalty>
0.0144734

> <i_epik_Tot_Q>
1

> <i_epik_Tot_abs_Q>
1

> <r_epik_Metal_State_Penalty>
0.00621509

> <b_epik_Metal_Only>
0

> <s_lp_Force_Field>
OPLS_2005

> <r_lp_Energy>
18.6505

> <b_lp_Chiralities_Consistent>
1

> <s_lp_Variant>
AV-unprocessed.smi:3328-1

> <Gold.Version>
5.8.1

> <Gold.Id.Protein>
6NUR|6NUR_protein|mol2

> <Gold.PLP.Fitness>
50.6793

> <Gold.PLP.PLP>
-44.0284

> <Gold.PLP.part.hbond>
-1.9630

> <Gold.PLP.part.metal>
0.0000

> <Gold.PLP.part.buried>
-6.0620

> <Gold.PLP.part.nonpolar>
-37.6705

> <Gold.PLP.part.repulsive>
0.0763

> <Gold.PLP.ligand.clash>
0.0000

> <Gold.PLP.ligand.torsion>
1.2139

> <Gold.PLP.Chemscore.Hbond>
3.0000

> <Gold.PLP.Chemscore.CHOScore>
0.0000

> <Gold.PLP.Chemscore.Metal>
0.0000

> <Gold.Chemscore.Hbonds>
donor molecule, donor type, donor heavy atom, donor atom, acceptor molecule, acceptor atom, score
      L1  H     9    29       P1  8028  2.00
      P1  H  7989  7998       L1     4  0.81

> <Gold.PLP.Chemscore.Internal.Correction>
0.0787

> <Gold.Rescore>
     Score         DG    S(hbond)    S(metal)    S(lipo)     H(rot)  DE(clash)    DE(int)     intcor
     16.51     -17.78       1.92        0.00      93.37       1.97       0.05       1.21       ----

> <Gold.Chemscore.Fitness>
16.5144

> <Gold.Chemscore.DG>
-17.7783

> <Gold.Chemscore.ZeroCoef>
-5.4800

> <Gold.Chemscore.Hbond>
1.9224

> <Gold.Chemscore.Metal>
0.0000

> <Gold.Chemscore.Lipo>
93.3716

> <Gold.Chemscore.Internal_Hbond>
0.0000

> <Gold.Chemscore.DEClash>
0.0517

> <Gold.Chemscore.DEInternal>
1.2123

> <Gold.Chemscore.Rot>
1.9714

> <Gold.Chemscore.Internal.Correction>
   9.000000E+99

> <Gold.Chemscore.Hbonds>
donor molecule, donor type, donor heavy atom, donor atom, acceptor molecule, acceptor atom, score
      L1  H     9    29       P1  8028  1.00
      P1  H  7989  7998       L1     4  0.20

> <Gold.Chemscore.Hbond.Weighted>
-6.4207

> <Gold.Chemscore.Metal.Weighted>
-0.0000

> <Gold.Chemscore.Lipo.Weighted>
-10.9245

> <Gold.Chemscore.Internal_Hbond.Weighted>
0.0000

> <Gold.Chemscore.DEClash.Weighted>
0.0517

> <Gold.Chemscore.DEInternal.Weighted>
1.2123

> <Gold.Chemscore.Rot.Weighted>
5.0468

> <Gold.Chemscore.Internal.Correction.Weighted>
   9.000000E+99

> <Gold.Protein.RotatedTorsions>
[ 6907 6896 6895 6894 ] final  133.40 input  -60.11 | X-H torsion
[ 7974 7965 7964 7962 ] final  -63.09 input  175.53 | X-H torsion
[ 8008 7997 7996 7995 ] final  -60.53 input   59.86 | X-H torsion
[ 10167 10162 10161 10158 ] final -120.45 input  -65.29 | X-H torsion
[ 10718 10713 10712 10709 ] final   94.31 input   66.30 | X-H torsion
[ 10763 10752 10751 10750 ] final   -3.71 input  -60.55 | X-H torsion
[ 11005 11000 10999 10996 ] final  159.49 input  -57.11 | X-H torsion

> <Gold.Protein.ActiveResidues>
 VAL166  LYS551  ARG553  GLY616  TRP617  ASP618  TYR619  PRO620  LYS621  CYS622 
 ASP623  PHE694  ASN695  SER759  ASP760  ASP761  ALA762  ILE779  LEU786  VAL792 
 PHE793  MET794  SER795  GLU796  ALA797  LYS798  CYS799  TRP800  GLU811  SER814 

> <Gold.Protein.RotatedAtoms>
  152.3223  133.5867  159.5752 H   0  0  0  0  0  0  0  0  0  0  0  0  # atno 6907 bound_to 6896
  150.7378  133.9992  159.3641 H   0  0  0  0  0  0  0  0  0  0  0  0  # atno 6908 bound_to 6896
  151.7875  135.0745  160.0433 H   0  0  0  0  0  0  0  0  0  0  0  0  # atno 6909 bound_to 6896
  145.7833  140.8750  143.0319 H   0  0  0  0  0  0  0  0  0  0  0  0  # atno 7974 bound_to 7965
  154.4403  140.1037  156.6289 H   0  0  0  0  0  0  0  0  0  0  0  0  # atno 8008 bound_to 7997
  155.5626  140.3488  155.4476 H   0  0  0  0  0  0  0  0  0  0  0  0  # atno 8009 bound_to 7997
  156.0448  140.1290  157.0105 H   0  0  0  0  0  0  0  0  0  0  0  0  # atno 8010 bound_to 7997
  140.0357  143.5204  152.2155 H   0  0  0  0  0  0  0  0  0  0  0  0  # atno 10167 bound_to 10162
  157.6949  131.0508  150.4167 H   0  0  0  0  0  0  0  0  0  0  0  0  # atno 10718 bound_to 10713
  153.3750  135.6996  153.6609 H   0  0  0  0  0  0  0  0  0  0  0  0  # atno 10763 bound_to 10752
  153.5244  135.3605  155.2647 H   0  0  0  0  0  0  0  0  0  0  0  0  # atno 10764 bound_to 10752
  154.8686  135.4165  154.3035 H   0  0  0  0  0  0  0  0  0  0  0  0  # atno 10765 bound_to 10752
  140.1967  134.8368  157.2973 H   0  0  0  0  0  0  0  0  0  0  0  0  # atno 11005 bound_to 11000
  144.6793  140.0019  143.7484 LP  0  0  0  0  0  0  0  0  0  0  0  0  # atno 17320 bound_to 7965
  146.0052  139.3124  143.0903 LP  0  0  0  0  0  0  0  0  0  0  0  0  # atno 17321 bound_to 7965
  139.6047  144.7593  151.3090 LP  0  0  0  0  0  0  0  0  0  0  0  0  # atno 17342 bound_to 10162
  140.7282  143.6941  150.7898 LP  0  0  0  0  0  0  0  0  0  0  0  0  # atno 17343 bound_to 10162
  156.4546  130.4019  149.6614 LP  0  0  0  0  0  0  0  0  0  0  0  0  # atno 17370 bound_to 10713
  156.3751  130.7550  151.2538 LP  0  0  0  0  0  0  0  0  0  0  0  0  # atno 17371 bound_to 10713
  140.2099  134.4151  155.7618 LP  0  0  0  0  0  0  0  0  0  0  0  0  # atno 17394 bound_to 11000
  141.2227  133.7113  156.8321 LP  0  0  0  0  0  0  0  0  0  0  0  0  # atno 17395 bound_to 11000

$$$$
