#       Name:                AV-unprocessed.smi:203
#       Creating user name   scv26
#       Creation time:       Thu Mar 26 19:47:16 2020


#       File generated by GOLD software.
#

@<TRIPOS>MOLECULE
AV-unprocessed.smi:203
    67    71     1
SMALL
NO_CHARGES


@<TRIPOS>ATOM
      1 ****        -5.3854   2.5579  -3.1913 O.2            1 S1                 0.0000
      2 ****        -4.3901   1.8454  -3.0846 C.2            1 S1                 0.0000
      3 ****        -3.3512   2.0146  -1.9896 C.3            1 S1                 0.0000
      4 ****        -2.4579   0.7660  -2.1404 C.3            1 S1                 0.0000
      5 ****        -2.5794  -0.2628  -0.9716 C.3            1 S1                 0.0000
      6 ****        -4.0157  -0.8296  -0.8162 C.3            1 S1                 0.0000
      7 ****        -4.1059  -1.8416   0.3333 C.3            1 S1                 0.0000
      8 ****        -3.6125  -1.1981   1.6333 C.3            1 S1                 0.0000
      9 ****        -2.1907  -0.6510   1.4519 C.3            1 S1                 0.0000
     10 ****        -2.1149   0.2733   0.3206 N.3            1 S1                 0.0000
     11 ****        -0.9209   0.9069   0.3164 C.ar           1 S1                 0.0000
     12 ****        -0.9002   2.1912   0.7495 N.ar           1 S1                 0.0000
     13 ****         0.2509   2.8702   0.7669 C.ar           1 S1                 0.0000
     14 ****         1.4692   2.4586   0.4080 N.ar           1 S1                 0.0000
     15 ****         1.4503   1.1632  -0.0188 C.ar           1 S1                 0.0000
     16 ****         0.3072   0.3202  -0.0999 C.ar           1 S1                 0.0000
     17 ****         0.6716  -0.9299  -0.5849 N.2            1 S1                 0.0000
     18 ****         1.9586  -0.8328  -0.7761 C.2            1 S1                 0.0000
     19 ****         2.5117   0.3836  -0.4441 N.pl3          1 S1                 0.0000
     20 ****         3.9117   0.7582  -0.5420 C.3            1 S1                 0.0000
     21 ****         4.5642   1.0735   0.8243 C.3            1 S1                 0.0000
     22 ****         5.9429   1.3040   0.6205 O.3            1 S1                 0.0000
     23 ****         4.3964   0.0197   1.9450 C.3            1 S1                 0.0000
     24 ****         4.7647  -1.4239   1.5943 C.3            1 S1                 0.0000
     25 ****         4.0045  -2.1884   2.6548 C.3            1 S1                 0.0000
     26 ****         2.7157  -1.3774   2.7727 C.3            1 S1                 0.0000
     27 ****         3.0580  -0.0363   2.4317 O.3            1 S1                 0.0000
     28 ****        -2.8313   0.1739  -3.5165 C.3            1 S1                 0.0000
     29 ****        -4.0656   0.8363  -3.8903 N.am           1 S1                 0.0000
     30 ****        -2.7831   2.9273  -2.1722 H              1 S1                 0.0000
     31 ****        -3.8169   2.0989  -1.0075 H              1 S1                 0.0000
     32 ****        -1.4204   1.0916  -2.2183 H              1 S1                 0.0000
     33 ****        -1.9323  -1.1061  -1.2149 H              1 S1                 0.0000
     34 ****        -4.7226  -0.0220  -0.6255 H              1 S1                 0.0000
     35 ****        -4.3462  -1.3119  -1.7353 H              1 S1                 0.0000
     36 ****        -5.1329  -2.1883   0.4508 H              1 S1                 0.0000
     37 ****        -3.5021  -2.7199   0.1016 H              1 S1                 0.0000
     38 ****        -4.2835  -0.3883   1.9226 H              1 S1                 0.0000
     39 ****        -3.6329  -1.9263   2.4444 H              1 S1                 0.0000
     40 ****        -1.8765  -0.1470   2.3672 H              1 S1                 0.0000
     41 ****        -1.4971  -1.4778   1.2913 H              1 S1                 0.0000
     42 ****         0.1870   3.8884   1.1215 H              1 S1                 0.0000
     43 ****         2.5448  -1.6579  -1.1538 H              1 S1                 0.0000
     44 ****         4.4490  -0.0474  -1.0439 H              1 S1                 0.0000
     45 ****         3.9832   1.6265  -1.1983 H              1 S1                 0.0000
     46 ****         4.1521   2.0132   1.1924 H              1 S1                 0.0000
     47 ****         6.3392   0.5022   0.3165 H              1 S1                 0.0000
     48 ****         5.0013   0.3240   2.8013 H              1 S1                 0.0000
     49 ****         4.3979  -1.7071   0.6085 H              1 S1                 0.0000
     50 ****         5.8390  -1.6069   1.6238 H              1 S1                 0.0000
     51 ****         3.8286  -3.2315   2.3910 H              1 S1                 0.0000
     52 ****         4.5519  -2.1616   3.5981 H              1 S1                 0.0000
     53 ****         1.9717  -1.7358   2.0609 H              1 S1                 0.0000
     54 ****         2.2810  -1.4342   3.7708 H              1 S1                 0.0000
     55 ****        -2.0693   0.4111  -4.2602 H              1 S1                 0.0000
     56 ****        -2.9490  -0.9098  -3.5035 H              1 S1                 0.0000
     57 ****        -4.6170   0.5491  -4.6860 H              1 S1                 0.0000
     58 ****        -6.0355   2.4007  -3.9347 LP             1 S1                 0.0000
     59 ****        -5.5454   3.2951  -2.5348 LP             1 S1                 0.0000
     60 ****        -2.8078   0.9801   0.4633 LP             1 S1                 0.0000
     61 ****        -1.7450   2.6301   1.0556 LP             1 S1                 0.0000
     62 ****         2.2907   3.0275   0.4471 LP             1 S1                 0.0000
     63 ****         0.0831  -1.7214  -0.7495 LP             1 S1                 0.0000
     64 ****         6.3685   1.5858   1.4804 LP             1 S1                 0.0000
     65 ****         6.0672   2.0224  -0.0640 LP             1 S1                 0.0000
     66 ****         2.4344   0.2942   1.7232 LP             1 S1                 0.0000
     67 ****         2.9768   0.5423   3.2433 LP             1 S1                 0.0000
@<TRIPOS>BOND
    1    1    2 2     
    2    2   29 am    
    3    2    3 1     
    4    3    4 1     
    5    3   30 1     
    6    3   31 1     
    7    4    5 1     
    8    4   28 1     
    9    4   32 1     
   10    5   10 1     
   11    5    6 1     
   12    5   33 1     
   13    6    7 1     
   14    6   34 1     
   15    6   35 1     
   16    7    8 1     
   17    7   36 1     
   18    7   37 1     
   19    8    9 1     
   20    8   38 1     
   21    8   39 1     
   22    9   10 1     
   23    9   40 1     
   24    9   41 1     
   25   10   11 1     
   26   11   16 ar    
   27   11   12 ar    
   28   12   13 ar    
   29   13   14 ar    
   30   13   42 1     
   31   14   15 ar    
   32   15   19 1     
   33   15   16 ar    
   34   16   17 1     
   35   17   18 2     
   36   18   19 1     
   37   18   43 1     
   38   19   20 1     
   39   20   21 1     
   40   20   44 1     
   41   20   45 1     
   42   21   22 1     
   43   21   23 1     
   44   21   46 1     
   45   22   47 1     
   46   23   27 1     
   47   23   24 1     
   48   23   48 1     
   49   24   25 1     
   50   24   49 1     
   51   24   50 1     
   52   25   26 1     
   53   25   51 1     
   54   25   52 1     
   55   26   27 1     
   56   26   53 1     
   57   26   54 1     
   58   28   29 1     
   59   28   55 1     
   60   28   56 1     
   61   29   57 1     
   62    1   58 1     
   63    1   59 1     
   64   10   60 1     
   65   12   61 1     
   66   14   62 1     
   67   17   63 1     
   68   22   64 1     
   69   22   65 1     
   70   27   66 1     
   71   27   67 1     
@<TRIPOS>SUBSTRUCTURE
      1 S1             1
@<TRIPOS>SET
LONE_PAIRS      STATIC     ATOMS    <user>   **** ""
10 58 59 60 61 62 63 64 65 66 67
DONOR_HYDROGENS      STATIC     ATOMS    <user>   **** ""
2 47 57
ATOM$BLUE        STATIC     ATOMS    COLORGROUP SYSTEM
10 58 59 60 61 62 63 64 65 66 67
ATOM$RED        STATIC     ATOMS    COLORGROUP SYSTEM
2 47 57
