AV-unprocessed.smi:1492|AV-procd|sdf|6038|dock9
  -GOLD-   22720 6143D 1   1.00000     0.00000
 Structure written by MMmdl.
 53 54  0  0  0  0  0  0  0  0  2 V2000
  148.2580  141.4944  154.1295 C   0  0  0  0  0  0  0  0  0  0  0  0
  149.4778  140.6926  154.6190 C   0  0  0  0  0  0  0  0  0  0  0  0
  149.7822  140.7933  156.1459 C   0  0  1  0  0  0  0  0  0  0  0  0
  150.3041  142.2290  156.4169 C   0  0  0  0  0  0  0  0  0  0  0  0
  148.4635  140.5577  156.9465 C   0  0  0  0  0  0  0  0  0  0  0  0
  148.2189  139.1538  157.2727 N   0  0  0  0  0  0  0  0  0  0  0  0
  148.1225  138.1471  156.3902 C   0  0  0  0  0  0  0  0  0  0  0  0
  148.2455  138.2934  155.1748 O   0  0  0  0  0  0  0  0  0  0  0  0
  147.8609  136.7590  156.9746 C   0  0  0  0  0  0  0  0  0  0  0  0
  147.6811  136.7092  158.4907 C   0  0  0  0  0  0  0  0  0  0  0  0
  146.6429  137.3162  159.1369 C   0  0  0  0  0  0  0  0  0  0  0  0
  145.5657  138.1014  158.4090 C   0  0  0  0  0  0  0  0  0  0  0  0
  146.5025  137.2453  160.5301 N   0  0  0  0  0  0  0  0  0  0  0  0
  147.3825  136.5879  161.2110 C   0  0  0  0  0  0  0  0  0  0  0  0
  147.3420  136.4329  162.7166 C   0  0  0  0  0  0  0  0  0  0  0  0
  148.4689  135.9512  160.6136 N   0  0  0  0  0  0  0  0  0  0  0  0
  148.6865  135.9710  159.2796 C   0  0  0  0  0  0  0  0  0  0  0  0
  149.6720  135.4111  158.8012 O   0  0  0  0  0  0  0  0  0  0  0  0
  150.8307  139.7815  156.5388 N   0  3  0  0  0  0  0  0  0  0  0  0
  151.9471  139.5859  155.5701 C   0  0  0  0  0  0  0  0  0  0  0  0
  152.8314  138.4012  155.9954 C   0  0  0  0  0  0  0  0  0  0  0  0
  153.3297  138.6178  157.3079 O   0  0  0  0  0  0  0  0  0  0  0  0
  152.2789  138.7165  158.2584 C   0  0  0  0  0  0  0  0  0  0  0  0
  151.3868  139.9201  157.9150 C   0  0  0  0  0  0  0  0  0  0  0  0
  149.1286  135.4576  161.1971 H   0  0  0  0  0  0  0  0  0  0  0  0
  148.1286  141.3692  153.0543 H   0  0  0  0  0  0  0  0  0  0  0  0
  148.3682  142.5620  154.3191 H   0  0  0  0  0  0  0  0  0  0  0  0
  147.3362  141.1606  154.6050 H   0  0  0  0  0  0  0  0  0  0  0  0
  149.3120  139.6492  154.3479 H   0  0  0  0  0  0  0  0  0  0  0  0
  150.3501  140.9849  154.0351 H   0  0  0  0  0  0  0  0  0  0  0  0
  149.6830  142.9832  155.9329 H   0  0  0  0  0  0  0  0  0  0  0  0
  151.3206  142.3678  156.0480 H   0  0  0  0  0  0  0  0  0  0  0  0
  150.3043  142.4711  157.4798 H   0  0  0  0  0  0  0  0  0  0  0  0
  148.4975  141.0831  157.9003 H   0  0  0  0  0  0  0  0  0  0  0  0
  147.6041  140.9664  156.4147 H   0  0  0  0  0  0  0  0  0  0  0  0
  148.1073  138.9285  158.2511 H   0  0  0  0  0  0  0  0  0  0  0  0
  146.9719  136.3472  156.4964 H   0  0  0  0  0  0  0  0  0  0  0  0
  148.6678  136.0927  156.6663 H   0  0  0  0  0  0  0  0  0  0  0  0
  146.0069  138.9005  157.8135 H   0  0  0  0  0  0  0  0  0  0  0  0
  144.8654  138.5572  159.1099 H   0  0  0  0  0  0  0  0  0  0  0  0
  144.9968  137.4478  157.7474 H   0  0  0  0  0  0  0  0  0  0  0  0
  146.4279  135.9202  163.0162 H   0  0  0  0  0  0  0  0  0  0  0  0
  147.3586  137.4121  163.1958 H   0  0  0  0  0  0  0  0  0  0  0  0
  148.1923  135.8579  163.0859 H   0  0  0  0  0  0  0  0  0  0  0  0
  151.5793  139.3768  154.5673 H   0  0  0  0  0  0  0  0  0  0  0  0
  152.5570  140.4873  155.5082 H   0  0  0  0  0  0  0  0  0  0  0  0
  152.2738  137.4641  155.9546 H   0  0  0  0  0  0  0  0  0  0  0  0
  153.6744  138.2987  155.3119 H   0  0  0  0  0  0  0  0  0  0  0  0
  151.6985  137.7926  158.2794 H   0  0  0  0  0  0  0  0  0  0  0  0
  152.7133  138.8424  159.2504 H   0  0  0  0  0  0  0  0  0  0  0  0
  151.9753  140.8341  157.9968 H   0  0  0  0  0  0  0  0  0  0  0  0
  150.5989  139.9770  158.6632 H   0  0  0  0  0  0  0  0  0  0  0  0
  150.3355  138.9011  156.5436 H   0  0  0  0  0  0  0  0  0  0  0  0
  1  2  1  0  0  0  0
  1 26  1  0  0  0  0
  1 27  1  0  0  0  0
  1 28  1  0  0  0  0
  2  3  1  0  0  0  0
  2 29  1  0  0  0  0
  2 30  1  0  0  0  0
  3  4  1  0  0  0  0
  3  5  1  0  0  0  0
  3 19  1  0  0  0  0
  4 31  1  0  0  0  0
  4 32  1  0  0  0  0
  4 33  1  0  0  0  0
  5  6  1  0  0  0  0
  5 34  1  0  0  0  0
  5 35  1  0  0  0  0
  6  7  1  0  0  0  0
  6 36  1  0  0  0  0
  7  8  2  0  0  0  0
  7  9  1  0  0  0  0
  9 10  1  0  0  0  0
  9 37  1  0  0  0  0
  9 38  1  0  0  0  0
 10 17  1  0  0  0  0
 10 11  2  0  0  0  0
 11 12  1  0  0  0  0
 11 13  1  0  0  0  0
 12 39  1  0  0  0  0
 12 40  1  0  0  0  0
 12 41  1  0  0  0  0
 13 14  2  0  0  0  0
 14 15  1  0  0  0  0
 14 16  1  0  0  0  0
 15 42  1  0  0  0  0
 15 43  1  0  0  0  0
 15 44  1  0  0  0  0
 16 25  1  0  0  0  0
 16 17  1  0  0  0  0
 17 18  2  0  0  0  0
 19 24  1  0  0  0  0
 19 20  1  0  0  0  0
 19 53  1  0  0  0  0
 20 21  1  0  0  0  0
 20 45  1  0  0  0  0
 20 46  1  0  0  0  0
 21 22  1  0  0  0  0
 21 47  1  0  0  0  0
 21 48  1  0  0  0  0
 22 23  1  0  0  0  0
 23 24  1  0  0  0  0
 23 49  1  0  0  0  0
 23 50  1  0  0  0  0
 24 51  1  0  0  0  0
 24 52  1  0  0  0  0
M  CHG  1  19   1
M  END
> <s_m_source_file>
AV-unprocessed.smi

> <i_m_source_file_index>
1492

> <i_lp_mmshare_version>
43012

> <i_f3d_flags>
0

> <s_epik_input>
W0NIMl0xW0NIMl1PW0NIMl1bQ0gyXU4xW0NAQF0oW0NIM10pKFtDSDJdW0NIM10pW0NIMl1bTkhdQyg9TylbQ0gyXWMyYyhbQ0gzXSluYyhbQ0gzXSlbbkhdYzI9Tw==

> <s_epik_cmdline>
J2VwaWtfcHl0aG9uJywgJy1waCcsICc3LjAnLCAnLXRuJywgJzgnLCAnLW1hJywgJzIwMCcsICctbWV0YWxfYmluZGluZycsICctaW1hZScsICc8aW5maWxlLm1hZT4nLCAnLW9tYWUnLCAnPG91dGZpbGUubWFlPic=

> <r_lp_tautomer_probability>
0.839158

> <r_epik_Ionization_Penalty>
0.506959

> <r_epik_Ionization_Penalty_Charging>
0.506936

> <r_epik_Ionization_Penalty_Neutral>
2.27768e-05

> <r_epik_State_Penalty>
0.6046

> <r_epik_Charging_Adjusted_Penalty>
1.11154

> <i_epik_Tot_Q>
1

> <i_epik_Tot_abs_Q>
1

> <r_epik_Metal_State_Penalty>
0.783136

> <b_epik_Metal_Only>
0

> <s_lp_Force_Field>
OPLS_2005

> <r_lp_Energy>
29.8272

> <b_lp_Chiralities_Consistent>
1

> <s_lp_Variant>
AV-unprocessed.smi:1492-3

> <Gold.Version>
5.8.1

> <Gold.Id.Protein>
6NUR|6NUR_protein|mol2

> <Gold.PLP.Fitness>
37.2985

> <Gold.PLP.PLP>
-30.2450

> <Gold.PLP.part.hbond>
-3.0000

> <Gold.PLP.part.metal>
0.0000

> <Gold.PLP.part.buried>
0.2985

> <Gold.PLP.part.nonpolar>
-27.2403

> <Gold.PLP.part.repulsive>
0.3966

> <Gold.PLP.ligand.clash>
0.0000

> <Gold.PLP.ligand.torsion>
0.9626

> <Gold.PLP.Chemscore.Hbond>
2.9420

> <Gold.PLP.Chemscore.CHOScore>
0.0000

> <Gold.PLP.Chemscore.Metal>
0.0000

> <Gold.Chemscore.Hbonds>
donor molecule, donor type, donor heavy atom, donor atom, acceptor molecule, acceptor atom, score
      P1  H  6896  6909       L1    18  0.94
      P1  H  6934  6947       L1    13  0.76
      P1  H  7997  8010       L1    22  0.45

> <Gold.PLP.Chemscore.Internal.Correction>
0.1527

> <Gold.Rescore>
     Score         DG    S(hbond)    S(metal)    S(lipo)     H(rot)  DE(clash)    DE(int)     intcor
      9.13     -13.68       1.77        0.00      67.50       2.19       1.66       2.89       ----

> <Gold.Chemscore.Fitness>
9.1325

> <Gold.Chemscore.DG>
-13.6805

> <Gold.Chemscore.ZeroCoef>
-5.4800

> <Gold.Chemscore.Hbond>
1.7712

> <Gold.Chemscore.Metal>
0.0000

> <Gold.Chemscore.Lipo>
67.5023

> <Gold.Chemscore.Internal_Hbond>
0.0000

> <Gold.Chemscore.DEClash>
1.6631

> <Gold.Chemscore.DEInternal>
2.8850

> <Gold.Chemscore.Rot>
2.1926

> <Gold.Chemscore.Internal.Correction>
   9.000000E+99

> <Gold.Chemscore.Hbonds>
donor molecule, donor type, donor heavy atom, donor atom, acceptor molecule, acceptor atom, score
      P1  H  6896  6909       L1    18  0.90
      P1  H  6934  6947       L1    13  0.03
      P1  H  7997  8010       L1    22  0.02

> <Gold.Chemscore.Hbond.Weighted>
-5.9157

> <Gold.Chemscore.Metal.Weighted>
-0.0000

> <Gold.Chemscore.Lipo.Weighted>
-7.8978

> <Gold.Chemscore.Internal_Hbond.Weighted>
0.0000

> <Gold.Chemscore.DEClash.Weighted>
1.6631

> <Gold.Chemscore.DEInternal.Weighted>
2.8850

> <Gold.Chemscore.Rot.Weighted>
5.6129

> <Gold.Chemscore.Internal.Correction.Weighted>
   9.000000E+99

> <Gold.Protein.RotatedTorsions>
[ 6907 6896 6895 6894 ] final   46.41 input  -60.11 | X-H torsion
[ 7974 7965 7964 7962 ] final  -92.83 input  175.53 | X-H torsion
[ 8008 7997 7996 7995 ] final   61.81 input   59.86 | X-H torsion
[ 10167 10162 10161 10158 ] final   30.54 input  -65.29 | X-H torsion
[ 10718 10713 10712 10709 ] final   97.70 input   66.30 | X-H torsion
[ 10763 10752 10751 10750 ] final -101.24 input  -60.55 | X-H torsion
[ 11005 11000 10999 10996 ] final   43.33 input  -57.11 | X-H torsion

> <Gold.Protein.ActiveResidues>
 VAL166  LYS551  ARG553  GLY616  TRP617  ASP618  TYR619  PRO620  LYS621  CYS622 
 ASP623  PHE694  ASN695  SER759  ASP760  ASP761  ALA762  ILE779  LEU786  VAL792 
 PHE793  MET794  SER795  GLU796  ALA797  LYS798  CYS799  TRP800  GLU811  SER814 

> <Gold.Protein.RotatedAtoms>
  152.2561  134.8082  160.0437 H   0  0  0  0  0  0  0  0  0  0  0  0  # atno 6907 bound_to 6896
  151.8745  133.3477  159.3754 H   0  0  0  0  0  0  0  0  0  0  0  0  # atno 6908 bound_to 6896
  150.7100  134.5006  159.5604 H   0  0  0  0  0  0  0  0  0  0  0  0  # atno 6909 bound_to 6896
  145.3946  140.9531  143.2321 H   0  0  0  0  0  0  0  0  0  0  0  0  # atno 7974 bound_to 7965
  155.6043  140.3494  155.4603 H   0  0  0  0  0  0  0  0  0  0  0  0  # atno 8008 bound_to 7997
  156.0204  140.1252  157.0388 H   0  0  0  0  0  0  0  0  0  0  0  0  # atno 8009 bound_to 7997
  154.4313  140.1063  156.5942 H   0  0  0  0  0  0  0  0  0  0  0  0  # atno 8010 bound_to 7997
  140.4669  144.0822  150.6227 H   0  0  0  0  0  0  0  0  0  0  0  0  # atno 10167 bound_to 10162
  157.6908  131.0617  150.4683 H   0  0  0  0  0  0  0  0  0  0  0  0  # atno 10718 bound_to 10713
  154.7642  135.4905  153.9523 H   0  0  0  0  0  0  0  0  0  0  0  0  # atno 10763 bound_to 10752
  153.1288  135.6748  153.9220 H   0  0  0  0  0  0  0  0  0  0  0  0  # atno 10764 bound_to 10752
  153.8930  135.3118  155.3426 H   0  0  0  0  0  0  0  0  0  0  0  0  # atno 10765 bound_to 10752
  140.1655  134.4287  155.8290 H   0  0  0  0  0  0  0  0  0  0  0  0  # atno 11005 bound_to 11000
  144.8416  139.5462  143.6897 LP  0  0  0  0  0  0  0  0  0  0  0  0  # atno 17320 bound_to 7965
  146.2781  139.6806  142.9248 LP  0  0  0  0  0  0  0  0  0  0  0  0  # atno 17321 bound_to 7965
  140.4025  143.2696  151.9930 LP  0  0  0  0  0  0  0  0  0  0  0  0  # atno 17342 bound_to 10162
  139.4813  144.5985  151.7648 LP  0  0  0  0  0  0  0  0  0  0  0  0  # atno 17343 bound_to 10162
  156.5023  130.4120  149.6346 LP  0  0  0  0  0  0  0  0  0  0  0  0  # atno 17370 bound_to 10713
  156.3317  130.7335  151.2265 LP  0  0  0  0  0  0  0  0  0  0  0  0  # atno 17371 bound_to 10713
  141.2213  133.6932  156.7670 LP  0  0  0  0  0  0  0  0  0  0  0  0  # atno 17394 bound_to 11000
  140.2439  134.8592  157.3600 LP  0  0  0  0  0  0  0  0  0  0  0  0  # atno 17395 bound_to 11000

$$$$
