AV-unprocessed.smi:2640|AV-procd|sdf|10269|dock6
  -GOLD-   2272014283D 1   1.00000     0.00000
 Structure written by MMmdl.
 42 43  0  0  0  0  0  0  0  0  2 V2000
  146.5804  138.2803  154.3308 O   0  0  0  0  0  0  0  0  0  0  0  0
  147.1118  138.7107  153.3063 C   0  0  0  0  0  0  0  0  0  0  0  0
  146.4869  138.4516  151.9349 C   0  0  0  0  0  0  0  0  0  0  0  0
  146.4619  137.0144  151.5949 N   0  3  0  0  0  0  0  0  0  0  0  0
  145.4526  136.2389  152.3409 C   0  0  0  0  0  0  0  0  0  0  0  0
  144.4094  135.6313  151.3919 C   0  0  0  0  0  0  0  0  0  0  0  0
  144.8636  134.3767  150.8231 N   0  0  0  0  0  0  0  0  0  0  0  0
  144.1831  133.5164  149.9867 C   0  0  0  0  0  0  0  0  0  0  0  0
  145.0192  132.4727  149.7104 C   0  0  0  0  0  0  0  0  0  0  0  0
  146.2057  132.7903  150.4290 C   0  0  0  0  0  0  0  0  0  0  0  0
  146.1101  133.9319  151.0920 N   0  0  0  0  0  0  0  0  0  0  0  0
  148.2566  139.4123  153.3080 N   0  0  0  0  0  0  0  0  0  0  0  0
  149.0266  139.7861  154.4973 C   0  0  1  0  0  0  0  0  0  0  0  0
  150.4662  139.2566  154.3031 C   0  0  0  0  0  0  0  0  0  0  0  0
  151.2467  139.0775  155.6168 C   0  0  0  0  0  0  0  0  0  0  0  0
  151.5350  140.3778  156.3819 C   0  0  0  0  0  0  0  0  0  0  0  0
  150.2679  141.1112  156.8534 C   0  0  0  0  0  0  0  0  0  0  0  0
  149.6226  141.8426  155.7711 N   0  0  0  0  0  0  0  0  0  0  0  0
  149.0674  141.3237  154.6655 C   0  0  0  0  0  0  0  0  0  0  0  0
  148.6007  142.0628  153.7986 O   0  0  0  0  0  0  0  0  0  0  0  0
  145.4686  138.8432  151.9186 H   0  0  0  0  0  0  0  0  0  0  0  0
  147.0598  138.9951  151.1825 H   0  0  0  0  0  0  0  0  0  0  0  0
  146.2738  136.9266  150.6062 H   0  0  0  0  0  0  0  0  0  0  0  0
  145.9546  135.4514  152.9045 H   0  0  0  0  0  0  0  0  0  0  0  0
  144.9621  136.8920  153.0640 H   0  0  0  0  0  0  0  0  0  0  0  0
  143.4729  135.4522  151.9220 H   0  0  0  0  0  0  0  0  0  0  0  0
  144.1855  136.3196  150.5755 H   0  0  0  0  0  0  0  0  0  0  0  0
  143.1723  133.7147  149.6613 H   0  0  0  0  0  0  0  0  0  0  0  0
  144.8154  131.6138  149.0881 H   0  0  0  0  0  0  0  0  0  0  0  0
  147.1272  132.2298  150.4871 H   0  0  0  0  0  0  0  0  0  0  0  0
  148.6190  139.7303  152.4207 H   0  0  0  0  0  0  0  0  0  0  0  0
  148.5710  139.3243  155.3754 H   0  0  0  0  0  0  0  0  0  0  0  0
  150.4230  138.2771  153.8241 H   0  0  0  0  0  0  0  0  0  0  0  0
  151.0271  139.8918  153.6150 H   0  0  0  0  0  0  0  0  0  0  0  0
  150.7086  138.3862  156.2665 H   0  0  0  0  0  0  0  0  0  0  0  0
  152.1970  138.5925  155.3919 H   0  0  0  0  0  0  0  0  0  0  0  0
  152.1346  140.1281  157.2580 H   0  0  0  0  0  0  0  0  0  0  0  0
  152.1530  141.0429  155.7771 H   0  0  0  0  0  0  0  0  0  0  0  0
  149.5647  140.4238  157.3253 H   0  0  0  0  0  0  0  0  0  0  0  0
  150.5405  141.8420  157.6152 H   0  0  0  0  0  0  0  0  0  0  0  0
  149.6229  142.8491  155.8543 H   0  0  0  0  0  0  0  0  0  0  0  0
  147.3756  136.6271  151.7832 H   0  0  0  0  0  0  0  0  0  0  0  0
  1  2  2  0  0  0  0
  2  3  1  0  0  0  0
  2 12  1  0  0  0  0
  3  4  1  0  0  0  0
  3 21  1  0  0  0  0
  3 22  1  0  0  0  0
  4  5  1  0  0  0  0
  4 23  1  0  0  0  0
  4 42  1  0  0  0  0
  5  6  1  0  0  0  0
  5 24  1  0  0  0  0
  5 25  1  0  0  0  0
  6  7  1  0  0  0  0
  6 26  1  0  0  0  0
  6 27  1  0  0  0  0
  7 11  1  0  0  0  0
  7  8  1  0  0  0  0
  8  9  2  0  0  0  0
  8 28  1  0  0  0  0
  9 10  1  0  0  0  0
  9 29  1  0  0  0  0
 10 11  2  0  0  0  0
 10 30  1  0  0  0  0
 12 13  1  0  0  0  0
 12 31  1  0  0  0  0
 13 19  1  0  0  0  0
 13 14  1  0  0  0  0
 13 32  1  0  0  0  0
 14 15  1  0  0  0  0
 14 33  1  0  0  0  0
 14 34  1  0  0  0  0
 15 16  1  0  0  0  0
 15 35  1  0  0  0  0
 15 36  1  0  0  0  0
 16 17  1  0  0  0  0
 16 37  1  0  0  0  0
 16 38  1  0  0  0  0
 17 18  1  0  0  0  0
 17 39  1  0  0  0  0
 17 40  1  0  0  0  0
 18 19  1  0  0  0  0
 18 41  1  0  0  0  0
 19 20  2  0  0  0  0
M  CHG  1   4   1
M  END
> <s_m_source_file>
AV-unprocessed.smi

> <i_m_source_file_index>
2640

> <i_lp_mmshare_version>
43012

> <i_f3d_flags>
0

> <s_epik_input>
Tz1DMVtOSF1bQ0gyXVtDSDJdW0NIMl1bQ0gyXVtDQEhdMVtOSF1DKD1PKVtDSDJdW05IXVtDSDJdW0NIMl1uMltjSF1bY0hdW2NIXW4y

> <s_epik_cmdline>
J2VwaWtfcHl0aG9uJywgJy1waCcsICc3LjAnLCAnLXRuJywgJzgnLCAnLW1hJywgJzIwMCcsICctbWV0YWxfYmluZGluZycsICctaW1hZScsICc8aW5maWxlLm1hZT4nLCAnLW9tYWUnLCAnPG91dGZpbGUubWFlPic=

> <r_lp_tautomer_probability>
1

> <r_epik_Ionization_Penalty>
0.245908

> <r_epik_Ionization_Penalty_Charging>
0.245903

> <r_epik_Ionization_Penalty_Neutral>
5.38378e-06

> <r_epik_State_Penalty>
0.237496

> <r_epik_Charging_Adjusted_Penalty>
0.483398

> <i_epik_Tot_Q>
1

> <i_epik_Tot_abs_Q>
1

> <r_epik_Metal_State_Penalty>
0.237698

> <b_epik_Metal_Only>
0

> <s_lp_Force_Field>
OPLS_2005

> <r_lp_Energy>
9.28835

> <b_lp_Chiralities_Consistent>
1

> <s_lp_Variant>
AV-unprocessed.smi:2640-2

> <Gold.Version>
5.8.1

> <Gold.Id.Protein>
6NUR|6NUR_protein|mol2

> <Gold.PLP.Fitness>
57.1083

> <Gold.PLP.PLP>
-39.0464

> <Gold.PLP.part.hbond>
-4.0000

> <Gold.PLP.part.metal>
0.0000

> <Gold.PLP.part.buried>
-5.0718

> <Gold.PLP.part.nonpolar>
-32.7553

> <Gold.PLP.part.repulsive>
0.8041

> <Gold.PLP.ligand.clash>
0.0000

> <Gold.PLP.ligand.torsion>
0.5985

> <Gold.PLP.Chemscore.Hbond>
4.4000

> <Gold.PLP.Chemscore.CHOScore>
2.0000

> <Gold.PLP.Chemscore.Metal>
0.0000

> <Gold.Chemscore.Hbonds>
donor molecule, donor type, donor heavy atom, donor atom, acceptor molecule, acceptor atom, score
      L1  H     4    42       P1  7948  2.00
      L1  H    12    31       P1  7957  1.00
      L1  H    18    41       P1  8028  1.00
      P1  H  8011  8017       L1    20  0.40
      L1  C     8    28       P1 10186  1.00
      L1  C    10    30       P1 10747  1.00

> <Gold.PLP.Chemscore.Internal.Correction>
0.0588

> <Gold.Rescore>
     Score         DG    S(hbond)    S(metal)    S(lipo)     H(rot)  DE(clash)    DE(int)     intcor
     18.91     -19.64       3.32        0.00      79.70       2.45       0.13       0.59       ----

> <Gold.Chemscore.Fitness>
18.9123

> <Gold.Chemscore.DG>
-19.6368

> <Gold.Chemscore.ZeroCoef>
-5.4800

> <Gold.Chemscore.Hbond>
3.3216

> <Gold.Chemscore.Metal>
0.0000

> <Gold.Chemscore.Lipo>
79.7000

> <Gold.Chemscore.Internal_Hbond>
0.0000

> <Gold.Chemscore.DEClash>
0.1303

> <Gold.Chemscore.DEInternal>
0.5942

> <Gold.Chemscore.Rot>
2.4462

> <Gold.Chemscore.Internal.Correction>
   9.000000E+99

> <Gold.Chemscore.Hbonds>
donor molecule, donor type, donor heavy atom, donor atom, acceptor molecule, acceptor atom, score
      L1  H     4    42       P1  7948  0.99
      L1  H    12    31       P1  7957  0.99
      L1  H    18    41       P1  8028  0.93
      P1  H  8011  8017       L1    20  0.36

> <Gold.Chemscore.Hbond.Weighted>
-11.0942

> <Gold.Chemscore.Metal.Weighted>
-0.0000

> <Gold.Chemscore.Lipo.Weighted>
-9.3249

> <Gold.Chemscore.Internal_Hbond.Weighted>
0.0000

> <Gold.Chemscore.DEClash.Weighted>
0.1303

> <Gold.Chemscore.DEInternal.Weighted>
0.5942

> <Gold.Chemscore.Rot.Weighted>
6.2623

> <Gold.Chemscore.Internal.Correction.Weighted>
   9.000000E+99

> <Gold.Protein.RotatedTorsions>
[ 6907 6896 6895 6894 ] final  -38.18 input  -60.11 | X-H torsion
[ 7974 7965 7964 7962 ] final -111.94 input  175.53 | X-H torsion
[ 8008 7997 7996 7995 ] final  100.73 input   59.86 | X-H torsion
[ 10167 10162 10161 10158 ] final   48.28 input  -65.29 | X-H torsion
[ 10718 10713 10712 10709 ] final  122.12 input   66.30 | X-H torsion
[ 10763 10752 10751 10750 ] final   34.25 input  -60.55 | X-H torsion
[ 11005 11000 10999 10996 ] final   67.81 input  -57.11 | X-H torsion

> <Gold.Protein.ActiveResidues>
 VAL166  LYS551  ARG553  GLY616  TRP617  ASP618  TYR619  PRO620  LYS621  CYS622 
 ASP623  PHE694  ASN695  SER759  ASP760  ASP761  ALA762  ILE779  LEU786  VAL792 
 PHE793  MET794  SER795  GLU796  ALA797  LYS798  CYS799  TRP800  GLU811  SER814 

> <Gold.Protein.RotatedAtoms>
  151.0056  134.9356  159.7977 H   0  0  0  0  0  0  0  0  0  0  0  0  # atno 6907 bound_to 6896
  152.5289  134.3096  159.9119 H   0  0  0  0  0  0  0  0  0  0  0  0  # atno 6908 bound_to 6896
  151.3102  133.4042  159.2680 H   0  0  0  0  0  0  0  0  0  0  0  0  # atno 6909 bound_to 6896
  145.1500  140.8824  143.3652 H   0  0  0  0  0  0  0  0  0  0  0  0  # atno 7974 bound_to 7965
  156.1232  140.3208  155.8238 H   0  0  0  0  0  0  0  0  0  0  0  0  # atno 8008 bound_to 7997
  155.4467  140.0529  157.3022 H   0  0  0  0  0  0  0  0  0  0  0  0  # atno 8009 bound_to 7997
  154.4843  140.2066  155.9705 H   0  0  0  0  0  0  0  0  0  0  0  0  # atno 8010 bound_to 7997
  140.2950  144.3002  150.6232 H   0  0  0  0  0  0  0  0  0  0  0  0  # atno 10167 bound_to 10162
  157.5766  131.1079  150.8267 H   0  0  0  0  0  0  0  0  0  0  0  0  # atno 10718 bound_to 10713
  153.0173  135.6365  154.1639 H   0  0  0  0  0  0  0  0  0  0  0  0  # atno 10763 bound_to 10752
  154.1377  135.2836  155.3170 H   0  0  0  0  0  0  0  0  0  0  0  0  # atno 10764 bound_to 10752
  154.6148  135.5544  153.7573 H   0  0  0  0  0  0  0  0  0  0  0  0  # atno 10765 bound_to 10752
  139.9749  134.6840  156.0374 H   0  0  0  0  0  0  0  0  0  0  0  0  # atno 11005 bound_to 11000
  145.0441  139.3235  143.5961 LP  0  0  0  0  0  0  0  0  0  0  0  0  # atno 17320 bound_to 7965
  146.3496  139.9826  142.8694 LP  0  0  0  0  0  0  0  0  0  0  0  0  # atno 17321 bound_to 7965
  140.5700  143.2182  151.7615 LP  0  0  0  0  0  0  0  0  0  0  0  0  # atno 17342 bound_to 10162
  139.4929  144.4230  151.9957 LP  0  0  0  0  0  0  0  0  0  0  0  0  # atno 17343 bound_to 10162
  156.8724  130.5150  149.5296 LP  0  0  0  0  0  0  0  0  0  0  0  0  # atno 17370 bound_to 10713
  156.0811  130.5821  150.9565 LP  0  0  0  0  0  0  0  0  0  0  0  0  # atno 17371 bound_to 10713
  141.1426  133.6562  156.3774 LP  0  0  0  0  0  0  0  0  0  0  0  0  # atno 17394 bound_to 11000
  140.5217  134.6298  157.5320 LP  0  0  0  0  0  0  0  0  0  0  0  0  # atno 17395 bound_to 11000

$$$$
