AV-unprocessed.smi:1312|AV-procd|sdf|5449|dock10
  -GOLD-   22720 5 23D 1   1.00000     0.00000
 Structure written by MMmdl.
 50 51  0  0  0  0  0  0  0  0  2 V2000
  149.3016  140.1157  154.3718 C   0  0  0  0  0  0  0  0  0  0  0  0
  148.3864  138.8828  154.4385 C   0  0  0  0  0  0  0  0  0  0  0  0
  147.1183  138.9584  153.5414 C   0  0  1  0  0  0  0  0  0  0  0  0
  146.2908  137.6476  153.6876 C   0  0  0  0  0  0  0  0  0  0  0  0
  146.5321  136.6582  152.6433 N   0  0  0  0  0  0  0  0  0  0  0  0
  145.7063  135.6445  152.3357 C   0  0  0  0  0  0  0  0  0  0  0  0
  144.6458  135.4412  152.9253 O   0  0  0  0  0  0  0  0  0  0  0  0
  146.1503  134.6951  151.2186 C   0  0  0  0  0  0  0  0  0  0  0  0
  146.3700  133.2971  151.7462 C   0  0  0  0  0  0  0  0  0  0  0  0
  147.2914  132.8888  152.7556 C   0  0  0  0  0  0  0  0  0  0  0  0
  148.2595  133.7348  153.5328 C   0  0  0  0  0  0  0  0  0  0  0  0
  147.2374  131.5891  152.9921 N   0  0  0  0  0  0  0  0  0  0  0  0
  146.2892  131.1250  152.1544 N   0  0  0  0  0  0  0  0  0  0  0  0
  145.9724  129.7099  152.1549 C   0  0  0  0  0  0  0  0  0  0  0  0
  145.7437  132.1336  151.3836 C   0  0  0  0  0  0  0  0  0  0  0  0
  144.6659  131.8724  150.3805 C   0  0  0  0  0  0  0  0  0  0  0  0
  146.2810  140.1644  153.8540 N   0  3  0  0  0  0  0  0  0  0  0  0
  145.9152  140.3721  155.2738 C   0  0  0  0  0  0  0  0  0  0  0  0
  145.4709  141.8266  155.3628 C   0  0  0  0  0  0  0  0  0  0  0  0
  146.4315  142.5332  154.4160 C   0  0  0  0  0  0  0  0  0  0  0  0
  146.8126  141.4692  153.3779 C   0  0  0  0  0  0  0  0  0  0  0  0
  150.0677  140.0640  155.1459 H   0  0  0  0  0  0  0  0  0  0  0  0
  148.7379  141.0356  154.5289 H   0  0  0  0  0  0  0  0  0  0  0  0
  149.8226  140.1942  153.4185 H   0  0  0  0  0  0  0  0  0  0  0  0
  148.9626  137.9886  154.1979 H   0  0  0  0  0  0  0  0  0  0  0  0
  148.1050  138.7895  155.4864 H   0  0  0  0  0  0  0  0  0  0  0  0
  147.4649  139.0537  152.5112 H   0  0  0  0  0  0  0  0  0  0  0  0
  146.4874  137.1580  154.6404 H   0  0  0  0  0  0  0  0  0  0  0  0
  145.2261  137.8831  153.6890 H   0  0  0  0  0  0  0  0  0  0  0  0
  147.3774  136.7590  152.0998 H   0  0  0  0  0  0  0  0  0  0  0  0
  145.3967  134.7169  150.4315 H   0  0  0  0  0  0  0  0  0  0  0  0
  147.0630  135.0856  150.7665 H   0  0  0  0  0  0  0  0  0  0  0  0
  147.9104  134.7642  153.6136 H   0  0  0  0  0  0  0  0  0  0  0  0
  149.2361  133.7530  153.0491 H   0  0  0  0  0  0  0  0  0  0  0  0
  148.3960  133.3562  154.5463 H   0  0  0  0  0  0  0  0  0  0  0  0
  144.8928  129.5729  152.2157 H   0  0  0  0  0  0  0  0  0  0  0  0
  146.4373  129.2115  153.0065 H   0  0  0  0  0  0  0  0  0  0  0  0
  146.3385  129.2540  151.2348 H   0  0  0  0  0  0  0  0  0  0  0  0
  144.4991  132.7370  149.7392 H   0  0  0  0  0  0  0  0  0  0  0  0
  143.7247  131.6397  150.8789 H   0  0  0  0  0  0  0  0  0  0  0  0
  144.9264  131.0304  149.7387 H   0  0  0  0  0  0  0  0  0  0  0  0
  145.1283  139.6912  155.6000 H   0  0  0  0  0  0  0  0  0  0  0  0
  146.7912  140.2209  155.9071 H   0  0  0  0  0  0  0  0  0  0  0  0
  144.4475  141.9257  154.9983 H   0  0  0  0  0  0  0  0  0  0  0  0
  145.5080  142.2215  156.3786 H   0  0  0  0  0  0  0  0  0  0  0  0
  145.9888  143.4212  153.9633 H   0  0  0  0  0  0  0  0  0  0  0  0
  147.3215  142.8488  154.9622 H   0  0  0  0  0  0  0  0  0  0  0  0
  147.8975  141.4455  153.2692 H   0  0  0  0  0  0  0  0  0  0  0  0
  146.3825  141.7043  152.4037 H   0  0  0  0  0  0  0  0  0  0  0  0
  145.4008  140.0328  153.3768 H   0  0  0  0  0  0  0  0  0  0  0  0
  1  2  1  0  0  0  0
  1 22  1  0  0  0  0
  1 23  1  0  0  0  0
  1 24  1  0  0  0  0
  2  3  1  0  0  0  0
  2 25  1  0  0  0  0
  2 26  1  0  0  0  0
  3  4  1  0  0  0  0
  3 17  1  0  0  0  0
  3 27  1  0  0  0  0
  4  5  1  0  0  0  0
  4 28  1  0  0  0  0
  4 29  1  0  0  0  0
  5  6  1  0  0  0  0
  5 30  1  0  0  0  0
  6  7  2  0  0  0  0
  6  8  1  0  0  0  0
  8  9  1  0  0  0  0
  8 31  1  0  0  0  0
  8 32  1  0  0  0  0
  9 15  2  0  0  0  0
  9 10  1  0  0  0  0
 10 11  1  0  0  0  0
 10 12  2  0  0  0  0
 11 33  1  0  0  0  0
 11 34  1  0  0  0  0
 11 35  1  0  0  0  0
 12 13  1  0  0  0  0
 13 14  1  0  0  0  0
 13 15  1  0  0  0  0
 14 36  1  0  0  0  0
 14 37  1  0  0  0  0
 14 38  1  0  0  0  0
 15 16  1  0  0  0  0
 16 39  1  0  0  0  0
 16 40  1  0  0  0  0
 16 41  1  0  0  0  0
 17 21  1  0  0  0  0
 17 18  1  0  0  0  0
 17 50  1  0  0  0  0
 18 19  1  0  0  0  0
 18 42  1  0  0  0  0
 18 43  1  0  0  0  0
 19 20  1  0  0  0  0
 19 44  1  0  0  0  0
 19 45  1  0  0  0  0
 20 21  1  0  0  0  0
 20 46  1  0  0  0  0
 20 47  1  0  0  0  0
 21 48  1  0  0  0  0
 21 49  1  0  0  0  0
M  CHG  1  17   1
M  END
> <s_m_source_file>
AV-unprocessed.smi

> <i_m_source_file_index>
1312

> <i_lp_mmshare_version>
43012

> <i_f3d_flags>
0

> <s_epik_input>
W0NIMl0xW0NIMl1bQ0gyXVtDSDJdTjFbQ0BIXShbQ0gyXVtDSDNdKVtDSDJdW05IXUMoPU8pW0NIMl1jMmMoW0NIM10pbm4oW0NIM10pYzJbQ0gzXQ==

> <s_epik_cmdline>
J2VwaWtfcHl0aG9uJywgJy1waCcsICc3LjAnLCAnLXRuJywgJzgnLCAnLW1hJywgJzIwMCcsICctbWV0YWxfYmluZGluZycsICctaW1hZScsICc8aW5maWxlLm1hZT4nLCAnLW9tYWUnLCAnPG91dGZpbGUubWFlPic=

> <r_lp_tautomer_probability>
1

> <r_epik_Ionization_Penalty>
0.00585463

> <r_epik_Ionization_Penalty_Charging>
0.00366302

> <r_epik_Ionization_Penalty_Neutral>
0.00219161

> <r_epik_State_Penalty>
-0

> <r_epik_Charging_Adjusted_Penalty>
0.00366302

> <i_epik_Tot_Q>
1

> <i_epik_Tot_abs_Q>
1

> <r_epik_Metal_State_Penalty>
-0

> <b_epik_Metal_Only>
0

> <s_lp_Force_Field>
OPLS_2005

> <r_lp_Energy>
35.2401

> <b_lp_Chiralities_Consistent>
1

> <s_lp_Variant>
AV-unprocessed.smi:1312-2

> <Gold.Version>
5.8.1

> <Gold.Id.Protein>
6NUR|6NUR_protein|mol2

> <Gold.PLP.Fitness>
44.8500

> <Gold.PLP.PLP>
-37.4883

> <Gold.PLP.part.hbond>
-2.0000

> <Gold.PLP.part.metal>
0.0000

> <Gold.PLP.part.buried>
-6.6913

> <Gold.PLP.part.nonpolar>
-29.7363

> <Gold.PLP.part.repulsive>
0.2708

> <Gold.PLP.ligand.clash>
0.0000

> <Gold.PLP.ligand.torsion>
0.8657

> <Gold.PLP.Chemscore.Hbond>
3.0000

> <Gold.PLP.Chemscore.CHOScore>
0.0000

> <Gold.PLP.Chemscore.Metal>
0.0000

> <Gold.Chemscore.Hbonds>
donor molecule, donor type, donor heavy atom, donor atom, acceptor molecule, acceptor atom, score
      L1  H     5    30       P1  7948  0.94
      L1  H    17    50       P1 10175  2.00

> <Gold.PLP.Chemscore.Internal.Correction>
0.0931

> <Gold.Rescore>
     Score         DG    S(hbond)    S(metal)    S(lipo)     H(rot)  DE(clash)    DE(int)     intcor
     16.69     -17.86       1.98        0.00      87.03       1.72       0.00       1.17       ----

> <Gold.Chemscore.Fitness>
16.6900

> <Gold.Chemscore.DG>
-17.8614

> <Gold.Chemscore.ZeroCoef>
-5.4800

> <Gold.Chemscore.Hbond>
1.9777

> <Gold.Chemscore.Metal>
0.0000

> <Gold.Chemscore.Lipo>
87.0287

> <Gold.Chemscore.Internal_Hbond>
0.0000

> <Gold.Chemscore.DEClash>
0.0029

> <Gold.Chemscore.DEInternal>
1.1685

> <Gold.Chemscore.Rot>
1.7213

> <Gold.Chemscore.Internal.Correction>
   9.000000E+99

> <Gold.Chemscore.Hbonds>
donor molecule, donor type, donor heavy atom, donor atom, acceptor molecule, acceptor atom, score
      L1  H     5    30       P1  7948  0.91
      L1  H    17    50       P1 10175  0.96

> <Gold.Chemscore.Hbond.Weighted>
-6.6056

> <Gold.Chemscore.Metal.Weighted>
-0.0000

> <Gold.Chemscore.Lipo.Weighted>
-10.1824

> <Gold.Chemscore.Internal_Hbond.Weighted>
0.0000

> <Gold.Chemscore.DEClash.Weighted>
0.0029

> <Gold.Chemscore.DEInternal.Weighted>
1.1685

> <Gold.Chemscore.Rot.Weighted>
4.4065

> <Gold.Chemscore.Internal.Correction.Weighted>
   9.000000E+99

> <Gold.Protein.RotatedTorsions>
[ 6907 6896 6895 6894 ] final    3.42 input  -60.11 | X-H torsion
[ 7974 7965 7964 7962 ] final   73.51 input  175.53 | X-H torsion
[ 8008 7997 7996 7995 ] final  169.15 input   59.86 | X-H torsion
[ 10167 10162 10161 10158 ] final  -76.15 input  -65.29 | X-H torsion
[ 10718 10713 10712 10709 ] final  158.71 input   66.30 | X-H torsion
[ 10763 10752 10751 10750 ] final  -33.45 input  -60.55 | X-H torsion
[ 11005 11000 10999 10996 ] final  -96.50 input  -57.11 | X-H torsion

> <Gold.Protein.ActiveResidues>
 VAL166  LYS551  ARG553  GLY616  TRP617  ASP618  TYR619  PRO620  LYS621  CYS622 
 ASP623  PHE694  ASN695  SER759  ASP760  ASP761  ALA762  ILE779  LEU786  VAL792 
 PHE793  MET794  SER795  GLU796  ALA797  LYS798  CYS799  TRP800  GLU811  SER814 

> <Gold.Protein.RotatedAtoms>
  151.6248  135.1028  160.0108 H   0  0  0  0  0  0  0  0  0  0  0  0  # atno 6907 bound_to 6896
  152.4138  133.7002  159.6430 H   0  0  0  0  0  0  0  0  0  0  0  0  # atno 6908 bound_to 6896
  150.8027  133.8493  159.3242 H   0  0  0  0  0  0  0  0  0  0  0  0  # atno 6909 bound_to 6896
  145.7400  139.2717  143.1492 H   0  0  0  0  0  0  0  0  0  0  0  0  # atno 7974 bound_to 7965
  156.1483  140.1572  156.8810 H   0  0  0  0  0  0  0  0  0  0  0  0  # atno 8008 bound_to 7997
  154.5048  140.0816  156.7909 H   0  0  0  0  0  0  0  0  0  0  0  0  # atno 8009 bound_to 7997
  155.3945  140.3411  155.4255 H   0  0  0  0  0  0  0  0  0  0  0  0  # atno 8010 bound_to 7997
  140.4881  143.2386  151.7950 H   0  0  0  0  0  0  0  0  0  0  0  0  # atno 10167 bound_to 10162
  157.1741  131.0617  151.2167 H   0  0  0  0  0  0  0  0  0  0  0  0  # atno 10718 bound_to 10713
  153.8305  135.6866  153.4815 H   0  0  0  0  0  0  0  0  0  0  0  0  # atno 10763 bound_to 10752
  153.1514  135.4616  154.9640 H   0  0  0  0  0  0  0  0  0  0  0  0  # atno 10764 bound_to 10752
  154.7889  135.3294  154.7768 H   0  0  0  0  0  0  0  0  0  0  0  0  # atno 10765 bound_to 10752
  141.1409  133.8102  157.0579 H   0  0  0  0  0  0  0  0  0  0  0  0  # atno 11005 bound_to 11000
  146.0457  140.8120  142.9807 LP  0  0  0  0  0  0  0  0  0  0  0  0  # atno 17320 bound_to 7965
  144.6873  140.2977  143.7268 LP  0  0  0  0  0  0  0  0  0  0  0  0  # atno 17321 bound_to 7965
  139.4846  144.4685  151.9455 LP  0  0  0  0  0  0  0  0  0  0  0  0  # atno 17342 bound_to 10162
  140.3771  144.2783  150.5913 LP  0  0  0  0  0  0  0  0  0  0  0  0  # atno 17343 bound_to 10162
  157.4015  130.7336  149.6770 LP  0  0  0  0  0  0  0  0  0  0  0  0  # atno 17370 bound_to 10713
  155.9734  130.4119  150.4007 LP  0  0  0  0  0  0  0  0  0  0  0  0  # atno 17371 bound_to 10713
  140.0590  134.9765  157.1271 LP  0  0  0  0  0  0  0  0  0  0  0  0  # atno 17394 bound_to 11000
  140.3877  134.2219  155.7167 LP  0  0  0  0  0  0  0  0  0  0  0  0  # atno 17395 bound_to 11000

$$$$
