AV-unprocessed.smi:1780|AV-procd|sdf|7183|dock8
  -GOLD-   22720 8423D 1   1.00000     0.00000
 Structure written by MMmdl.
 43 44  0  0  0  0  0  0  0  0  1 V2000
  137.2594  137.4120  154.7675 C   0  0  0  0  0  0  0  0  0  0  0  0
  138.0654  137.5511  153.4705 C   0  0  0  0  0  0  0  0  0  0  0  0
  139.4898  137.4136  153.7044 N   0  0  0  0  0  0  0  0  0  0  0  0
  140.4882  138.3368  153.4642 C   0  0  0  0  0  0  0  0  0  0  0  0
  141.6494  137.7377  153.8502 C   0  0  0  0  0  0  0  0  0  0  0  0
  142.9329  138.3339  153.7717 N   0  0  0  0  0  0  0  0  0  0  0  0
  144.0189  138.0207  154.4965 C   0  0  0  0  0  0  0  0  0  0  0  0
  144.0504  137.1797  155.3946 O   0  0  0  0  0  0  0  0  0  0  0  0
  145.0836  138.7396  154.1117 N   0  0  0  0  0  0  0  0  0  0  0  0
  146.4280  138.6380  154.6765 C   0  0  0  0  0  0  0  0  0  0  0  0
  147.2392  139.9617  154.5726 C   0  0  2  0  0  0  0  0  0  0  0  0
  147.2374  140.4474  153.1006 C   0  0  0  0  0  0  0  0  0  0  0  0
  148.6063  139.8530  155.1356 N   0  0  0  0  0  0  0  0  0  0  0  0
  149.2900  141.1483  155.2279 C   0  0  0  0  0  0  0  0  0  0  0  0
  150.7197  141.0324  155.7842 C   0  0  0  0  0  0  0  0  0  0  0  0
  151.4765  140.1387  154.9800 O   0  0  0  0  0  0  0  0  0  0  0  0
  150.8920  138.8451  154.9291 C   0  0  0  0  0  0  0  0  0  0  0  0
  149.4638  138.9437  154.3655 C   0  0  0  0  0  0  0  0  0  0  0  0
  141.2825  136.4437  154.3169 C   0  0  0  0  0  0  0  0  0  0  0  0
  139.9742  136.2585  154.2236 N   0  0  0  0  0  0  0  0  0  0  0  0
  136.1930  137.5294  154.5750 H   0  0  0  0  0  0  0  0  0  0  0  0
  137.5521  138.1686  155.4959 H   0  0  0  0  0  0  0  0  0  0  0  0
  137.4085  136.4325  155.2230 H   0  0  0  0  0  0  0  0  0  0  0  0
  137.7538  136.7966  152.7470 H   0  0  0  0  0  0  0  0  0  0  0  0
  137.8786  138.5241  153.0148 H   0  0  0  0  0  0  0  0  0  0  0  0
  140.2886  139.3141  153.0502 H   0  0  0  0  0  0  0  0  0  0  0  0
  143.0420  139.0555  153.0745 H   0  0  0  0  0  0  0  0  0  0  0  0
  144.9586  139.4065  153.3644 H   0  0  0  0  0  0  0  0  0  0  0  0
  146.2633  138.3597  155.7157 H   0  0  0  0  0  0  0  0  0  0  0  0
  146.9888  137.8174  154.2258 H   0  0  0  0  0  0  0  0  0  0  0  0
  146.6978  140.7109  155.1525 H   0  0  0  0  0  0  0  0  0  0  0  0
  146.2324  140.5164  152.6875 H   0  0  0  0  0  0  0  0  0  0  0  0
  147.8090  139.7725  152.4624 H   0  0  0  0  0  0  0  0  0  0  0  0
  147.6502  141.4485  152.9895 H   0  0  0  0  0  0  0  0  0  0  0  0
  149.3208  141.6219  154.2455 H   0  0  0  0  0  0  0  0  0  0  0  0
  148.7505  141.8223  155.8901 H   0  0  0  0  0  0  0  0  0  0  0  0
  151.2054  142.0081  155.7848 H   0  0  0  0  0  0  0  0  0  0  0  0
  150.7052  140.6815  156.8174 H   0  0  0  0  0  0  0  0  0  0  0  0
  151.5051  138.2032  154.2964 H   0  0  0  0  0  0  0  0  0  0  0  0
  150.8852  138.3994  155.9249 H   0  0  0  0  0  0  0  0  0  0  0  0
  149.0544  137.9355  154.3656 H   0  0  0  0  0  0  0  0  0  0  0  0
  149.5078  139.2694  153.3252 H   0  0  0  0  0  0  0  0  0  0  0  0
  141.8961  135.6469  154.7097 H   0  0  0  0  0  0  0  0  0  0  0  0
  1  2  1  0  0  0  0
  1 21  1  0  0  0  0
  1 22  1  0  0  0  0
  1 23  1  0  0  0  0
  2  3  1  0  0  0  0
  2 24  1  0  0  0  0
  2 25  1  0  0  0  0
  3 20  1  0  0  0  0
  3  4  1  0  0  0  0
  4  5  2  0  0  0  0
  4 26  1  0  0  0  0
  5  6  1  0  0  0  0
  5 19  1  0  0  0  0
  6  7  1  0  0  0  0
  6 27  1  0  0  0  0
  7  8  2  0  0  0  0
  7  9  1  0  0  0  0
  9 10  1  0  0  0  0
  9 28  1  0  0  0  0
 10 11  1  0  0  0  0
 10 29  1  0  0  0  0
 10 30  1  0  0  0  0
 11 12  1  0  0  0  0
 11 13  1  0  0  0  0
 11 31  1  0  0  0  0
 12 32  1  0  0  0  0
 12 33  1  0  0  0  0
 12 34  1  0  0  0  0
 13 18  1  0  0  0  0
 13 14  1  0  0  0  0
 14 15  1  0  0  0  0
 14 35  1  0  0  0  0
 14 36  1  0  0  0  0
 15 16  1  0  0  0  0
 15 37  1  0  0  0  0
 15 38  1  0  0  0  0
 16 17  1  0  0  0  0
 17 18  1  0  0  0  0
 17 39  1  0  0  0  0
 17 40  1  0  0  0  0
 18 41  1  0  0  0  0
 18 42  1  0  0  0  0
 19 20  2  0  0  0  0
 19 43  1  0  0  0  0
M  END
> <s_m_source_file>
AV-unprocessed.smi

> <i_m_source_file_index>
1780

> <i_lp_mmshare_version>
43012

> <i_f3d_flags>
0

> <s_epik_input>
W0NIM11bQ0gyXW4xW2NIXWMoW2NIXW4xKVtOSF1DKD1PKVtOSF1bQ0gyXVtDQEhdKFtDSDNdKU4yW0NIMl1bQ0gyXU9bQ0gyXVtDSDJdMg==

> <s_epik_cmdline>
J2VwaWtfcHl0aG9uJywgJy1waCcsICc3LjAnLCAnLXRuJywgJzgnLCAnLW1hJywgJzIwMCcsICctbWV0YWxfYmluZGluZycsICctaW1hZScsICc8aW5maWxlLm1hZT4nLCAnLW9tYWUnLCAnPG91dGZpbGUubWFlPic=

> <r_lp_tautomer_probability>
1

> <r_epik_Ionization_Penalty>
0.242902

> <r_epik_Ionization_Penalty_Charging>
0

> <r_epik_Ionization_Penalty_Neutral>
0.242902

> <r_epik_State_Penalty>
0.233765

> <r_epik_Charging_Adjusted_Penalty>
0.233765

> <i_epik_Tot_Q>
0

> <i_epik_Tot_abs_Q>
0

> <r_epik_Metal_State_Penalty>
0.233759

> <b_epik_Metal_Only>
0

> <s_lp_Force_Field>
OPLS_2005

> <r_lp_Energy>
32.6304

> <b_lp_Chiralities_Consistent>
1

> <s_lp_Variant>
AV-unprocessed.smi:1780-1

> <Gold.Version>
5.8.1

> <Gold.Id.Protein>
6NUR|6NUR_protein|mol2

> <Gold.PLP.Fitness>
43.6492

> <Gold.PLP.PLP>
-32.6433

> <Gold.PLP.part.hbond>
-3.1355

> <Gold.PLP.part.metal>
0.0000

> <Gold.PLP.part.buried>
-4.9465

> <Gold.PLP.part.nonpolar>
-24.9201

> <Gold.PLP.part.repulsive>
0.2413

> <Gold.PLP.ligand.clash>
0.0000

> <Gold.PLP.ligand.torsion>
0.3543

> <Gold.PLP.Chemscore.Hbond>
2.8960

> <Gold.PLP.Chemscore.CHOScore>
0.9962

> <Gold.PLP.Chemscore.Metal>
0.0000

> <Gold.Chemscore.Hbonds>
donor molecule, donor type, donor heavy atom, donor atom, acceptor molecule, acceptor atom, score
      L1  H     6    27       P1 10175  1.00
      L1  H     9    28       P1 10175  0.86
      P1  H  7989  7998       L1    16  1.00
      L1  C     4    26       P1 10160  1.00
      L1  C    19    43       P1 11000  0.02

> <Gold.PLP.Chemscore.Internal.Correction>
0.0381

> <Gold.Rescore>
     Score         DG    S(hbond)    S(metal)    S(lipo)     H(rot)  DE(clash)    DE(int)     intcor
     18.41     -18.96       2.76        0.00      71.56       1.61       0.14       0.41       ----

> <Gold.Chemscore.Fitness>
18.4111

> <Gold.Chemscore.DG>
-18.9557

> <Gold.Chemscore.ZeroCoef>
-5.4800

> <Gold.Chemscore.Hbond>
2.7632

> <Gold.Chemscore.Metal>
0.0000

> <Gold.Chemscore.Lipo>
71.5619

> <Gold.Chemscore.Internal_Hbond>
0.0000

> <Gold.Chemscore.DEClash>
0.1373

> <Gold.Chemscore.DEInternal>
0.4073

> <Gold.Chemscore.Rot>
1.6117

> <Gold.Chemscore.Internal.Correction>
   9.000000E+99

> <Gold.Chemscore.Hbonds>
donor molecule, donor type, donor heavy atom, donor atom, acceptor molecule, acceptor atom, score
      L1  H     6    27       P1 10175  0.97
      L1  H     9    28       P1 10175  0.85
      P1  H  7989  7998       L1    16  0.49

> <Gold.Chemscore.Hbond.Weighted>
-9.2290

> <Gold.Chemscore.Metal.Weighted>
-0.0000

> <Gold.Chemscore.Lipo.Weighted>
-8.3727

> <Gold.Chemscore.Internal_Hbond.Weighted>
0.0000

> <Gold.Chemscore.DEClash.Weighted>
0.1373

> <Gold.Chemscore.DEInternal.Weighted>
0.4073

> <Gold.Chemscore.Rot.Weighted>
4.1260

> <Gold.Chemscore.Internal.Correction.Weighted>
   9.000000E+99

> <Gold.Protein.RotatedTorsions>
[ 6907 6896 6895 6894 ] final   52.86 input  -60.11 | X-H torsion
[ 7974 7965 7964 7962 ] final    3.46 input  175.53 | X-H torsion
[ 8008 7997 7996 7995 ] final  101.62 input   59.86 | X-H torsion
[ 10167 10162 10161 10158 ] final    8.62 input  -65.29 | X-H torsion
[ 10718 10713 10712 10709 ] final   20.63 input   66.30 | X-H torsion
[ 10763 10752 10751 10750 ] final   92.14 input  -60.55 | X-H torsion
[ 11005 11000 10999 10996 ] final  163.97 input  -57.11 | X-H torsion

> <Gold.Protein.ActiveResidues>
 VAL166  LYS551  ARG553  GLY616  TRP617  ASP618  TYR619  PRO620  LYS621  CYS622 
 ASP623  PHE694  ASN695  SER759  ASP760  ASP761  ALA762  ILE779  LEU786  VAL792 
 PHE793  MET794  SER795  GLU796  ALA797  LYS798  CYS799  TRP800  GLU811  SER814 

> <Gold.Protein.RotatedAtoms>
  152.3277  134.7300  160.0297 H   0  0  0  0  0  0  0  0  0  0  0  0  # atno 6907 bound_to 6896
  151.7727  133.3337  159.3457 H   0  0  0  0  0  0  0  0  0  0  0  0  # atno 6908 bound_to 6896
  150.7405  134.5935  159.6044 H   0  0  0  0  0  0  0  0  0  0  0  0  # atno 6909 bound_to 6896
  146.2445  140.0682  142.8364 H   0  0  0  0  0  0  0  0  0  0  0  0  # atno 7974 bound_to 7965
  156.1316  140.3194  155.8358 H   0  0  0  0  0  0  0  0  0  0  0  0  # atno 8008 bound_to 7997
  155.4320  140.0519  157.3035 H   0  0  0  0  0  0  0  0  0  0  0  0  # atno 8009 bound_to 7997
  154.4904  140.2090  155.9574 H   0  0  0  0  0  0  0  0  0  0  0  0  # atno 8010 bound_to 7997
  140.6303  143.8008  150.7287 H   0  0  0  0  0  0  0  0  0  0  0  0  # atno 10167 bound_to 10162
  157.1271  130.6575  149.5941 H   0  0  0  0  0  0  0  0  0  0  0  0  # atno 10718 bound_to 10713
  153.2159  135.4372  155.0433 H   0  0  0  0  0  0  0  0  0  0  0  0  # atno 10763 bound_to 10752
  154.8224  135.3344  154.7000 H   0  0  0  0  0  0  0  0  0  0  0  0  # atno 10764 bound_to 10752
  153.7435  135.7003  153.5017 H   0  0  0  0  0  0  0  0  0  0  0  0  # atno 10765 bound_to 10752
  140.2411  134.8050  157.3412 H   0  0  0  0  0  0  0  0  0  0  0  0  # atno 11005 bound_to 11000
  145.0839  140.9239  143.4809 LP  0  0  0  0  0  0  0  0  0  0  0  0  # atno 17320 bound_to 7965
  145.0841  139.2938  143.5768 LP  0  0  0  0  0  0  0  0  0  0  0  0  # atno 17321 bound_to 7965
  140.1618  143.4269  152.2062 LP  0  0  0  0  0  0  0  0  0  0  0  0  # atno 17342 bound_to 10162
  139.5518  144.7343  151.4412 LP  0  0  0  0  0  0  0  0  0  0  0  0  # atno 17343 bound_to 10162
  155.9816  130.4824  150.6835 LP  0  0  0  0  0  0  0  0  0  0  0  0  # atno 17370 bound_to 10713
  157.4425  131.0863  151.0929 LP  0  0  0  0  0  0  0  0  0  0  0  0  # atno 17371 bound_to 10713
  140.1652  134.4678  155.7868 LP  0  0  0  0  0  0  0  0  0  0  0  0  # atno 17394 bound_to 11000
  141.2210  133.6918  156.7613 LP  0  0  0  0  0  0  0  0  0  0  0  0  # atno 17395 bound_to 11000

$$$$
