AV-unprocessed.smi:1392|AV-procd|sdf|5661|dock9
  -GOLD-   22720 5283D 1   1.00000     0.00000
 Structure written by MMmdl.
 39 40  0  0  0  0  0  0  0  0  1 V2000
  143.7677  132.2915  150.1287 C   0  0  0  0  0  0  0  0  0  0  0  0
  144.8428  132.8072  150.9671 N   0  0  0  0  0  0  0  0  0  0  0  0
  146.0066  131.9742  151.2523 C   0  0  0  0  0  0  0  0  0  0  0  0
  144.7522  134.1043  151.5228 C   0  0  0  0  0  0  0  0  0  0  0  0
  143.5029  134.7516  151.6912 C   0  0  0  0  0  0  0  0  0  0  0  0
  143.4633  136.0426  152.2521 C   0  0  0  0  0  0  0  0  0  0  0  0
  144.6743  136.6593  152.6411 C   0  0  0  0  0  0  0  0  0  0  0  0
  144.7686  137.9624  153.2002 N   0  0  0  0  0  0  0  0  0  0  0  0
  145.6117  138.4082  154.1471 C   0  0  0  0  0  0  0  0  0  0  0  0
  146.4951  137.7420  154.6863 O   0  0  0  0  0  0  0  0  0  0  0  0
  145.3843  139.6986  154.4298 N   0  0  0  0  0  0  0  0  0  0  0  0
  146.1290  140.4859  155.4068 C   0  0  0  0  0  0  0  0  0  0  0  0
  147.6497  140.4164  155.1698 C   0  0  2  0  0  0  0  0  0  0  0  0
  148.4849  141.2004  156.1628 C   0  0  0  0  0  0  0  0  0  0  0  0
  149.8071  141.3429  155.4153 C   0  0  0  0  0  0  0  0  0  0  0  0
  149.4689  141.3919  154.0320 O   0  0  0  0  0  0  0  0  0  0  0  0
  148.1008  141.0390  153.8491 C   0  0  0  0  0  0  0  0  0  0  0  0
  145.8680  135.9453  152.4210 C   0  0  0  0  0  0  0  0  0  0  0  0
  145.9105  134.7080  151.8849 N   0  0  0  0  0  0  0  0  0  0  0  0
  143.6378  132.9163  149.2447 H   0  0  0  0  0  0  0  0  0  0  0  0
  142.8283  132.2670  150.6818 H   0  0  0  0  0  0  0  0  0  0  0  0
  143.9796  131.2774  149.7897 H   0  0  0  0  0  0  0  0  0  0  0  0
  146.9198  132.4610  150.9089 H   0  0  0  0  0  0  0  0  0  0  0  0
  145.9367  131.0078  150.7535 H   0  0  0  0  0  0  0  0  0  0  0  0
  146.0929  131.7910  152.3237 H   0  0  0  0  0  0  0  0  0  0  0  0
  142.5736  134.2875  151.3980 H   0  0  0  0  0  0  0  0  0  0  0  0
  142.5088  136.5342  152.3576 H   0  0  0  0  0  0  0  0  0  0  0  0
  144.1530  138.6516  152.7939 H   0  0  0  0  0  0  0  0  0  0  0  0
  144.6419  140.1713  153.9352 H   0  0  0  0  0  0  0  0  0  0  0  0
  145.7911  141.5233  155.3831 H   0  0  0  0  0  0  0  0  0  0  0  0
  145.8860  140.1070  156.3999 H   0  0  0  0  0  0  0  0  0  0  0  0
  147.9764  139.3752  155.1864 H   0  0  0  0  0  0  0  0  0  0  0  0
  148.0461  142.1837  156.3377 H   0  0  0  0  0  0  0  0  0  0  0  0
  148.5948  140.6981  157.1243 H   0  0  0  0  0  0  0  0  0  0  0  0
  150.3654  142.2276  155.7215 H   0  0  0  0  0  0  0  0  0  0  0  0
  150.4362  140.4686  155.5867 H   0  0  0  0  0  0  0  0  0  0  0  0
  147.9741  140.3613  153.0045 H   0  0  0  0  0  0  0  0  0  0  0  0
  147.5388  141.9497  153.6382 H   0  0  0  0  0  0  0  0  0  0  0  0
  146.8220  136.3763  152.6875 H   0  0  0  0  0  0  0  0  0  0  0  0
  1  2  1  0  0  0  0
  1 20  1  0  0  0  0
  1 21  1  0  0  0  0
  1 22  1  0  0  0  0
  2  3  1  0  0  0  0
  2  4  1  0  0  0  0
  3 23  1  0  0  0  0
  3 24  1  0  0  0  0
  3 25  1  0  0  0  0
  4 19  1  0  0  0  0
  4  5  2  0  0  0  0
  5  6  1  0  0  0  0
  5 26  1  0  0  0  0
  6  7  2  0  0  0  0
  6 27  1  0  0  0  0
  7  8  1  0  0  0  0
  7 18  1  0  0  0  0
  8  9  1  0  0  0  0
  8 28  1  0  0  0  0
  9 10  2  0  0  0  0
  9 11  1  0  0  0  0
 11 12  1  0  0  0  0
 11 29  1  0  0  0  0
 12 13  1  0  0  0  0
 12 30  1  0  0  0  0
 12 31  1  0  0  0  0
 13 17  1  0  0  0  0
 13 14  1  0  0  0  0
 13 32  1  0  0  0  0
 14 15  1  0  0  0  0
 14 33  1  0  0  0  0
 14 34  1  0  0  0  0
 15 16  1  0  0  0  0
 15 35  1  0  0  0  0
 15 36  1  0  0  0  0
 16 17  1  0  0  0  0
 17 37  1  0  0  0  0
 17 38  1  0  0  0  0
 18 19  2  0  0  0  0
 18 39  1  0  0  0  0
M  END
> <s_m_source_file>
AV-unprocessed.smi

> <i_m_source_file_index>
1392

> <i_lp_mmshare_version>
43012

> <i_f3d_flags>
0

> <s_epik_input>
W0NIM11OKFtDSDNdKWMxW2NIXVtjSF1jKFtjSF1uMSlbTkhdQyg9TylbTkhdW0NIMl1bQ0BASF0yW0NIMl1bQ0gyXU9bQ0gyXTI=

> <s_epik_cmdline>
J2VwaWtfcHl0aG9uJywgJy1waCcsICc3LjAnLCAnLXRuJywgJzgnLCAnLW1hJywgJzIwMCcsICctbWV0YWxfYmluZGluZycsICctaW1hZScsICc8aW5maWxlLm1hZT4nLCAnLW9tYWUnLCAnPG91dGZpbGUubWFlPic=

> <r_lp_tautomer_probability>
1

> <r_epik_Ionization_Penalty>
0.612298

> <r_epik_Ionization_Penalty_Charging>
0

> <r_epik_Ionization_Penalty_Neutral>
0.612298

> <r_epik_State_Penalty>
0.626495

> <r_epik_Charging_Adjusted_Penalty>
0.626495

> <i_epik_Tot_Q>
0

> <i_epik_Tot_abs_Q>
0

> <r_epik_Metal_State_Penalty>
0.304101

> <b_epik_Metal_Only>
0

> <s_lp_Force_Field>
OPLS_2005

> <r_lp_Energy>
22.6053

> <b_lp_Chiralities_Consistent>
1

> <s_lp_Variant>
AV-unprocessed.smi:1392-3

> <Gold.Version>
5.8.1

> <Gold.Id.Protein>
6NUR|6NUR_protein|mol2

> <Gold.PLP.Fitness>
38.9760

> <Gold.PLP.PLP>
-28.6920

> <Gold.PLP.part.hbond>
-4.0000

> <Gold.PLP.part.metal>
0.0000

> <Gold.PLP.part.buried>
-3.5363

> <Gold.PLP.part.nonpolar>
-21.6707

> <Gold.PLP.part.repulsive>
0.4048

> <Gold.PLP.ligand.clash>
0.0000

> <Gold.PLP.ligand.torsion>
0.5226

> <Gold.PLP.Chemscore.Hbond>
2.7741

> <Gold.PLP.Chemscore.CHOScore>
1.0000

> <Gold.PLP.Chemscore.Metal>
0.0000

> <Gold.Chemscore.Hbonds>
donor molecule, donor type, donor heavy atom, donor atom, acceptor molecule, acceptor atom, score
      L1  H     8    28       P1 10175  1.00
      L1  H    11    29       P1 10175  1.00
      P1  H  7989  7998       L1    16  0.07
      P1  H  8011  8017       L1    16  0.72
      L1  C    18    39       P1  7948  1.00

> <Gold.PLP.Chemscore.Internal.Correction>
0.0069

> <Gold.Rescore>
     Score         DG    S(hbond)    S(metal)    S(lipo)     H(rot)  DE(clash)    DE(int)     intcor
     15.64     -18.07       2.48        0.00      63.47       1.21       0.17       2.25       ----

> <Gold.Chemscore.Fitness>
15.6389

> <Gold.Chemscore.DG>
-18.0653

> <Gold.Chemscore.ZeroCoef>
-5.4800

> <Gold.Chemscore.Hbond>
2.4756

> <Gold.Chemscore.Metal>
0.0000

> <Gold.Chemscore.Lipo>
63.4713

> <Gold.Chemscore.Internal_Hbond>
0.0000

> <Gold.Chemscore.DEClash>
0.1721

> <Gold.Chemscore.DEInternal>
2.2543

> <Gold.Chemscore.Rot>
1.2146

> <Gold.Chemscore.Internal.Correction>
   9.000000E+99

> <Gold.Chemscore.Hbonds>
donor molecule, donor type, donor heavy atom, donor atom, acceptor molecule, acceptor atom, score
      L1  H     8    28       P1 10175  0.96
      L1  H    11    29       P1 10175  0.97
      P1  H  8011  8017       L1    16  0.18

> <Gold.Chemscore.Hbond.Weighted>
-8.2685

> <Gold.Chemscore.Metal.Weighted>
-0.0000

> <Gold.Chemscore.Lipo.Weighted>
-7.4261

> <Gold.Chemscore.Internal_Hbond.Weighted>
0.0000

> <Gold.Chemscore.DEClash.Weighted>
0.1721

> <Gold.Chemscore.DEInternal.Weighted>
2.2543

> <Gold.Chemscore.Rot.Weighted>
3.1093

> <Gold.Chemscore.Internal.Correction.Weighted>
   9.000000E+99

> <Gold.Protein.RotatedTorsions>
[ 6907 6896 6895 6894 ] final  -45.19 input  -60.11 | X-H torsion
[ 7974 7965 7964 7962 ] final   11.24 input  175.53 | X-H torsion
[ 8008 7997 7996 7995 ] final -109.18 input   59.86 | X-H torsion
[ 10167 10162 10161 10158 ] final  -32.42 input  -65.29 | X-H torsion
[ 10718 10713 10712 10709 ] final -110.41 input   66.30 | X-H torsion
[ 10763 10752 10751 10750 ] final   76.60 input  -60.55 | X-H torsion
[ 11005 11000 10999 10996 ] final   97.72 input  -57.11 | X-H torsion

> <Gold.Protein.ActiveResidues>
 VAL166  LYS551  ARG553  GLY616  TRP617  ASP618  TYR619  PRO620  LYS621  CYS622 
 ASP623  PHE694  ASN695  SER759  ASP760  ASP761  ALA762  ILE779  LEU786  VAL792 
 PHE793  MET794  SER795  GLU796  ALA797  LYS798  CYS799  TRP800  GLU811  SER814 

> <Gold.Protein.RotatedAtoms>
  150.9246  134.8663  159.7511 H   0  0  0  0  0  0  0  0  0  0  0  0  # atno 6907 bound_to 6896
  152.5009  134.4168  159.9477 H   0  0  0  0  0  0  0  0  0  0  0  0  # atno 6908 bound_to 6896
  151.4199  133.3661  159.2790 H   0  0  0  0  0  0  0  0  0  0  0  0  # atno 6909 bound_to 6896
  146.2374  139.9515  142.8470 H   0  0  0  0  0  0  0  0  0  0  0  0  # atno 7974 bound_to 7965
  154.9554  140.0400  157.2164 H   0  0  0  0  0  0  0  0  0  0  0  0  # atno 8008 bound_to 7997
  154.7939  140.2840  155.5949 H   0  0  0  0  0  0  0  0  0  0  0  0  # atno 8009 bound_to 7997
  156.2953  140.2568  156.2792 H   0  0  0  0  0  0  0  0  0  0  0  0  # atno 8010 bound_to 7997
  140.7221  143.3696  151.1804 H   0  0  0  0  0  0  0  0  0  0  0  0  # atno 10167 bound_to 10162
  156.0589  130.5814  150.8233 H   0  0  0  0  0  0  0  0  0  0  0  0  # atno 10718 bound_to 10713
  153.0737  135.4945  154.8360 H   0  0  0  0  0  0  0  0  0  0  0  0  # atno 10763 bound_to 10752
  154.7058  135.3010  154.9274 H   0  0  0  0  0  0  0  0  0  0  0  0  # atno 10764 bound_to 10752
  153.9983  135.6769  153.4810 H   0  0  0  0  0  0  0  0  0  0  0  0  # atno 10765 bound_to 10752
  139.8775  134.9015  156.4350 H   0  0  0  0  0  0  0  0  0  0  0  0  # atno 11005 bound_to 11000
  145.1857  140.9788  143.4240 LP  0  0  0  0  0  0  0  0  0  0  0  0  # atno 17320 bound_to 7965
  144.9902  139.3697  143.6218 LP  0  0  0  0  0  0  0  0  0  0  0  0  # atno 17321 bound_to 7965
  139.7264  143.9141  152.3004 LP  0  0  0  0  0  0  0  0  0  0  0  0  # atno 17342 bound_to 10162
  139.8916  144.6962  150.8764 LP  0  0  0  0  0  0  0  0  0  0  0  0  # atno 17343 bound_to 10162
  157.5582  131.0945  150.9598 LP  0  0  0  0  0  0  0  0  0  0  0  0  # atno 17370 bound_to 10713
  156.9842  130.5538  149.5298 LP  0  0  0  0  0  0  0  0  0  0  0  0  # atno 17371 bound_to 10713
  140.9040  133.7759  155.9713 LP  0  0  0  0  0  0  0  0  0  0  0  0  # atno 17394 bound_to 11000
  140.8620  134.2830  157.5230 LP  0  0  0  0  0  0  0  0  0  0  0  0  # atno 17395 bound_to 11000

$$$$
