AV-unprocessed.smi:1205|AV-procd|sdf|5041|dock1
  -GOLD-   22720 4 63D 1   1.00000     0.00000
 Structure written by MMmdl.
 49 50  0  0  0  0  0  0  0  0  2 V2000
  150.3816  142.0143  156.0869 C   0  0  0  0  0  0  0  0  0  0  0  0
  150.2884  140.6403  155.4924 C   0  0  0  0  0  0  0  0  0  0  0  0
  149.1163  139.8666  155.2501 C   0  0  0  0  0  0  0  0  0  0  0  0
  149.6211  138.7172  154.7060 C   0  0  0  0  0  0  0  0  0  0  0  0
  148.9577  137.6086  154.2818 N   0  0  0  0  0  0  0  0  0  0  0  0
  148.2572  136.7209  155.0090 C   0  0  0  0  0  0  0  0  0  0  0  0
  148.0836  136.7711  156.2269 O   0  0  0  0  0  0  0  0  0  0  0  0
  147.7569  135.7457  154.2368 N   0  0  0  0  0  0  0  0  0  0  0  0
  146.9517  134.6296  154.7237 C   0  0  0  0  0  0  0  0  0  0  0  0
  147.2194  133.3180  153.9483 C   0  0  2  0  0  0  0  0  0  0  0  0
  148.6926  133.1744  153.5085 C   0  0  0  0  0  0  0  0  0  0  0  0
  146.2563  133.1682  152.8185 N   0  3  2  0  0  0  0  0  0  0  0  0
  146.3298  131.8437  152.1472 C   0  0  0  0  0  0  0  0  0  0  0  0
  145.1402  131.6491  151.1939 C   0  0  0  0  0  0  0  0  0  0  0  0
  145.0581  132.7910  150.1703 C   0  0  0  0  0  0  0  0  0  0  0  0
  145.0543  134.1679  150.8618 C   0  0  1  0  0  0  0  0  0  0  0  0
  143.7132  134.4894  151.5443 C   0  0  0  0  0  0  0  0  0  0  0  0
  146.2459  134.2860  151.8338 C   0  0  0  0  0  0  0  0  0  0  0  0
  150.9927  138.8213  154.6404 N   0  0  0  0  0  0  0  0  0  0  0  0
  151.9665  137.8672  154.1471 C   0  0  0  0  0  0  0  0  0  0  0  0
  151.4010  140.0129  155.1279 N   0  0  0  0  0  0  0  0  0  0  0  0
  149.3955  142.3958  156.3528 H   0  0  0  0  0  0  0  0  0  0  0  0
  150.8310  142.7168  155.3845 H   0  0  0  0  0  0  0  0  0  0  0  0
  150.9900  142.0103  156.9918 H   0  0  0  0  0  0  0  0  0  0  0  0
  148.0891  140.1306  155.4511 H   0  0  0  0  0  0  0  0  0  0  0  0
  149.0005  137.4373  153.2880 H   0  0  0  0  0  0  0  0  0  0  0  0
  147.9425  135.7783  153.2447 H   0  0  0  0  0  0  0  0  0  0  0  0
  147.1369  134.4854  155.7896 H   0  0  0  0  0  0  0  0  0  0  0  0
  145.9071  134.9254  154.6322 H   0  0  0  0  0  0  0  0  0  0  0  0
  147.0123  132.5024  154.6424 H   0  0  0  0  0  0  0  0  0  0  0  0
  149.3588  133.1421  154.3710 H   0  0  0  0  0  0  0  0  0  0  0  0
  149.0134  134.0092  152.8854 H   0  0  0  0  0  0  0  0  0  0  0  0
  148.8573  132.2542  152.9483 H   0  0  0  0  0  0  0  0  0  0  0  0
  147.2682  131.7562  151.5980 H   0  0  0  0  0  0  0  0  0  0  0  0
  146.3205  131.0450  152.8897 H   0  0  0  0  0  0  0  0  0  0  0  0
  145.2324  130.6940  150.6760 H   0  0  0  0  0  0  0  0  0  0  0  0
  144.2143  131.5957  151.7678 H   0  0  0  0  0  0  0  0  0  0  0  0
  145.9170  132.7289  149.5006 H   0  0  0  0  0  0  0  0  0  0  0  0
  144.1738  132.6748  149.5425 H   0  0  0  0  0  0  0  0  0  0  0  0
  145.1906  134.9208  150.0843 H   0  0  0  0  0  0  0  0  0  0  0  0
  143.4957  133.8015  152.3613 H   0  0  0  0  0  0  0  0  0  0  0  0
  142.8884  134.4310  150.8335 H   0  0  0  0  0  0  0  0  0  0  0  0
  143.7171  135.4986  151.9572 H   0  0  0  0  0  0  0  0  0  0  0  0
  146.2039  135.2491  152.3414 H   0  0  0  0  0  0  0  0  0  0  0  0
  147.1752  134.2759  151.2627 H   0  0  0  0  0  0  0  0  0  0  0  0
  151.7018  137.5633  153.1338 H   0  0  0  0  0  0  0  0  0  0  0  0
  151.9761  136.9886  154.7928 H   0  0  0  0  0  0  0  0  0  0  0  0
  152.9642  138.3085  154.1331 H   0  0  0  0  0  0  0  0  0  0  0  0
  145.3459  133.1832  153.2559 H   0  0  0  0  0  0  0  0  0  0  0  0
  1  2  1  0  0  0  0
  1 22  1  0  0  0  0
  1 23  1  0  0  0  0
  1 24  1  0  0  0  0
  2 21  2  0  0  0  0
  2  3  1  0  0  0  0
  3  4  2  0  0  0  0
  3 25  1  0  0  0  0
  4  5  1  0  0  0  0
  4 19  1  0  0  0  0
  5  6  1  0  0  0  0
  5 26  1  0  0  0  0
  6  7  2  0  0  0  0
  6  8  1  0  0  0  0
  8  9  1  0  0  0  0
  8 27  1  0  0  0  0
  9 10  1  0  0  0  0
  9 28  1  0  0  0  0
  9 29  1  0  0  0  0
 10 11  1  0  0  0  0
 10 12  1  0  0  0  0
 10 30  1  0  0  0  0
 11 31  1  0  0  0  0
 11 32  1  0  0  0  0
 11 33  1  0  0  0  0
 12 18  1  0  0  0  0
 12 13  1  0  0  0  0
 12 49  1  0  0  0  0
 13 14  1  0  0  0  0
 13 34  1  0  0  0  0
 13 35  1  0  0  0  0
 14 15  1  0  0  0  0
 14 36  1  0  0  0  0
 14 37  1  0  0  0  0
 15 16  1  0  0  0  0
 15 38  1  0  0  0  0
 15 39  1  0  0  0  0
 16 17  1  0  0  0  0
 16 18  1  0  0  0  0
 16 40  1  0  0  0  0
 17 41  1  0  0  0  0
 17 42  1  0  0  0  0
 17 43  1  0  0  0  0
 18 44  1  0  0  0  0
 18 45  1  0  0  0  0
 19 20  1  0  0  0  0
 19 21  1  0  0  0  0
 20 46  1  0  0  0  0
 20 47  1  0  0  0  0
 20 48  1  0  0  0  0
M  CHG  1  12   1
M  END
> <s_m_source_file>
AV-unprocessed.smi

> <i_m_source_file_index>
1205

> <i_lp_mmshare_version>
43012

> <i_f3d_flags>
0

> <s_epik_input>
W0NIM11jMVtjSF1jKG4objEpW0NIM10pW05IXUMoPU8pW05IXVtDSDJdW0NASF0oW0NIM10pTjJbQ0gyXVtDSDJdW0NIMl1bQ0BASF0oW0NIM10pW0NIMl0y

> <s_epik_cmdline>
J2VwaWtfcHl0aG9uJywgJy1waCcsICc3LjAnLCAnLXRuJywgJzgnLCAnLW1hJywgJzIwMCcsICctbWV0YWxfYmluZGluZycsICctaW1hZScsICc8aW5maWxlLm1hZT4nLCAnLW9tYWUnLCAnPG91dGZpbGUubWFlPic=

> <r_lp_tautomer_probability>
1

> <r_epik_Ionization_Penalty>
0.0020309

> <r_epik_Ionization_Penalty_Charging>
0.00195276

> <r_epik_Ionization_Penalty_Neutral>
7.81448e-05

> <r_epik_State_Penalty>
0.00133177

> <r_epik_Charging_Adjusted_Penalty>
0.00328452

> <i_epik_Tot_Q>
1

> <i_epik_Tot_abs_Q>
1

> <r_epik_Metal_State_Penalty>
-0

> <b_epik_Metal_Only>
0

> <s_lp_Force_Field>
OPLS_2005

> <r_lp_Energy>
24.2768

> <b_lp_Chiralities_Consistent>
1

> <s_lp_Variant>
AV-unprocessed.smi:1205-3

> <Gold.Version>
5.8.1

> <Gold.Id.Protein>
6NUR|6NUR_protein|mol2

> <Gold.PLP.Fitness>
41.0987

> <Gold.PLP.PLP>
-34.5388

> <Gold.PLP.part.hbond>
-3.0000

> <Gold.PLP.part.metal>
0.0000

> <Gold.PLP.part.buried>
-5.1634

> <Gold.PLP.part.nonpolar>
-27.4751

> <Gold.PLP.part.repulsive>
0.0603

> <Gold.PLP.ligand.clash>
0.0000

> <Gold.PLP.ligand.torsion>
1.2078

> <Gold.PLP.Chemscore.Hbond>
2.9500

> <Gold.PLP.Chemscore.CHOScore>
0.0000

> <Gold.PLP.Chemscore.Metal>
0.0000

> <Gold.Chemscore.Hbonds>
donor molecule, donor type, donor heavy atom, donor atom, acceptor molecule, acceptor atom, score
      L1  H     5    26       P1  7948  1.00
      L1  H     8    27       P1  7948  1.00
      P1  H  7989  7998       L1    21  0.81

> <Gold.PLP.Chemscore.Internal.Correction>
0.1256

> <Gold.Rescore>
     Score         DG    S(hbond)    S(metal)    S(lipo)     H(rot)  DE(clash)    DE(int)     intcor
     16.94     -18.09       2.02        0.00      82.08       1.47       0.04       1.11       ----

> <Gold.Chemscore.Fitness>
16.9380

> <Gold.Chemscore.DG>
-18.0934

> <Gold.Chemscore.ZeroCoef>
-5.4800

> <Gold.Chemscore.Hbond>
2.0246

> <Gold.Chemscore.Metal>
0.0000

> <Gold.Chemscore.Lipo>
82.0836

> <Gold.Chemscore.Internal_Hbond>
0.0000

> <Gold.Chemscore.DEClash>
0.0447

> <Gold.Chemscore.DEInternal>
1.1107

> <Gold.Chemscore.Rot>
1.4658

> <Gold.Chemscore.Internal.Correction>
   9.000000E+99

> <Gold.Chemscore.Hbonds>
donor molecule, donor type, donor heavy atom, donor atom, acceptor molecule, acceptor atom, score
      L1  H     5    26       P1  7948  0.94
      L1  H     8    27       P1  7948  0.96
      P1  H  7989  7998       L1    21  0.03

> <Gold.Chemscore.Hbond.Weighted>
-6.7622

> <Gold.Chemscore.Metal.Weighted>
-0.0000

> <Gold.Chemscore.Lipo.Weighted>
-9.6038

> <Gold.Chemscore.Internal_Hbond.Weighted>
0.0000

> <Gold.Chemscore.DEClash.Weighted>
0.0447

> <Gold.Chemscore.DEInternal.Weighted>
1.1107

> <Gold.Chemscore.Rot.Weighted>
3.7526

> <Gold.Chemscore.Internal.Correction.Weighted>
   9.000000E+99

> <Gold.Protein.RotatedTorsions>
[ 6907 6896 6895 6894 ] final  -35.65 input  -60.11 | X-H torsion
[ 7974 7965 7964 7962 ] final  140.46 input  175.53 | X-H torsion
[ 8008 7997 7996 7995 ] final  175.77 input   59.86 | X-H torsion
[ 10167 10162 10161 10158 ] final   59.72 input  -65.29 | X-H torsion
[ 10718 10713 10712 10709 ] final  157.90 input   66.30 | X-H torsion
[ 10763 10752 10751 10750 ] final  -70.36 input  -60.55 | X-H torsion
[ 11005 11000 10999 10996 ] final  -29.94 input  -57.11 | X-H torsion

> <Gold.Protein.ActiveResidues>
 VAL166  LYS551  ARG553  GLY616  TRP617  ASP618  TYR619  PRO620  LYS621  CYS622 
 ASP623  PHE694  ASN695  SER759  ASP760  ASP761  ALA762  ILE779  LEU786  VAL792 
 PHE793  MET794  SER795  GLU796  ALA797  LYS798  CYS799  TRP800  GLU811  SER814 

> <Gold.Protein.RotatedAtoms>
  151.0371  134.9580  159.8141 H   0  0  0  0  0  0  0  0  0  0  0  0  # atno 6907 bound_to 6896
  152.5357  134.2706  159.8980 H   0  0  0  0  0  0  0  0  0  0  0  0  # atno 6908 bound_to 6896
  151.2717  133.4209  159.2655 H   0  0  0  0  0  0  0  0  0  0  0  0  # atno 6909 bound_to 6896
  144.9184  139.5200  143.5675 H   0  0  0  0  0  0  0  0  0  0  0  0  # atno 7974 bound_to 7965
  156.0836  140.1400  156.9682 H   0  0  0  0  0  0  0  0  0  0  0  0  # atno 8008 bound_to 7997
  154.4599  140.0947  156.6913 H   0  0  0  0  0  0  0  0  0  0  0  0  # atno 8009 bound_to 7997
  155.5036  140.3451  155.4377 H   0  0  0  0  0  0  0  0  0  0  0  0  # atno 8010 bound_to 7997
  140.1734  144.4254  150.6650 H   0  0  0  0  0  0  0  0  0  0  0  0  # atno 10167 bound_to 10162
  157.1852  131.0642  151.2110 H   0  0  0  0  0  0  0  0  0  0  0  0  # atno 10718 bound_to 10713
  154.4165  135.5997  153.5984 H   0  0  0  0  0  0  0  0  0  0  0  0  # atno 10763 bound_to 10752
  152.9792  135.5942  154.4007 H   0  0  0  0  0  0  0  0  0  0  0  0  # atno 10764 bound_to 10752
  154.3826  135.2841  155.2180 H   0  0  0  0  0  0  0  0  0  0  0  0  # atno 10765 bound_to 10752
  140.9339  133.7320  156.0977 H   0  0  0  0  0  0  0  0  0  0  0  0  # atno 11005 bound_to 11000
  146.3193  139.8045  142.8958 LP  0  0  0  0  0  0  0  0  0  0  0  0  # atno 17320 bound_to 7965
  145.3336  141.0272  143.3432 LP  0  0  0  0  0  0  0  0  0  0  0  0  # atno 17321 bound_to 7965
  140.6567  143.2240  151.5951 LP  0  0  0  0  0  0  0  0  0  0  0  0  # atno 17342 bound_to 10162
  139.5328  144.2867  152.1185 LP  0  0  0  0  0  0  0  0  0  0  0  0  # atno 17343 bound_to 10162
  157.3914  130.7284  149.6700 LP  0  0  0  0  0  0  0  0  0  0  0  0  # atno 17370 bound_to 10713
  155.9719  130.4145  150.4137 LP  0  0  0  0  0  0  0  0  0  0  0  0  # atno 17371 bound_to 10713
  140.7825  134.3709  157.5484 LP  0  0  0  0  0  0  0  0  0  0  0  0  # atno 17394 bound_to 11000
  139.8803  134.9090  156.2981 LP  0  0  0  0  0  0  0  0  0  0  0  0  # atno 17395 bound_to 11000

$$$$
