AV-unprocessed.smi:1128|AV-procd|sdf|4843|dock6
  -GOLD-   22720 3413D 1   1.00000     0.00000
 Structure written by MMmdl.
 38 39  0  0  0  0  0  0  0  0  1 V2000
  151.4074  137.1094  159.8350 O   0  0  0  0  0  0  0  0  0  0  0  0
  150.6769  137.7212  159.0563 C   0  0  0  0  0  0  0  0  0  0  0  0
  151.0140  138.8948  158.5035 N   0  0  0  0  0  0  0  0  0  0  0  0
  152.2721  139.5991  158.7300 C   0  0  0  0  0  0  0  0  0  0  0  0
  152.0598  141.0597  159.1803 C   0  0  1  0  0  0  0  0  0  0  0  0
  153.2988  141.6394  159.9038 C   0  0  0  0  0  0  0  0  0  0  0  0
  153.2184  143.1441  160.0899 C   0  0  0  0  0  0  0  0  0  0  0  0
  152.3398  143.9255  159.4402 C   0  0  0  0  0  0  0  0  0  0  0  0
  151.3324  143.3925  158.4390 C   0  0  0  0  0  0  0  0  0  0  0  0
  151.6589  141.9551  157.9928 C   0  0  0  0  0  0  0  0  0  0  0  0
  149.4523  137.3372  158.6511 N   0  0  0  0  0  0  0  0  0  0  0  0
  148.7185  136.1833  158.9768 C   0  0  0  0  0  0  0  0  0  0  0  0
  148.2604  135.8706  160.2176 C   0  0  0  0  0  0  0  0  0  0  0  0
  147.5065  134.6556  160.4782 C   0  0  0  0  0  0  0  0  0  0  0  0
  147.0503  134.2893  161.8820 C   0  0  0  0  0  0  0  0  0  0  0  0
  147.4170  135.2150  162.7691 F   0  0  0  0  0  0  0  0  0  0  0  0
  145.7245  134.1613  161.9349 F   0  0  0  0  0  0  0  0  0  0  0  0
  147.5928  133.1281  162.2453 F   0  0  0  0  0  0  0  0  0  0  0  0
  147.3052  133.8370  159.4292 C   0  0  0  0  0  0  0  0  0  0  0  0
  147.7696  134.1518  158.1506 N   0  0  0  0  0  0  0  0  0  0  0  0
  148.4687  135.2690  157.8497 C   0  0  0  0  0  0  0  0  0  0  0  0
  148.8523  135.4692  156.6976 O   0  0  0  0  0  0  0  0  0  0  0  0
  147.5694  133.4907  157.4139 H   0  0  0  0  0  0  0  0  0  0  0  0
  150.3533  139.3343  157.8794 H   0  0  0  0  0  0  0  0  0  0  0  0
  152.8304  139.0532  159.4910 H   0  0  0  0  0  0  0  0  0  0  0  0
  152.8790  139.5655  157.8235 H   0  0  0  0  0  0  0  0  0  0  0  0
  151.2266  141.0749  159.8850 H   0  0  0  0  0  0  0  0  0  0  0  0
  153.4122  141.1740  160.8835 H   0  0  0  0  0  0  0  0  0  0  0  0
  154.2070  141.4209  159.3412 H   0  0  0  0  0  0  0  0  0  0  0  0
  153.9216  143.5871  160.7797 H   0  0  0  0  0  0  0  0  0  0  0  0
  152.3232  144.9887  159.6302 H   0  0  0  0  0  0  0  0  0  0  0  0
  150.3455  143.4293  158.9009 H   0  0  0  0  0  0  0  0  0  0  0  0
  151.3027  144.0525  157.5717 H   0  0  0  0  0  0  0  0  0  0  0  0
  152.4756  141.9780  157.2701 H   0  0  0  0  0  0  0  0  0  0  0  0
  150.7991  141.5343  157.4702 H   0  0  0  0  0  0  0  0  0  0  0  0
  148.9654  137.9792  158.0424 H   0  0  0  0  0  0  0  0  0  0  0  0
  148.4469  136.5144  161.0610 H   0  0  0  0  0  0  0  0  0  0  0  0
  146.7866  132.8912  159.4856 H   0  0  0  0  0  0  0  0  0  0  0  0
  1  2  2  0  0  0  0
  2  3  1  0  0  0  0
  2 11  1  0  0  0  0
  3  4  1  0  0  0  0
  3 24  1  0  0  0  0
  4  5  1  0  0  0  0
  4 25  1  0  0  0  0
  4 26  1  0  0  0  0
  5 10  1  0  0  0  0
  5  6  1  0  0  0  0
  5 27  1  0  0  0  0
  6  7  1  0  0  0  0
  6 28  1  0  0  0  0
  6 29  1  0  0  0  0
  7  8  2  0  0  0  0
  7 30  1  0  0  0  0
  8  9  1  0  0  0  0
  8 31  1  0  0  0  0
  9 10  1  0  0  0  0
  9 32  1  0  0  0  0
  9 33  1  0  0  0  0
 10 34  1  0  0  0  0
 10 35  1  0  0  0  0
 11 12  1  0  0  0  0
 11 36  1  0  0  0  0
 12 21  1  0  0  0  0
 12 13  2  0  0  0  0
 13 14  1  0  0  0  0
 13 37  1  0  0  0  0
 14 15  1  0  0  0  0
 14 19  2  0  0  0  0
 15 16  1  0  0  0  0
 15 17  1  0  0  0  0
 15 18  1  0  0  0  0
 19 20  1  0  0  0  0
 19 38  1  0  0  0  0
 20 23  1  0  0  0  0
 20 21  1  0  0  0  0
 21 22  2  0  0  0  0
M  END
> <s_m_source_file>
AV-unprocessed.smi

> <i_m_source_file_index>
1128

> <i_lp_mmshare_version>
43012

> <i_f3d_flags>
0

> <s_epik_input>
Tz1jMVtuSF1bY0hdYyhDKEYpKEYpRilbY0hdYzFbTkhdQyg9TylbTkhdW0NIMl1bQ0BASF0yW0NIMl1bQ0hdPVtDSF1bQ0gyXVtDSDJdMg==

> <s_epik_cmdline>
J2VwaWtfcHl0aG9uJywgJy1waCcsICc3LjAnLCAnLXRuJywgJzgnLCAnLW1hJywgJzIwMCcsICctbWV0YWxfYmluZGluZycsICctaW1hZScsICc8aW5maWxlLm1hZT4nLCAnLW9tYWUnLCAnPG91dGZpbGUubWFlPic=

> <r_lp_tautomer_probability>
1

> <r_epik_Ionization_Penalty>
0.00381734

> <r_epik_Ionization_Penalty_Charging>
0.00379608

> <r_epik_Ionization_Penalty_Neutral>
2.12611e-05

> <r_epik_State_Penalty>
-0

> <r_epik_Charging_Adjusted_Penalty>
0.00379608

> <i_epik_Tot_Q>
0

> <i_epik_Tot_abs_Q>
0

> <r_epik_Metal_State_Penalty>
0.371155

> <b_epik_Metal_Only>
0

> <s_lp_Force_Field>
OPLS_2005

> <r_lp_Energy>
19.5554

> <b_lp_Chiralities_Consistent>
1

> <s_lp_Variant>
AV-unprocessed.smi:1128-2

> <Gold.Version>
5.8.1

> <Gold.Id.Protein>
6NUR|6NUR_protein|mol2

> <Gold.PLP.Fitness>
44.2729

> <Gold.PLP.PLP>
-42.9017

> <Gold.PLP.part.hbond>
-0.9566

> <Gold.PLP.part.metal>
0.0000

> <Gold.PLP.part.buried>
-5.8548

> <Gold.PLP.part.nonpolar>
-37.5355

> <Gold.PLP.part.repulsive>
0.3132

> <Gold.PLP.ligand.clash>
0.0000

> <Gold.PLP.ligand.torsion>
0.8211

> <Gold.PLP.Chemscore.Hbond>
0.9913

> <Gold.PLP.Chemscore.CHOScore>
0.0000

> <Gold.PLP.Chemscore.Metal>
0.0000

> <Gold.Chemscore.Hbonds>
donor molecule, donor type, donor heavy atom, donor atom, acceptor molecule, acceptor atom, score
      P1  H  6896  6908       L1     1  1.00

> <Gold.PLP.Chemscore.Internal.Correction>
0.0398

> <Gold.Rescore>
     Score         DG    S(hbond)    S(metal)    S(lipo)     H(rot)  DE(clash)    DE(int)     intcor
     15.87     -16.71       0.99        0.00      96.33       1.30       0.01       0.83       ----

> <Gold.Chemscore.Fitness>
15.8721

> <Gold.Chemscore.DG>
-16.7108

> <Gold.Chemscore.ZeroCoef>
-5.4800

> <Gold.Chemscore.Hbond>
0.9872

> <Gold.Chemscore.Metal>
0.0000

> <Gold.Chemscore.Lipo>
96.3345

> <Gold.Chemscore.Internal_Hbond>
0.0000

> <Gold.Chemscore.DEClash>
0.0089

> <Gold.Chemscore.DEInternal>
0.8298

> <Gold.Chemscore.Rot>
1.3038

> <Gold.Chemscore.Internal.Correction>
   9.000000E+99

> <Gold.Chemscore.Hbonds>
donor molecule, donor type, donor heavy atom, donor atom, acceptor molecule, acceptor atom, score
      P1  H  6896  6908       L1     1  0.99

> <Gold.Chemscore.Hbond.Weighted>
-3.2974

> <Gold.Chemscore.Metal.Weighted>
-0.0000

> <Gold.Chemscore.Lipo.Weighted>
-11.2711

> <Gold.Chemscore.Internal_Hbond.Weighted>
0.0000

> <Gold.Chemscore.DEClash.Weighted>
0.0089

> <Gold.Chemscore.DEInternal.Weighted>
0.8298

> <Gold.Chemscore.Rot.Weighted>
3.3377

> <Gold.Chemscore.Internal.Correction.Weighted>
   9.000000E+99

> <Gold.Protein.RotatedTorsions>
[ 6907 6896 6895 6894 ] final -126.22 input  -60.11 | X-H torsion
[ 7974 7965 7964 7962 ] final   78.17 input  175.53 | X-H torsion
[ 8008 7997 7996 7995 ] final  159.07 input   59.86 | X-H torsion
[ 10167 10162 10161 10158 ] final  -89.99 input  -65.29 | X-H torsion
[ 10718 10713 10712 10709 ] final   24.52 input   66.30 | X-H torsion
[ 10763 10752 10751 10750 ] final  -94.66 input  -60.55 | X-H torsion
[ 11005 11000 10999 10996 ] final -130.18 input  -57.11 | X-H torsion

> <Gold.Protein.ActiveResidues>
 VAL166  LYS551  ARG553  GLY616  TRP617  ASP618  TYR619  PRO620  LYS621  CYS622 
 ASP623  PHE694  ASN695  SER759  ASP760  ASP761  ALA762  ILE779  LEU786  VAL792 
 PHE793  MET794  SER795  GLU796  ALA797  LYS798  CYS799  TRP800  GLU811  SER814 

> <Gold.Protein.RotatedAtoms>
  150.8947  133.7196  159.2894 H   0  0  0  0  0  0  0  0  0  0  0  0  # atno 6907 bound_to 6896
  151.4735  135.1046  159.9767 H   0  0  0  0  0  0  0  0  0  0  0  0  # atno 6908 bound_to 6896
  152.4841  133.8282  159.7144 H   0  0  0  0  0  0  0  0  0  0  0  0  # atno 6909 bound_to 6896
  145.6806  139.2522  143.1816 H   0  0  0  0  0  0  0  0  0  0  0  0  # atno 7974 bound_to 7965
  156.2262  140.1841  156.7356 H   0  0  0  0  0  0  0  0  0  0  0  0  # atno 8008 bound_to 7997
  154.5946  140.0645  156.9313 H   0  0  0  0  0  0  0  0  0  0  0  0  # atno 8009 bound_to 7997
  155.2278  140.3312  155.4309 H   0  0  0  0  0  0  0  0  0  0  0  0  # atno 8010 bound_to 7997
  140.3593  143.2850  151.9633 H   0  0  0  0  0  0  0  0  0  0  0  0  # atno 10167 bound_to 10162
  157.1809  130.6802  149.6113 H   0  0  0  0  0  0  0  0  0  0  0  0  # atno 10718 bound_to 10713
  154.7076  135.5149  153.8618 H   0  0  0  0  0  0  0  0  0  0  0  0  # atno 10763 bound_to 10752
  153.0754  135.6614  154.0166 H   0  0  0  0  0  0  0  0  0  0  0  0  # atno 10764 bound_to 10752
  154.0014  135.3010  155.3382 H   0  0  0  0  0  0  0  0  0  0  0  0  # atno 10765 bound_to 10752
  140.9368  134.1246  157.4186 H   0  0  0  0  0  0  0  0  0  0  0  0  # atno 11005 bound_to 11000
  146.0967  140.7592  142.9569 LP  0  0  0  0  0  0  0  0  0  0  0  0  # atno 17320 bound_to 7965
  144.7027  140.3723  143.7143 LP  0  0  0  0  0  0  0  0  0  0  0  0  # atno 17321 bound_to 7965
  139.4816  144.6006  151.7611 LP  0  0  0  0  0  0  0  0  0  0  0  0  # atno 17342 bound_to 10162
  140.5142  144.0978  150.6003 LP  0  0  0  0  0  0  0  0  0  0  0  0  # atno 17343 bound_to 10162
  155.9724  130.4647  150.6227 LP  0  0  0  0  0  0  0  0  0  0  0  0  # atno 17370 bound_to 10713
  157.3953  131.0802  151.1357 LP  0  0  0  0  0  0  0  0  0  0  0  0  # atno 17371 bound_to 10713
  139.8810  135.0023  156.6121 LP  0  0  0  0  0  0  0  0  0  0  0  0  # atno 17394 bound_to 11000
  140.7788  133.8677  155.8551 LP  0  0  0  0  0  0  0  0  0  0  0  0  # atno 17395 bound_to 11000

$$$$
