AV-unprocessed.smi:2063|AV-procd|sdf|8412|dock2
  -GOLD-   2272011103D 1   1.00000     0.00000
 Structure written by MMmdl.
 38 39  0  0  0  0  0  0  0  0  2 V2000
  153.5395  141.9156  160.2558 C   0  0  0  0  0  0  0  0  0  0  0  0
  154.1387  140.5284  160.5293 C   0  0  0  0  0  0  0  0  0  0  0  0
  155.6614  140.4812  160.3380 C   0  0  0  0  0  0  0  0  0  0  0  0
  153.4396  139.4506  159.7610 C   0  0  0  0  0  0  0  0  0  0  0  0
  153.3647  139.4354  158.4265 N   0  0  0  0  0  0  0  0  0  0  0  0
  152.6628  138.3369  157.9528 N   0  0  0  0  0  0  0  0  0  0  0  0
  152.2250  137.5314  158.9306 C   0  0  0  0  0  0  0  0  0  0  0  0
  151.5190  136.4154  158.6853 N   0  5  0  0  0  0  0  0  0  0  0  0
  151.6362  135.7893  157.4920 C   0  0  0  0  0  0  0  0  0  0  0  0
  152.5183  135.9793  156.6518 O   0  0  0  0  0  0  0  0  0  0  0  0
  150.6729  134.8848  157.2643 N   0  0  0  0  0  0  0  0  0  0  0  0
  150.5421  134.0305  156.0849 C   0  0  2  0  0  0  0  0  0  0  0  0
  149.3498  134.4999  155.2370 C   0  0  0  0  0  0  0  0  0  0  0  0
  150.3959  132.5616  156.5249 C   0  0  2  0  0  0  0  0  0  0  0  0
  151.6241  131.9834  157.2344 C   0  0  0  0  0  0  0  0  0  0  0  0
  151.5612  130.4944  156.9270 C   0  0  0  0  0  0  0  0  0  0  0  0
  150.4681  130.3770  155.8625 C   0  0  0  0  0  0  0  0  0  0  0  0
  150.2677  131.7044  155.4009 O   0  0  0  0  0  0  0  0  0  0  0  0
  152.6425  138.0974  160.5472 S   0  0  0  0  0  0  0  0  0  0  0  0
  152.4716  141.9313  160.4766 H   0  0  0  0  0  0  0  0  0  0  0  0
  153.6684  142.2043  159.2123 H   0  0  0  0  0  0  0  0  0  0  0  0
  154.0159  142.6780  160.8726 H   0  0  0  0  0  0  0  0  0  0  0  0
  153.9563  140.3196  161.5844 H   0  0  0  0  0  0  0  0  0  0  0  0
  156.0627  139.5090  160.6261 H   0  0  0  0  0  0  0  0  0  0  0  0
  156.1573  141.2367  160.9477 H   0  0  0  0  0  0  0  0  0  0  0  0
  155.9362  140.6602  159.2981 H   0  0  0  0  0  0  0  0  0  0  0  0
  149.9731  134.7721  157.9829 H   0  0  0  0  0  0  0  0  0  0  0  0
  151.4453  134.1059  155.4770 H   0  0  0  0  0  0  0  0  0  0  0  0
  149.2412  133.8907  154.3392 H   0  0  0  0  0  0  0  0  0  0  0  0
  149.4790  135.5341  154.9166 H   0  0  0  0  0  0  0  0  0  0  0  0
  148.4159  134.4382  155.7967 H   0  0  0  0  0  0  0  0  0  0  0  0
  149.5155  132.4411  157.1597 H   0  0  0  0  0  0  0  0  0  0  0  0
  152.5381  132.4031  156.8117 H   0  0  0  0  0  0  0  0  0  0  0  0
  151.6245  132.1954  158.3041 H   0  0  0  0  0  0  0  0  0  0  0  0
  152.5219  130.1427  156.5496 H   0  0  0  0  0  0  0  0  0  0  0  0
  151.3113  129.9060  157.8104 H   0  0  0  0  0  0  0  0  0  0  0  0
  150.7463  129.7105  155.0457 H   0  0  0  0  0  0  0  0  0  0  0  0
  149.5410  130.0077  156.3035 H   0  0  0  0  0  0  0  0  0  0  0  0
  1  2  1  0  0  0  0
  1 20  1  0  0  0  0
  1 21  1  0  0  0  0
  1 22  1  0  0  0  0
  2  3  1  0  0  0  0
  2  4  1  0  0  0  0
  2 23  1  0  0  0  0
  3 24  1  0  0  0  0
  3 25  1  0  0  0  0
  3 26  1  0  0  0  0
  4 19  1  0  0  0  0
  4  5  2  0  0  0  0
  5  6  1  0  0  0  0
  6  7  2  0  0  0  0
  7  8  1  0  0  0  0
  7 19  1  0  0  0  0
  8  9  1  0  0  0  0
  9 10  2  0  0  0  0
  9 11  1  0  0  0  0
 11 12  1  0  0  0  0
 11 27  1  0  0  0  0
 12 13  1  0  0  0  0
 12 14  1  0  0  0  0
 12 28  1  0  0  0  0
 13 29  1  0  0  0  0
 13 30  1  0  0  0  0
 13 31  1  0  0  0  0
 14 18  1  0  0  0  0
 14 15  1  0  0  0  0
 14 32  1  0  0  0  0
 15 16  1  0  0  0  0
 15 33  1  0  0  0  0
 15 34  1  0  0  0  0
 16 17  1  0  0  0  0
 16 35  1  0  0  0  0
 16 36  1  0  0  0  0
 17 18  1  0  0  0  0
 17 37  1  0  0  0  0
 17 38  1  0  0  0  0
M  CHG  1   8  -1
M  END
> <s_m_source_file>
AV-unprocessed.smi

> <i_m_source_file_index>
2063

> <i_lp_mmshare_version>
43012

> <i_f3d_flags>
0

> <s_epik_input>
W0NIM11bQ0hdKFtDSDNdKWMxbm5jKHMxKVtOSF1DKD1PKVtOSF1bQ0BIXShbQ0gzXSlbQ0BASF0yW0NIMl1bQ0gyXVtDSDJdTzI=

> <s_epik_cmdline>
J2VwaWtfcHl0aG9uJywgJy1waCcsICc3LjAnLCAnLXRuJywgJzgnLCAnLW1hJywgJzIwMCcsICctbWV0YWxfYmluZGluZycsICctaW1hZScsICc8aW5maWxlLm1hZT4nLCAnLW9tYWUnLCAnPG91dGZpbGUubWFlPic=

> <r_lp_tautomer_probability>
1

> <r_epik_Ionization_Penalty>
4.37022

> <r_epik_Ionization_Penalty_Charging>
4.21437

> <r_epik_Ionization_Penalty_Neutral>
0.15585

> <r_epik_State_Penalty>
4.21389

> <r_epik_Charging_Adjusted_Penalty>
8.42826

> <i_epik_Tot_Q>
-1

> <i_epik_Tot_abs_Q>
1

> <r_epik_Metal_State_Penalty>
0.693772

> <b_epik_Metal_Only>
1

> <s_lp_Force_Field>
OPLS_2005

> <r_lp_Energy>
9.58619

> <b_lp_Chiralities_Consistent>
1

> <s_lp_Variant>
AV-unprocessed.smi:2063-5

> <Gold.Version>
5.8.1

> <Gold.Id.Protein>
6NUR|6NUR_protein|mol2

> <Gold.PLP.Fitness>
37.0296

> <Gold.PLP.PLP>
-27.9029

> <Gold.PLP.part.hbond>
-3.0000

> <Gold.PLP.part.metal>
0.0000

> <Gold.PLP.part.buried>
-4.5756

> <Gold.PLP.part.nonpolar>
-21.7178

> <Gold.PLP.part.repulsive>
0.1604

> <Gold.PLP.ligand.clash>
0.0000

> <Gold.PLP.ligand.torsion>
0.3551

> <Gold.PLP.Chemscore.Hbond>
3.2371

> <Gold.PLP.Chemscore.CHOScore>
0.0000

> <Gold.PLP.Chemscore.Metal>
0.0000

> <Gold.Chemscore.Hbonds>
donor molecule, donor type, donor heavy atom, donor atom, acceptor molecule, acceptor atom, score
      P1  H  6896  6907       L1     8  1.34
      P1  H  7997  8009       L1     5  1.00
      P1  H 10752 10765       L1    10  0.83

> <Gold.PLP.Chemscore.Internal.Correction>
0.1257

> <Gold.Rescore>
     Score         DG    S(hbond)    S(metal)    S(lipo)     H(rot)  DE(clash)    DE(int)     intcor
     16.10     -17.95       2.45        0.00      66.89       1.39       0.01       1.84       ----

> <Gold.Chemscore.Fitness>
16.0958

> <Gold.Chemscore.DG>
-17.9454

> <Gold.Chemscore.ZeroCoef>
-5.4800

> <Gold.Chemscore.Hbond>
2.4538

> <Gold.Chemscore.Metal>
0.0000

> <Gold.Chemscore.Lipo>
66.8927

> <Gold.Chemscore.Internal_Hbond>
0.0000

> <Gold.Chemscore.DEClash>
0.0060

> <Gold.Chemscore.DEInternal>
1.8436

> <Gold.Chemscore.Rot>
1.3893

> <Gold.Chemscore.Internal.Correction>
   9.000000E+99

> <Gold.Chemscore.Hbonds>
donor molecule, donor type, donor heavy atom, donor atom, acceptor molecule, acceptor atom, score
      P1  H  6896  6907       L1     8  0.30
      P1  H  7997  8009       L1     5  0.59
      P1  H 10752 10765       L1    10  0.83

> <Gold.Chemscore.Hbond.Weighted>
-8.1956

> <Gold.Chemscore.Metal.Weighted>
-0.0000

> <Gold.Chemscore.Lipo.Weighted>
-7.8264

> <Gold.Chemscore.Internal_Hbond.Weighted>
0.0000

> <Gold.Chemscore.DEClash.Weighted>
0.0060

> <Gold.Chemscore.DEInternal.Weighted>
1.8436

> <Gold.Chemscore.Rot.Weighted>
3.5567

> <Gold.Chemscore.Internal.Correction.Weighted>
   9.000000E+99

> <Gold.Protein.RotatedTorsions>
[ 6907 6896 6895 6894 ] final  -22.96 input  -60.11 | X-H torsion
[ 7974 7965 7964 7962 ] final   27.70 input  175.53 | X-H torsion
[ 8008 7997 7996 7995 ] final  159.01 input   59.86 | X-H torsion
[ 10167 10162 10161 10158 ] final    7.51 input  -65.29 | X-H torsion
[ 10718 10713 10712 10709 ] final  -49.62 input   66.30 | X-H torsion
[ 10763 10752 10751 10750 ] final -161.58 input  -60.55 | X-H torsion
[ 11005 11000 10999 10996 ] final  -45.30 input  -57.11 | X-H torsion

> <Gold.Protein.ActiveResidues>
 VAL166  LYS551  ARG553  GLY616  TRP617  ASP618  TYR619  PRO620  LYS621  CYS622 
 ASP623  PHE694  ASN695  SER759  ASP760  ASP761  ALA762  ILE779  LEU786  VAL792 
 PHE793  MET794  SER795  GLU796  ALA797  LYS798  CYS799  TRP800  GLU811  SER814 

> <Gold.Protein.RotatedAtoms>
  151.2110  135.0481  159.8910 H   0  0  0  0  0  0  0  0  0  0  0  0  # atno 6907 bound_to 6896
  152.5424  134.0745  159.8218 H   0  0  0  0  0  0  0  0  0  0  0  0  # atno 6908 bound_to 6896
  151.0898  133.5277  159.2647 H   0  0  0  0  0  0  0  0  0  0  0  0  # atno 6909 bound_to 6896
  146.1769  139.7155  142.8928 H   0  0  0  0  0  0  0  0  0  0  0  0  # atno 7974 bound_to 7965
  156.2266  140.1843  156.7347 H   0  0  0  0  0  0  0  0  0  0  0  0  # atno 8008 bound_to 7997
  154.5952  140.0644  156.9322 H   0  0  0  0  0  0  0  0  0  0  0  0  # atno 8009 bound_to 7997
  155.2268  140.3311  155.4311 H   0  0  0  0  0  0  0  0  0  0  0  0  # atno 8010 bound_to 7997
  140.6367  143.7869  150.7370 H   0  0  0  0  0  0  0  0  0  0  0  0  # atno 10167 bound_to 10162
  156.1876  130.4152  149.9417 H   0  0  0  0  0  0  0  0  0  0  0  0  # atno 10718 bound_to 10713
  154.7290  135.3042  154.8922 H   0  0  0  0  0  0  0  0  0  0  0  0  # atno 10763 bound_to 10752
  153.9771  135.6735  153.4753 H   0  0  0  0  0  0  0  0  0  0  0  0  # atno 10764 bound_to 10752
  153.0901  135.4963  154.8594 H   0  0  0  0  0  0  0  0  0  0  0  0  # atno 10765 bound_to 10752
  141.0506  133.6744  156.2993 H   0  0  0  0  0  0  0  0  0  0  0  0  # atno 11005 bound_to 11000
  145.4185  141.0404  143.2977 LP  0  0  0  0  0  0  0  0  0  0  0  0  # atno 17320 bound_to 7965
  144.8251  139.5723  143.6969 LP  0  0  0  0  0  0  0  0  0  0  0  0  # atno 17321 bound_to 7965
  140.1492  143.4373  152.2143 LP  0  0  0  0  0  0  0  0  0  0  0  0  # atno 17342 bound_to 10162
  139.5577  144.7384  151.4244 LP  0  0  0  0  0  0  0  0  0  0  0  0  # atno 17343 bound_to 10162
  156.7167  130.8991  151.3614 LP  0  0  0  0  0  0  0  0  0  0  0  0  # atno 17370 bound_to 10713
  157.6909  130.9232  150.0511 LP  0  0  0  0  0  0  0  0  0  0  0  0  # atno 17371 bound_to 10713
  140.6062  134.5505  157.5526 LP  0  0  0  0  0  0  0  0  0  0  0  0  # atno 17394 bound_to 11000
  139.9347  134.7897  156.0834 LP  0  0  0  0  0  0  0  0  0  0  0  0  # atno 17395 bound_to 11000

$$$$
