AV-unprocessed.smi:535|AV-procd|sdf|2859|dock6
  -GOLD-   2262023353D 1   1.00000     0.00000
 Structure written by MMmdl.
 46 48  0  0  0  0  0  0  0  0  1 V2000
  153.6070  139.0097  159.5940 C   0  0  0  0  0  0  0  0  0  0  0  0
  153.5436  138.9604  158.1795 O   0  0  0  0  0  0  0  0  0  0  0  0
  152.2297  139.1593  157.6873 C   0  0  0  0  0  0  0  0  0  0  0  0
  152.3180  139.8328  156.3078 C   0  0  0  0  0  0  0  0  0  0  0  0
  151.0939  140.5469  155.9566 N   0  0  0  0  0  0  0  0  0  0  0  0
  150.6640  141.7850  156.3424 C   0  0  0  0  0  0  0  0  0  0  0  0
  151.3714  142.6190  157.2207 N   0  0  0  0  0  0  0  0  0  0  0  0
  151.5817  144.0655  157.1184 C   0  0  0  0  0  0  0  0  0  0  0  0
  151.2129  144.7958  158.4221 C   0  0  0  0  0  0  0  0  0  0  0  0
  152.0313  144.2446  159.5956 C   0  0  0  0  0  0  0  0  0  0  0  0
  151.9006  142.7140  159.6565 C   0  0  2  0  0  0  0  0  0  0  0  0
  152.7745  142.1175  160.7679 C   0  0  0  0  0  0  0  0  0  0  0  0
  152.2401  142.1024  158.2819 C   0  0  0  0  0  0  0  0  0  0  0  0
  149.5116  142.1608  155.7768 N   0  0  0  0  0  0  0  0  0  0  0  0
  149.1702  141.0807  154.9815 C   0  0  0  0  0  0  0  0  0  0  0  0
  150.1100  140.1069  155.0669 C   0  0  0  0  0  0  0  0  0  0  0  0
  150.0192  138.8595  154.2938 C   0  0  0  0  0  0  0  0  0  0  0  0
  150.8642  137.9683  154.3398 O   0  0  0  0  0  0  0  0  0  0  0  0
  148.9105  138.7933  153.5174 N   0  0  0  0  0  0  0  0  0  0  0  0
  147.9267  139.7347  153.3908 C   0  0  0  0  0  0  0  0  0  0  0  0
  146.9758  139.5333  152.6355 O   0  0  0  0  0  0  0  0  0  0  0  0
  148.0490  140.8860  154.1253 N   0  0  0  0  0  0  0  0  0  0  0  0
  147.0275  141.9301  154.0257 C   0  0  0  0  0  0  0  0  0  0  0  0
  148.8003  137.9551  152.9658 H   0  0  0  0  0  0  0  0  0  0  0  0
  154.6330  138.8408  159.9208 H   0  0  0  0  0  0  0  0  0  0  0  0
  152.9791  138.2401  160.0446 H   0  0  0  0  0  0  0  0  0  0  0  0
  153.2907  139.9841  159.9686 H   0  0  0  0  0  0  0  0  0  0  0  0
  151.7143  138.2015  157.6145 H   0  0  0  0  0  0  0  0  0  0  0  0
  151.6586  139.7714  158.3851 H   0  0  0  0  0  0  0  0  0  0  0  0
  153.1665  140.5102  156.2598 H   0  0  0  0  0  0  0  0  0  0  0  0
  152.5155  139.0853  155.5398 H   0  0  0  0  0  0  0  0  0  0  0  0
  152.6314  144.2472  156.8834 H   0  0  0  0  0  0  0  0  0  0  0  0
  151.0260  144.4836  156.2854 H   0  0  0  0  0  0  0  0  0  0  0  0
  151.3913  145.8659  158.3142 H   0  0  0  0  0  0  0  0  0  0  0  0
  150.1495  144.6785  158.6314 H   0  0  0  0  0  0  0  0  0  0  0  0
  153.0787  144.5221  159.4690 H   0  0  0  0  0  0  0  0  0  0  0  0
  151.6981  144.6958  160.5308 H   0  0  0  0  0  0  0  0  0  0  0  0
  150.8621  142.4700  159.8864 H   0  0  0  0  0  0  0  0  0  0  0  0
  153.8315  142.3209  160.5936 H   0  0  0  0  0  0  0  0  0  0  0  0
  152.6492  141.0358  160.8264 H   0  0  0  0  0  0  0  0  0  0  0  0
  152.5104  142.5327  161.7409 H   0  0  0  0  0  0  0  0  0  0  0  0
  152.1423  141.0181  158.3436 H   0  0  0  0  0  0  0  0  0  0  0  0
  153.2812  142.3005  158.0230 H   0  0  0  0  0  0  0  0  0  0  0  0
  146.0398  141.5261  154.2514 H   0  0  0  0  0  0  0  0  0  0  0  0
  147.0044  142.3436  153.0168 H   0  0  0  0  0  0  0  0  0  0  0  0
  147.2029  142.7554  154.7152 H   0  0  0  0  0  0  0  0  0  0  0  0
  1  2  1  0  0  0  0
  1 25  1  0  0  0  0
  1 26  1  0  0  0  0
  1 27  1  0  0  0  0
  2  3  1  0  0  0  0
  3  4  1  0  0  0  0
  3 28  1  0  0  0  0
  3 29  1  0  0  0  0
  4  5  1  0  0  0  0
  4 30  1  0  0  0  0
  4 31  1  0  0  0  0
  5 16  1  0  0  0  0
  5  6  1  0  0  0  0
  6  7  1  0  0  0  0
  6 14  2  0  0  0  0
  7 13  1  0  0  0  0
  7  8  1  0  0  0  0
  8  9  1  0  0  0  0
  8 32  1  0  0  0  0
  8 33  1  0  0  0  0
  9 10  1  0  0  0  0
  9 34  1  0  0  0  0
  9 35  1  0  0  0  0
 10 11  1  0  0  0  0
 10 36  1  0  0  0  0
 10 37  1  0  0  0  0
 11 12  1  0  0  0  0
 11 13  1  0  0  0  0
 11 38  1  0  0  0  0
 12 39  1  0  0  0  0
 12 40  1  0  0  0  0
 12 41  1  0  0  0  0
 13 42  1  0  0  0  0
 13 43  1  0  0  0  0
 14 15  1  0  0  0  0
 15 22  1  0  0  0  0
 15 16  2  0  0  0  0
 16 17  1  0  0  0  0
 17 18  2  0  0  0  0
 17 19  1  0  0  0  0
 19 24  1  0  0  0  0
 19 20  1  0  0  0  0
 20 21  2  0  0  0  0
 20 22  1  0  0  0  0
 22 23  1  0  0  0  0
 23 44  1  0  0  0  0
 23 45  1  0  0  0  0
 23 46  1  0  0  0  0
M  END
> <s_m_source_file>
AV-unprocessed.smi

> <i_m_source_file_index>
535

> <i_lp_mmshare_version>
43012

> <i_f3d_flags>
0

> <s_epik_input>
W0NIM11uMWMoPU8pW25IXWMoPU8pYyhjMTIpbihbQ0gyXVtDSDJdT1tDSDNdKWMobjIpTjNbQ0gyXVtDSDJdW0NIMl1bQ0BASF0oW0NIM10pW0NIMl0z

> <s_epik_cmdline>
J2VwaWtfcHl0aG9uJywgJy1waCcsICc3LjAnLCAnLXRuJywgJzgnLCAnLW1hJywgJzIwMCcsICctbWV0YWxfYmluZGluZycsICctaW1hZScsICc8aW5maWxlLm1hZT4nLCAnLW9tYWUnLCAnPG91dGZpbGUubWFlPic=

> <r_lp_tautomer_probability>
1

> <r_epik_Ionization_Penalty>
0.00042181

> <r_epik_Ionization_Penalty_Charging>
0.000122112

> <r_epik_Ionization_Penalty_Neutral>
0.000299698

> <r_epik_State_Penalty>
-0

> <r_epik_Charging_Adjusted_Penalty>
0.000122112

> <i_epik_Tot_Q>
0

> <i_epik_Tot_abs_Q>
0

> <r_epik_Metal_State_Penalty>
0.0934894

> <b_epik_Metal_Only>
0

> <s_lp_Force_Field>
OPLS_2005

> <r_lp_Energy>
38.1768

> <b_lp_Chiralities_Consistent>
1

> <s_lp_Variant>
AV-unprocessed.smi:535-2

> <Gold.Version>
5.8.1

> <Gold.Id.Protein>
6NUR|6NUR_protein|mol2

> <Gold.PLP.Fitness>
49.5778

> <Gold.PLP.PLP>
-45.6888

> <Gold.PLP.part.hbond>
-3.0000

> <Gold.PLP.part.metal>
0.0000

> <Gold.PLP.part.buried>
-2.9150

> <Gold.PLP.part.nonpolar>
-43.4665

> <Gold.PLP.part.repulsive>
4.3336

> <Gold.PLP.ligand.clash>
0.0000

> <Gold.PLP.ligand.torsion>
1.0674

> <Gold.PLP.Chemscore.Hbond>
1.9920

> <Gold.PLP.Chemscore.CHOScore>
0.0000

> <Gold.PLP.Chemscore.Metal>
0.0000

> <Gold.Chemscore.Hbonds>
donor molecule, donor type, donor heavy atom, donor atom, acceptor molecule, acceptor atom, score
      L1  H    19    24       P1  7948  1.00
      P1  H  7997  8010       L1     2  0.99

> <Gold.PLP.Chemscore.Internal.Correction>
0.0477

> <Gold.Rescore>
     Score         DG    S(hbond)    S(metal)    S(lipo)     H(rot)  DE(clash)    DE(int)     intcor
     14.60     -18.70       1.67        0.00      97.25       1.46       1.94       2.16       ----

> <Gold.Chemscore.Fitness>
14.6025

> <Gold.Chemscore.DG>
-18.7043

> <Gold.Chemscore.ZeroCoef>
-5.4800

> <Gold.Chemscore.Hbond>
1.6686

> <Gold.Chemscore.Metal>
0.0000

> <Gold.Chemscore.Lipo>
97.2468

> <Gold.Chemscore.Internal_Hbond>
0.0000

> <Gold.Chemscore.DEClash>
1.9449

> <Gold.Chemscore.DEInternal>
2.1570

> <Gold.Chemscore.Rot>
1.4557

> <Gold.Chemscore.Internal.Correction>
   9.000000E+99

> <Gold.Chemscore.Hbonds>
donor molecule, donor type, donor heavy atom, donor atom, acceptor molecule, acceptor atom, score
      L1  H    19    24       P1  7948  0.93
      P1  H  7997  8010       L1     2  0.73

> <Gold.Chemscore.Hbond.Weighted>
-5.5731

> <Gold.Chemscore.Metal.Weighted>
-0.0000

> <Gold.Chemscore.Lipo.Weighted>
-11.3779

> <Gold.Chemscore.Internal_Hbond.Weighted>
0.0000

> <Gold.Chemscore.DEClash.Weighted>
1.9449

> <Gold.Chemscore.DEInternal.Weighted>
2.1570

> <Gold.Chemscore.Rot.Weighted>
3.7267

> <Gold.Chemscore.Internal.Correction.Weighted>
   9.000000E+99

> <Gold.Protein.RotatedTorsions>
[ 6907 6896 6895 6894 ] final -119.51 input  -60.11 | X-H torsion
[ 7974 7965 7964 7962 ] final    9.01 input  175.53 | X-H torsion
[ 8008 7997 7996 7995 ] final    7.63 input   59.86 | X-H torsion
[ 10167 10162 10161 10158 ] final -112.43 input  -65.29 | X-H torsion
[ 10718 10713 10712 10709 ] final -135.26 input   66.30 | X-H torsion
[ 10763 10752 10751 10750 ] final  -68.29 input  -60.55 | X-H torsion
[ 11005 11000 10999 10996 ] final   53.31 input  -57.11 | X-H torsion

> <Gold.Protein.ActiveResidues>
 VAL166  LYS551  ARG553  GLY616  TRP617  ASP618  TYR619  PRO620  LYS621  CYS622 
 ASP623  PHE694  ASN695  SER759  ASP760  ASP761  ALA762  ILE779  LEU786  VAL792 
 PHE793  MET794  SER795  GLU796  ALA797  LYS798  CYS799  TRP800  GLU811  SER814 

> <Gold.Protein.RotatedAtoms>
  150.8311  133.8089  159.3097 H   0  0  0  0  0  0  0  0  0  0  0  0  # atno 6907 bound_to 6896
  151.5818  135.1056  160.0028 H   0  0  0  0  0  0  0  0  0  0  0  0  # atno 6908 bound_to 6896
  152.4391  133.7373  159.6677 H   0  0  0  0  0  0  0  0  0  0  0  0  # atno 6909 bound_to 6896
  146.2409  139.9847  142.8432 H   0  0  0  0  0  0  0  0  0  0  0  0  # atno 7974 bound_to 7965
  154.7563  140.2776  155.6250 H   0  0  0  0  0  0  0  0  0  0  0  0  # atno 8008 bound_to 7997
  156.2906  140.2668  156.2257 H   0  0  0  0  0  0  0  0  0  0  0  0  # atno 8009 bound_to 7997
  155.0073  140.0372  157.2374 H   0  0  0  0  0  0  0  0  0  0  0  0  # atno 8010 bound_to 7997
  140.1228  143.4429  152.1680 H   0  0  0  0  0  0  0  0  0  0  0  0  # atno 10167 bound_to 10162
  156.2643  130.7228  151.1173 H   0  0  0  0  0  0  0  0  0  0  0  0  # atno 10718 bound_to 10713
  154.3869  135.6061  153.5822 H   0  0  0  0  0  0  0  0  0  0  0  0  # atno 10763 bound_to 10752
  152.9787  135.5874  154.4343 H   0  0  0  0  0  0  0  0  0  0  0  0  # atno 10764 bound_to 10752
  154.4121  135.2844  155.2008 H   0  0  0  0  0  0  0  0  0  0  0  0  # atno 10765 bound_to 10752
  140.0777  134.5381  155.8979 H   0  0  0  0  0  0  0  0  0  0  0  0  # atno 11005 bound_to 11000
  145.1559  140.9647  143.4406 LP  0  0  0  0  0  0  0  0  0  0  0  0  # atno 17320 bound_to 7965
  145.0162  139.3465  143.6095 LP  0  0  0  0  0  0  0  0  0  0  0  0  # atno 17321 bound_to 7965
  139.5560  144.7373  151.4294 LP  0  0  0  0  0  0  0  0  0  0  0  0  # atno 17342 bound_to 10162
  140.6862  143.7968  150.7190 LP  0  0  0  0  0  0  0  0  0  0  0  0  # atno 17343 bound_to 10162
  157.7261  131.0648  150.5922 LP  0  0  0  0  0  0  0  0  0  0  0  0  # atno 17370 bound_to 10713
  156.6012  130.4355  149.5896 LP  0  0  0  0  0  0  0  0  0  0  0  0  # atno 17371 bound_to 10713
  141.2035  133.6633  156.6070 LP  0  0  0  0  0  0  0  0  0  0  0  0  # atno 17394 bound_to 11000
  140.3533  134.7750  157.4482 LP  0  0  0  0  0  0  0  0  0  0  0  0  # atno 17395 bound_to 11000

$$$$
