AV-unprocessed.smi:3199|AV-procd|sdf|12233|dock2
  -GOLD-   2272018 63D 1   1.00000     0.00000
 Structure written by MMmdl.
 36 37  0  0  0  0  0  0  0  0  2 V2000
  146.4537  138.6516  151.2770 C   0  0  0  0  0  0  0  0  0  0  0  0
  147.0251  139.3744  152.4782 C   0  0  0  0  0  0  0  0  0  0  0  0
  146.6280  140.6824  152.8307 C   0  0  0  0  0  0  0  0  0  0  0  0
  147.2015  141.2947  153.9647 C   0  0  0  0  0  0  0  0  0  0  0  0
  148.1604  140.5873  154.7227 C   0  0  0  0  0  0  0  0  0  0  0  0
  148.7990  141.2130  155.9472 C   0  0  0  0  0  0  0  0  0  0  0  0
  150.3002  141.4802  155.7468 C   0  0  0  0  0  0  0  0  0  0  0  0
  150.7482  142.6336  156.5177 N   0  0  0  0  0  0  0  0  0  0  0  0
  151.6113  142.5850  157.5455 C   0  0  0  0  0  0  0  0  0  0  0  0
  152.1291  141.5372  157.9331 O   0  0  0  0  0  0  0  0  0  0  0  0
  151.9662  143.9152  158.2267 C   0  0  2  0  0  0  0  0  0  0  0  0
  152.9822  143.7908  159.3789 C   0  0  0  0  0  0  0  0  0  0  0  0
  152.2901  144.4517  160.5598 C   0  0  0  0  0  0  0  0  0  0  0  0
  151.2243  145.3112  159.8941 C   0  0  0  0  0  0  0  0  0  0  0  0
  150.8032  144.4933  158.8166 O   0  0  0  0  0  0  0  0  0  0  0  0
  148.5171  139.2814  154.3235 C   0  0  0  0  0  0  0  0  0  0  0  0
  147.9442  138.7296  153.2315 N   0  3  0  0  0  0  0  0  0  0  0  0
  145.9422  139.3461  150.6097 H   0  0  0  0  0  0  0  0  0  0  0  0
  145.7378  137.8943  151.5972 H   0  0  0  0  0  0  0  0  0  0  0  0
  147.2456  138.1598  150.7112 H   0  0  0  0  0  0  0  0  0  0  0  0
  145.8933  141.2119  152.2413 H   0  0  0  0  0  0  0  0  0  0  0  0
  146.9070  142.2952  154.2467 H   0  0  0  0  0  0  0  0  0  0  0  0
  148.2741  142.1425  156.1718 H   0  0  0  0  0  0  0  0  0  0  0  0
  148.6471  140.5603  156.8080 H   0  0  0  0  0  0  0  0  0  0  0  0
  150.8790  140.6121  156.0634 H   0  0  0  0  0  0  0  0  0  0  0  0
  150.5252  141.6349  154.6901 H   0  0  0  0  0  0  0  0  0  0  0  0
  150.3700  143.5350  156.2630 H   0  0  0  0  0  0  0  0  0  0  0  0
  152.3483  144.6053  157.4728 H   0  0  0  0  0  0  0  0  0  0  0  0
  153.2570  142.7626  159.6183 H   0  0  0  0  0  0  0  0  0  0  0  0
  153.8990  144.3237  159.1247 H   0  0  0  0  0  0  0  0  0  0  0  0
  151.8149  143.6927  161.1827 H   0  0  0  0  0  0  0  0  0  0  0  0
  152.9711  145.0281  161.1864 H   0  0  0  0  0  0  0  0  0  0  0  0
  150.3988  145.5554  160.5629 H   0  0  0  0  0  0  0  0  0  0  0  0
  151.6495  146.2399  159.5103 H   0  0  0  0  0  0  0  0  0  0  0  0
  149.2375  138.6652  154.8419 H   0  0  0  0  0  0  0  0  0  0  0  0
  148.2176  137.7840  152.9632 H   0  0  0  0  0  0  0  0  0  0  0  0
  1  2  1  0  0  0  0
  1 18  1  0  0  0  0
  1 19  1  0  0  0  0
  1 20  1  0  0  0  0
  2 17  1  0  0  0  0
  2  3  2  0  0  0  0
  3  4  1  0  0  0  0
  3 21  1  0  0  0  0
  4  5  2  0  0  0  0
  4 22  1  0  0  0  0
  5  6  1  0  0  0  0
  5 16  1  0  0  0  0
  6  7  1  0  0  0  0
  6 23  1  0  0  0  0
  6 24  1  0  0  0  0
  7  8  1  0  0  0  0
  7 25  1  0  0  0  0
  7 26  1  0  0  0  0
  8  9  1  0  0  0  0
  8 27  1  0  0  0  0
  9 10  2  0  0  0  0
  9 11  1  0  0  0  0
 11 15  1  0  0  0  0
 11 12  1  0  0  0  0
 11 28  1  0  0  0  0
 12 13  1  0  0  0  0
 12 29  1  0  0  0  0
 12 30  1  0  0  0  0
 13 14  1  0  0  0  0
 13 31  1  0  0  0  0
 13 32  1  0  0  0  0
 14 15  1  0  0  0  0
 14 33  1  0  0  0  0
 14 34  1  0  0  0  0
 16 17  2  0  0  0  0
 16 35  1  0  0  0  0
 17 36  1  0  0  0  0
M  CHG  1  17   1
M  END
> <s_m_source_file>
AV-unprocessed.smi

> <i_m_source_file_index>
3199

> <i_lp_mmshare_version>
43012

> <i_f3d_flags>
0

> <s_epik_input>
W0NIM11jMVtjSF1bY0hdYyhbY0hdbjEpW0NIMl1bQ0gyXVtOSF1DKD1PKVtDQEBIXTJbQ0gyXVtDSDJdW0NIMl1PMg==

> <s_epik_cmdline>
J2VwaWtfcHl0aG9uJywgJy1waCcsICc3LjAnLCAnLXRuJywgJzgnLCAnLW1hJywgJzIwMCcsICctbWV0YWxfYmluZGluZycsICctaW1hZScsICc8aW5maWxlLm1hZT4nLCAnLW9tYWUnLCAnPG91dGZpbGUubWFlPic=

> <r_epik_Ionization_Penalty>
1.4683

> <r_epik_Ionization_Penalty_Charging>
1.4683

> <r_epik_Ionization_Penalty_Neutral>
5.71603e-08

> <r_epik_State_Penalty>
1.5559

> <r_epik_Charging_Adjusted_Penalty>
3.0242

> <i_epik_Tot_Q>
1

> <i_epik_Tot_abs_Q>
1

> <r_epik_Metal_State_Penalty>
1.60421

> <b_epik_Metal_Only>
0

> <s_lp_Force_Field>
OPLS_2005

> <r_lp_Energy>
23.6243

> <b_lp_Chiralities_Consistent>
1

> <s_lp_Variant>
AV-unprocessed.smi:3199-3

> <Gold.Version>
5.8.1

> <Gold.Id.Protein>
6NUR|6NUR_protein|mol2

> <Gold.PLP.Fitness>
45.2883

> <Gold.PLP.PLP>
-36.8104

> <Gold.PLP.part.hbond>
-3.0000

> <Gold.PLP.part.metal>
0.0000

> <Gold.PLP.part.buried>
1.2024

> <Gold.PLP.part.nonpolar>
-35.3908

> <Gold.PLP.part.repulsive>
0.2660

> <Gold.PLP.ligand.clash>
0.0000

> <Gold.PLP.ligand.torsion>
0.2606

> <Gold.PLP.Chemscore.Hbond>
2.9920

> <Gold.PLP.Chemscore.CHOScore>
0.0000

> <Gold.PLP.Chemscore.Metal>
0.0000

> <Gold.Chemscore.Hbonds>
donor molecule, donor type, donor heavy atom, donor atom, acceptor molecule, acceptor atom, score
      L1  H     8    27       P1  8028  1.00
      L1  H    17    36       P1  7948  2.00

> <Gold.PLP.Chemscore.Internal.Correction>
0.0230

> <Gold.Rescore>
     Score         DG    S(hbond)    S(metal)    S(lipo)     H(rot)  DE(clash)    DE(int)     intcor
     18.89     -20.78       1.95        0.00     109.33       1.56       1.66       0.23       ----

> <Gold.Chemscore.Fitness>
18.8897

> <Gold.Chemscore.DG>
-20.7845

> <Gold.Chemscore.ZeroCoef>
-5.4800

> <Gold.Chemscore.Hbond>
1.9491

> <Gold.Chemscore.Metal>
0.0000

> <Gold.Chemscore.Lipo>
109.3289

> <Gold.Chemscore.Internal_Hbond>
0.0000

> <Gold.Chemscore.DEClash>
1.6598

> <Gold.Chemscore.DEInternal>
0.2350

> <Gold.Chemscore.Rot>
1.5613

> <Gold.Chemscore.Internal.Correction>
   9.000000E+99

> <Gold.Chemscore.Hbonds>
donor molecule, donor type, donor heavy atom, donor atom, acceptor molecule, acceptor atom, score
      L1  H     8    27       P1  8028  0.94
      L1  H    17    36       P1  7948  0.93

> <Gold.Chemscore.Hbond.Weighted>
-6.5099

> <Gold.Chemscore.Metal.Weighted>
-0.0000

> <Gold.Chemscore.Lipo.Weighted>
-12.7915

> <Gold.Chemscore.Internal_Hbond.Weighted>
0.0000

> <Gold.Chemscore.DEClash.Weighted>
1.6598

> <Gold.Chemscore.DEInternal.Weighted>
0.2350

> <Gold.Chemscore.Rot.Weighted>
3.9969

> <Gold.Chemscore.Internal.Correction.Weighted>
   9.000000E+99

> <Gold.Protein.RotatedTorsions>
[ 6907 6896 6895 6894 ] final  -26.86 input  -60.11 | X-H torsion
[ 7974 7965 7964 7962 ] final   95.82 input  175.53 | X-H torsion
[ 8008 7997 7996 7995 ] final   11.58 input   59.86 | X-H torsion
[ 10167 10162 10161 10158 ] final -115.24 input  -65.29 | X-H torsion
[ 10718 10713 10712 10709 ] final  107.71 input   66.30 | X-H torsion
[ 10763 10752 10751 10750 ] final  -44.33 input  -60.55 | X-H torsion
[ 11005 11000 10999 10996 ] final  -47.03 input  -57.11 | X-H torsion

> <Gold.Protein.ActiveResidues>
 VAL166  LYS551  ARG553  GLY616  TRP617  ASP618  TYR619  PRO620  LYS621  CYS622 
 ASP623  PHE694  ASN695  SER759  ASP760  ASP761  ALA762  ILE779  LEU786  VAL792 
 PHE793  MET794  SER795  GLU796  ALA797  LYS798  CYS799  TRP800  GLU811  SER814 

> <Gold.Protein.RotatedAtoms>
  151.1550  135.0245  159.8684 H   0  0  0  0  0  0  0  0  0  0  0  0  # atno 6907 bound_to 6896
  152.5452  134.1345  159.8463 H   0  0  0  0  0  0  0  0  0  0  0  0  # atno 6908 bound_to 6896
  151.1434  133.4910  159.2629 H   0  0  0  0  0  0  0  0  0  0  0  0  # atno 6909 bound_to 6896
  145.4471  139.2296  143.3060 H   0  0  0  0  0  0  0  0  0  0  0  0  # atno 7974 bound_to 7965
  154.8089  140.2865  155.5867 H   0  0  0  0  0  0  0  0  0  0  0  0  # atno 8008 bound_to 7997
  156.2986  140.2572  156.2903 H   0  0  0  0  0  0  0  0  0  0  0  0  # atno 8009 bound_to 7997
  154.9470  140.0380  157.2115 H   0  0  0  0  0  0  0  0  0  0  0  0  # atno 8010 bound_to 7997
  140.0922  143.4689  152.1863 H   0  0  0  0  0  0  0  0  0  0  0  0  # atno 10167 bound_to 10162
  157.6617  131.0878  150.6196 H   0  0  0  0  0  0  0  0  0  0  0  0  # atno 10718 bound_to 10713
  154.0102  135.6682  153.4765 H   0  0  0  0  0  0  0  0  0  0  0  0  # atno 10763 bound_to 10752
  153.0624  135.5020  154.8119 H   0  0  0  0  0  0  0  0  0  0  0  0  # atno 10764 bound_to 10752
  154.7000  135.3077  154.9319 H   0  0  0  0  0  0  0  0  0  0  0  0  # atno 10765 bound_to 10752
  141.0615  133.6707  156.3239 H   0  0  0  0  0  0  0  0  0  0  0  0  # atno 11005 bound_to 11000
  146.2525  140.5226  142.8887 LP  0  0  0  0  0  0  0  0  0  0  0  0  # atno 17320 bound_to 7965
  144.8085  140.6343  143.6431 LP  0  0  0  0  0  0  0  0  0  0  0  0  # atno 17321 bound_to 7965
  139.5718  144.7467  151.3870 LP  0  0  0  0  0  0  0  0  0  0  0  0  # atno 17342 bound_to 10162
  140.7022  143.7602  150.7422 LP  0  0  0  0  0  0  0  0  0  0  0  0  # atno 17343 bound_to 10162
  156.6499  130.4482  149.5723 LP  0  0  0  0  0  0  0  0  0  0  0  0  # atno 17370 bound_to 10713
  156.2146  130.6700  151.1305 LP  0  0  0  0  0  0  0  0  0  0  0  0  # atno 17371 bound_to 10713
  140.5858  134.5700  157.5489 LP  0  0  0  0  0  0  0  0  0  0  0  0  # atno 17394 bound_to 11000
  139.9437  134.7740  156.0614 LP  0  0  0  0  0  0  0  0  0  0  0  0  # atno 17395 bound_to 11000

$$$$
