AV-unprocessed.smi:2761|AV-procd|sdf|10634|dock1
  -GOLD-   2272015 83D 1   1.00000     0.00000
 Structure written by MMmdl.
 26 27  0  0  0  0  0  0  0  0  2 V2000
  153.0782  139.9961  158.3895 O   0  0  0  0  0  0  0  0  0  0  0  0
  152.6013  141.0946  158.6824 C   0  0  0  0  0  0  0  0  0  0  0  0
  151.6274  141.7257  157.9909 N   0  0  0  0  0  0  0  0  0  0  0  0
  150.9583  141.2907  156.8425 C   0  0  0  0  0  0  0  0  0  0  0  0
  149.5854  141.7255  156.8098 C   0  0  0  0  0  0  0  0  0  0  0  0
  148.8407  141.3619  155.7421 C   0  0  0  0  0  0  0  0  0  0  0  0
  149.4081  140.5563  154.6579 C   0  0  0  0  0  0  0  0  0  0  0  0
  148.6941  140.2487  153.7060 O   0  0  0  0  0  0  0  0  0  0  0  0
  150.7226  140.1789  154.7563 N   0  5  0  0  0  0  0  0  0  0  0  0
  151.5078  140.5763  155.9079 N   0  0  0  0  0  0  0  0  0  0  0  0
  153.1426  141.8508  159.9063 C   0  0  2  0  0  0  0  0  0  0  0  0
  153.9495  140.9419  160.8625 C   0  0  0  0  0  0  0  0  0  0  0  0
  154.3825  141.7017  161.9838 O   0  0  0  0  0  0  0  0  0  0  0  0
  153.2822  142.2510  162.6944 C   0  0  0  0  0  0  0  0  0  0  0  0
  152.4896  143.1689  161.7507 C   0  0  0  0  0  0  0  0  0  0  0  0
  152.0493  142.4110  160.6322 O   0  0  0  0  0  0  0  0  0  0  0  0
  151.3504  142.6218  158.3632 H   0  0  0  0  0  0  0  0  0  0  0  0
  149.1329  142.3199  157.5900 H   0  0  0  0  0  0  0  0  0  0  0  0
  147.8074  141.6708  155.6859 H   0  0  0  0  0  0  0  0  0  0  0  0
  153.7803  142.6567  159.5386 H   0  0  0  0  0  0  0  0  0  0  0  0
  153.3528  140.0913  161.1968 H   0  0  0  0  0  0  0  0  0  0  0  0
  154.8311  140.5395  160.3626 H   0  0  0  0  0  0  0  0  0  0  0  0
  152.6488  141.4539  163.0866 H   0  0  0  0  0  0  0  0  0  0  0  0
  153.6553  142.8160  163.5489 H   0  0  0  0  0  0  0  0  0  0  0  0
  151.6219  143.5828  162.2642 H   0  0  0  0  0  0  0  0  0  0  0  0
  153.1011  144.0098  161.4207 H   0  0  0  0  0  0  0  0  0  0  0  0
  1  2  2  0  0  0  0
  2  3  1  0  0  0  0
  2 11  1  0  0  0  0
  3 17  1  0  0  0  0
  3  4  1  0  0  0  0
  4  5  1  0  0  0  0
  4 10  2  0  0  0  0
  5  6  2  0  0  0  0
  5 18  1  0  0  0  0
  6  7  1  0  0  0  0
  6 19  1  0  0  0  0
  7  8  2  0  0  0  0
  7  9  1  0  0  0  0
  9 10  1  0  0  0  0
 11 16  1  0  0  0  0
 11 12  1  0  0  0  0
 11 20  1  0  0  0  0
 12 13  1  0  0  0  0
 12 21  1  0  0  0  0
 12 22  1  0  0  0  0
 13 14  1  0  0  0  0
 14 15  1  0  0  0  0
 14 23  1  0  0  0  0
 14 24  1  0  0  0  0
 15 16  1  0  0  0  0
 15 25  1  0  0  0  0
 15 26  1  0  0  0  0
M  CHG  1   9  -1
M  END
> <s_m_source_file>
AV-unprocessed.smi

> <i_m_source_file_index>
2761

> <i_lp_mmshare_version>
43012

> <i_f3d_flags>
0

> <s_epik_input>
TzFbQ0gyXVtDSDJdT1tDSDJdW0NASF0xQyg9TylbTkhdYzJbY0hdW2NIXWMoW09IXSlubjI=

> <s_epik_cmdline>
J2VwaWtfcHl0aG9uJywgJy1waCcsICc3LjAnLCAnLXRuJywgJzgnLCAnLW1hJywgJzIwMCcsICctbWV0YWxfYmluZGluZycsICctaW1hZScsICc8aW5maWxlLm1hZT4nLCAnLW9tYWUnLCAnPG91dGZpbGUubWFlPic=

> <r_lp_tautomer_probability>
1

> <r_epik_Ionization_Penalty>
4.21844

> <r_epik_Ionization_Penalty_Charging>
0.119247

> <r_epik_Ionization_Penalty_Neutral>
4.0992

> <r_epik_State_Penalty>
4.09486

> <r_epik_Charging_Adjusted_Penalty>
4.2141

> <i_epik_Tot_Q>
-1

> <i_epik_Tot_abs_Q>
1

> <r_epik_Metal_State_Penalty>
0.651223

> <b_epik_Metal_Only>
1

> <s_lp_Force_Field>
OPLS_2005

> <r_lp_Energy>
28.3559

> <b_lp_Chiralities_Consistent>
1

> <s_lp_Variant>
AV-unprocessed.smi:2761-3

> <Gold.Version>
5.8.1

> <Gold.Id.Protein>
6NUR|6NUR_protein|mol2

> <Gold.PLP.Fitness>
34.8163

> <Gold.PLP.PLP>
-30.1584

> <Gold.PLP.part.hbond>
-3.6796

> <Gold.PLP.part.metal>
0.0000

> <Gold.PLP.part.buried>
-5.6991

> <Gold.PLP.part.nonpolar>
-23.4090

> <Gold.PLP.part.repulsive>
2.8802

> <Gold.PLP.ligand.clash>
0.0000

> <Gold.PLP.ligand.torsion>
0.6722

> <Gold.PLP.Chemscore.Hbond>
2.0000

> <Gold.PLP.Chemscore.CHOScore>
0.0000

> <Gold.PLP.Chemscore.Metal>
0.0000

> <Gold.Chemscore.Hbonds>
donor molecule, donor type, donor heavy atom, donor atom, acceptor molecule, acceptor atom, score
      P1  H  7989  7998       L1     9  1.00
      P1  H  7997  8008       L1     1  0.99

> <Gold.PLP.Chemscore.Internal.Correction>
0.0022

> <Gold.Rescore>
     Score         DG    S(hbond)    S(metal)    S(lipo)     H(rot)  DE(clash)    DE(int)     intcor
      9.21     -13.06       1.18        0.00      52.89       1.00       2.34       1.50       ----

> <Gold.Chemscore.Fitness>
9.2081

> <Gold.Chemscore.DG>
-13.0558

> <Gold.Chemscore.ZeroCoef>
-5.4800

> <Gold.Chemscore.Hbond>
1.1821

> <Gold.Chemscore.Metal>
0.0000

> <Gold.Chemscore.Lipo>
52.8860

> <Gold.Chemscore.Internal_Hbond>
0.0000

> <Gold.Chemscore.DEClash>
2.3427

> <Gold.Chemscore.DEInternal>
1.5050

> <Gold.Chemscore.Rot>
1.0000

> <Gold.Chemscore.Internal.Correction>
   9.000000E+99

> <Gold.Chemscore.Hbonds>
donor molecule, donor type, donor heavy atom, donor atom, acceptor molecule, acceptor atom, score
      P1  H  7989  7998       L1     9  0.22
      P1  H  7997  8008       L1     1  0.82

> <Gold.Chemscore.Hbond.Weighted>
-3.9482

> <Gold.Chemscore.Metal.Weighted>
-0.0000

> <Gold.Chemscore.Lipo.Weighted>
-6.1877

> <Gold.Chemscore.Internal_Hbond.Weighted>
0.0000

> <Gold.Chemscore.DEClash.Weighted>
2.3427

> <Gold.Chemscore.DEInternal.Weighted>
1.5050

> <Gold.Chemscore.Rot.Weighted>
2.5600

> <Gold.Chemscore.Internal.Correction.Weighted>
   9.000000E+99

> <Gold.Protein.RotatedTorsions>
[ 6907 6896 6895 6894 ] final -138.39 input  -60.11 | X-H torsion
[ 7974 7965 7964 7962 ] final   25.88 input  175.53 | X-H torsion
[ 8008 7997 7996 7995 ] final  -87.33 input   59.86 | X-H torsion
[ 10167 10162 10161 10158 ] final    8.04 input  -65.29 | X-H torsion
[ 10718 10713 10712 10709 ] final   25.79 input   66.30 | X-H torsion
[ 10763 10752 10751 10750 ] final  -42.18 input  -60.55 | X-H torsion
[ 11005 11000 10999 10996 ] final  -45.68 input  -57.11 | X-H torsion

> <Gold.Protein.ActiveResidues>
 VAL166  LYS551  ARG553  GLY616  TRP617  ASP618  TYR619  PRO620  LYS621  CYS622 
 ASP623  PHE694  ASN695  SER759  ASP760  ASP761  ALA762  ILE779  LEU786  VAL792 
 PHE793  MET794  SER795  GLU796  ALA797  LYS798  CYS799  TRP800  GLU811  SER814 

> <Gold.Protein.RotatedAtoms>
  151.0344  133.5761  159.2657 H   0  0  0  0  0  0  0  0  0  0  0  0  # atno 6907 bound_to 6896
  151.2831  135.0719  159.9186 H   0  0  0  0  0  0  0  0  0  0  0  0  # atno 6908 bound_to 6896
  152.5351  134.0055  159.7968 H   0  0  0  0  0  0  0  0  0  0  0  0  # atno 6909 bound_to 6896
  146.1866  139.7405  142.8862 H   0  0  0  0  0  0  0  0  0  0  0  0  # atno 7974 bound_to 7965
  154.6620  140.0567  157.0073 H   0  0  0  0  0  0  0  0  0  0  0  0  # atno 8008 bound_to 7997
  155.1214  140.3248  155.4478 H   0  0  0  0  0  0  0  0  0  0  0  0  # atno 8009 bound_to 7997
  156.2622  140.1997  156.6336 H   0  0  0  0  0  0  0  0  0  0  0  0  # atno 8010 bound_to 7997
  140.6337  143.7935  150.7330 H   0  0  0  0  0  0  0  0  0  0  0  0  # atno 10167 bound_to 10162
  157.1982  130.6877  149.6177 H   0  0  0  0  0  0  0  0  0  0  0  0  # atno 10718 bound_to 10713
  153.9747  135.6724  153.4748 H   0  0  0  0  0  0  0  0  0  0  0  0  # atno 10763 bound_to 10752
  153.0776  135.4940  154.8433 H   0  0  0  0  0  0  0  0  0  0  0  0  # atno 10764 bound_to 10752
  154.7199  135.3115  154.9025 H   0  0  0  0  0  0  0  0  0  0  0  0  # atno 10765 bound_to 10752
  141.0531  133.6735  156.3048 H   0  0  0  0  0  0  0  0  0  0  0  0  # atno 11005 bound_to 11000
  145.3919  141.0373  143.3119 LP  0  0  0  0  0  0  0  0  0  0  0  0  # atno 17320 bound_to 7965
  144.8409  139.5474  143.6901 LP  0  0  0  0  0  0  0  0  0  0  0  0  # atno 17321 bound_to 7965
  140.1552  143.4323  152.2104 LP  0  0  0  0  0  0  0  0  0  0  0  0  # atno 17342 bound_to 10162
  139.5549  144.7365  151.4325 LP  0  0  0  0  0  0  0  0  0  0  0  0  # atno 17343 bound_to 10162
  155.9703  130.4592  150.6026 LP  0  0  0  0  0  0  0  0  0  0  0  0  # atno 17370 bound_to 10713
  157.3794  131.0778  151.1490 LP  0  0  0  0  0  0  0  0  0  0  0  0  # atno 17371 bound_to 10713
  140.6017  134.5548  157.5518 LP  0  0  0  0  0  0  0  0  0  0  0  0  # atno 17394 bound_to 11000
  139.9367  134.7862  156.0784 LP  0  0  0  0  0  0  0  0  0  0  0  0  # atno 17395 bound_to 11000

$$$$
