AV-unprocessed.smi:2514|AV-procd|sdf|9896|dock7
  -GOLD-   2272013533D 1   1.00000     0.00000
 Structure written by MMmdl.
 24 25  0  0  0  0  0  0  0  0  1 V2000
  155.2455  139.8900  161.7699 C   0  0  0  0  0  0  0  0  0  0  0  0
  155.0760  140.6035  160.4227 C   0  0  1  0  0  0  0  0  0  0  0  0
  154.6351  139.6800  159.4477 O   0  0  0  0  0  0  0  0  0  0  0  0
  154.0586  141.7086  160.4770 C   0  0  0  0  0  0  0  0  0  0  0  0
  153.6260  142.5190  159.4658 C   0  0  0  0  0  0  0  0  0  0  0  0
  152.7063  143.3403  160.0827 N   0  0  0  0  0  0  0  0  0  0  0  0
  151.9422  144.3948  159.4808 C   0  0  0  0  0  0  0  0  0  0  0  0
  150.4120  144.3546  159.4078 C   0  0  0  0  0  0  0  0  0  0  0  0
  150.5385  145.0127  158.1184 N   0  0  0  0  0  0  0  0  0  0  0  0
  151.9034  144.5397  157.9592 C   0  0  0  0  0  0  0  0  0  0  0  0
  152.5874  143.0542  161.4010 N   0  0  0  0  0  0  0  0  0  0  0  0
  153.3945  142.0719  161.6516 N   0  0  0  0  0  0  0  0  0  0  0  0
  155.5786  140.5861  162.5403 H   0  0  0  0  0  0  0  0  0  0  0  0
  155.9864  139.0934  161.7019 H   0  0  0  0  0  0  0  0  0  0  0  0
  154.3082  139.4450  162.1059 H   0  0  0  0  0  0  0  0  0  0  0  0
  156.0408  140.9972  160.1009 H   0  0  0  0  0  0  0  0  0  0  0  0
  153.9421  139.1580  159.8223 H   0  0  0  0  0  0  0  0  0  0  0  0
  153.8785  142.5808  158.4174 H   0  0  0  0  0  0  0  0  0  0  0  0
  152.2807  145.3208  159.9514 H   0  0  0  0  0  0  0  0  0  0  0  0
  149.9811  143.3570  159.3116 H   0  0  0  0  0  0  0  0  0  0  0  0
  149.9104  144.9565  160.1660 H   0  0  0  0  0  0  0  0  0  0  0  0
  149.9138  144.6247  157.4256 H   0  0  0  0  0  0  0  0  0  0  0  0
  152.5899  145.2880  157.5624 H   0  0  0  0  0  0  0  0  0  0  0  0
  151.9502  143.5953  157.4147 H   0  0  0  0  0  0  0  0  0  0  0  0
  1  2  1  0  0  0  0
  1 13  1  0  0  0  0
  1 14  1  0  0  0  0
  1 15  1  0  0  0  0
  2  3  1  0  0  0  0
  2  4  1  0  0  0  0
  2 16  1  0  0  0  0
  3 17  1  0  0  0  0
  4 12  1  0  0  0  0
  4  5  2  0  0  0  0
  5  6  1  0  0  0  0
  5 18  1  0  0  0  0
  6  7  1  0  0  0  0
  6 11  1  0  0  0  0
  7 10  1  0  0  0  0
  7  8  1  0  0  0  0
  7 19  1  0  0  0  0
  8  9  1  0  0  0  0
  8 20  1  0  0  0  0
  8 21  1  0  0  0  0
  9 10  1  0  0  0  0
  9 22  1  0  0  0  0
 10 23  1  0  0  0  0
 10 24  1  0  0  0  0
 11 12  2  0  0  0  0
M  END
> <s_m_source_file>
AV-unprocessed.smi

> <i_m_source_file_index>
2514

> <i_lp_mmshare_version>
43012

> <i_f3d_flags>
0

> <s_epik_input>
W0NIM11bQ0BIXShbT0hdKWMxW2NIXW4obm4xKVtDSF0yW0NIMl1bTkhdW0NIMl0y

> <s_epik_cmdline>
J2VwaWtfcHl0aG9uJywgJy1waCcsICc3LjAnLCAnLXRuJywgJzgnLCAnLW1hJywgJzIwMCcsICctbWV0YWxfYmluZGluZycsICctaW1hZScsICc8aW5maWxlLm1hZT4nLCAnLW9tYWUnLCAnPG91dGZpbGUubWFlPic=

> <r_lp_tautomer_probability>
1

> <r_epik_Ionization_Penalty>
0.704859

> <r_epik_Ionization_Penalty_Charging>
0

> <r_epik_Ionization_Penalty_Neutral>
0.704859

> <r_epik_State_Penalty>
0.727806

> <r_epik_Charging_Adjusted_Penalty>
0.727806

> <i_epik_Tot_Q>
0

> <i_epik_Tot_abs_Q>
0

> <r_epik_Metal_State_Penalty>
0.727738

> <b_epik_Metal_Only>
0

> <s_lp_Force_Field>
OPLS_2005

> <r_lp_Energy>
11.7069

> <b_lp_Chiralities_Consistent>
1

> <s_lp_Variant>
AV-unprocessed.smi:2514-4

> <Gold.Version>
5.8.1

> <Gold.Id.Protein>
6NUR|6NUR_protein|mol2

> <Gold.PLP.Fitness>
36.7079

> <Gold.PLP.PLP>
-30.7856

> <Gold.PLP.part.hbond>
-3.0000

> <Gold.PLP.part.metal>
0.0000

> <Gold.PLP.part.buried>
-3.4097

> <Gold.PLP.part.nonpolar>
-23.1685

> <Gold.PLP.part.repulsive>
0.1089

> <Gold.PLP.ligand.clash>
0.0000

> <Gold.PLP.ligand.torsion>
0.1419

> <Gold.PLP.Chemscore.Hbond>
2.0000

> <Gold.PLP.Chemscore.CHOScore>
0.0000

> <Gold.PLP.Chemscore.Metal>
0.0000

> <Gold.Chemscore.Hbonds>
donor molecule, donor type, donor heavy atom, donor atom, acceptor molecule, acceptor atom, score
      L1  H     9    22       P1  8028  0.80
      P1  H  7997  8010       L1     3  0.57

> <Gold.PLP.Chemscore.Internal.Correction>
0.2060

> <Gold.Rescore>
     Score         DG    S(hbond)    S(metal)    S(lipo)     H(rot)  DE(clash)    DE(int)     intcor
     14.86     -15.26       1.74        0.00      73.03       1.78       0.30       0.11       ----

> <Gold.Chemscore.Fitness>
14.8555

> <Gold.Chemscore.DG>
-15.2640

> <Gold.Chemscore.ZeroCoef>
-5.4800

> <Gold.Chemscore.Hbond>
1.7370

> <Gold.Chemscore.Metal>
0.0000

> <Gold.Chemscore.Lipo>
73.0343

> <Gold.Chemscore.Internal_Hbond>
0.0000

> <Gold.Chemscore.DEClash>
0.3024

> <Gold.Chemscore.DEInternal>
0.1061

> <Gold.Chemscore.Rot>
1.7823

> <Gold.Chemscore.Internal.Correction>
   9.000000E+99

> <Gold.Chemscore.Hbonds>
donor molecule, donor type, donor heavy atom, donor atom, acceptor molecule, acceptor atom, score
      L1  H     9    22       P1  8028  0.11
      P1  H  7997  8010       L1     3  0.52

> <Gold.Chemscore.Hbond.Weighted>
-5.8017

> <Gold.Chemscore.Metal.Weighted>
-0.0000

> <Gold.Chemscore.Lipo.Weighted>
-8.5450

> <Gold.Chemscore.Internal_Hbond.Weighted>
0.0000

> <Gold.Chemscore.DEClash.Weighted>
0.3024

> <Gold.Chemscore.DEInternal.Weighted>
0.1061

> <Gold.Chemscore.Rot.Weighted>
4.5627

> <Gold.Chemscore.Internal.Correction.Weighted>
   9.000000E+99

> <Gold.Protein.RotatedTorsions>
[ 6907 6896 6895 6894 ] final -106.17 input  -60.11 | X-H torsion
[ 7974 7965 7964 7962 ] final  -13.93 input  175.53 | X-H torsion
[ 8008 7997 7996 7995 ] final  -10.31 input   59.86 | X-H torsion
[ 10167 10162 10161 10158 ] final  -18.30 input  -65.29 | X-H torsion
[ 10718 10713 10712 10709 ] final   53.73 input   66.30 | X-H torsion
[ 10763 10752 10751 10750 ] final  -47.43 input  -60.55 | X-H torsion
[ 11005 11000 10999 10996 ] final   65.24 input  -57.11 | X-H torsion

> <Gold.Protein.ActiveResidues>
 VAL166  LYS551  ARG553  GLY616  TRP617  ASP618  TYR619  PRO620  LYS621  CYS622 
 ASP623  PHE694  ASN695  SER759  ASP760  ASP761  ALA762  ILE779  LEU786  VAL792 
 PHE793  MET794  SER795  GLU796  ALA797  LYS798  CYS799  TRP800  GLU811  SER814 

> <Gold.Protein.RotatedAtoms>
  150.7375  134.0016  159.3639 H   0  0  0  0  0  0  0  0  0  0  0  0  # atno 6907 bound_to 6896
  151.7970  135.0717  160.0404 H   0  0  0  0  0  0  0  0  0  0  0  0  # atno 6908 bound_to 6896
  152.3167  133.5774  159.5753 H   0  0  0  0  0  0  0  0  0  0  0  0  # atno 6909 bound_to 6896
  146.2095  140.3274  142.8396 H   0  0  0  0  0  0  0  0  0  0  0  0  # atno 7974 bound_to 7965
  154.5566  140.2332  155.8401 H   0  0  0  0  0  0  0  0  0  0  0  0  # atno 8008 bound_to 7997
  156.1993  140.3056  155.9453 H   0  0  0  0  0  0  0  0  0  0  0  0  # atno 8009 bound_to 7997
  155.2969  140.0429  157.3017 H   0  0  0  0  0  0  0  0  0  0  0  0  # atno 8010 bound_to 7997
  140.7257  143.4930  150.9967 H   0  0  0  0  0  0  0  0  0  0  0  0  # atno 10167 bound_to 10162
  157.5193  130.8554  149.8538 H   0  0  0  0  0  0  0  0  0  0  0  0  # atno 10718 bound_to 10713
  154.0613  135.6617  153.4812 H   0  0  0  0  0  0  0  0  0  0  0  0  # atno 10763 bound_to 10752
  153.0426  135.5135  154.7656 H   0  0  0  0  0  0  0  0  0  0  0  0  # atno 10764 bound_to 10752
  154.6694  135.3027  154.9730 H   0  0  0  0  0  0  0  0  0  0  0  0  # atno 10765 bound_to 10752
  139.9907  134.6596  156.0096 H   0  0  0  0  0  0  0  0  0  0  0  0  # atno 11005 bound_to 11000
  144.8876  140.7483  143.5947 LP  0  0  0  0  0  0  0  0  0  0  0  0  # atno 17320 bound_to 7965
  145.3196  139.1792  143.4595 LP  0  0  0  0  0  0  0  0  0  0  0  0  # atno 17321 bound_to 7965
  139.8635  143.7283  152.3172 LP  0  0  0  0  0  0  0  0  0  0  0  0  # atno 17342 bound_to 10162
  139.7507  144.7535  151.0511 LP  0  0  0  0  0  0  0  0  0  0  0  0  # atno 17343 bound_to 10162
  156.0342  130.3756  150.1604 LP  0  0  0  0  0  0  0  0  0  0  0  0  # atno 17370 bound_to 10713
  156.9793  130.9859  151.3441 LP  0  0  0  0  0  0  0  0  0  0  0  0  # atno 17371 bound_to 10713
  141.1563  133.6542  156.4172 LP  0  0  0  0  0  0  0  0  0  0  0  0  # atno 17394 bound_to 11000
  140.4914  134.6571  157.5212 LP  0  0  0  0  0  0  0  0  0  0  0  0  # atno 17395 bound_to 11000

$$$$
