AV-unprocessed.smi:1292|AV-procd|sdf|5398|dock7
  -GOLD-   22720 4553D 1   1.00000     0.00000
 Structure written by MMmdl.
 39 40  0  0  0  0  0  0  0  0  2 V2000
  153.4901  141.7286  160.9016 C   0  0  0  0  0  0  0  0  0  0  0  0
  152.3204  141.8453  159.9142 C   0  0  1  0  0  0  0  0  0  0  0  0
  152.1885  143.2734  159.3678 C   0  0  0  0  0  0  0  0  0  0  0  0
  151.0071  143.3421  158.3975 C   0  0  0  0  0  0  0  0  0  0  0  0
  151.1616  142.3190  157.2625 C   0  0  0  0  0  0  0  0  0  0  0  0
  151.3466  140.9487  157.7908 N   0  0  0  0  0  0  0  0  0  0  0  0
  151.1140  139.6217  156.6907 S   0  0  0  0  0  0  0  0  0  0  0  0
  151.1562  140.2044  155.3397 O   0  0  0  0  0  0  0  0  0  0  0  0
  152.1316  138.6134  157.0308 O   0  0  0  0  0  0  0  0  0  0  0  0
  149.6202  139.2087  157.1731 N   0  5  0  0  0  0  0  0  0  0  0  0
  149.4550  138.2670  158.2694 C   0  0  0  0  0  0  0  0  0  0  0  0
  147.9613  137.9375  158.5106 C   0  0  0  0  0  0  0  0  0  0  0  0
  147.6733  136.9328  159.6234 C   0  0  0  0  0  0  0  0  0  0  0  0
  147.6323  135.5455  159.3529 C   0  0  0  0  0  0  0  0  0  0  0  0
  147.3735  134.6585  160.4154 C   0  0  0  0  0  0  0  0  0  0  0  0
  147.1575  135.1857  161.7028 C   0  0  0  0  0  0  0  0  0  0  0  0
  147.2078  136.5836  161.8706 C   0  0  0  0  0  0  0  0  0  0  0  0
  147.4509  137.4432  160.8590 N   0  0  0  0  0  0  0  0  0  0  0  0
  152.4573  140.8334  158.7588 C   0  0  0  0  0  0  0  0  0  0  0  0
  154.4409  141.9540  160.4173 H   0  0  0  0  0  0  0  0  0  0  0  0
  153.5567  140.7211  161.3134 H   0  0  0  0  0  0  0  0  0  0  0  0
  153.3689  142.4186  161.7370 H   0  0  0  0  0  0  0  0  0  0  0  0
  151.4060  141.6068  160.4600 H   0  0  0  0  0  0  0  0  0  0  0  0
  152.0401  143.9811  160.1841 H   0  0  0  0  0  0  0  0  0  0  0  0
  153.1062  143.5679  158.8571 H   0  0  0  0  0  0  0  0  0  0  0  0
  150.0769  143.1521  158.9348 H   0  0  0  0  0  0  0  0  0  0  0  0
  150.9244  144.3467  157.9820 H   0  0  0  0  0  0  0  0  0  0  0  0
  150.2835  142.3647  156.6194 H   0  0  0  0  0  0  0  0  0  0  0  0
  152.0181  142.5737  156.6373 H   0  0  0  0  0  0  0  0  0  0  0  0
  149.9743  137.3343  158.0473 H   0  0  0  0  0  0  0  0  0  0  0  0
  149.8992  138.6258  159.1987 H   0  0  0  0  0  0  0  0  0  0  0  0
  147.4115  138.8585  158.7113 H   0  0  0  0  0  0  0  0  0  0  0  0
  147.5371  137.5409  157.5877 H   0  0  0  0  0  0  0  0  0  0  0  0
  147.8087  135.1701  158.3558 H   0  0  0  0  0  0  0  0  0  0  0  0
  147.3437  133.5924  160.2460 H   0  0  0  0  0  0  0  0  0  0  0  0
  146.9592  134.5353  162.5417 H   0  0  0  0  0  0  0  0  0  0  0  0
  147.0449  137.0233  162.8435 H   0  0  0  0  0  0  0  0  0  0  0  0
  153.4007  140.9757  158.2301 H   0  0  0  0  0  0  0  0  0  0  0  0
  152.4778  139.8263  159.1745 H   0  0  0  0  0  0  0  0  0  0  0  0
  1  2  1  0  0  0  0
  1 20  1  0  0  0  0
  1 21  1  0  0  0  0
  1 22  1  0  0  0  0
  2 19  1  0  0  0  0
  2  3  1  0  0  0  0
  2 23  1  0  0  0  0
  3  4  1  0  0  0  0
  3 24  1  0  0  0  0
  3 25  1  0  0  0  0
  4  5  1  0  0  0  0
  4 26  1  0  0  0  0
  4 27  1  0  0  0  0
  5  6  1  0  0  0  0
  5 28  1  0  0  0  0
  5 29  1  0  0  0  0
  6  7  1  0  0  0  0
  6 19  1  0  0  0  0
  7  8  2  0  0  0  0
  7  9  2  0  0  0  0
  7 10  1  0  0  0  0
 10 11  1  0  0  0  0
 11 12  1  0  0  0  0
 11 30  1  0  0  0  0
 11 31  1  0  0  0  0
 12 13  1  0  0  0  0
 12 32  1  0  0  0  0
 12 33  1  0  0  0  0
 13 18  1  0  0  0  0
 13 14  2  0  0  0  0
 14 15  1  0  0  0  0
 14 34  1  0  0  0  0
 15 16  2  0  0  0  0
 15 35  1  0  0  0  0
 16 17  1  0  0  0  0
 16 36  1  0  0  0  0
 17 18  2  0  0  0  0
 17 37  1  0  0  0  0
 19 38  1  0  0  0  0
 19 39  1  0  0  0  0
M  CHG  1  10  -1
M  END
> <s_m_source_file>
AV-unprocessed.smi

> <i_m_source_file_index>
1292

> <i_lp_mmshare_version>
43012

> <i_f3d_flags>
0

> <s_epik_input>
W0NIM11bQ0BASF0xW0NIMl1bQ0gyXVtDSDJdTihbQ0gyXTEpUyg9TykoPU8pW05IXVtDSDJdW0NIMl1jMltjSF1bY0hdW2NIXVtjSF1uMg==

> <s_epik_cmdline>
J2VwaWtfcHl0aG9uJywgJy1waCcsICc3LjAnLCAnLXRuJywgJzgnLCAnLW1hJywgJzIwMCcsICctbWV0YWxfYmluZGluZycsICctaW1hZScsICc8aW5maWxlLm1hZT4nLCAnLW9tYWUnLCAnPG91dGZpbGUubWFlPic=

> <r_epik_Ionization_Penalty>
2.02944

> <r_epik_Ionization_Penalty_Charging>
1.95606

> <r_epik_Ionization_Penalty_Neutral>
0.0733799

> <r_epik_State_Penalty>
2.47711

> <r_epik_Charging_Adjusted_Penalty>
4.43317

> <i_epik_Tot_Q>
-1

> <i_epik_Tot_abs_Q>
1

> <r_epik_Metal_State_Penalty>
0.729901

> <b_epik_Metal_Only>
0

> <s_lp_Force_Field>
OPLS_2005

> <r_lp_Energy>
9.691

> <b_lp_Chiralities_Consistent>
1

> <s_lp_Variant>
AV-unprocessed.smi:1292-4

> <Gold.Version>
5.8.1

> <Gold.Id.Protein>
6NUR|6NUR_protein|mol2

> <Gold.PLP.Fitness>
41.7031

> <Gold.PLP.PLP>
-35.0831

> <Gold.PLP.part.hbond>
-3.0000

> <Gold.PLP.part.metal>
0.0000

> <Gold.PLP.part.buried>
-5.1396

> <Gold.PLP.part.nonpolar>
-27.1638

> <Gold.PLP.part.repulsive>
0.0271

> <Gold.PLP.ligand.clash>
0.0000

> <Gold.PLP.ligand.torsion>
1.2647

> <Gold.PLP.Chemscore.Hbond>
2.5160

> <Gold.PLP.Chemscore.CHOScore>
0.0000

> <Gold.PLP.Chemscore.Metal>
0.0000

> <Gold.Chemscore.Hbonds>
donor molecule, donor type, donor heavy atom, donor atom, acceptor molecule, acceptor atom, score
      P1  H  6931  6943       L1    18  0.36
      P1  H  6934  6947       L1    18  1.00
      P1  H  7989  7998       L1     8  1.00

> <Gold.PLP.Chemscore.Internal.Correction>
1.6013

> <Gold.Rescore>
     Score         DG    S(hbond)    S(metal)    S(lipo)     H(rot)  DE(clash)    DE(int)     intcor
     18.03     -18.98       1.93        0.00      91.35       1.42       0.03       0.92       ----

> <Gold.Chemscore.Fitness>
18.0278

> <Gold.Chemscore.DG>
-18.9825

> <Gold.Chemscore.ZeroCoef>
-5.4800

> <Gold.Chemscore.Hbond>
1.9322

> <Gold.Chemscore.Metal>
0.0000

> <Gold.Chemscore.Lipo>
91.3526

> <Gold.Chemscore.Internal_Hbond>
0.0000

> <Gold.Chemscore.DEClash>
0.0323

> <Gold.Chemscore.DEInternal>
0.9224

> <Gold.Chemscore.Rot>
1.4216

> <Gold.Chemscore.Internal.Correction>
   9.000000E+99

> <Gold.Chemscore.Hbonds>
donor molecule, donor type, donor heavy atom, donor atom, acceptor molecule, acceptor atom, score
      P1  H  6931  6943       L1    18  0.02
      P1  H  6934  6947       L1    18  0.87
      P1  H  7989  7998       L1     8  0.93

> <Gold.Chemscore.Hbond.Weighted>
-6.4534

> <Gold.Chemscore.Metal.Weighted>
-0.0000

> <Gold.Chemscore.Lipo.Weighted>
-10.6882

> <Gold.Chemscore.Internal_Hbond.Weighted>
0.0000

> <Gold.Chemscore.DEClash.Weighted>
0.0323

> <Gold.Chemscore.DEInternal.Weighted>
0.9224

> <Gold.Chemscore.Rot.Weighted>
3.6392

> <Gold.Chemscore.Internal.Correction.Weighted>
   9.000000E+99

> <Gold.Protein.RotatedTorsions>
[ 6907 6896 6895 6894 ] final  -98.37 input  -60.11 | X-H torsion
[ 7974 7965 7964 7962 ] final -107.95 input  175.53 | X-H torsion
[ 8008 7997 7996 7995 ] final  -65.58 input   59.86 | X-H torsion
[ 10167 10162 10161 10158 ] final -152.96 input  -65.29 | X-H torsion
[ 10718 10713 10712 10709 ] final   89.05 input   66.30 | X-H torsion
[ 10763 10752 10751 10750 ] final -106.45 input  -60.55 | X-H torsion
[ 11005 11000 10999 10996 ] final  -92.04 input  -57.11 | X-H torsion

> <Gold.Protein.ActiveResidues>
 VAL166  LYS551  ARG553  GLY616  TRP617  ASP618  TYR619  PRO620  LYS621  CYS622 
 ASP623  PHE694  ASN695  SER759  ASP760  ASP761  ALA762  ILE779  LEU786  VAL792 
 PHE793  MET794  SER795  GLU796  ALA797  LYS798  CYS799  TRP800  GLU811  SER814 

> <Gold.Protein.RotatedAtoms>
  150.7045  134.1205  159.4032 H   0  0  0  0  0  0  0  0  0  0  0  0  # atno 6907 bound_to 6896
  151.9191  135.0304  160.0530 H   0  0  0  0  0  0  0  0  0  0  0  0  # atno 6908 bound_to 6896
  152.2271  133.4994  159.5232 H   0  0  0  0  0  0  0  0  0  0  0  0  # atno 6909 bound_to 6896
  145.1989  140.9047  143.3381 H   0  0  0  0  0  0  0  0  0  0  0  0  # atno 7974 bound_to 7965
  154.4681  140.0930  156.7073 H   0  0  0  0  0  0  0  0  0  0  0  0  # atno 8008 bound_to 7997
  155.4801  140.3467  155.4320 H   0  0  0  0  0  0  0  0  0  0  0  0  # atno 8009 bound_to 7997
  156.0991  140.1417  156.9480 H   0  0  0  0  0  0  0  0  0  0  0  0  # atno 8010 bound_to 7997
  139.7137  143.9067  152.2478 H   0  0  0  0  0  0  0  0  0  0  0  0  # atno 10167 bound_to 10162
  157.6953  131.0318  150.3367 H   0  0  0  0  0  0  0  0  0  0  0  0  # atno 10718 bound_to 10713
  154.8013  135.4711  154.0282 H   0  0  0  0  0  0  0  0  0  0  0  0  # atno 10763 bound_to 10752
  153.1785  135.6837  153.8517 H   0  0  0  0  0  0  0  0  0  0  0  0  # atno 10764 bound_to 10752
  153.8075  135.3221  155.3374 H   0  0  0  0  0  0  0  0  0  0  0  0  # atno 10765 bound_to 10752
  141.1531  133.7795  156.9964 H   0  0  0  0  0  0  0  0  0  0  0  0  # atno 11005 bound_to 11000
  144.9967  139.3637  143.6188 LP  0  0  0  0  0  0  0  0  0  0  0  0  # atno 17320 bound_to 7965
  146.3421  139.9173  142.8771 LP  0  0  0  0  0  0  0  0  0  0  0  0  # atno 17321 bound_to 7965
  139.8943  144.6948  150.8735 LP  0  0  0  0  0  0  0  0  0  0  0  0  # atno 17342 bound_to 10162
  140.7739  143.3562  151.1917 LP  0  0  0  0  0  0  0  0  0  0  0  0  # atno 17343 bound_to 10162
  156.3834  130.3884  149.7085 LP  0  0  0  0  0  0  0  0  0  0  0  0  # atno 17370 bound_to 10713
  156.4459  130.7883  151.2905 LP  0  0  0  0  0  0  0  0  0  0  0  0  # atno 17371 bound_to 10713
  140.0969  134.9559  157.1863 LP  0  0  0  0  0  0  0  0  0  0  0  0  # atno 17394 bound_to 11000
  140.3371  134.2745  155.7218 LP  0  0  0  0  0  0  0  0  0  0  0  0  # atno 17395 bound_to 11000

$$$$
