#       Name:                AV-unprocessed.smi:897
#       Creating user name   scv26
#       Creation time:       Fri Mar 27 01:56:54 2020


#       File generated by GOLD software.
#

@<TRIPOS>MOLECULE
AV-unprocessed.smi:897
    39    41     1
SMALL
NO_CHARGES


@<TRIPOS>ATOM
      1 ****        -3.2535   2.2592   0.1921 C.3            1 S1                 0.0000
      2 ****        -2.6147   0.8916   0.3124 C.ar           1 S1                 0.0000
      3 ****        -3.3830  -0.2806   0.1870 C.ar           1 S1                 0.0000
      4 ****        -2.7380  -1.5282   0.3064 C.ar           1 S1                 0.0000
      5 ****        -3.5596  -2.8020   0.1757 C.3            1 S1                 0.0000
      6 ****        -1.3391  -1.5522   0.5458 C.ar           1 S1                 0.0000
      7 ****        -0.6300  -2.8244   0.6699 C.1            1 S1                 0.0000
      8 ****        -0.0681  -3.8311   0.7679 N.1            1 S1                 0.0000
      9 ****        -0.6510  -0.3120   0.6550 C.ar           1 S1                 0.0000
     10 ****         0.7353  -0.2834   0.8958 N.pl3          1 S1                 0.0000
     11 ****         1.5200   0.9267   0.6691 C.3            1 S1                 0.0000
     12 ****         2.9867   0.7722   1.0783 C.3            1 S1                 0.0000
     13 ****         3.7187   1.1963  -0.2028 C.3            1 S1                 0.0000
     14 ****         3.6414   0.1092  -1.2824 C.3            1 S1                 0.0000
     15 ****         2.1817   0.2105  -1.7205 C.3            1 S1                 0.0000
     16 ****         1.6540   1.3345  -0.8121 C.3            1 S1                 0.0000
     17 ****         2.8114   2.1493  -0.7309 O.3            1 S1                 0.0000
     18 ****        -1.2865   0.8785   0.5412 N.ar           1 S1                 0.0000
     19 ****        -4.3405   2.1854   0.1479 H              1 S1                 0.0000
     20 ****        -2.9080   2.7590  -0.7131 H              1 S1                 0.0000
     21 ****        -2.9907   2.8793   1.0497 H              1 S1                 0.0000
     22 ****        -4.4460  -0.2227   0.0031 H              1 S1                 0.0000
     23 ****        -3.1972  -3.4083  -0.6551 H              1 S1                 0.0000
     24 ****        -4.6113  -2.5796  -0.0071 H              1 S1                 0.0000
     25 ****        -3.4968  -3.3927   1.0900 H              1 S1                 0.0000
     26 ****         1.2318  -1.1614   0.9439 H              1 S1                 0.0000
     27 ****         1.0879   1.7512   1.2382 H              1 S1                 0.0000
     28 ****         3.2207   1.4472   1.9022 H              1 S1                 0.0000
     29 ****         3.2551  -0.2399   1.3849 H              1 S1                 0.0000
     30 ****         4.7255   1.5783  -0.0319 H              1 S1                 0.0000
     31 ****         4.3070   0.3398  -2.1151 H              1 S1                 0.0000
     32 ****         3.9020  -0.8778  -0.8988 H              1 S1                 0.0000
     33 ****         2.1213   0.5065  -2.7683 H              1 S1                 0.0000
     34 ****         1.6359  -0.7262  -1.6058 H              1 S1                 0.0000
     35 ****         0.7789   1.8477  -1.2116 H              1 S1                 0.0000
     36 ****         0.4175  -4.7011   0.8526 LP             1 S1                 0.0000
     37 ****         3.0986   2.4828  -1.6289 LP             1 S1                 0.0000
     38 ****         2.6810   2.9250  -0.1134 LP             1 S1                 0.0000
     39 ****        -0.7778   1.7353   0.6257 LP             1 S1                 0.0000
@<TRIPOS>BOND
    1    1    2 1     
    2    1   19 1     
    3    1   20 1     
    4    1   21 1     
    5    2   18 ar    
    6    2    3 ar    
    7    3    4 ar    
    8    3   22 1     
    9    4    5 1     
   10    4    6 ar    
   11    5   23 1     
   12    5   24 1     
   13    5   25 1     
   14    6    7 1     
   15    6    9 ar    
   16    7    8 3     
   17    9   10 1     
   18    9   18 ar    
   19   10   11 1     
   20   10   26 1     
   21   11   16 1     
   22   11   12 1     
   23   11   27 1     
   24   12   13 1     
   25   12   28 1     
   26   12   29 1     
   27   13   17 1     
   28   13   14 1     
   29   13   30 1     
   30   14   15 1     
   31   14   31 1     
   32   14   32 1     
   33   15   16 1     
   34   15   33 1     
   35   15   34 1     
   36   16   17 1     
   37   16   35 1     
   38    8   36 1     
   39   17   37 1     
   40   17   38 1     
   41   18   39 1     
@<TRIPOS>SUBSTRUCTURE
      1 S1             1
@<TRIPOS>SET
LONE_PAIRS      STATIC     ATOMS    <user>   **** ""
4 36 37 38 39
DONOR_HYDROGENS      STATIC     ATOMS    <user>   **** ""
1 26
ATOM$BLUE        STATIC     ATOMS    COLORGROUP SYSTEM
4 36 37 38 39
ATOM$RED        STATIC     ATOMS    COLORGROUP SYSTEM
1 26
