AV-unprocessed.smi:3146|AV-procd|sdf|11986|dock1
  -GOLD-   2272017393D 1   1.00000     0.00000
 Structure written by MMmdl.
 34 35  0  0  0  0  0  0  0  0  1 V2000
  151.5327  140.1935  155.1594 O   0  0  0  0  0  0  0  0  0  0  0  0
  150.6453  140.4018  155.9890 C   0  0  0  0  0  0  0  0  0  0  0  0
  150.8951  140.0952  157.4750 C   0  0  0  0  0  0  0  0  0  0  0  0
  151.9574  140.9199  158.0653 N   0  0  0  0  0  0  0  0  0  0  0  0
  151.9901  140.7588  159.5108 C   0  0  0  0  0  0  0  0  0  0  0  0
  153.0154  141.7315  160.1116 C   0  0  0  0  0  0  0  0  0  0  0  0
  152.5882  143.1105  159.9740 N   0  0  0  0  0  0  0  0  0  0  0  0
  152.2275  143.9991  160.9651 C   0  0  0  0  0  0  0  0  0  0  0  0
  151.8986  145.1757  160.3553 C   0  0  0  0  0  0  0  0  0  0  0  0
  152.0927  144.9052  158.9716 C   0  0  0  0  0  0  0  0  0  0  0  0
  152.5048  143.6680  158.7466 N   0  0  0  0  0  0  0  0  0  0  0  0
  149.4395  140.8947  155.6366 N   0  0  0  0  0  0  0  0  0  0  0  0
  149.0680  141.2136  154.2592 C   0  0  0  0  0  0  0  0  0  0  0  0
  147.5608  141.4677  154.2855 C   0  0  0  0  0  0  0  0  0  0  0  0
  147.2835  141.9124  155.7146 C   0  0  0  0  0  0  0  0  0  0  0  0
  148.3300  141.1724  156.5486 C   0  0  0  0  0  0  0  0  0  0  0  0
  149.9671  140.2601  158.0242 H   0  0  0  0  0  0  0  0  0  0  0  0
  151.1583  139.0416  157.5790 H   0  0  0  0  0  0  0  0  0  0  0  0
  152.8615  140.6852  157.6806 H   0  0  0  0  0  0  0  0  0  0  0  0
  151.0001  140.9513  159.9271 H   0  0  0  0  0  0  0  0  0  0  0  0
  152.2588  139.7317  159.7625 H   0  0  0  0  0  0  0  0  0  0  0  0
  153.1658  141.5211  161.1714 H   0  0  0  0  0  0  0  0  0  0  0  0
  153.9855  141.6171  159.6251 H   0  0  0  0  0  0  0  0  0  0  0  0
  152.2341  143.7231  162.0096 H   0  0  0  0  0  0  0  0  0  0  0  0
  151.5697  146.0906  160.8255 H   0  0  0  0  0  0  0  0  0  0  0  0
  151.9469  145.5664  158.1299 H   0  0  0  0  0  0  0  0  0  0  0  0
  149.6030  142.1117  153.9469 H   0  0  0  0  0  0  0  0  0  0  0  0
  149.3216  140.4093  153.5667 H   0  0  0  0  0  0  0  0  0  0  0  0
  147.2423  142.2010  153.5441 H   0  0  0  0  0  0  0  0  0  0  0  0
  147.0296  140.5363  154.0841 H   0  0  0  0  0  0  0  0  0  0  0  0
  147.4437  142.9881  155.7984 H   0  0  0  0  0  0  0  0  0  0  0  0
  146.2623  141.7012  156.0333 H   0  0  0  0  0  0  0  0  0  0  0  0
  147.9253  140.2282  156.9161 H   0  0  0  0  0  0  0  0  0  0  0  0
  148.6368  141.7704  157.4075 H   0  0  0  0  0  0  0  0  0  0  0  0
  1  2  2  0  0  0  0
  2  3  1  0  0  0  0
  2 12  1  0  0  0  0
  3  4  1  0  0  0  0
  3 17  1  0  0  0  0
  3 18  1  0  0  0  0
  4  5  1  0  0  0  0
  4 19  1  0  0  0  0
  5  6  1  0  0  0  0
  5 20  1  0  0  0  0
  5 21  1  0  0  0  0
  6  7  1  0  0  0  0
  6 22  1  0  0  0  0
  6 23  1  0  0  0  0
  7 11  1  0  0  0  0
  7  8  1  0  0  0  0
  8  9  2  0  0  0  0
  8 24  1  0  0  0  0
  9 10  1  0  0  0  0
  9 25  1  0  0  0  0
 10 11  2  0  0  0  0
 10 26  1  0  0  0  0
 12 16  1  0  0  0  0
 12 13  1  0  0  0  0
 13 14  1  0  0  0  0
 13 27  1  0  0  0  0
 13 28  1  0  0  0  0
 14 15  1  0  0  0  0
 14 29  1  0  0  0  0
 14 30  1  0  0  0  0
 15 16  1  0  0  0  0
 15 31  1  0  0  0  0
 15 32  1  0  0  0  0
 16 33  1  0  0  0  0
 16 34  1  0  0  0  0
M  END
> <s_m_source_file>
AV-unprocessed.smi

> <i_m_source_file_index>
3146

> <i_lp_mmshare_version>
43012

> <i_f3d_flags>
0

> <s_epik_input>
W0NIMl0xW0NIMl1bQ0gyXVtDSDJdTjFDKD1PKVtDSDJdW05IXVtDSDJdW0NIMl1uMltjSF1bY0hdW2NIXW4y

> <s_epik_cmdline>
J2VwaWtfcHl0aG9uJywgJy1waCcsICc3LjAnLCAnLXRuJywgJzgnLCAnLW1hJywgJzIwMCcsICctbWV0YWxfYmluZGluZycsICctaW1hZScsICc8aW5maWxlLm1hZT4nLCAnLW9tYWUnLCAnPG91dGZpbGUubWFlPic=

> <r_lp_tautomer_probability>
1

> <r_epik_Ionization_Penalty>
0.734549

> <r_epik_Ionization_Penalty_Charging>
0

> <r_epik_Ionization_Penalty_Neutral>
0.734549

> <r_epik_State_Penalty>
0.75825

> <r_epik_Charging_Adjusted_Penalty>
0.75825

> <i_epik_Tot_Q>
0

> <i_epik_Tot_abs_Q>
0

> <r_epik_Metal_State_Penalty>
0.757003

> <b_epik_Metal_Only>
0

> <s_lp_Force_Field>
OPLS_2005

> <r_lp_Energy>
29.6194

> <b_lp_Chiralities_Consistent>
1

> <s_lp_Variant>
AV-unprocessed.smi:3146-2

> <Gold.Version>
5.8.1

> <Gold.Id.Protein>
6NUR|6NUR_protein|mol2

> <Gold.PLP.Fitness>
42.4181

> <Gold.PLP.PLP>
-39.5701

> <Gold.PLP.part.hbond>
-1.0000

> <Gold.PLP.part.metal>
0.0000

> <Gold.PLP.part.buried>
-3.4193

> <Gold.PLP.part.nonpolar>
-34.4555

> <Gold.PLP.part.repulsive>
0.0570

> <Gold.PLP.ligand.clash>
0.0000

> <Gold.PLP.ligand.torsion>
0.1092

> <Gold.PLP.Chemscore.Hbond>
1.0000

> <Gold.PLP.Chemscore.CHOScore>
0.0000

> <Gold.PLP.Chemscore.Metal>
0.0000

> <Gold.Chemscore.Hbonds>
donor molecule, donor type, donor heavy atom, donor atom, acceptor molecule, acceptor atom, score
      P1  H  7989  7998       L1     1  0.99

> <Gold.PLP.Chemscore.Internal.Correction>
0.0663

> <Gold.Rescore>
     Score         DG    S(hbond)    S(metal)    S(lipo)     H(rot)  DE(clash)    DE(int)     intcor
     12.42     -13.82       0.98        0.00      83.19       1.82       0.01       1.39       ----

> <Gold.Chemscore.Fitness>
12.4244

> <Gold.Chemscore.DG>
-13.8216

> <Gold.Chemscore.ZeroCoef>
-5.4800

> <Gold.Chemscore.Hbond>
0.9818

> <Gold.Chemscore.Metal>
0.0000

> <Gold.Chemscore.Lipo>
83.1911

> <Gold.Chemscore.Internal_Hbond>
0.0000

> <Gold.Chemscore.DEClash>
0.0098

> <Gold.Chemscore.DEInternal>
1.3874

> <Gold.Chemscore.Rot>
1.8246

> <Gold.Chemscore.Internal.Correction>
   9.000000E+99

> <Gold.Chemscore.Hbonds>
donor molecule, donor type, donor heavy atom, donor atom, acceptor molecule, acceptor atom, score
      P1  H  7989  7998       L1     1  0.94

> <Gold.Chemscore.Hbond.Weighted>
-3.2793

> <Gold.Chemscore.Metal.Weighted>
-0.0000

> <Gold.Chemscore.Lipo.Weighted>
-9.7334

> <Gold.Chemscore.Internal_Hbond.Weighted>
0.0000

> <Gold.Chemscore.DEClash.Weighted>
0.0098

> <Gold.Chemscore.DEInternal.Weighted>
1.3874

> <Gold.Chemscore.Rot.Weighted>
4.6710

> <Gold.Chemscore.Internal.Correction.Weighted>
   9.000000E+99

> <Gold.Protein.RotatedTorsions>
[ 6907 6896 6895 6894 ] final  163.20 input  -60.11 | X-H torsion
[ 7974 7965 7964 7962 ] final -131.66 input  175.53 | X-H torsion
[ 8008 7997 7996 7995 ] final  -20.47 input   59.86 | X-H torsion
[ 10167 10162 10161 10158 ] final -119.66 input  -65.29 | X-H torsion
[ 10718 10713 10712 10709 ] final   50.20 input   66.30 | X-H torsion
[ 10763 10752 10751 10750 ] final   22.81 input  -60.55 | X-H torsion
[ 11005 11000 10999 10996 ] final  123.21 input  -57.11 | X-H torsion

> <Gold.Protein.ActiveResidues>
 VAL166  LYS551  ARG553  GLY616  TRP617  ASP618  TYR619  PRO620  LYS621  CYS622 
 ASP623  PHE694  ASN695  SER759  ASP760  ASP761  ALA762  ILE779  LEU786  VAL792 
 PHE793  MET794  SER795  GLU796  ALA797  LYS798  CYS799  TRP800  GLU811  SER814 

> <Gold.Protein.RotatedAtoms>
  151.9289  133.3605  159.3923 H   0  0  0  0  0  0  0  0  0  0  0  0  # atno 6907 bound_to 6896
  150.7021  134.4558  159.5367 H   0  0  0  0  0  0  0  0  0  0  0  0  # atno 6908 bound_to 6896
  152.2195  134.8426  160.0538 H   0  0  0  0  0  0  0  0  0  0  0  0  # atno 6909 bound_to 6896
  144.9359  140.7182  143.4877 H   0  0  0  0  0  0  0  0  0  0  0  0  # atno 7974 bound_to 7965
  154.4768  140.2061  155.9859 H   0  0  0  0  0  0  0  0  0  0  0  0  # atno 8008 bound_to 7997
  156.1102  140.3230  155.8031 H   0  0  0  0  0  0  0  0  0  0  0  0  # atno 8009 bound_to 7997
  155.4648  140.0527  157.2977 H   0  0  0  0  0  0  0  0  0  0  0  0  # atno 8010 bound_to 7997
  140.0443  143.5123  152.2114 H   0  0  0  0  0  0  0  0  0  0  0  0  # atno 10167 bound_to 10162
  157.4861  130.8346  149.8149 H   0  0  0  0  0  0  0  0  0  0  0  0  # atno 10718 bound_to 10713
  153.0886  135.6640  153.9899 H   0  0  0  0  0  0  0  0  0  0  0  0  # atno 10763 bound_to 10752
  153.9501  135.2985  155.3440 H   0  0  0  0  0  0  0  0  0  0  0  0  # atno 10764 bound_to 10752
  154.7298  135.5128  153.9018 H   0  0  0  0  0  0  0  0  0  0  0  0  # atno 10765 bound_to 10752
  139.9302  134.9641  156.8226 H   0  0  0  0  0  0  0  0  0  0  0  0  # atno 11005 bound_to 11000
  145.3068  139.1832  143.4660 LP  0  0  0  0  0  0  0  0  0  0  0  0  # atno 17320 bound_to 7965
  146.3266  140.3067  142.8624 LP  0  0  0  0  0  0  0  0  0  0  0  0  # atno 17321 bound_to 7965
  139.5994  144.7577  151.3209 LP  0  0  0  0  0  0  0  0  0  0  0  0  # atno 17342 bound_to 10162
  140.7246  143.7040  150.7822 LP  0  0  0  0  0  0  0  0  0  0  0  0  # atno 17343 bound_to 10162
  156.0148  130.3818  150.2148 LP  0  0  0  0  0  0  0  0  0  0  0  0  # atno 17370 bound_to 10713
  157.0335  131.0014  151.3305 LP  0  0  0  0  0  0  0  0  0  0  0  0  # atno 17371 bound_to 10713
  140.6222  133.9983  155.7623 LP  0  0  0  0  0  0  0  0  0  0  0  0  # atno 17394 bound_to 11000
  141.0887  133.9951  157.3273 LP  0  0  0  0  0  0  0  0  0  0  0  0  # atno 17395 bound_to 11000

$$$$
