AV-unprocessed.smi:2007|AV-procd|sdf|8135|dock6
  -GOLD-   2272010373D 1   1.00000     0.00000
 Structure written by MMmdl.
 37 38  0  0  0  0  0  0  0  0  2 V2000
  146.7506  139.5562  151.8113 C   0  0  0  0  0  0  0  0  0  0  0  0
  146.5562  138.5444  152.9486 C   0  0  2  0  0  0  0  0  0  0  0  0
  147.5388  138.8178  154.1117 C   0  0  0  0  0  0  0  0  0  0  0  0
  148.8080  138.0549  153.9992 N   0  3  0  0  0  0  0  0  0  0  0  0
  150.0099  138.9209  154.0252 C   0  0  0  0  0  0  0  0  0  0  0  0
  151.2813  138.0761  153.8328 C   0  0  0  0  0  0  0  0  0  0  0  0
  151.3429  137.0668  154.8331 O   0  0  0  0  0  0  0  0  0  0  0  0
  150.2338  136.1791  154.7627 C   0  0  0  0  0  0  0  0  0  0  0  0
  148.9332  136.9648  154.9970 C   0  0  0  0  0  0  0  0  0  0  0  0
  146.7184  137.1917  152.4129 N   0  0  0  0  0  0  0  0  0  0  0  0
  145.7268  136.3522  152.0782 C   0  0  0  0  0  0  0  0  0  0  0  0
  144.5338  136.6214  152.2210 O   0  0  0  0  0  0  0  0  0  0  0  0
  146.2089  135.1977  151.5865 N   0  0  0  0  0  0  0  0  0  0  0  0
  145.4811  134.0537  151.1655 C   0  0  0  0  0  0  0  0  0  0  0  0
  146.0202  133.0133  150.5190 N   0  0  0  0  0  0  0  0  0  0  0  0
  145.0715  132.0311  150.2235 C   0  0  0  0  0  0  0  0  0  0  0  0
  143.8052  132.3450  150.6506 C   0  0  0  0  0  0  0  0  0  0  0  0
  143.7541  133.8938  151.4495 S   0  0  0  0  0  0  0  0  0  0  0  0
  146.5958  140.5762  152.1640 H   0  0  0  0  0  0  0  0  0  0  0  0
  146.0420  139.3791  151.0012 H   0  0  0  0  0  0  0  0  0  0  0  0
  147.7563  139.4985  151.3931 H   0  0  0  0  0  0  0  0  0  0  0  0
  145.5321  138.6656  153.3040 H   0  0  0  0  0  0  0  0  0  0  0  0
  147.7638  139.8856  154.1200 H   0  0  0  0  0  0  0  0  0  0  0  0
  147.0690  138.6013  155.0724 H   0  0  0  0  0  0  0  0  0  0  0  0
  149.9461  139.6686  153.2336 H   0  0  0  0  0  0  0  0  0  0  0  0
  150.0546  139.4576  154.9741 H   0  0  0  0  0  0  0  0  0  0  0  0
  151.3011  137.6227  152.8404 H   0  0  0  0  0  0  0  0  0  0  0  0
  152.1669  138.7068  153.9125 H   0  0  0  0  0  0  0  0  0  0  0  0
  150.2154  135.6737  153.7955 H   0  0  0  0  0  0  0  0  0  0  0  0
  150.3489  135.4073  155.5235 H   0  0  0  0  0  0  0  0  0  0  0  0
  148.9264  137.3841  156.0043 H   0  0  0  0  0  0  0  0  0  0  0  0
  148.0836  136.2858  154.9286 H   0  0  0  0  0  0  0  0  0  0  0  0
  147.6670  136.8817  152.2591 H   0  0  0  0  0  0  0  0  0  0  0  0
  147.2129  135.1235  151.5105 H   0  0  0  0  0  0  0  0  0  0  0  0
  145.3851  131.1378  149.7038 H   0  0  0  0  0  0  0  0  0  0  0  0
  142.9029  131.7608  150.5448 H   0  0  0  0  0  0  0  0  0  0  0  0
  148.7960  137.6162  153.0891 H   0  0  0  0  0  0  0  0  0  0  0  0
  1  2  1  0  0  0  0
  1 19  1  0  0  0  0
  1 20  1  0  0  0  0
  1 21  1  0  0  0  0
  2  3  1  0  0  0  0
  2 10  1  0  0  0  0
  2 22  1  0  0  0  0
  3  4  1  0  0  0  0
  3 23  1  0  0  0  0
  3 24  1  0  0  0  0
  4  9  1  0  0  0  0
  4  5  1  0  0  0  0
  4 37  1  0  0  0  0
  5  6  1  0  0  0  0
  5 25  1  0  0  0  0
  5 26  1  0  0  0  0
  6  7  1  0  0  0  0
  6 27  1  0  0  0  0
  6 28  1  0  0  0  0
  7  8  1  0  0  0  0
  8  9  1  0  0  0  0
  8 29  1  0  0  0  0
  8 30  1  0  0  0  0
  9 31  1  0  0  0  0
  9 32  1  0  0  0  0
 10 11  1  0  0  0  0
 10 33  1  0  0  0  0
 11 12  2  0  0  0  0
 11 13  1  0  0  0  0
 13 14  1  0  0  0  0
 13 34  1  0  0  0  0
 14 18  1  0  0  0  0
 14 15  2  0  0  0  0
 15 16  1  0  0  0  0
 16 17  2  0  0  0  0
 16 35  1  0  0  0  0
 17 18  1  0  0  0  0
 17 36  1  0  0  0  0
M  CHG  1   4   1
M  END
> <s_m_source_file>
AV-unprocessed.smi

> <i_m_source_file_index>
2007

> <i_lp_mmshare_version>
43012

> <i_f3d_flags>
0

> <s_epik_input>
W0NIMl0xW0NIMl1PW0NIMl1bQ0gyXU4xW0NIMl1bQ0BASF0oW0NIM10pW05IXUMoPU8pW05IXWMybltjSF1bY0hdczI=

> <s_epik_cmdline>
J2VwaWtfcHl0aG9uJywgJy1waCcsICc3LjAnLCAnLXRuJywgJzgnLCAnLW1hJywgJzIwMCcsICctbWV0YWxfYmluZGluZycsICctaW1hZScsICc8aW5maWxlLm1hZT4nLCAnLW9tYWUnLCAnPG91dGZpbGUubWFlPic=

> <r_lp_tautomer_probability>
0.999

> <r_epik_Ionization_Penalty>
0.695848

> <r_epik_Ionization_Penalty_Charging>
0.695697

> <r_epik_Ionization_Penalty_Neutral>
0.000150585

> <r_epik_State_Penalty>
0.717972

> <r_epik_Charging_Adjusted_Penalty>
1.41367

> <i_epik_Tot_Q>
1

> <i_epik_Tot_abs_Q>
1

> <r_epik_Metal_State_Penalty>
0.763271

> <b_epik_Metal_Only>
0

> <s_lp_Force_Field>
OPLS_2005

> <r_lp_Energy>
20.6348

> <b_lp_Chiralities_Consistent>
1

> <s_lp_Variant>
AV-unprocessed.smi:2007-3

> <Gold.Version>
5.8.1

> <Gold.Id.Protein>
6NUR|6NUR_protein|mol2

> <Gold.PLP.Fitness>
42.9524

> <Gold.PLP.PLP>
-29.3257

> <Gold.PLP.part.hbond>
-3.9160

> <Gold.PLP.part.metal>
0.0000

> <Gold.PLP.part.buried>
-3.7471

> <Gold.PLP.part.nonpolar>
-23.2515

> <Gold.PLP.part.repulsive>
0.5725

> <Gold.PLP.ligand.clash>
0.0000

> <Gold.PLP.ligand.torsion>
1.3903

> <Gold.PLP.Chemscore.Hbond>
4.8018

> <Gold.PLP.Chemscore.CHOScore>
0.6548

> <Gold.PLP.Chemscore.Metal>
0.0000

> <Gold.Chemscore.Hbonds>
donor molecule, donor type, donor heavy atom, donor atom, acceptor molecule, acceptor atom, score
      L1  H     4    37       P1  7948  2.00
      L1  H    10    33       P1  7948  0.88
      L1  H    13    34       P1  7948  0.83
      P1  H 10752 10765       L1     7  0.62
      L1  C    17    36       P1 10952  0.59

> <Gold.PLP.Chemscore.Internal.Correction>
0.0374

> <Gold.Rescore>
     Score         DG    S(hbond)    S(metal)    S(lipo)     H(rot)  DE(clash)    DE(int)     intcor
     17.53     -20.66       3.44        0.00      67.29       1.63       0.61       2.51       ----

> <Gold.Chemscore.Fitness>
17.5337

> <Gold.Chemscore.DG>
-20.6572

> <Gold.Chemscore.ZeroCoef>
-5.4800

> <Gold.Chemscore.Hbond>
3.4368

> <Gold.Chemscore.Metal>
0.0000

> <Gold.Chemscore.Lipo>
67.2860

> <Gold.Chemscore.Internal_Hbond>
0.0000

> <Gold.Chemscore.DEClash>
0.6106

> <Gold.Chemscore.DEInternal>
2.5129

> <Gold.Chemscore.Rot>
1.6306

> <Gold.Chemscore.Internal.Correction>
   9.000000E+99

> <Gold.Chemscore.Hbonds>
donor molecule, donor type, donor heavy atom, donor atom, acceptor molecule, acceptor atom, score
      L1  H     4    37       P1  7948  0.99
      L1  H    10    33       P1  7948  0.86
      L1  H    13    34       P1  7948  0.65
      P1  H 10752 10765       L1     7  0.11

> <Gold.Chemscore.Hbond.Weighted>
-11.4790

> <Gold.Chemscore.Metal.Weighted>
-0.0000

> <Gold.Chemscore.Lipo.Weighted>
-7.8725

> <Gold.Chemscore.Internal_Hbond.Weighted>
0.0000

> <Gold.Chemscore.DEClash.Weighted>
0.6106

> <Gold.Chemscore.DEInternal.Weighted>
2.5129

> <Gold.Chemscore.Rot.Weighted>
4.1743

> <Gold.Chemscore.Internal.Correction.Weighted>
   9.000000E+99

> <Gold.Protein.RotatedTorsions>
[ 6907 6896 6895 6894 ] final   -1.42 input  -60.11 | X-H torsion
[ 7974 7965 7964 7962 ] final   25.20 input  175.53 | X-H torsion
[ 8008 7997 7996 7995 ] final   94.54 input   59.86 | X-H torsion
[ 10167 10162 10161 10158 ] final  -40.21 input  -65.29 | X-H torsion
[ 10718 10713 10712 10709 ] final  136.22 input   66.30 | X-H torsion
[ 10763 10752 10751 10750 ] final  171.91 input  -60.55 | X-H torsion
[ 11005 11000 10999 10996 ] final  152.46 input  -57.11 | X-H torsion

> <Gold.Protein.ActiveResidues>
 VAL166  LYS551  ARG553  GLY616  TRP617  ASP618  TYR619  PRO620  LYS621  CYS622 
 ASP623  PHE694  ASN695  SER759  ASP760  ASP761  ALA762  ILE779  LEU786  VAL792 
 PHE793  MET794  SER795  GLU796  ALA797  LYS798  CYS799  TRP800  GLU811  SER814 

> <Gold.Protein.RotatedAtoms>
  151.5463  135.1068  159.9938 H   0  0  0  0  0  0  0  0  0  0  0  0  # atno 6907 bound_to 6896
  152.4512  133.7629  159.6767 H   0  0  0  0  0  0  0  0  0  0  0  0  # atno 6908 bound_to 6896
  150.8441  133.7822  159.3074 H   0  0  0  0  0  0  0  0  0  0  0  0  # atno 6909 bound_to 6896
  146.1900  139.7498  142.8839 H   0  0  0  0  0  0  0  0  0  0  0  0  # atno 7974 bound_to 7965
  156.0591  140.3298  155.7440 H   0  0  0  0  0  0  0  0  0  0  0  0  # atno 8008 bound_to 7997
  155.5483  140.0608  157.2873 H   0  0  0  0  0  0  0  0  0  0  0  0  # atno 8009 bound_to 7997
  154.4472  140.1898  156.0649 H   0  0  0  0  0  0  0  0  0  0  0  0  # atno 8010 bound_to 7997
  140.7041  143.3167  151.2891 H   0  0  0  0  0  0  0  0  0  0  0  0  # atno 10167 bound_to 10162
  157.4490  131.1064  151.0056 H   0  0  0  0  0  0  0  0  0  0  0  0  # atno 10718 bound_to 10713
  154.4186  135.2757  155.1990 H   0  0  0  0  0  0  0  0  0  0  0  0  # atno 10763 bound_to 10752
  154.3946  135.6058  153.5866 H   0  0  0  0  0  0  0  0  0  0  0  0  # atno 10764 bound_to 10752
  152.9832  135.5911  154.4478 H   0  0  0  0  0  0  0  0  0  0  0  0  # atno 10765 bound_to 10752
  140.1310  134.8802  157.2203 H   0  0  0  0  0  0  0  0  0  0  0  0  # atno 11005 bound_to 11000
  145.3821  141.0360  143.3171 LP  0  0  0  0  0  0  0  0  0  0  0  0  # atno 17320 bound_to 7965
  144.8469  139.5383  143.6874 LP  0  0  0  0  0  0  0  0  0  0  0  0  # atno 17321 bound_to 7965
  139.6608  144.0192  152.2691 LP  0  0  0  0  0  0  0  0  0  0  0  0  # atno 17342 bound_to 10162
  139.9759  144.6462  150.7945 LP  0  0  0  0  0  0  0  0  0  0  0  0  # atno 17343 bound_to 10162
  157.0893  130.5935  149.5436 LP  0  0  0  0  0  0  0  0  0  0  0  0  # atno 17370 bound_to 10713
  155.9979  130.5052  150.7551 LP  0  0  0  0  0  0  0  0  0  0  0  0  # atno 17371 bound_to 10713
  140.2843  134.3314  155.7334 LP  0  0  0  0  0  0  0  0  0  0  0  0  # atno 17394 bound_to 11000
  141.2170  133.7496  156.9409 LP  0  0  0  0  0  0  0  0  0  0  0  0  # atno 17395 bound_to 11000

$$$$
