AV-unprocessed.smi:1192|AV-procd|sdf|4988|dock9
  -GOLD-   22720 3583D 1   1.00000     0.00000
 Structure written by MMmdl.
 39 40  0  0  0  0  0  0  0  0  1 V2000
  147.1260  140.0237  153.2753 C   0  0  0  0  0  0  0  0  0  0  0  0
  146.6970  140.4218  154.5648 O   0  0  0  0  0  0  0  0  0  0  0  0
  147.7149  140.2799  155.5418 C   0  0  0  0  0  0  0  0  0  0  0  0
  148.8846  141.1976  155.1773 C   0  0  0  0  0  0  0  0  0  0  0  0
  149.9648  140.9080  156.0566 O   0  0  0  0  0  0  0  0  0  0  0  0
  150.7798  139.8290  155.7833 C   0  0  0  0  0  0  0  0  0  0  0  0
  150.7656  139.3102  154.5296 N   0  0  0  0  0  0  0  0  0  0  0  0
  151.5692  138.2608  154.2591 C   0  0  0  0  0  0  0  0  0  0  0  0
  152.4235  137.6775  155.2133 C   0  0  0  0  0  0  0  0  0  0  0  0
  152.4388  138.2157  156.5134 C   0  0  0  0  0  0  0  0  0  0  0  0
  151.6013  139.3110  156.8134 C   0  0  0  0  0  0  0  0  0  0  0  0
  151.6079  139.9155  158.2098 C   0  0  0  0  0  0  0  0  0  0  0  0
  151.9287  141.3408  158.2172 N   0  0  0  0  0  0  0  0  0  0  0  0
  152.7416  141.9587  159.0890 C   0  0  0  0  0  0  0  0  0  0  0  0
  153.3364  141.3731  159.9944 O   0  0  0  0  0  0  0  0  0  0  0  0
  152.9167  143.4682  158.8786 C   0  0  0  0  0  0  0  0  0  0  0  0
  152.2714  144.3773  159.9435 C   0  0  0  0  0  0  0  0  0  0  0  0
  151.7552  145.2654  158.8084 C   0  0  0  0  0  0  0  0  0  0  0  0
  151.9331  144.0738  157.8634 C   0  0  0  0  0  0  0  0  0  0  0  0
  146.3060  140.1364  152.5665 H   0  0  0  0  0  0  0  0  0  0  0  0
  147.4356  138.9779  153.2668 H   0  0  0  0  0  0  0  0  0  0  0  0
  147.9580  140.6395  152.9307 H   0  0  0  0  0  0  0  0  0  0  0  0
  147.3188  140.5652  156.5176 H   0  0  0  0  0  0  0  0  0  0  0  0
  148.0490  139.2435  155.6116 H   0  0  0  0  0  0  0  0  0  0  0  0
  149.1640  141.0491  154.1328 H   0  0  0  0  0  0  0  0  0  0  0  0
  148.5858  142.2393  155.3027 H   0  0  0  0  0  0  0  0  0  0  0  0
  151.5310  137.8756  153.2510 H   0  0  0  0  0  0  0  0  0  0  0  0
  153.0522  136.8387  154.9537 H   0  0  0  0  0  0  0  0  0  0  0  0
  153.0850  137.7905  157.2671 H   0  0  0  0  0  0  0  0  0  0  0  0
  150.6262  139.7939  158.6683 H   0  0  0  0  0  0  0  0  0  0  0  0
  152.3016  139.3411  158.8257 H   0  0  0  0  0  0  0  0  0  0  0  0
  151.4955  141.9049  157.5005 H   0  0  0  0  0  0  0  0  0  0  0  0
  153.9519  143.7480  158.6737 H   0  0  0  0  0  0  0  0  0  0  0  0
  151.4588  143.9153  160.5070 H   0  0  0  0  0  0  0  0  0  0  0  0
  152.9793  144.8762  160.6046 H   0  0  0  0  0  0  0  0  0  0  0  0
  150.7252  145.6040  158.9258 H   0  0  0  0  0  0  0  0  0  0  0  0
  152.4306  146.0910  158.5785 H   0  0  0  0  0  0  0  0  0  0  0  0
  152.3788  144.3310  156.9019 H   0  0  0  0  0  0  0  0  0  0  0  0
  151.0168  143.4935  157.7370 H   0  0  0  0  0  0  0  0  0  0  0  0
  1  2  1  0  0  0  0
  1 20  1  0  0  0  0
  1 21  1  0  0  0  0
  1 22  1  0  0  0  0
  2  3  1  0  0  0  0
  3  4  1  0  0  0  0
  3 23  1  0  0  0  0
  3 24  1  0  0  0  0
  4  5  1  0  0  0  0
  4 25  1  0  0  0  0
  4 26  1  0  0  0  0
  5  6  1  0  0  0  0
  6 11  1  0  0  0  0
  6  7  2  0  0  0  0
  7  8  1  0  0  0  0
  8  9  2  0  0  0  0
  8 27  1  0  0  0  0
  9 10  1  0  0  0  0
  9 28  1  0  0  0  0
 10 11  2  0  0  0  0
 10 29  1  0  0  0  0
 11 12  1  0  0  0  0
 12 13  1  0  0  0  0
 12 30  1  0  0  0  0
 12 31  1  0  0  0  0
 13 14  1  0  0  0  0
 13 32  1  0  0  0  0
 14 15  2  0  0  0  0
 14 16  1  0  0  0  0
 16 19  1  0  0  0  0
 16 17  1  0  0  0  0
 16 33  1  0  0  0  0
 17 18  1  0  0  0  0
 17 34  1  0  0  0  0
 17 35  1  0  0  0  0
 18 19  1  0  0  0  0
 18 36  1  0  0  0  0
 18 37  1  0  0  0  0
 19 38  1  0  0  0  0
 19 39  1  0  0  0  0
M  END
> <s_m_source_file>
AV-unprocessed.smi

> <i_m_source_file_index>
1192

> <i_lp_mmshare_version>
43012

> <i_f3d_flags>
0

> <s_epik_input>
W0NIM11PW0NIMl1bQ0gyXU9jMW5bY0hdW2NIXVtjSF1jMVtDSDJdW05IXUMoPU8pW0NIXTJbQ0gyXVtDSDJdW0NIMl0y

> <s_epik_cmdline>
J2VwaWtfcHl0aG9uJywgJy1waCcsICc3LjAnLCAnLXRuJywgJzgnLCAnLW1hJywgJzIwMCcsICctbWV0YWxfYmluZGluZycsICctaW1hZScsICc8aW5maWxlLm1hZT4nLCAnLW9tYWUnLCAnPG91dGZpbGUubWFlPic=

> <r_lp_tautomer_probability>
1

> <r_epik_Ionization_Penalty>
6.50215e-05

> <r_epik_Ionization_Penalty_Charging>
0

> <r_epik_Ionization_Penalty_Neutral>
6.50215e-05

> <r_epik_State_Penalty>
-0

> <r_epik_Charging_Adjusted_Penalty>
0

> <i_epik_Tot_Q>
0

> <i_epik_Tot_abs_Q>
0

> <r_epik_Metal_State_Penalty>
-0

> <b_epik_Metal_Only>
0

> <s_lp_Force_Field>
OPLS_2005

> <r_lp_Energy>
11.4086

> <b_lp_Chiralities_Consistent>
1

> <s_lp_Variant>
AV-unprocessed.smi:1192-1

> <Gold.Version>
5.8.1

> <Gold.Id.Protein>
6NUR|6NUR_protein|mol2

> <Gold.PLP.Fitness>
42.1360

> <Gold.PLP.PLP>
-37.9704

> <Gold.PLP.part.hbond>
-1.0000

> <Gold.PLP.part.metal>
0.0000

> <Gold.PLP.part.buried>
-5.2933

> <Gold.PLP.part.nonpolar>
-33.0972

> <Gold.PLP.part.repulsive>
0.3940

> <Gold.PLP.ligand.clash>
0.0000

> <Gold.PLP.ligand.torsion>
0.6936

> <Gold.PLP.Chemscore.Hbond>
1.0000

> <Gold.PLP.Chemscore.CHOScore>
0.6956

> <Gold.PLP.Chemscore.Metal>
0.0000

> <Gold.Chemscore.Hbonds>
donor molecule, donor type, donor heavy atom, donor atom, acceptor molecule, acceptor atom, score
      P1  H  7989  7998       L1     7  0.94
      L1  C     8    27       P1  7949  0.82

> <Gold.PLP.Chemscore.Internal.Correction>
0.4661

> <Gold.Rescore>
     Score         DG    S(hbond)    S(metal)    S(lipo)     H(rot)  DE(clash)    DE(int)     intcor
     11.94     -12.90       0.22        0.00     103.56       2.12       0.26       0.70       ----

> <Gold.Chemscore.Fitness>
11.9357

> <Gold.Chemscore.DG>
-12.8957

> <Gold.Chemscore.ZeroCoef>
-5.4800

> <Gold.Chemscore.Hbond>
0.2190

> <Gold.Chemscore.Metal>
0.0000

> <Gold.Chemscore.Lipo>
103.5628

> <Gold.Chemscore.Internal_Hbond>
0.0000

> <Gold.Chemscore.DEClash>
0.2645

> <Gold.Chemscore.DEInternal>
0.6955

> <Gold.Chemscore.Rot>
2.1221

> <Gold.Chemscore.Internal.Correction>
   9.000000E+99

> <Gold.Chemscore.Hbonds>
donor molecule, donor type, donor heavy atom, donor atom, acceptor molecule, acceptor atom, score
      P1  H  7989  7998       L1     7  0.09

> <Gold.Chemscore.Hbond.Weighted>
-0.7314

> <Gold.Chemscore.Metal.Weighted>
-0.0000

> <Gold.Chemscore.Lipo.Weighted>
-12.1168

> <Gold.Chemscore.Internal_Hbond.Weighted>
0.0000

> <Gold.Chemscore.DEClash.Weighted>
0.2645

> <Gold.Chemscore.DEInternal.Weighted>
0.6955

> <Gold.Chemscore.Rot.Weighted>
5.4326

> <Gold.Chemscore.Internal.Correction.Weighted>
   9.000000E+99

> <Gold.Protein.RotatedTorsions>
[ 6907 6896 6895 6894 ] final  -30.63 input  -60.11 | X-H torsion
[ 7974 7965 7964 7962 ] final   41.51 input  175.53 | X-H torsion
[ 8008 7997 7996 7995 ] final -117.38 input   59.86 | X-H torsion
[ 10167 10162 10161 10158 ] final  114.98 input  -65.29 | X-H torsion
[ 10718 10713 10712 10709 ] final -146.59 input   66.30 | X-H torsion
[ 10763 10752 10751 10750 ] final  138.73 input  -60.55 | X-H torsion
[ 11005 11000 10999 10996 ] final   85.46 input  -57.11 | X-H torsion

> <Gold.Protein.ActiveResidues>
 VAL166  LYS551  ARG553  GLY616  TRP617  ASP618  TYR619  PRO620  LYS621  CYS622 
 ASP623  PHE694  ASN695  SER759  ASP760  ASP761  ALA762  ILE779  LEU786  VAL792 
 PHE793  MET794  SER795  GLU796  ALA797  LYS798  CYS799  TRP800  GLU811  SER814 

> <Gold.Protein.RotatedAtoms>
  151.1029  134.9983  159.8457 H   0  0  0  0  0  0  0  0  0  0  0  0  # atno 6907 bound_to 6896
  152.5438  134.1928  159.8691 H   0  0  0  0  0  0  0  0  0  0  0  0  # atno 6908 bound_to 6896
  151.1972  133.4588  159.2629 H   0  0  0  0  0  0  0  0  0  0  0  0  # atno 6909 bound_to 6896
  146.0817  139.5407  142.9532 H   0  0  0  0  0  0  0  0  0  0  0  0  # atno 7974 bound_to 7965
  155.0827  140.0394  157.2644 H   0  0  0  0  0  0  0  0  0  0  0  0  # atno 8008 bound_to 7997
  154.6894  140.2650  155.6803 H   0  0  0  0  0  0  0  0  0  0  0  0  # atno 8009 bound_to 7997
  156.2723  140.2762  156.1466 H   0  0  0  0  0  0  0  0  0  0  0  0  # atno 8010 bound_to 7997
  139.6350  144.7119  151.2354 H   0  0  0  0  0  0  0  0  0  0  0  0  # atno 10167 bound_to 10162
  156.3968  130.7914  151.2121 H   0  0  0  0  0  0  0  0  0  0  0  0  # atno 10718 bound_to 10713
  153.8944  135.3029  155.3448 H   0  0  0  0  0  0  0  0  0  0  0  0  # atno 10763 bound_to 10752
  154.7700  135.4890  153.9634 H   0  0  0  0  0  0  0  0  0  0  0  0  # atno 10764 bound_to 10752
  153.1279  135.6797  153.9325 H   0  0  0  0  0  0  0  0  0  0  0  0  # atno 10765 bound_to 10752
  139.8971  134.8288  156.2585 H   0  0  0  0  0  0  0  0  0  0  0  0  # atno 11005 bound_to 11000
  145.6205  141.0323  143.1917 LP  0  0  0  0  0  0  0  0  0  0  0  0  # atno 17320 bound_to 7965
  144.7298  139.7761  143.7351 LP  0  0  0  0  0  0  0  0  0  0  0  0  # atno 17321 bound_to 7965
  140.7460  143.6412  150.8333 LP  0  0  0  0  0  0  0  0  0  0  0  0  # atno 17342 bound_to 10162
  140.0042  143.5711  152.2864 LP  0  0  0  0  0  0  0  0  0  0  0  0  # atno 17343 bound_to 10162
  157.7502  131.0299  150.4112 LP  0  0  0  0  0  0  0  0  0  0  0  0  # atno 17370 bound_to 10713
  156.4384  130.3986  149.6713 LP  0  0  0  0  0  0  0  0  0  0  0  0  # atno 17371 bound_to 10713
  141.0178  133.7058  156.1217 LP  0  0  0  0  0  0  0  0  0  0  0  0  # atno 17394 bound_to 11000
  140.7277  134.4289  157.5569 LP  0  0  0  0  0  0  0  0  0  0  0  0  # atno 17395 bound_to 11000

$$$$
