AV-unprocessed.smi:3086|AV-procd|sdf|11765|dock4
  -GOLD-   2272017143D 1   1.00000     0.00000
 Structure written by MMmdl.
 30 31  0  0  0  0  0  0  0  0  2 V2000
  153.8984  137.5352  158.1623 C   0  0  0  0  0  0  0  0  0  0  0  0
  152.7905  138.5321  158.1777 C   0  0  0  0  0  0  0  0  0  0  0  0
  151.4831  138.1927  157.9874 N   0  0  0  0  0  0  0  0  0  0  0  0
  150.9107  139.3865  158.0967 C   0  0  0  0  0  0  0  0  0  0  0  0
  149.4382  139.6217  157.9989 C   0  0  0  0  0  0  0  0  0  0  0  0
  151.7946  140.3731  158.3112 N   0  0  0  0  0  0  0  0  0  0  0  0
  151.5917  141.8004  158.5375 C   0  0  1  0  0  0  0  0  0  0  0  0
  152.9084  142.4811  158.9574 C   0  0  0  0  0  0  0  0  0  0  0  0
  152.6866  143.9845  159.1839 C   0  0  0  0  0  0  0  0  0  0  0  0
  152.0521  144.6408  157.9462 C   0  0  0  0  0  0  0  0  0  0  0  0
  150.7949  143.9550  157.5752 N   0  3  0  0  0  0  0  0  0  0  0  0
  150.9836  142.5126  157.3071 C   0  0  0  0  0  0  0  0  0  0  0  0
  153.0316  139.8233  158.3892 N   0  0  0  0  0  0  0  0  0  0  0  0
  153.5059  136.5233  158.0572 H   0  0  0  0  0  0  0  0  0  0  0  0
  154.4684  137.5887  159.0903 H   0  0  0  0  0  0  0  0  0  0  0  0
  154.5725  137.7318  157.3282 H   0  0  0  0  0  0  0  0  0  0  0  0
  148.9026  138.6727  157.9597 H   0  0  0  0  0  0  0  0  0  0  0  0
  149.2082  140.1876  157.0961 H   0  0  0  0  0  0  0  0  0  0  0  0
  149.0855  140.1798  158.8665 H   0  0  0  0  0  0  0  0  0  0  0  0
  150.8796  141.9032  159.3573 H   0  0  0  0  0  0  0  0  0  0  0  0
  153.2981  142.0222  159.8671 H   0  0  0  0  0  0  0  0  0  0  0  0
  153.6668  142.3362  158.1865 H   0  0  0  0  0  0  0  0  0  0  0  0
  152.0400  144.1323  160.0500 H   0  0  0  0  0  0  0  0  0  0  0  0
  153.6343  144.4694  159.4198 H   0  0  0  0  0  0  0  0  0  0  0  0
  151.8406  145.6923  158.1416 H   0  0  0  0  0  0  0  0  0  0  0  0
  152.7428  144.6053  157.1026 H   0  0  0  0  0  0  0  0  0  0  0  0
  150.1361  144.0578  158.3338 H   0  0  0  0  0  0  0  0  0  0  0  0
  151.6262  142.4068  156.4317 H   0  0  0  0  0  0  0  0  0  0  0  0
  150.0195  142.0723  157.0506 H   0  0  0  0  0  0  0  0  0  0  0  0
  150.4129  144.3945  156.7495 H   0  0  0  0  0  0  0  0  0  0  0  0
  1  2  1  0  0  0  0
  1 14  1  0  0  0  0
  1 15  1  0  0  0  0
  1 16  1  0  0  0  0
  2 13  2  0  0  0  0
  2  3  1  0  0  0  0
  3  4  2  0  0  0  0
  4  5  1  0  0  0  0
  4  6  1  0  0  0  0
  5 17  1  0  0  0  0
  5 18  1  0  0  0  0
  5 19  1  0  0  0  0
  6  7  1  0  0  0  0
  6 13  1  0  0  0  0
  7 12  1  0  0  0  0
  7  8  1  0  0  0  0
  7 20  1  0  0  0  0
  8  9  1  0  0  0  0
  8 21  1  0  0  0  0
  8 22  1  0  0  0  0
  9 10  1  0  0  0  0
  9 23  1  0  0  0  0
  9 24  1  0  0  0  0
 10 11  1  0  0  0  0
 10 25  1  0  0  0  0
 10 26  1  0  0  0  0
 11 12  1  0  0  0  0
 11 27  1  0  0  0  0
 11 30  1  0  0  0  0
 12 28  1  0  0  0  0
 12 29  1  0  0  0  0
M  CHG  1  11   1
M  END
> <s_m_source_file>
AV-unprocessed.smi

> <i_m_source_file_index>
3086

> <i_lp_mmshare_version>
43012

> <i_f3d_flags>
0

> <s_epik_input>
W0NIM11jMW5jKFtDSDNdKW4objEpW0NAQEhdMltDSDJdW0NIMl1bQ0gyXVtOSF1bQ0gyXTI=

> <s_epik_cmdline>
J2VwaWtfcHl0aG9uJywgJy1waCcsICc3LjAnLCAnLXRuJywgJzgnLCAnLW1hJywgJzIwMCcsICctbWV0YWxfYmluZGluZycsICctaW1hZScsICc8aW5maWxlLm1hZT4nLCAnLW9tYWUnLCAnPG91dGZpbGUubWFlPic=

> <r_lp_tautomer_probability>
1

> <r_epik_Ionization_Penalty>
0.000522417

> <r_epik_Ionization_Penalty_Charging>
0.000474443

> <r_epik_Ionization_Penalty_Neutral>
4.79736e-05

> <r_epik_State_Penalty>
-0

> <r_epik_Charging_Adjusted_Penalty>
0.000474443

> <i_epik_Tot_Q>
1

> <i_epik_Tot_abs_Q>
1

> <r_epik_Metal_State_Penalty>
-0

> <b_epik_Metal_Only>
0

> <s_lp_Force_Field>
OPLS_2005

> <r_lp_Energy>
16.4369

> <b_lp_Chiralities_Consistent>
1

> <s_lp_Variant>
AV-unprocessed.smi:3086-2

> <Gold.Version>
5.8.1

> <Gold.Id.Protein>
6NUR|6NUR_protein|mol2

> <Gold.PLP.Fitness>
33.6216

> <Gold.PLP.PLP>
-25.1704

> <Gold.PLP.part.hbond>
-2.0000

> <Gold.PLP.part.metal>
0.0000

> <Gold.PLP.part.buried>
-3.9035

> <Gold.PLP.part.nonpolar>
-19.1107

> <Gold.PLP.part.repulsive>
0.0178

> <Gold.PLP.ligand.clash>
0.0000

> <Gold.PLP.ligand.torsion>
0.0598

> <Gold.PLP.Chemscore.Hbond>
2.8432

> <Gold.PLP.Chemscore.CHOScore>
0.0000

> <Gold.PLP.Chemscore.Metal>
0.0000

> <Gold.Chemscore.Hbonds>
donor molecule, donor type, donor heavy atom, donor atom, acceptor molecule, acceptor atom, score
      L1  H    11    30       P1  8028  1.95
      P1  H  7997  8010       L1    13  0.74

> <Gold.PLP.Chemscore.Internal.Correction>
0.0412

> <Gold.Rescore>
     Score         DG    S(hbond)    S(metal)    S(lipo)     H(rot)  DE(clash)    DE(int)     intcor
     15.38     -15.88       1.83        0.00      58.52       1.00       0.39       0.11       ----

> <Gold.Chemscore.Fitness>
15.3811

> <Gold.Chemscore.DG>
-15.8815

> <Gold.Chemscore.ZeroCoef>
-5.4800

> <Gold.Chemscore.Hbond>
1.8306

> <Gold.Chemscore.Metal>
0.0000

> <Gold.Chemscore.Lipo>
58.5231

> <Gold.Chemscore.Internal_Hbond>
0.0000

> <Gold.Chemscore.DEClash>
0.3879

> <Gold.Chemscore.DEInternal>
0.1124

> <Gold.Chemscore.Rot>
1.0000

> <Gold.Chemscore.Internal.Correction>
   9.000000E+99

> <Gold.Chemscore.Hbonds>
donor molecule, donor type, donor heavy atom, donor atom, acceptor molecule, acceptor atom, score
      L1  H    11    30       P1  8028  0.89
      P1  H  7997  8010       L1    13  0.16

> <Gold.Chemscore.Hbond.Weighted>
-6.1143

> <Gold.Chemscore.Metal.Weighted>
-0.0000

> <Gold.Chemscore.Lipo.Weighted>
-6.8472

> <Gold.Chemscore.Internal_Hbond.Weighted>
0.0000

> <Gold.Chemscore.DEClash.Weighted>
0.3879

> <Gold.Chemscore.DEInternal.Weighted>
0.1124

> <Gold.Chemscore.Rot.Weighted>
2.5600

> <Gold.Chemscore.Internal.Correction.Weighted>
   9.000000E+99

> <Gold.Protein.RotatedTorsions>
[ 6907 6896 6895 6894 ] final   81.45 input  -60.11 | X-H torsion
[ 7974 7965 7964 7962 ] final  158.01 input  175.53 | X-H torsion
[ 8008 7997 7996 7995 ] final   20.83 input   59.86 | X-H torsion
[ 10167 10162 10161 10158 ] final -143.11 input  -65.29 | X-H torsion
[ 10718 10713 10712 10709 ] final  -23.91 input   66.30 | X-H torsion
[ 10763 10752 10751 10750 ] final -106.35 input  -60.55 | X-H torsion
[ 11005 11000 10999 10996 ] final  -34.70 input  -57.11 | X-H torsion

> <Gold.Protein.ActiveResidues>
 VAL166  LYS551  ARG553  GLY616  TRP617  ASP618  TYR619  PRO620  LYS621  CYS622 
 ASP623  PHE694  ASN695  SER759  ASP760  ASP761  ALA762  ILE779  LEU786  VAL792 
 PHE793  MET794  SER795  GLU796  ALA797  LYS798  CYS799  TRP800  GLU811  SER814 

> <Gold.Protein.RotatedAtoms>
  152.5268  134.3202  159.9145 H   0  0  0  0  0  0  0  0  0  0  0  0  # atno 6907 bound_to 6896
  151.3151  133.4057  159.2657 H   0  0  0  0  0  0  0  0  0  0  0  0  # atno 6908 bound_to 6896
  151.0005  134.9335  159.8008 H   0  0  0  0  0  0  0  0  0  0  0  0  # atno 6909 bound_to 6896
  144.7870  139.7419  143.6237 H   0  0  0  0  0  0  0  0  0  0  0  0  # atno 7974 bound_to 7965
  154.9414  140.3053  155.5119 H   0  0  0  0  0  0  0  0  0  0  0  0  # atno 8008 bound_to 7997
  156.2995  140.2335  156.4421 H   0  0  0  0  0  0  0  0  0  0  0  0  # atno 8009 bound_to 7997
  154.8141  140.0427  157.1353 H   0  0  0  0  0  0  0  0  0  0  0  0  # atno 8010 bound_to 7997
  139.8025  143.7814  152.2659 H   0  0  0  0  0  0  0  0  0  0  0  0  # atno 10167 bound_to 10162
  156.4847  130.4553  149.6791 H   0  0  0  0  0  0  0  0  0  0  0  0  # atno 10718 bound_to 10713
  154.8006  135.4715  154.0267 H   0  0  0  0  0  0  0  0  0  0  0  0  # atno 10763 bound_to 10752
  153.1775  135.6835  153.8530 H   0  0  0  0  0  0  0  0  0  0  0  0  # atno 10764 bound_to 10752
  153.8091  135.3219  155.3376 H   0  0  0  0  0  0  0  0  0  0  0  0  # atno 10765 bound_to 10752
  140.9737  133.7095  156.1566 H   0  0  0  0  0  0  0  0  0  0  0  0  # atno 11005 bound_to 11000
  146.2106  139.5460  142.9683 LP  0  0  0  0  0  0  0  0  0  0  0  0  # atno 17320 bound_to 7965
  145.5895  141.0371  143.2078 LP  0  0  0  0  0  0  0  0  0  0  0  0  # atno 17321 bound_to 7965
  139.7938  144.7400  150.9918 LP  0  0  0  0  0  0  0  0  0  0  0  0  # atno 17342 bound_to 10162
  140.7820  143.4414  151.0546 LP  0  0  0  0  0  0  0  0  0  0  0  0  # atno 17343 bound_to 10162
  156.3486  130.7420  151.2376 LP  0  0  0  0  0  0  0  0  0  0  0  0  # atno 17370 bound_to 10713
  157.7480  131.0383  150.4498 LP  0  0  0  0  0  0  0  0  0  0  0  0  # atno 17371 bound_to 10713
  140.7291  134.4275  157.5568 LP  0  0  0  0  0  0  0  0  0  0  0  0  # atno 17394 bound_to 11000
  139.8922  134.8760  156.2282 LP  0  0  0  0  0  0  0  0  0  0  0  0  # atno 17395 bound_to 11000

$$$$
