AV-unprocessed.smi:34|AV-procd|sdf|227|dock7
  -GOLD-   2262015553D 1   1.00000     0.00000
 Structure written by MMmdl.
 55 59  0  0  0  0  0  0  0  0  1 V2000
  153.0138  140.2541  158.3294 O   0  0  0  0  0  0  0  0  0  0  0  0
  152.1288  141.0563  158.6294 C   0  0  0  0  0  0  0  0  0  0  0  0
  150.9026  141.1762  157.8609 N   0  0  0  0  0  0  0  0  0  0  0  0
  150.4932  140.4141  156.8199 C   0  0  0  0  0  0  0  0  0  0  0  0
  150.4550  140.8837  155.5448 N   0  0  0  0  0  0  0  0  0  0  0  0
  150.0511  140.0916  154.5472 C   0  0  0  0  0  0  0  0  0  0  0  0
  149.6534  138.8185  154.6012 N   0  0  0  0  0  0  0  0  0  0  0  0
  149.6960  138.3395  155.8783 C   0  0  0  0  0  0  0  0  0  0  0  0
  150.1008  139.0668  157.0313 C   0  0  0  0  0  0  0  0  0  0  0  0
  150.0131  138.2528  158.1533 N   0  0  0  0  0  0  0  0  0  0  0  0
  149.5807  137.1128  157.6843 C   0  0  0  0  0  0  0  0  0  0  0  0
  149.3715  137.0757  156.3212 N   0  0  0  0  0  0  0  0  0  0  0  0
  148.8844  135.9477  155.4609 C   0  0  2  0  0  0  0  0  0  0  0  0
  148.3972  134.9439  156.3038 O   0  0  0  0  0  0  0  0  0  0  0  0
  149.2827  133.8203  156.3372 C   0  0  1  0  0  0  0  0  0  0  0  0
  148.5705  132.6450  155.6519 C   0  0  0  0  0  0  0  0  0  0  0  0
  148.0832  133.0628  154.3871 O   0  0  0  0  0  0  0  0  0  0  0  0
  146.8453  133.5826  154.2755 C   0  0  0  0  0  0  0  0  0  0  0  0
  146.2856  134.2124  155.1753 O   0  0  0  0  0  0  0  0  0  0  0  0
  146.2258  133.3225  152.9440 C   0  0  0  0  0  0  0  0  0  0  0  0
  145.6063  134.3867  152.2480 C   0  0  0  0  0  0  0  0  0  0  0  0
  145.0157  134.1721  150.9874 C   0  0  0  0  0  0  0  0  0  0  0  0
  145.0366  132.8903  150.4078 C   0  0  0  0  0  0  0  0  0  0  0  0
  145.6492  131.8232  151.0901 C   0  0  0  0  0  0  0  0  0  0  0  0
  146.2411  132.0359  152.3505 C   0  0  0  0  0  0  0  0  0  0  0  0
  150.5544  134.2634  155.6033 C   0  0  2  0  0  0  0  0  0  0  0  0
  151.3959  134.7942  156.4932 F   0  0  0  0  0  0  0  0  0  0  0  0
  150.0217  135.3139  154.6453 C   0  0  2  0  0  0  0  0  0  0  0  0
  151.0294  136.2013  154.1968 O   0  0  0  0  0  0  0  0  0  0  0  0
  152.2996  142.0344  159.7550 C   0  0  0  0  0  0  0  0  0  0  0  0
  153.1033  141.6983  160.8678 C   0  0  0  0  0  0  0  0  0  0  0  0
  153.2550  142.6027  161.9370 C   0  0  0  0  0  0  0  0  0  0  0  0
  152.5979  143.8471  161.9063 C   0  0  0  0  0  0  0  0  0  0  0  0
  151.7856  144.1852  160.8074 C   0  0  0  0  0  0  0  0  0  0  0  0
  151.6337  143.2818  159.7371 C   0  0  0  0  0  0  0  0  0  0  0  0
  150.2739  141.9136  158.1435 H   0  0  0  0  0  0  0  0  0  0  0  0
  150.0476  140.5428  153.5658 H   0  0  0  0  0  0  0  0  0  0  0  0
  149.4049  136.2631  158.3280 H   0  0  0  0  0  0  0  0  0  0  0  0
  148.0901  136.3857  154.8554 H   0  0  0  0  0  0  0  0  0  0  0  0
  149.4968  133.5577  157.3742 H   0  0  0  0  0  0  0  0  0  0  0  0
  149.2662  131.8176  155.5071 H   0  0  0  0  0  0  0  0  0  0  0  0
  147.7559  132.2804  156.2794 H   0  0  0  0  0  0  0  0  0  0  0  0
  145.5790  135.3801  152.6725 H   0  0  0  0  0  0  0  0  0  0  0  0
  144.5462  134.9923  150.4648 H   0  0  0  0  0  0  0  0  0  0  0  0
  144.5834  132.7256  149.4413 H   0  0  0  0  0  0  0  0  0  0  0  0
  145.6656  130.8387  150.6464 H   0  0  0  0  0  0  0  0  0  0  0  0
  146.7021  131.1946  152.8467 H   0  0  0  0  0  0  0  0  0  0  0  0
  151.0843  133.4515  155.1041 H   0  0  0  0  0  0  0  0  0  0  0  0
  149.5726  134.8240  153.7804 H   0  0  0  0  0  0  0  0  0  0  0  0
  150.9683  136.2747  153.2564 H   0  0  0  0  0  0  0  0  0  0  0  0
  153.6132  140.7464  160.9070 H   0  0  0  0  0  0  0  0  0  0  0  0
  153.8751  142.3404  162.7814 H   0  0  0  0  0  0  0  0  0  0  0  0
  152.7135  144.5400  162.7267 H   0  0  0  0  0  0  0  0  0  0  0  0
  151.2758  145.1373  160.7866 H   0  0  0  0  0  0  0  0  0  0  0  0
  150.9982  143.5573  158.9078 H   0  0  0  0  0  0  0  0  0  0  0  0
  1  2  2  0  0  0  0
  2  3  1  0  0  0  0
  2 30  1  0  0  0  0
  3  4  1  0  0  0  0
  3 36  1  0  0  0  0
  4  9  1  0  0  0  0
  4  5  2  0  0  0  0
  5  6  1  0  0  0  0
  6  7  2  0  0  0  0
  6 37  1  0  0  0  0
  7  8  1  0  0  0  0
  8 12  1  0  0  0  0
  8  9  2  0  0  0  0
  9 10  1  0  0  0  0
 10 11  2  0  0  0  0
 11 12  1  0  0  0  0
 11 38  1  0  0  0  0
 12 13  1  0  0  0  0
 13 28  1  0  0  0  0
 13 14  1  0  0  0  0
 13 39  1  0  0  0  0
 14 15  1  0  0  0  0
 15 16  1  0  0  0  0
 15 26  1  0  0  0  0
 15 40  1  0  0  0  0
 16 17  1  0  0  0  0
 16 41  1  0  0  0  0
 16 42  1  0  0  0  0
 17 18  1  0  0  0  0
 18 19  2  0  0  0  0
 18 20  1  0  0  0  0
 20 25  1  0  0  0  0
 20 21  2  0  0  0  0
 21 22  1  0  0  0  0
 21 43  1  0  0  0  0
 22 23  2  0  0  0  0
 22 44  1  0  0  0  0
 23 24  1  0  0  0  0
 23 45  1  0  0  0  0
 24 25  2  0  0  0  0
 24 46  1  0  0  0  0
 25 47  1  0  0  0  0
 26 27  1  0  0  0  0
 26 28  1  0  0  0  0
 26 48  1  0  0  0  0
 28 29  1  0  0  0  0
 28 49  1  0  0  0  0
 29 50  1  0  0  0  0
 30 35  1  0  0  0  0
 30 31  2  0  0  0  0
 31 32  1  0  0  0  0
 31 51  1  0  0  0  0
 32 33  2  0  0  0  0
 32 52  1  0  0  0  0
 33 34  1  0  0  0  0
 33 53  1  0  0  0  0
 34 35  2  0  0  0  0
 34 54  1  0  0  0  0
 35 55  1  0  0  0  0
M  END
> <s_m_source_file>
AV-unprocessed.smi

> <i_m_source_file_index>
34

> <i_lp_mmshare_version>
43012

> <i_f3d_flags>
0

> <s_epik_input>
W2NIXTFbY0hdW2NIXVtjSF1bY0hdYzFDKD1PKVtOSF1jKG5bY0hdbjIpYyhjMjMpbltjSF1uM1tDQEBIXTRPW0NASF0oW0NAQEhdKEYpW0NASF00W09IXSlbQ0gyXU9DKD1PKWM1W2NIXVtjSF1bY0hdW2NIXVtjSF01

> <s_epik_cmdline>
J2VwaWtfcHl0aG9uJywgJy1waCcsICc3LjAnLCAnLXRuJywgJzgnLCAnLW1hJywgJzIwMCcsICctbWV0YWxfYmluZGluZycsICctaW1hZScsICc8aW5maWxlLm1hZT4nLCAnLW9tYWUnLCAnPG91dGZpbGUubWFlPic=

> <r_lp_tautomer_probability>
1

> <r_epik_Ionization_Penalty>
0.00257489

> <r_epik_Ionization_Penalty_Charging>
0

> <r_epik_Ionization_Penalty_Neutral>
0.00257489

> <r_epik_State_Penalty>
0.00519398

> <r_epik_Charging_Adjusted_Penalty>
0.00519398

> <i_epik_Tot_Q>
0

> <i_epik_Tot_abs_Q>
0

> <r_epik_Metal_State_Penalty>
0.335891

> <b_epik_Metal_Only>
0

> <s_epik_Chemistry_Notes>
This compound has an ester and may undergo hydrolysis at high or low pH. This compound contains an acetal/aminal-like group ( X-CH(R)-Y where X, Y are N, S, or O) that may be acid/base labile, releasing an aldehyde.

> <s_lp_Force_Field>
OPLS_2005

> <r_lp_Energy>
52.3338

> <b_lp_Chiralities_Consistent>
1

> <s_lp_Variant>
AV-unprocessed.smi:34-13

> <Gold.Version>
5.8.1

> <Gold.Id.Protein>
6NUR|6NUR_protein|mol2

> <Gold.PLP.Fitness>
57.8668

> <Gold.PLP.PLP>
-50.5789

> <Gold.PLP.part.hbond>
-4.2765

> <Gold.PLP.part.metal>
0.0000

> <Gold.PLP.part.buried>
-3.8338

> <Gold.PLP.part.nonpolar>
-42.0774

> <Gold.PLP.part.repulsive>
0.4367

> <Gold.PLP.ligand.clash>
0.0000

> <Gold.PLP.ligand.torsion>
2.7166

> <Gold.PLP.Chemscore.Hbond>
2.9760

> <Gold.PLP.Chemscore.CHOScore>
1.0000

> <Gold.PLP.Chemscore.Metal>
0.0000

> <Gold.Chemscore.Hbonds>
donor molecule, donor type, donor heavy atom, donor atom, acceptor molecule, acceptor atom, score
      L1  H    29    50       P1  7949  0.90
      P1  H  7997  8008       L1     1  0.89
      P1  H 10752 10763       L1    29  1.00
      L1  C     6    37       P1  7957  1.00

> <Gold.PLP.Chemscore.Internal.Correction>
0.7932

> <Gold.Rescore>
     Score         DG    S(hbond)    S(metal)    S(lipo)     H(rot)  DE(clash)    DE(int)     intcor
     12.47     -19.95       1.94        0.00     127.89       2.72       0.24       7.24       ----

> <Gold.Chemscore.Fitness>
12.4650

> <Gold.Chemscore.DG>
-19.9546

> <Gold.Chemscore.ZeroCoef>
-5.4800

> <Gold.Chemscore.Hbond>
1.9395

> <Gold.Chemscore.Metal>
0.0000

> <Gold.Chemscore.Lipo>
127.8946

> <Gold.Chemscore.Internal_Hbond>
0.0000

> <Gold.Chemscore.DEClash>
0.2448

> <Gold.Chemscore.DEInternal>
7.2448

> <Gold.Chemscore.Rot>
2.7215

> <Gold.Chemscore.Internal.Correction>
   9.000000E+99

> <Gold.Chemscore.Hbonds>
donor molecule, donor type, donor heavy atom, donor atom, acceptor molecule, acceptor atom, score
      L1  H    29    50       P1  7949  0.18
      P1  H  7997  8008       L1     1  0.82
      P1  H 10752 10763       L1    29  0.28

> <Gold.Chemscore.Hbond.Weighted>
-6.4780

> <Gold.Chemscore.Metal.Weighted>
-0.0000

> <Gold.Chemscore.Lipo.Weighted>
-14.9637

> <Gold.Chemscore.Internal_Hbond.Weighted>
0.0000

> <Gold.Chemscore.DEClash.Weighted>
0.2448

> <Gold.Chemscore.DEInternal.Weighted>
7.2448

> <Gold.Chemscore.Rot.Weighted>
6.9670

> <Gold.Chemscore.Internal.Correction.Weighted>
   9.000000E+99

> <Gold.Protein.RotatedTorsions>
[ 6907 6896 6895 6894 ] final  -33.62 input  -60.11 | X-H torsion
[ 7974 7965 7964 7962 ] final   90.43 input  175.53 | X-H torsion
[ 8008 7997 7996 7995 ] final  -85.99 input   59.86 | X-H torsion
[ 10167 10162 10161 10158 ] final  134.35 input  -65.29 | X-H torsion
[ 10718 10713 10712 10709 ] final  146.75 input   66.30 | X-H torsion
[ 10763 10752 10751 10750 ] final   49.61 input  -60.55 | X-H torsion
[ 11005 11000 10999 10996 ] final  -40.74 input  -57.11 | X-H torsion

> <Gold.Protein.ActiveResidues>
 VAL166  LYS551  ARG553  GLY616  TRP617  ASP618  TYR619  PRO620  LYS621  CYS622 
 ASP623  PHE694  ASN695  SER759  ASP760  ASP761  ALA762  ILE779  LEU786  VAL792 
 PHE793  MET794  SER795  GLU796  ALA797  LYS798  CYS799  TRP800  GLU811  SER814 

> <Gold.Protein.RotatedAtoms>
  151.0632  134.9750  159.8270 H   0  0  0  0  0  0  0  0  0  0  0  0  # atno 6907 bound_to 6896
  152.5398  134.2392  159.8865 H   0  0  0  0  0  0  0  0  0  0  0  0  # atno 6908 bound_to 6896
  151.2413  133.4355  159.2641 H   0  0  0  0  0  0  0  0  0  0  0  0  # atno 6909 bound_to 6896
  145.5190  139.2279  143.2682 H   0  0  0  0  0  0  0  0  0  0  0  0  # atno 7974 bound_to 7965
  154.6468  140.0584  156.9910 H   0  0  0  0  0  0  0  0  0  0  0  0  # atno 8008 bound_to 7997
  155.1431  140.3267  155.4429 H   0  0  0  0  0  0  0  0  0  0  0  0  # atno 8009 bound_to 7997
  156.2557  140.1960  156.6546 H   0  0  0  0  0  0  0  0  0  0  0  0  # atno 8010 bound_to 7997
  139.5260  144.6571  151.5127 H   0  0  0  0  0  0  0  0  0  0  0  0  # atno 10167 bound_to 10162
  157.3294  131.0918  151.1175 H   0  0  0  0  0  0  0  0  0  0  0  0  # atno 10718 bound_to 10713
  152.9786  135.5906  154.4117 H   0  0  0  0  0  0  0  0  0  0  0  0  # atno 10763 bound_to 10752
  154.3752  135.2767  155.2245 H   0  0  0  0  0  0  0  0  0  0  0  0  # atno 10764 bound_to 10752
  154.4183  135.6065  153.6049 H   0  0  0  0  0  0  0  0  0  0  0  0  # atno 10765 bound_to 10752
  141.0196  133.6869  156.2362 H   0  0  0  0  0  0  0  0  0  0  0  0  # atno 11005 bound_to 11000
  146.2118  140.6001  142.9056 LP  0  0  0  0  0  0  0  0  0  0  0  0  # atno 17320 bound_to 7965
  144.7686  140.5586  143.6686 LP  0  0  0  0  0  0  0  0  0  0  0  0  # atno 17321 bound_to 7965
  140.6402  143.8903  150.6685 LP  0  0  0  0  0  0  0  0  0  0  0  0  # atno 17342 bound_to 10162
  140.2235  143.3790  152.1623 LP  0  0  0  0  0  0  0  0  0  0  0  0  # atno 17343 bound_to 10162
  157.2429  130.6578  149.5897 LP  0  0  0  0  0  0  0  0  0  0  0  0  # atno 17370 bound_to 10713
  155.9694  130.4562  150.5918 LP  0  0  0  0  0  0  0  0  0  0  0  0  # atno 17371 bound_to 10713
  140.6596  134.4982  157.5582 LP  0  0  0  0  0  0  0  0  0  0  0  0  # atno 17394 bound_to 11000
  139.9138  134.8289  156.1437 LP  0  0  0  0  0  0  0  0  0  0  0  0  # atno 17395 bound_to 11000

$$$$
