AV-unprocessed.smi:2482|AV-procd|sdf|9784|dock6
  -GOLD-   2272013423D 1   1.00000     0.00000
 Structure written by MMmdl.
 34 35  0  0  0  0  0  0  0  0  3 V2000
  153.2014  142.8265  160.3379 C   0  0  0  0  0  0  0  0  0  0  0  0
  152.4702  142.5040  159.0481 C   0  0  0  0  0  0  0  0  0  0  0  0
  152.0154  143.5698  158.3545 N   0  0  0  0  0  0  0  0  0  0  0  0
  151.3627  143.3348  157.1992 C   0  0  0  0  0  0  0  0  0  0  0  0
  151.1344  142.0426  156.6897 C   0  0  0  0  0  0  0  0  0  0  0  0
  151.5969  140.9178  157.4083 C   0  0  0  0  0  0  0  0  0  0  0  0
  151.3919  139.6784  156.9327 N   0  5  0  0  0  0  0  0  0  0  0  0
  151.6737  139.3965  155.6371 C   0  0  0  0  0  0  0  0  0  0  0  0
  152.7657  139.4181  155.0658 O   0  0  0  0  0  0  0  0  0  0  0  0
  150.4043  139.0160  154.8602 C   0  0  1  0  0  0  0  0  0  0  0  0
  149.6613  137.8060  155.4709 C   0  0  0  0  0  0  0  0  0  0  0  0
  148.4201  137.5324  154.7120 N   0  3  1  0  0  0  0  0  0  0  0  0
  147.6923  136.3490  155.2164 C   0  0  0  0  0  0  0  0  0  0  0  0
  147.5684  138.7414  154.6424 C   0  0  0  0  0  0  0  0  0  0  0  0
  148.3682  139.9240  154.0713 C   0  0  0  0  0  0  0  0  0  0  0  0
  149.5295  140.1415  154.8619 O   0  0  0  0  0  0  0  0  0  0  0  0
  152.2912  141.1663  158.6209 C   0  0  0  0  0  0  0  0  0  0  0  0
  152.9149  139.8574  159.5724 Cl  0  0  0  0  0  0  0  0  0  0  0  0
  152.6987  142.3600  161.1855 H   0  0  0  0  0  0  0  0  0  0  0  0
  153.2401  143.9014  160.5196 H   0  0  0  0  0  0  0  0  0  0  0  0
  154.2253  142.4546  160.2958 H   0  0  0  0  0  0  0  0  0  0  0  0
  151.0115  144.2035  156.6624 H   0  0  0  0  0  0  0  0  0  0  0  0
  150.6048  141.9185  155.7564 H   0  0  0  0  0  0  0  0  0  0  0  0
  150.6820  138.7760  153.8308 H   0  0  0  0  0  0  0  0  0  0  0  0
  150.3026  136.9234  155.4487 H   0  0  0  0  0  0  0  0  0  0  0  0
  149.4068  137.9946  156.5156 H   0  0  0  0  0  0  0  0  0  0  0  0
  147.3587  136.5027  156.2435 H   0  0  0  0  0  0  0  0  0  0  0  0
  148.3319  135.4660  155.1926 H   0  0  0  0  0  0  0  0  0  0  0  0
  146.8174  136.1439  154.5989 H   0  0  0  0  0  0  0  0  0  0  0  0
  146.6975  138.5444  154.0162 H   0  0  0  0  0  0  0  0  0  0  0  0
  147.1991  138.9883  155.6391 H   0  0  0  0  0  0  0  0  0  0  0  0
  148.6493  139.7409  153.0330 H   0  0  0  0  0  0  0  0  0  0  0  0
  147.7600  140.8288  154.0813 H   0  0  0  0  0  0  0  0  0  0  0  0
  148.7025  137.3205  153.7655 H   0  0  0  0  0  0  0  0  0  0  0  0
  1  2  1  0  0  0  0
  1 19  1  0  0  0  0
  1 20  1  0  0  0  0
  1 21  1  0  0  0  0
  2 17  1  0  0  0  0
  2  3  2  0  0  0  0
  3  4  1  0  0  0  0
  4  5  2  0  0  0  0
  4 22  1  0  0  0  0
  5  6  1  0  0  0  0
  5 23  1  0  0  0  0
  6  7  1  0  0  0  0
  6 17  2  0  0  0  0
  7  8  1  0  0  0  0
  8  9  2  0  0  0  0
  8 10  1  0  0  0  0
 10 16  1  0  0  0  0
 10 11  1  0  0  0  0
 10 24  1  0  0  0  0
 11 12  1  0  0  0  0
 11 25  1  0  0  0  0
 11 26  1  0  0  0  0
 12 13  1  0  0  0  0
 12 14  1  0  0  0  0
 12 34  1  0  0  0  0
 13 27  1  0  0  0  0
 13 28  1  0  0  0  0
 13 29  1  0  0  0  0
 14 15  1  0  0  0  0
 14 30  1  0  0  0  0
 14 31  1  0  0  0  0
 15 16  1  0  0  0  0
 15 32  1  0  0  0  0
 15 33  1  0  0  0  0
 17 18  1  0  0  0  0
M  CHG  1   7  -1
M  CHG  1  12   1
M  END
> <s_m_source_file>
AV-unprocessed.smi

> <i_m_source_file_index>
2482

> <i_lp_mmshare_version>
43012

> <i_f3d_flags>
0

> <s_epik_input>
W0NIM11jMW5bY0hdW2NIXWMoYzFDbClbTkhdQyg9TylbQ0BASF0yW0NIMl1OKFtDSDNdKVtDSDJdW0NIMl1PMg==

> <s_epik_cmdline>
J2VwaWtfcHl0aG9uJywgJy1waCcsICc3LjAnLCAnLXRuJywgJzgnLCAnLW1hJywgJzIwMCcsICctbWV0YWxfYmluZGluZycsICctaW1hZScsICc8aW5maWxlLm1hZT4nLCAnLW9tYWUnLCAnPG91dGZpbGUubWFlPic=

> <r_epik_Ionization_Penalty>
6.9249

> <r_epik_Ionization_Penalty_Charging>
6.74596

> <r_epik_Ionization_Penalty_Neutral>
0.178941

> <r_epik_State_Penalty>
6.78185

> <r_epik_Charging_Adjusted_Penalty>
13.5278

> <i_epik_Tot_Q>
0

> <i_epik_Tot_abs_Q>
2

> <r_epik_Metal_State_Penalty>
2.70608

> <b_epik_Metal_Only>
1

> <s_lp_Force_Field>
OPLS_2005

> <r_lp_Energy>
14.2833

> <b_lp_Chiralities_Consistent>
1

> <s_lp_Variant>
AV-unprocessed.smi:2482-10

> <Gold.Version>
5.8.1

> <Gold.Id.Protein>
6NUR|6NUR_protein|mol2

> <Gold.PLP.Fitness>
42.2993

> <Gold.PLP.PLP>
-31.7342

> <Gold.PLP.part.hbond>
-3.0000

> <Gold.PLP.part.metal>
0.0000

> <Gold.PLP.part.buried>
-4.2643

> <Gold.PLP.part.nonpolar>
-24.9138

> <Gold.PLP.part.repulsive>
0.1298

> <Gold.PLP.ligand.clash>
0.0000

> <Gold.PLP.ligand.torsion>
1.0372

> <Gold.PLP.Chemscore.Hbond>
3.0625

> <Gold.PLP.Chemscore.CHOScore>
1.0000

> <Gold.PLP.Chemscore.Metal>
0.0000

> <Gold.Chemscore.Hbonds>
donor molecule, donor type, donor heavy atom, donor atom, acceptor molecule, acceptor atom, score
      L1  H    12    34       P1  7948  1.17
      P1  H  7989  7998       L1     9  0.01
      P1  H  7997  8008       L1     9  0.84
      L1  C     4    22       P1  8028  1.00

> <Gold.PLP.Chemscore.Internal.Correction>
0.4521

> <Gold.Rescore>
     Score         DG    S(hbond)    S(metal)    S(lipo)     H(rot)  DE(clash)    DE(int)     intcor
     17.84     -19.02       1.96        0.00      81.68       1.00       0.20       0.98       ----

> <Gold.Chemscore.Fitness>
17.8398

> <Gold.Chemscore.DG>
-19.0177

> <Gold.Chemscore.ZeroCoef>
-5.4800

> <Gold.Chemscore.Hbond>
1.9585

> <Gold.Chemscore.Metal>
0.0000

> <Gold.Chemscore.Lipo>
81.6773

> <Gold.Chemscore.Internal_Hbond>
0.0000

> <Gold.Chemscore.DEClash>
0.1982

> <Gold.Chemscore.DEInternal>
0.9797

> <Gold.Chemscore.Rot>
1.0000

> <Gold.Chemscore.Internal.Correction>
   9.000000E+99

> <Gold.Chemscore.Hbonds>
donor molecule, donor type, donor heavy atom, donor atom, acceptor molecule, acceptor atom, score
      L1  H    12    34       P1  7948  0.58
      P1  H  7997  8008       L1     9  0.82

> <Gold.Chemscore.Hbond.Weighted>
-6.5415

> <Gold.Chemscore.Metal.Weighted>
-0.0000

> <Gold.Chemscore.Lipo.Weighted>
-9.5562

> <Gold.Chemscore.Internal_Hbond.Weighted>
0.0000

> <Gold.Chemscore.DEClash.Weighted>
0.1982

> <Gold.Chemscore.DEInternal.Weighted>
0.9797

> <Gold.Chemscore.Rot.Weighted>
2.5600

> <Gold.Chemscore.Internal.Correction.Weighted>
   9.000000E+99

> <Gold.Protein.RotatedTorsions>
[ 6907 6896 6895 6894 ] final  -59.09 input  -60.11 | X-H torsion
[ 7974 7965 7964 7962 ] final  157.45 input  175.53 | X-H torsion
[ 8008 7997 7996 7995 ] final   -1.80 input   59.86 | X-H torsion
[ 10167 10162 10161 10158 ] final -166.06 input  -65.29 | X-H torsion
[ 10718 10713 10712 10709 ] final  142.95 input   66.30 | X-H torsion
[ 10763 10752 10751 10750 ] final   79.14 input  -60.55 | X-H torsion
[ 11005 11000 10999 10996 ] final   49.15 input  -57.11 | X-H torsion

> <Gold.Protein.ActiveResidues>
 VAL166  LYS551  ARG553  GLY616  TRP617  ASP618  TYR619  PRO620  LYS621  CYS622 
 ASP623  PHE694  ASN695  SER759  ASP760  ASP761  ALA762  ILE779  LEU786  VAL792 
 PHE793  MET794  SER795  GLU796  ALA797  LYS798  CYS799  TRP800  GLU811  SER814 

> <Gold.Protein.RotatedAtoms>
  150.7956  134.7013  159.6551 H   0  0  0  0  0  0  0  0  0  0  0  0  # atno 6907 bound_to 6896
  152.4068  134.6190  160.0055 H   0  0  0  0  0  0  0  0  0  0  0  0  # atno 6908 bound_to 6896
  151.6444  133.3287  159.3174 H   0  0  0  0  0  0  0  0  0  0  0  0  # atno 6909 bound_to 6896
  144.7903  139.7342  143.6224 H   0  0  0  0  0  0  0  0  0  0  0  0  # atno 7974 bound_to 7965
  154.6428  140.2550  155.7303 H   0  0  0  0  0  0  0  0  0  0  0  0  # atno 8008 bound_to 7997
  156.2537  140.2884  156.0749 H   0  0  0  0  0  0  0  0  0  0  0  0  # atno 8009 bound_to 7997
  155.1571  140.0383  157.2824 H   0  0  0  0  0  0  0  0  0  0  0  0  # atno 8010 bound_to 7997
  139.6140  144.0757  152.1870 H   0  0  0  0  0  0  0  0  0  0  0  0  # atno 10167 bound_to 10162
  157.3746  131.0983  151.0796 H   0  0  0  0  0  0  0  0  0  0  0  0  # atno 10718 bound_to 10713
  153.0929  135.4851  154.8724 H   0  0  0  0  0  0  0  0  0  0  0  0  # atno 10763 bound_to 10752
  154.7290  135.3056  154.8925 H   0  0  0  0  0  0  0  0  0  0  0  0  # atno 10764 bound_to 10752
  153.9566  135.6817  153.4798 H   0  0  0  0  0  0  0  0  0  0  0  0  # atno 10765 bound_to 10752
  140.1128  134.4932  155.8663 H   0  0  0  0  0  0  0  0  0  0  0  0  # atno 11005 bound_to 11000
  146.2152  139.5536  142.9655 LP  0  0  0  0  0  0  0  0  0  0  0  0  # atno 17320 bound_to 7965
  145.5812  141.0382  143.2121 LP  0  0  0  0  0  0  0  0  0  0  0  0  # atno 17321 bound_to 7965
  140.0382  144.6028  150.7432 LP  0  0  0  0  0  0  0  0  0  0  0  0  # atno 17342 bound_to 10162
  140.7338  143.2722  151.3853 LP  0  0  0  0  0  0  0  0  0  0  0  0  # atno 17343 bound_to 10162
  157.1888  130.6342  149.5697 LP  0  0  0  0  0  0  0  0  0  0  0  0  # atno 17370 bound_to 10713
  155.9762  130.4729  150.6515 LP  0  0  0  0  0  0  0  0  0  0  0  0  # atno 17371 bound_to 10713
  141.2134  133.6733  156.6738 LP  0  0  0  0  0  0  0  0  0  0  0  0  # atno 17394 bound_to 11000
  140.3068  134.8119  157.4143 LP  0  0  0  0  0  0  0  0  0  0  0  0  # atno 17395 bound_to 11000

$$$$
