AV-unprocessed.smi:3275|AV-procd|sdf|12531|dock1
  -GOLD-   2272018443D 1   1.00000     0.00000
 Structure written by MMmdl.
 35 36  0  0  0  0  0  0  0  0  2 V2000
  151.5595  143.2879  161.7734 O   0  0  0  0  0  0  0  0  0  0  0  0
  152.0756  144.2321  160.8604 C   0  0  0  0  0  0  0  0  0  0  0  0
  152.2387  143.5884  159.4797 C   0  0  0  0  0  0  0  0  0  0  0  0
  150.9955  143.0213  159.0931 O   0  0  0  0  0  0  0  0  0  0  0  0
  151.0083  142.3817  157.8236 C   0  0  1  0  0  0  0  0  0  0  0  0
  151.8174  141.0680  157.8657 C   0  0  0  0  0  0  0  0  0  0  0  0
  151.6801  140.3109  156.5346 C   0  0  0  0  0  0  0  0  0  0  0  0
  150.2021  140.0862  156.1745 C   0  0  0  0  0  0  0  0  0  0  0  0
  149.4726  141.3515  156.1856 N   0  0  0  0  0  0  0  0  0  0  0  0
  148.2188  141.2916  155.5509 C   0  0  0  0  0  0  0  0  0  0  0  0
  147.9816  141.9523  154.3193 C   0  0  0  0  0  0  0  0  0  0  0  0
  146.7077  141.8783  153.7211 C   0  0  0  0  0  0  0  0  0  0  0  0
  145.7220  141.1804  154.3226 N   0  3  0  0  0  0  0  0  0  0  0  0
  145.8974  140.5332  155.4939 C   0  0  0  0  0  0  0  0  0  0  0  0
  147.1494  140.5688  156.1415 C   0  0  0  0  0  0  0  0  0  0  0  0
  147.3481  139.7037  157.6261 Cl  0  0  0  0  0  0  0  0  0  0  0  0
  149.5452  142.0910  157.4440 C   0  0  0  0  0  0  0  0  0  0  0  0
  152.2254  143.0960  162.4157 H   0  0  0  0  0  0  0  0  0  0  0  0
  151.3987  145.0850  160.8078 H   0  0  0  0  0  0  0  0  0  0  0  0
  153.0348  144.5968  161.2281 H   0  0  0  0  0  0  0  0  0  0  0  0
  152.5488  144.3405  158.7528 H   0  0  0  0  0  0  0  0  0  0  0  0
  153.0152  142.8244  159.5177 H   0  0  0  0  0  0  0  0  0  0  0  0
  151.4302  143.0526  157.0726 H   0  0  0  0  0  0  0  0  0  0  0  0
  152.8710  141.2633  158.0631 H   0  0  0  0  0  0  0  0  0  0  0  0
  151.4569  140.4404  158.6815 H   0  0  0  0  0  0  0  0  0  0  0  0
  152.1651  140.8802  155.7406 H   0  0  0  0  0  0  0  0  0  0  0  0
  152.2002  139.3544  156.5920 H   0  0  0  0  0  0  0  0  0  0  0  0
  150.1306  139.6056  155.1984 H   0  0  0  0  0  0  0  0  0  0  0  0
  149.7428  139.4071  156.8941 H   0  0  0  0  0  0  0  0  0  0  0  0
  148.7575  142.5237  153.8318 H   0  0  0  0  0  0  0  0  0  0  0  0
  146.4494  142.3564  152.7873 H   0  0  0  0  0  0  0  0  0  0  0  0
  145.0367  140.0032  155.8747 H   0  0  0  0  0  0  0  0  0  0  0  0
  149.0744  141.5079  158.2364 H   0  0  0  0  0  0  0  0  0  0  0  0
  148.9920  143.0272  157.3570 H   0  0  0  0  0  0  0  0  0  0  0  0
  144.8069  141.1389  153.8731 H   0  0  0  0  0  0  0  0  0  0  0  0
  1  2  1  0  0  0  0
  1 18  1  0  0  0  0
  2  3  1  0  0  0  0
  2 19  1  0  0  0  0
  2 20  1  0  0  0  0
  3  4  1  0  0  0  0
  3 21  1  0  0  0  0
  3 22  1  0  0  0  0
  4  5  1  0  0  0  0
  5 17  1  0  0  0  0
  5  6  1  0  0  0  0
  5 23  1  0  0  0  0
  6  7  1  0  0  0  0
  6 24  1  0  0  0  0
  6 25  1  0  0  0  0
  7  8  1  0  0  0  0
  7 26  1  0  0  0  0
  7 27  1  0  0  0  0
  8  9  1  0  0  0  0
  8 28  1  0  0  0  0
  8 29  1  0  0  0  0
  9 10  1  0  0  0  0
  9 17  1  0  0  0  0
 10 15  1  0  0  0  0
 10 11  2  0  0  0  0
 11 12  1  0  0  0  0
 11 30  1  0  0  0  0
 12 13  2  0  0  0  0
 12 31  1  0  0  0  0
 13 14  1  0  0  0  0
 13 35  1  0  0  0  0
 14 15  2  0  0  0  0
 14 32  1  0  0  0  0
 15 16  1  0  0  0  0
 17 33  1  0  0  0  0
 17 34  1  0  0  0  0
M  CHG  1  13   1
M  END
> <s_m_source_file>
AV-unprocessed.smi

> <i_m_source_file_index>
3275

> <i_lp_mmshare_version>
43012

> <i_f3d_flags>
0

> <s_epik_input>
W09IXVtDSDJdW0NIMl1PW0NAQEhdMVtDSDJdW0NIMl1bQ0gyXU4oW0NIMl0xKWMyW2NIXVtjSF1uW2NIXWMyQ2w=

> <s_epik_cmdline>
J2VwaWtfcHl0aG9uJywgJy1waCcsICc3LjAnLCAnLXRuJywgJzgnLCAnLW1hJywgJzIwMCcsICctbWV0YWxfYmluZGluZycsICctaW1hZScsICc8aW5maWxlLm1hZT4nLCAnLW9tYWUnLCAnPG91dGZpbGUubWFlPic=

> <r_lp_tautomer_probability>
1

> <r_epik_Ionization_Penalty>
0.0778579

> <r_epik_Ionization_Penalty_Charging>
0.0778578

> <r_epik_Ionization_Penalty_Neutral>
8.80348e-08

> <r_epik_State_Penalty>
0.0687871

> <r_epik_Charging_Adjusted_Penalty>
0.146645

> <i_epik_Tot_Q>
1

> <i_epik_Tot_abs_Q>
1

> <r_epik_Metal_State_Penalty>
2.85646

> <b_epik_Metal_Only>
0

> <s_lp_Force_Field>
OPLS_2005

> <r_lp_Energy>
26.1135

> <b_lp_Chiralities_Consistent>
1

> <s_lp_Variant>
AV-unprocessed.smi:3275-2

> <Gold.Version>
5.8.1

> <Gold.Id.Protein>
6NUR|6NUR_protein|mol2

> <Gold.PLP.Fitness>
37.9805

> <Gold.PLP.PLP>
-29.7327

> <Gold.PLP.part.hbond>
-2.7542

> <Gold.PLP.part.metal>
0.0000

> <Gold.PLP.part.buried>
-4.4395

> <Gold.PLP.part.nonpolar>
-22.8919

> <Gold.PLP.part.repulsive>
0.0944

> <Gold.PLP.ligand.clash>
0.0000

> <Gold.PLP.ligand.torsion>
0.2248

> <Gold.PLP.Chemscore.Hbond>
2.7840

> <Gold.PLP.Chemscore.CHOScore>
0.0000

> <Gold.PLP.Chemscore.Metal>
0.0000

> <Gold.Chemscore.Hbonds>
donor molecule, donor type, donor heavy atom, donor atom, acceptor molecule, acceptor atom, score
      L1  H    13    35       P1 10175  2.00
      P1  H  6933  6945       L1     1  0.37

> <Gold.PLP.Chemscore.Internal.Correction>
0.3456

> <Gold.Rescore>
     Score         DG    S(hbond)    S(metal)    S(lipo)     H(rot)  DE(clash)    DE(int)     intcor
     14.06     -14.61       1.69        0.00      76.53       2.14       0.01       0.54       ----

> <Gold.Chemscore.Fitness>
14.0556

> <Gold.Chemscore.DG>
-14.6072

> <Gold.Chemscore.ZeroCoef>
-5.4800

> <Gold.Chemscore.Hbond>
1.6921

> <Gold.Chemscore.Metal>
0.0000

> <Gold.Chemscore.Lipo>
76.5276

> <Gold.Chemscore.Internal_Hbond>
0.0000

> <Gold.Chemscore.DEClash>
0.0121

> <Gold.Chemscore.DEInternal>
0.5394

> <Gold.Chemscore.Rot>
2.1400

> <Gold.Chemscore.Internal.Correction>
   9.000000E+99

> <Gold.Chemscore.Hbonds>
donor molecule, donor type, donor heavy atom, donor atom, acceptor molecule, acceptor atom, score
      L1  H    13    35       P1 10175  0.62
      P1  H  6933  6945       L1     1  0.13

> <Gold.Chemscore.Hbond.Weighted>
-5.6517

> <Gold.Chemscore.Metal.Weighted>
-0.0000

> <Gold.Chemscore.Lipo.Weighted>
-8.9537

> <Gold.Chemscore.Internal_Hbond.Weighted>
0.0000

> <Gold.Chemscore.DEClash.Weighted>
0.0121

> <Gold.Chemscore.DEInternal.Weighted>
0.5394

> <Gold.Chemscore.Rot.Weighted>
5.4783

> <Gold.Chemscore.Internal.Correction.Weighted>
   9.000000E+99

> <Gold.Protein.RotatedTorsions>
[ 6907 6896 6895 6894 ] final   -2.08 input  -60.11 | X-H torsion
[ 7974 7965 7964 7962 ] final   18.62 input  175.53 | X-H torsion
[ 8008 7997 7996 7995 ] final -172.42 input   59.86 | X-H torsion
[ 10167 10162 10161 10158 ] final  -24.56 input  -65.29 | X-H torsion
[ 10718 10713 10712 10709 ] final -127.87 input   66.30 | X-H torsion
[ 10763 10752 10751 10750 ] final  108.28 input  -60.55 | X-H torsion
[ 11005 11000 10999 10996 ] final  127.24 input  -57.11 | X-H torsion

> <Gold.Protein.ActiveResidues>
 VAL166  LYS551  ARG553  GLY616  TRP617  ASP618  TYR619  PRO620  LYS621  CYS622 
 ASP623  PHE694  ASN695  SER759  ASP760  ASP761  ALA762  ILE779  LEU786  VAL792 
 PHE793  MET794  SER795  GLU796  ALA797  LYS798  CYS799  TRP800  GLU811  SER814 

> <Gold.Protein.RotatedAtoms>
  151.5357  135.1068  159.9913 H   0  0  0  0  0  0  0  0  0  0  0  0  # atno 6907 bound_to 6896
  152.4558  133.7717  159.6813 H   0  0  0  0  0  0  0  0  0  0  0  0  # atno 6908 bound_to 6896
  150.8502  133.7734  159.3053 H   0  0  0  0  0  0  0  0  0  0  0  0  # atno 6909 bound_to 6896
  146.2178  139.8430  142.8637 H   0  0  0  0  0  0  0  0  0  0  0  0  # atno 7974 bound_to 7965
  155.9444  140.1114  157.1029 H   0  0  0  0  0  0  0  0  0  0  0  0  # atno 8008 bound_to 7997
  154.4096  140.1213  156.5035 H   0  0  0  0  0  0  0  0  0  0  0  0  # atno 8009 bound_to 7997
  155.6922  140.3472  155.4900 H   0  0  0  0  0  0  0  0  0  0  0  0  # atno 8010 bound_to 7997
  140.7288  143.4342  151.0755 H   0  0  0  0  0  0  0  0  0  0  0  0  # atno 10167 bound_to 10162
  156.1898  130.6787  151.0409 H   0  0  0  0  0  0  0  0  0  0  0  0  # atno 10718 bound_to 10713
  153.4185  135.3817  155.2096 H   0  0  0  0  0  0  0  0  0  0  0  0  # atno 10763 bound_to 10752
  154.8743  135.3811  154.4413 H   0  0  0  0  0  0  0  0  0  0  0  0  # atno 10764 bound_to 10752
  153.4930  135.7088  153.5936 H   0  0  0  0  0  0  0  0  0  0  0  0  # atno 10765 bound_to 10752
  139.9497  134.9624  156.8826 H   0  0  0  0  0  0  0  0  0  0  0  0  # atno 11005 bound_to 11000
  145.2879  141.0158  143.3680 LP  0  0  0  0  0  0  0  0  0  0  0  0  # atno 17320 bound_to 7965
  144.9100  139.4541  143.6592 LP  0  0  0  0  0  0  0  0  0  0  0  0  # atno 17321 bound_to 7965
  139.8002  143.8094  152.3162 LP  0  0  0  0  0  0  0  0  0  0  0  0  # atno 17342 bound_to 10162
  139.8108  144.7336  150.9699 LP  0  0  0  0  0  0  0  0  0  0  0  0  # atno 17343 bound_to 10162
  157.6921  131.0806  150.7075 LP  0  0  0  0  0  0  0  0  0  0  0  0  # atno 17370 bound_to 10713
  156.7132  130.4658  149.5542 LP  0  0  0  0  0  0  0  0  0  0  0  0  # atno 17371 bound_to 10713
  140.5748  134.0409  155.7443 LP  0  0  0  0  0  0  0  0  0  0  0  0  # atno 17394 bound_to 11000
  141.1157  133.9544  157.2826 LP  0  0  0  0  0  0  0  0  0  0  0  0  # atno 17395 bound_to 11000

$$$$
