AV-unprocessed.smi:924|AV-procd|sdf|4180|dock5
  -GOLD-   22720 2 83D 1   1.00000     0.00000
 Structure written by MMmdl.
 45 48  0  0  0  0  0  0  0  0  2 V2000
  149.1877  142.1008  158.8268 O   0  0  0  0  0  0  0  0  0  0  0  0
  150.1855  142.2266  158.1160 C   0  0  0  0  0  0  0  0  0  0  0  0
  151.1823  143.3684  158.3539 C   0  0  0  0  0  0  0  0  0  0  0  0
  151.8188  143.2914  159.6784 N   0  0  0  0  0  0  0  0  0  0  0  0
  152.5024  142.1033  159.9926 C   0  0  0  0  0  0  0  0  0  0  0  0
  153.1327  141.9352  161.1703 C   0  0  0  0  0  0  0  0  0  0  0  0
  153.0936  143.0269  162.1351 C   0  0  0  0  0  0  0  0  0  0  0  0
  153.6592  142.8896  163.2182 O   0  0  0  0  0  0  0  0  0  0  0  0
  152.4219  144.1619  161.7822 N   0  5  0  0  0  0  0  0  0  0  0  0
  151.7895  144.3210  160.5778 C   0  0  0  0  0  0  0  0  0  0  0  0
  151.1964  145.3576  160.2783 O   0  0  0  0  0  0  0  0  0  0  0  0
  150.4736  141.3981  157.1006 N   0  0  0  0  0  0  0  0  0  0  0  0
  149.6440  140.2828  156.6506 C   0  0  0  0  0  0  0  0  0  0  0  0
  148.3922  140.7311  155.8526 C   0  0  0  0  0  0  0  0  0  0  0  0
  147.5375  141.7580  156.6473 C   0  0  0  0  0  0  0  0  0  0  0  0
  146.2806  142.1525  155.8432 C   0  0  1  0  0  0  0  0  0  0  0  0
  146.7060  142.7893  154.5037 C   0  0  0  0  0  0  0  0  0  0  0  0
  147.5323  141.7675  153.6944 C   0  0  2  0  0  0  0  0  0  0  0  0
  146.6774  140.5133  153.4188 C   0  0  0  0  0  0  0  0  0  0  0  0
  146.2535  139.8838  154.7620 C   0  0  2  0  0  0  0  0  0  0  0  0
  145.4235  140.8992  155.5737 C   0  0  0  0  0  0  0  0  0  0  0  0
  147.5105  139.4871  155.5648 C   0  0  0  0  0  0  0  0  0  0  0  0
  148.7922  141.3712  154.4947 C   0  0  0  0  0  0  0  0  0  0  0  0
  151.9203  143.3596  157.5505 H   0  0  0  0  0  0  0  0  0  0  0  0
  150.6689  144.3267  158.2583 H   0  0  0  0  0  0  0  0  0  0  0  0
  152.4879  141.3489  159.2192 H   0  0  0  0  0  0  0  0  0  0  0  0
  153.6567  141.0176  161.3937 H   0  0  0  0  0  0  0  0  0  0  0  0
  151.3198  141.5720  156.5783 H   0  0  0  0  0  0  0  0  0  0  0  0
  150.2707  139.6501  156.0212 H   0  0  0  0  0  0  0  0  0  0  0  0
  149.3500  139.6588  157.4965 H   0  0  0  0  0  0  0  0  0  0  0  0
  147.2480  141.3420  157.6131 H   0  0  0  0  0  0  0  0  0  0  0  0
  148.1136  142.6581  156.8629 H   0  0  0  0  0  0  0  0  0  0  0  0
  145.6970  142.8733  156.4168 H   0  0  0  0  0  0  0  0  0  0  0  0
  145.8276  143.0995  153.9365 H   0  0  0  0  0  0  0  0  0  0  0  0
  147.2917  143.6917  154.6835 H   0  0  0  0  0  0  0  0  0  0  0  0
  147.8323  142.2150  152.7464 H   0  0  0  0  0  0  0  0  0  0  0  0
  145.7979  140.7766  152.8300 H   0  0  0  0  0  0  0  0  0  0  0  0
  147.2420  139.7934  152.8249 H   0  0  0  0  0  0  0  0  0  0  0  0
  145.6512  138.9953  154.5708 H   0  0  0  0  0  0  0  0  0  0  0  0
  145.0969  140.4549  156.5148 H   0  0  0  0  0  0  0  0  0  0  0  0
  144.5181  141.1699  155.0290 H   0  0  0  0  0  0  0  0  0  0  0  0
  148.0801  138.7404  155.0099 H   0  0  0  0  0  0  0  0  0  0  0  0
  147.2142  139.0100  156.5001 H   0  0  0  0  0  0  0  0  0  0  0  0
  149.4115  142.2551  154.6527 H   0  0  0  0  0  0  0  0  0  0  0  0
  149.3972  140.6749  153.9125 H   0  0  0  0  0  0  0  0  0  0  0  0
  1  2  2  0  0  0  0
  2  3  1  0  0  0  0
  2 12  1  0  0  0  0
  3  4  1  0  0  0  0
  3 24  1  0  0  0  0
  3 25  1  0  0  0  0
  4 10  1  0  0  0  0
  4  5  1  0  0  0  0
  5  6  2  0  0  0  0
  5 26  1  0  0  0  0
  6  7  1  0  0  0  0
  6 27  1  0  0  0  0
  7  8  2  0  0  0  0
  7  9  1  0  0  0  0
  9 10  1  0  0  0  0
 10 11  2  0  0  0  0
 12 13  1  0  0  0  0
 12 28  1  0  0  0  0
 13 14  1  0  0  0  0
 13 29  1  0  0  0  0
 13 30  1  0  0  0  0
 14 22  1  0  0  0  0
 14 23  1  0  0  0  0
 14 15  1  0  0  0  0
 15 16  1  0  0  0  0
 15 31  1  0  0  0  0
 15 32  1  0  0  0  0
 16 21  1  0  0  0  0
 16 17  1  0  0  0  0
 16 33  1  0  0  0  0
 17 18  1  0  0  0  0
 17 34  1  0  0  0  0
 17 35  1  0  0  0  0
 18 19  1  0  0  0  0
 18 23  1  0  0  0  0
 18 36  1  0  0  0  0
 19 20  1  0  0  0  0
 19 37  1  0  0  0  0
 19 38  1  0  0  0  0
 20 21  1  0  0  0  0
 20 22  1  0  0  0  0
 20 39  1  0  0  0  0
 21 40  1  0  0  0  0
 21 41  1  0  0  0  0
 22 42  1  0  0  0  0
 22 43  1  0  0  0  0
 23 44  1  0  0  0  0
 23 45  1  0  0  0  0
M  CHG  1   9  -1
M  END
> <s_m_source_file>
AV-unprocessed.smi

> <i_m_source_file_index>
924

> <i_lp_mmshare_version>
43012

> <i_f3d_flags>
0

> <s_epik_input>
Tz1jMVtuSF1jKD1PKVtjSF1bY0hdbjFbQ0gyXUMoPU8pW05IXVtDSDJdQzIzW0NIMl1bQ0BIXTRbQ0gyXVtDQEBIXShbQ0gyXTMpW0NIMl1bQ0BIXShbQ0gyXTQpW0NIMl0y

> <s_epik_cmdline>
J2VwaWtfcHl0aG9uJywgJy1waCcsICc3LjAnLCAnLXRuJywgJzgnLCAnLW1hJywgJzIwMCcsICctbWV0YWxfYmluZGluZycsICctaW1hZScsICc8aW5maWxlLm1hZT4nLCAnLW9tYWUnLCAnPG91dGZpbGUubWFlPic=

> <r_lp_tautomer_probability>
0.999537

> <r_epik_Ionization_Penalty>
3.12434

> <r_epik_Ionization_Penalty_Charging>
2.83226e-08

> <r_epik_Ionization_Penalty_Neutral>
3.12434

> <r_epik_State_Penalty>
3.12343

> <r_epik_Charging_Adjusted_Penalty>
3.12343

> <i_epik_Tot_Q>
-1

> <i_epik_Tot_abs_Q>
1

> <r_epik_Metal_State_Penalty>
0.463885

> <b_epik_Metal_Only>
1

> <s_lp_Force_Field>
OPLS_2005

> <r_lp_Energy>
43.5062

> <b_lp_Chiralities_Consistent>
1

> <s_lp_Variant>
AV-unprocessed.smi:924-2

> <Gold.Version>
5.8.1

> <Gold.Id.Protein>
6NUR|6NUR_protein|mol2

> <Gold.PLP.Fitness>
40.5330

> <Gold.PLP.PLP>
-40.8117

> <Gold.PLP.part.hbond>
-1.0000

> <Gold.PLP.part.metal>
0.0000

> <Gold.PLP.part.buried>
-5.6742

> <Gold.PLP.part.nonpolar>
-34.3462

> <Gold.PLP.part.repulsive>
0.6234

> <Gold.PLP.ligand.clash>
0.0000

> <Gold.PLP.ligand.torsion>
0.1446

> <Gold.PLP.Chemscore.Hbond>
0.0000

> <Gold.PLP.Chemscore.CHOScore>
0.0000

> <Gold.PLP.Chemscore.Metal>
0.0000

> <Gold.PLP.Chemscore.Internal.Correction>
0.0106

> <Gold.Rescore>
     Score         DG    S(hbond)    S(metal)    S(lipo)     H(rot)  DE(clash)    DE(int)     intcor
      7.44     -10.31       0.00        0.00      82.76       1.90       0.17       2.71       ----

> <Gold.Chemscore.Fitness>
7.4370

> <Gold.Chemscore.DG>
-10.3099

> <Gold.Chemscore.ZeroCoef>
-5.4800

> <Gold.Chemscore.Hbond>
0.0000

> <Gold.Chemscore.Metal>
0.0000

> <Gold.Chemscore.Lipo>
82.7638

> <Gold.Chemscore.Internal_Hbond>
0.0000

> <Gold.Chemscore.DEClash>
0.1656

> <Gold.Chemscore.DEInternal>
2.7073

> <Gold.Chemscore.Rot>
1.8959

> <Gold.Chemscore.Internal.Correction>
   9.000000E+99

> <Gold.Chemscore.Hbond.Weighted>
-0.0000

> <Gold.Chemscore.Metal.Weighted>
-0.0000

> <Gold.Chemscore.Lipo.Weighted>
-9.6834

> <Gold.Chemscore.Internal_Hbond.Weighted>
0.0000

> <Gold.Chemscore.DEClash.Weighted>
0.1656

> <Gold.Chemscore.DEInternal.Weighted>
2.7073

> <Gold.Chemscore.Rot.Weighted>
4.8535

> <Gold.Chemscore.Internal.Correction.Weighted>
   9.000000E+99

> <Gold.Protein.RotatedTorsions>
[ 6907 6896 6895 6894 ] final  149.89 input  -60.11 | X-H torsion
[ 7974 7965 7964 7962 ] final   93.74 input  175.53 | X-H torsion
[ 8008 7997 7996 7995 ] final  163.89 input   59.86 | X-H torsion
[ 10167 10162 10161 10158 ] final   95.09 input  -65.29 | X-H torsion
[ 10718 10713 10712 10709 ] final   99.84 input   66.30 | X-H torsion
[ 10763 10752 10751 10750 ] final  -52.86 input  -60.55 | X-H torsion
[ 11005 11000 10999 10996 ] final  -20.80 input  -57.11 | X-H torsion

> <Gold.Protein.ActiveResidues>
 VAL166  LYS551  ARG553  GLY616  TRP617  ASP618  TYR619  PRO620  LYS621  CYS622 
 ASP623  PHE694  ASN695  SER759  ASP760  ASP761  ALA762  ILE779  LEU786  VAL792 
 PHE793  MET794  SER795  GLU796  ALA797  LYS798  CYS799  TRP800  GLU811  SER814 

> <Gold.Protein.RotatedAtoms>
  152.1219  133.4358  159.4679 H   0  0  0  0  0  0  0  0  0  0  0  0  # atno 6907 bound_to 6896
  150.6872  134.2525  159.4525 H   0  0  0  0  0  0  0  0  0  0  0  0  # atno 6908 bound_to 6896
  152.0402  134.9715  160.0624 H   0  0  0  0  0  0  0  0  0  0  0  0  # atno 6909 bound_to 6896
  145.4749  139.2280  143.2914 H   0  0  0  0  0  0  0  0  0  0  0  0  # atno 7974 bound_to 7965
  156.1922  140.1711  156.8069 H   0  0  0  0  0  0  0  0  0  0  0  0  # atno 8008 bound_to 7997
  154.5485  140.0722  156.8661 H   0  0  0  0  0  0  0  0  0  0  0  0  # atno 8009 bound_to 7997
  155.3074  140.3365  155.4247 H   0  0  0  0  0  0  0  0  0  0  0  0  # atno 8010 bound_to 7997
  139.8022  144.6809  150.9750 H   0  0  0  0  0  0  0  0  0  0  0  0  # atno 10167 bound_to 10162
  157.6867  131.0681  150.5010 H   0  0  0  0  0  0  0  0  0  0  0  0  # atno 10718 bound_to 10713
  154.1495  135.6492  153.4960 H   0  0  0  0  0  0  0  0  0  0  0  0  # atno 10763 bound_to 10752
  153.0142  135.5334  154.6823 H   0  0  0  0  0  0  0  0  0  0  0  0  # atno 10764 bound_to 10752
  154.6107  135.2953  155.0407 H   0  0  0  0  0  0  0  0  0  0  0  0  # atno 10765 bound_to 10752
  140.8499  133.7864  155.9955 H   0  0  0  0  0  0  0  0  0  0  0  0  # atno 11005 bound_to 11000
  146.2375  140.5530  142.8948 LP  0  0  0  0  0  0  0  0  0  0  0  0  # atno 17320 bound_to 7965
  144.7923  140.6056  143.6533 LP  0  0  0  0  0  0  0  0  0  0  0  0  # atno 17321 bound_to 7965
  140.7820  143.4270  151.0753 LP  0  0  0  0  0  0  0  0  0  0  0  0  # atno 17342 bound_to 10162
  139.7941  143.8176  152.3155 LP  0  0  0  0  0  0  0  0  0  0  0  0  # atno 17343 bound_to 10162
  156.5331  130.4190  149.6191 LP  0  0  0  0  0  0  0  0  0  0  0  0  # atno 17370 bound_to 10713
  156.3051  130.7198  151.2079 LP  0  0  0  0  0  0  0  0  0  0  0  0  # atno 17371 bound_to 10713
  140.8801  134.2621  157.5148 LP  0  0  0  0  0  0  0  0  0  0  0  0  # atno 17394 bound_to 11000
  139.8704  134.9611  156.4385 LP  0  0  0  0  0  0  0  0  0  0  0  0  # atno 17395 bound_to 11000

$$$$
