#       Name:                AV-unprocessed.smi:2862
#       Creating user name   scv26
#       Creation time:       Fri Mar 27 15:46:57 2020


#       File generated by GOLD software.
#

@<TRIPOS>MOLECULE
AV-unprocessed.smi:2862
    58    60     1
SMALL
NO_CHARGES


@<TRIPOS>ATOM
      1 ****        -3.5562   2.4086   0.3288 C.3            1 S1                 0.0000
      2 ****        -2.6305   2.6083  -0.8836 C.3            1 S1                 0.0000
      3 ****        -2.2269   1.3250  -1.4562 N.am           1 S1                 0.0000
      4 ****        -3.0074   0.4296  -2.0894 C.2            1 S1                 0.0000
      5 ****        -4.2122   0.5988  -2.2709 O.2            1 S1                 0.0000
      6 ****        -2.3559  -0.8658  -2.6058 C.3            1 S1                 0.0000
      7 ****        -0.9320  -1.0304  -2.2573 N.am           1 S1                 0.0000
      8 ****         0.0077  -0.6231  -3.2252 C.2            1 S1                 0.0000
      9 ****         1.3301  -0.7181  -3.0208 C.2            1 S1                 0.0000
     10 ****         1.7912  -1.2570  -1.7653 C.2            1 S1                 0.0000
     11 ****         0.9007  -1.6219  -0.8147 C.2            1 S1                 0.0000
     12 ****         1.3166  -2.2280   0.4573 C.2            1 S1                 0.0000
     13 ****         0.8570  -3.2983   0.8609 O.2            1 S1                 0.0000
     14 ****         2.2751  -1.5520   1.1552 N.am           1 S1                 0.0000
     15 ****         2.5481  -0.1156   0.9763 C.3            1 S1                 0.0000
     16 ****         3.0179  -2.1530   2.2850 C.3            1 S1                 0.0000
     17 ****         3.7850  -3.4207   1.8580 C.3            1 S1                 0.0000
     18 ****         2.1825  -2.4084   3.5330 C.3            1 S1                 0.0000
     19 ****         1.8917  -1.3033   4.5197 C.3            1 S1                 0.0000
     20 ****         2.8201  -2.4344   4.9014 C.3            1 S1                 0.0000
     21 ****        -0.5607  -1.5389  -1.0403 C.2            1 S1                 0.0000
     22 ****        -1.4102  -1.8701  -0.2084 O.2            1 S1                 0.0000
     23 ****        -3.2133   3.5978  -1.8812 C.3            1 S1                 0.0000
     24 ****        -2.3174   4.4247  -2.7712 C.3            1 S1                 0.0000
     25 ****        -3.0977   5.0863  -1.6568 C.3            1 S1                 0.0000
     26 ****        -3.7409   3.3555   0.8369 H              1 S1                 0.0000
     27 ****        -3.1118   1.7282   1.0559 H              1 S1                 0.0000
     28 ****        -4.5239   2.0001   0.0368 H              1 S1                 0.0000
     29 ****        -1.7065   3.0462  -0.5043 H              1 S1                 0.0000
     30 ****        -1.2497   1.0899  -1.3599 H              1 S1                 0.0000
     31 ****        -2.9358  -1.7146  -2.2388 H              1 S1                 0.0000
     32 ****        -2.4822  -0.8932  -3.6889 H              1 S1                 0.0000
     33 ****        -0.4145  -0.2243  -4.1363 H              1 S1                 0.0000
     34 ****         2.0320  -0.3959  -3.7758 H              1 S1                 0.0000
     35 ****         2.8529  -1.3755  -1.6025 H              1 S1                 0.0000
     36 ****         1.6959   0.4316   0.5712 H              1 S1                 0.0000
     37 ****         3.3997   0.0293   0.3112 H              1 S1                 0.0000
     38 ****         2.7820   0.3708   1.9238 H              1 S1                 0.0000
     39 ****         3.8003  -1.4515   2.5799 H              1 S1                 0.0000
     40 ****         4.4601  -3.7476   2.6493 H              1 S1                 0.0000
     41 ****         4.3907  -3.2330   0.9708 H              1 S1                 0.0000
     42 ****         3.1208  -4.2564   1.6395 H              1 S1                 0.0000
     43 ****         1.3838  -3.1332   3.3902 H              1 S1                 0.0000
     44 ****         2.3388  -0.3281   4.3388 H              1 S1                 0.0000
     45 ****         0.9036  -1.2859   4.9749 H              1 S1                 0.0000
     46 ****         2.4515  -3.1712   5.6121 H              1 S1                 0.0000
     47 ****         3.8822  -2.2086   4.9724 H              1 S1                 0.0000
     48 ****        -4.1512   3.2719  -2.3270 H              1 S1                 0.0000
     49 ****        -1.2416   4.3252  -2.6408 H              1 S1                 0.0000
     50 ****        -2.6495   4.5994  -3.7926 H              1 S1                 0.0000
     51 ****        -3.9483   5.7044  -1.9370 H              1 S1                 0.0000
     52 ****        -2.5395   5.4272  -0.7870 H              1 S1                 0.0000
     53 ****        -4.6552   1.4327  -1.9417 LP             1 S1                 0.0000
     54 ****        -4.7487  -0.0976  -2.7477 LP             1 S1                 0.0000
     55 ****         0.1751  -3.7867   0.3164 LP             1 S1                 0.0000
     56 ****         1.1660  -3.6781   1.7328 LP             1 S1                 0.0000
     57 ****        -2.3825  -1.7686  -0.4190 LP             1 S1                 0.0000
     58 ****        -1.1262  -2.2399   0.6762 LP             1 S1                 0.0000
@<TRIPOS>BOND
    1    1    2 1     
    2    1   26 1     
    3    1   27 1     
    4    1   28 1     
    5    2    3 1     
    6    2   23 1     
    7    2   29 1     
    8    3    4 am    
    9    3   30 1     
   10    4    5 2     
   11    4    6 1     
   12    6    7 1     
   13    6   31 1     
   14    6   32 1     
   15    7   21 am    
   16    7    8 1     
   17    8    9 2     
   18    8   33 1     
   19    9   10 1     
   20    9   34 1     
   21   10   11 2     
   22   10   35 1     
   23   11   12 1     
   24   11   21 1     
   25   12   13 2     
   26   12   14 am    
   27   14   15 1     
   28   14   16 1     
   29   15   36 1     
   30   15   37 1     
   31   15   38 1     
   32   16   17 1     
   33   16   18 1     
   34   16   39 1     
   35   17   40 1     
   36   17   41 1     
   37   17   42 1     
   38   18   20 1     
   39   18   19 1     
   40   18   43 1     
   41   19   20 1     
   42   19   44 1     
   43   19   45 1     
   44   20   46 1     
   45   20   47 1     
   46   21   22 2     
   47   23   25 1     
   48   23   24 1     
   49   23   48 1     
   50   24   25 1     
   51   24   49 1     
   52   24   50 1     
   53   25   51 1     
   54   25   52 1     
   55    5   53 1     
   56    5   54 1     
   57   13   55 1     
   58   13   56 1     
   59   22   57 1     
   60   22   58 1     
@<TRIPOS>SUBSTRUCTURE
      1 S1             1
@<TRIPOS>SET
LONE_PAIRS      STATIC     ATOMS    <user>   **** ""
6 53 54 55 56 57 58
DONOR_HYDROGENS      STATIC     ATOMS    <user>   **** ""
1 30
ATOM$BLUE        STATIC     ATOMS    COLORGROUP SYSTEM
6 53 54 55 56 57 58
ATOM$RED        STATIC     ATOMS    COLORGROUP SYSTEM
1 30
