AV-unprocessed.smi:2492|AV-procd|sdf|9813|dock1
  -GOLD-   2272013443D 1   1.00000     0.00000
 Structure written by MMmdl.
 33 34  0  0  0  0  0  0  0  0  1 V2000
  153.1600  143.6036  163.1408 C   0  0  0  0  0  0  0  0  0  0  0  0
  152.5436  142.5651  161.7893 S   0  0  0  0  0  0  0  0  0  0  0  0
  152.7835  143.6882  160.3821 C   0  0  2  0  0  0  0  0  0  0  0  0
  151.7443  144.8066  160.3207 C   0  0  0  0  0  0  0  0  0  0  0  0
  151.8023  145.2901  158.8715 C   0  0  0  0  0  0  0  0  0  0  0  0
  152.1893  144.0610  158.0288 C   0  0  2  0  0  0  0  0  0  0  0  0
  151.0571  143.6133  157.2221 N   0  0  0  0  0  0  0  0  0  0  0  0
  150.9619  142.4122  156.6336 C   0  0  0  0  0  0  0  0  0  0  0  0
  151.8345  141.5470  156.7118 O   0  0  0  0  0  0  0  0  0  0  0  0
  149.8036  142.2867  155.9641 N   0  0  0  0  0  0  0  0  0  0  0  0
  149.3501  141.1687  155.2194 C   0  0  0  0  0  0  0  0  0  0  0  0
  148.1187  140.9762  154.7460 N   0  0  0  0  0  0  0  0  0  0  0  0
  148.2645  139.7677  154.1362 C   0  0  0  0  0  0  0  0  0  0  0  0
  147.1492  139.0806  153.4253 C   0  0  0  0  0  0  0  0  0  0  0  0
  149.4750  139.2251  154.2021 N   0  0  0  0  0  0  0  0  0  0  0  0
  150.2135  140.1656  154.9357 O   0  0  0  0  0  0  0  0  0  0  0  0
  152.6393  142.9793  159.0325 C   0  0  0  0  0  0  0  0  0  0  0  0
  153.1140  143.0580  164.0831 H   0  0  0  0  0  0  0  0  0  0  0  0
  152.5580  144.5069  163.2380 H   0  0  0  0  0  0  0  0  0  0  0  0
  154.1955  143.8916  162.9589 H   0  0  0  0  0  0  0  0  0  0  0  0
  153.7810  144.1259  160.4443 H   0  0  0  0  0  0  0  0  0  0  0  0
  150.7516  144.4076  160.5340 H   0  0  0  0  0  0  0  0  0  0  0  0
  151.9430  145.6080  161.0327 H   0  0  0  0  0  0  0  0  0  0  0  0
  150.8670  145.7556  158.5579 H   0  0  0  0  0  0  0  0  0  0  0  0
  152.5820  146.0476  158.7783 H   0  0  0  0  0  0  0  0  0  0  0  0
  153.0179  144.3337  157.3722 H   0  0  0  0  0  0  0  0  0  0  0  0
  150.2932  144.2638  157.1089 H   0  0  0  0  0  0  0  0  0  0  0  0
  149.1761  143.0767  155.9895 H   0  0  0  0  0  0  0  0  0  0  0  0
  147.1714  138.0085  153.6239 H   0  0  0  0  0  0  0  0  0  0  0  0
  147.2365  139.2370  152.3500 H   0  0  0  0  0  0  0  0  0  0  0  0
  146.1856  139.4706  153.7544 H   0  0  0  0  0  0  0  0  0  0  0  0
  153.5670  142.4956  158.7251 H   0  0  0  0  0  0  0  0  0  0  0  0
  151.8821  142.1970  159.1107 H   0  0  0  0  0  0  0  0  0  0  0  0
  1  2  1  0  0  0  0
  1 18  1  0  0  0  0
  1 19  1  0  0  0  0
  1 20  1  0  0  0  0
  2  3  1  0  0  0  0
  3 17  1  0  0  0  0
  3  4  1  0  0  0  0
  3 21  1  0  0  0  0
  4  5  1  0  0  0  0
  4 22  1  0  0  0  0
  4 23  1  0  0  0  0
  5  6  1  0  0  0  0
  5 24  1  0  0  0  0
  5 25  1  0  0  0  0
  6  7  1  0  0  0  0
  6 17  1  0  0  0  0
  6 26  1  0  0  0  0
  7  8  1  0  0  0  0
  7 27  1  0  0  0  0
  8  9  2  0  0  0  0
  8 10  1  0  0  0  0
 10 11  1  0  0  0  0
 10 28  1  0  0  0  0
 11 16  1  0  0  0  0
 11 12  2  0  0  0  0
 12 13  1  0  0  0  0
 13 14  1  0  0  0  0
 13 15  2  0  0  0  0
 14 29  1  0  0  0  0
 14 30  1  0  0  0  0
 14 31  1  0  0  0  0
 15 16  1  0  0  0  0
 17 32  1  0  0  0  0
 17 33  1  0  0  0  0
M  END
> <s_m_source_file>
AV-unprocessed.smi

> <i_m_source_file_index>
2492

> <i_lp_mmshare_version>
43012

> <i_f3d_flags>
0

> <s_epik_input>
W0NIM11TW0NAQEhdMVtDSDJdW0NIMl1bQ0BIXShbQ0gyXTEpW05IXUMoPU8pW05IXWMybmMoW0NIM10pbm8y

> <s_epik_cmdline>
J2VwaWtfcHl0aG9uJywgJy1waCcsICc3LjAnLCAnLXRuJywgJzgnLCAnLW1hJywgJzIwMCcsICctbWV0YWxfYmluZGluZycsICctaW1hZScsICc8aW5maWxlLm1hZT4nLCAnLW9tYWUnLCAnPG91dGZpbGUubWFlPic=

> <r_lp_tautomer_probability>
1

> <r_epik_Ionization_Penalty>
3.56659e-05

> <r_epik_Ionization_Penalty_Charging>
0

> <r_epik_Ionization_Penalty_Neutral>
3.56659e-05

> <r_epik_State_Penalty>
-0

> <r_epik_Charging_Adjusted_Penalty>
0

> <i_epik_Tot_Q>
0

> <i_epik_Tot_abs_Q>
0

> <r_epik_Metal_State_Penalty>
0.0146047

> <b_epik_Metal_Only>
0

> <s_lp_Force_Field>
OPLS_2005

> <r_lp_Energy>
15.0837

> <b_lp_Chiralities_Consistent>
1

> <s_lp_Variant>
AV-unprocessed.smi:2492-3

> <Gold.Version>
5.8.1

> <Gold.Id.Protein>
6NUR|6NUR_protein|mol2

> <Gold.PLP.Fitness>
46.3945

> <Gold.PLP.PLP>
-38.7531

> <Gold.PLP.part.hbond>
-3.0000

> <Gold.PLP.part.metal>
0.0000

> <Gold.PLP.part.buried>
-2.0345

> <Gold.PLP.part.nonpolar>
-33.5796

> <Gold.PLP.part.repulsive>
1.2343

> <Gold.PLP.ligand.clash>
0.0000

> <Gold.PLP.ligand.torsion>
0.3253

> <Gold.PLP.Chemscore.Hbond>
2.7613

> <Gold.PLP.Chemscore.CHOScore>
0.0000

> <Gold.PLP.Chemscore.Metal>
0.0000

> <Gold.Chemscore.Hbonds>
donor molecule, donor type, donor heavy atom, donor atom, acceptor molecule, acceptor atom, score
      L1  H     7    27       P1  8028  0.75
      L1  H    10    28       P1  8028  0.99
      P1  H  7989  7998       L1    16  0.73

> <Gold.PLP.Chemscore.Internal.Correction>
0.0082

> <Gold.Rescore>
     Score         DG    S(hbond)    S(metal)    S(lipo)     H(rot)  DE(clash)    DE(int)     intcor
     16.29     -21.05       2.43        0.00      91.78       1.28       1.85       2.91       ----

> <Gold.Chemscore.Fitness>
16.2933

> <Gold.Chemscore.DG>
-21.0521

> <Gold.Chemscore.ZeroCoef>
-5.4800

> <Gold.Chemscore.Hbond>
2.4296

> <Gold.Chemscore.Metal>
0.0000

> <Gold.Chemscore.Lipo>
91.7779

> <Gold.Chemscore.Internal_Hbond>
0.0000

> <Gold.Chemscore.DEClash>
1.8503

> <Gold.Chemscore.DEInternal>
2.9085

> <Gold.Chemscore.Rot>
1.2815

> <Gold.Chemscore.Internal.Correction>
   9.000000E+99

> <Gold.Chemscore.Hbonds>
donor molecule, donor type, donor heavy atom, donor atom, acceptor molecule, acceptor atom, score
      L1  H     7    27       P1  8028  0.59
      L1  H    10    28       P1  8028  0.93
      P1  H  7989  7998       L1    16  0.19

> <Gold.Chemscore.Hbond.Weighted>
-8.1148

> <Gold.Chemscore.Metal.Weighted>
-0.0000

> <Gold.Chemscore.Lipo.Weighted>
-10.7380

> <Gold.Chemscore.Internal_Hbond.Weighted>
0.0000

> <Gold.Chemscore.DEClash.Weighted>
1.8503

> <Gold.Chemscore.DEInternal.Weighted>
2.9085

> <Gold.Chemscore.Rot.Weighted>
3.2808

> <Gold.Chemscore.Internal.Correction.Weighted>
   9.000000E+99

> <Gold.Protein.RotatedTorsions>
[ 6907 6896 6895 6894 ] final    3.08 input  -60.11 | X-H torsion
[ 7974 7965 7964 7962 ] final  132.18 input  175.53 | X-H torsion
[ 8008 7997 7996 7995 ] final -100.18 input   59.86 | X-H torsion
[ 10167 10162 10161 10158 ] final  166.14 input  -65.29 | X-H torsion
[ 10718 10713 10712 10709 ] final   86.96 input   66.30 | X-H torsion
[ 10763 10752 10751 10750 ] final  -87.45 input  -60.55 | X-H torsion
[ 11005 11000 10999 10996 ] final -169.45 input  -57.11 | X-H torsion

> <Gold.Protein.ActiveResidues>
 VAL166  LYS551  ARG553  GLY616  TRP617  ASP618  TYR619  PRO620  LYS621  CYS622 
 ASP623  PHE694  ASN695  SER759  ASP760  ASP761  ALA762  ILE779  LEU786  VAL792 
 PHE793  MET794  SER795  GLU796  ALA797  LYS798  CYS799  TRP800  GLU811  SER814 

> <Gold.Protein.RotatedAtoms>
  151.6193  135.1033  160.0097 H   0  0  0  0  0  0  0  0  0  0  0  0  # atno 6907 bound_to 6896
  152.4166  133.7044  159.6453 H   0  0  0  0  0  0  0  0  0  0  0  0  # atno 6908 bound_to 6896
  150.8054  133.8445  159.3229 H   0  0  0  0  0  0  0  0  0  0  0  0  # atno 6909 bound_to 6896
  144.9995  139.4326  143.5299 H   0  0  0  0  0  0  0  0  0  0  0  0  # atno 7974 bound_to 7965
  154.8250  140.0442  157.1437 H   0  0  0  0  0  0  0  0  0  0  0  0  # atno 8008 bound_to 7997
  154.9217  140.3027  155.5193 H   0  0  0  0  0  0  0  0  0  0  0  0  # atno 8009 bound_to 7997
  156.2983  140.2339  156.4267 H   0  0  0  0  0  0  0  0  0  0  0  0  # atno 8010 bound_to 7997
  139.4919  144.4059  151.9356 H   0  0  0  0  0  0  0  0  0  0  0  0  # atno 10167 bound_to 10162
  157.6935  131.0236  150.3052 H   0  0  0  0  0  0  0  0  0  0  0  0  # atno 10718 bound_to 10713
  154.6338  135.5412  153.7710 H   0  0  0  0  0  0  0  0  0  0  0  0  # atno 10763 bound_to 10752
  153.0298  135.6442  154.1262 H   0  0  0  0  0  0  0  0  0  0  0  0  # atno 10764 bound_to 10752
  154.1190  135.2921  155.3193 H   0  0  0  0  0  0  0  0  0  0  0  0  # atno 10765 bound_to 10752
  140.5306  134.5620  157.5073 H   0  0  0  0  0  0  0  0  0  0  0  0  # atno 11005 bound_to 11000
  146.3449  139.9375  142.8745 LP  0  0  0  0  0  0  0  0  0  0  0  0  # atno 17320 bound_to 7965
  145.2173  140.9920  143.4066 LP  0  0  0  0  0  0  0  0  0  0  0  0  # atno 17321 bound_to 7965
  140.3499  144.3101  150.5951 LP  0  0  0  0  0  0  0  0  0  0  0  0  # atno 17342 bound_to 10162
  140.5494  143.2209  151.7953 LP  0  0  0  0  0  0  0  0  0  0  0  0  # atno 17343 bound_to 10162
  156.3561  130.3839  149.7289 LP  0  0  0  0  0  0  0  0  0  0  0  0  # atno 17370 bound_to 10713
  156.4750  130.8014  151.3031 LP  0  0  0  0  0  0  0  0  0  0  0  0  # atno 17371 bound_to 10713
  139.9556  134.7540  156.0349 LP  0  0  0  0  0  0  0  0  0  0  0  0  # atno 17394 bound_to 11000
  141.1284  133.6593  156.3397 LP  0  0  0  0  0  0  0  0  0  0  0  0  # atno 17395 bound_to 11000

$$$$
