#       Name:                AV-unprocessed.smi:1962
#       Creating user name   scv26
#       Creation time:       Fri Mar 27 10:09:16 2020


#       File generated by GOLD software.
#

@<TRIPOS>MOLECULE
AV-unprocessed.smi:1962
    42    43     1
SMALL
NO_CHARGES


@<TRIPOS>ATOM
      1 ****        -2.9884  -1.1946   2.0099 C.3            1 S1                 0.0000
      2 ****        -2.4542  -0.3933   0.8146 C.3            1 S1                 0.0000
      3 ****        -2.8919  -1.0340  -0.5293 C.3            1 S1                 0.0000
      4 ****        -2.5584  -0.2457  -1.7135 N.pl3          1 S1                 0.0000
      5 ****        -3.1560   0.9097  -2.1818 C.2            1 S1                 0.0000
      6 ****        -2.5086   1.2720  -3.3281 C.2            1 S1                 0.0000
      7 ****        -1.5243   0.2586  -3.4937 C.2            1 S1                 0.0000
      8 ****        -1.5644  -0.6539  -2.5373 N.2            1 S1                 0.0000
      9 ****        -0.9901  -0.3441   0.9026 N.pl3          1 S1                -1.0000
     10 ****        -0.2111   0.7354   0.5866 C.2            1 S1                 0.0000
     11 ****        -0.6171   1.8483   0.2301 O.2            1 S1                 0.0000
     12 ****         1.2735   0.5912   0.6488 C.2            1 S1                 0.0000
     13 ****         1.7953  -0.5717   0.8875 N.2            1 S1                 0.0000
     14 ****         3.1593  -0.7728   0.9291 N.am           1 S1                 0.0000
     15 ****         3.5713  -2.1748   0.9252 C.3            1 S1                 0.0000
     16 ****         4.0827   0.2178   0.9904 C.2            1 S1                 0.0000
     17 ****         5.2981   0.0214   1.0071 O.2            1 S1                 0.0000
     18 ****         3.5433   1.6480   1.0724 C.3            1 S1                 0.0000
     19 ****         2.1674   1.7917   0.3923 C.3            1 S1                 0.0000
     20 ****        -4.0773  -1.2422   1.9928 H              1 S1                 0.0000
     21 ****        -2.6959  -0.7354   2.9549 H              1 S1                 0.0000
     22 ****        -2.6116  -2.2182   2.0054 H              1 S1                 0.0000
     23 ****        -2.8996   0.6011   0.8756 H              1 S1                 0.0000
     24 ****        -2.4589  -2.0308  -0.6320 H              1 S1                 0.0000
     25 ****        -3.9733  -1.1738  -0.5296 H              1 S1                 0.0000
     26 ****        -3.9782   1.3755  -1.6588 H              1 S1                 0.0000
     27 ****        -2.7083   2.1297  -3.9526 H              1 S1                 0.0000
     28 ****        -0.7898   0.1563  -4.2788 H              1 S1                 0.0000
     29 ****         4.1757  -2.4028   1.8045 H              1 S1                 0.0000
     30 ****         4.1626  -2.3960   0.0354 H              1 S1                 0.0000
     31 ****         2.7155  -2.8524   0.9295 H              1 S1                 0.0000
     32 ****         3.4583   1.9055   2.1288 H              1 S1                 0.0000
     33 ****         4.2579   2.3458   0.6347 H              1 S1                 0.0000
     34 ****         2.2945   1.9207  -0.6832 H              1 S1                 0.0000
     35 ****         1.7028   2.7072   0.7601 H              1 S1                 0.0000
     36 ****        -0.9881  -1.4657  -2.4433 LP             1 S1                 0.0000
     37 ****        -0.5225  -1.1690   1.2203 LP             1 S1                 0.0000
     38 ****        -1.5990   2.0208   0.1515 LP             1 S1                 0.0000
     39 ****         0.0366   2.5755   0.0205 LP             1 S1                 0.0000
     40 ****         1.1877  -1.3497   1.0470 LP             1 S1                 0.0000
     41 ****         5.6541  -0.9125   0.9746 LP             1 S1                 0.0000
     42 ****         5.9291   0.7958   1.0532 LP             1 S1                 0.0000
@<TRIPOS>BOND
    1    1    2 1     
    2    1   20 1     
    3    1   21 1     
    4    1   22 1     
    5    2    3 1     
    6    2    9 1     
    7    2   23 1     
    8    3    4 1     
    9    3   24 1     
   10    3   25 1     
   11    4    8 1     
   12    4    5 1     
   13    5    6 2     
   14    5   26 1     
   15    6    7 1     
   16    6   27 1     
   17    7    8 2     
   18    7   28 1     
   19    9   10 1     
   20   10   11 2     
   21   10   12 1     
   22   12   19 1     
   23   12   13 2     
   24   13   14 1     
   25   14   15 1     
   26   14   16 am    
   27   15   29 1     
   28   15   30 1     
   29   15   31 1     
   30   16   17 2     
   31   16   18 1     
   32   18   19 1     
   33   18   32 1     
   34   18   33 1     
   35   19   34 1     
   36   19   35 1     
   37    8   36 1     
   38    9   37 1     
   39   11   38 1     
   40   11   39 1     
   41   13   40 1     
   42   17   41 1     
   43   17   42 1     
@<TRIPOS>SUBSTRUCTURE
      1 S1             1
@<TRIPOS>SET
LONE_PAIRS      STATIC     ATOMS    <user>   **** ""
7 36 37 38 39 40 41 42
ATOM$BLUE        STATIC     ATOMS    COLORGROUP SYSTEM
7 36 37 38 39 40 41 42
