AV-unprocessed.smi:107|AV-procd|sdf|1027|dock8
  -GOLD-   2262018 33D 1   1.00000     0.00000
 Structure written by MMmdl.
 30 31  0  0  0  0  0  0  0  0  2 V2000
  152.2698  144.0809  161.6571 C   0  0  0  0  0  0  0  0  0  0  0  0
  152.6436  142.8319  160.8781 C   0  0  0  0  0  0  0  0  0  0  0  0
  152.1162  142.5535  159.6650 C   0  0  0  0  0  0  0  0  0  0  0  0
  152.4628  141.4150  158.9591 N   0  0  0  0  0  0  0  0  0  0  0  0
  151.8739  141.1455  157.5953 C   0  0  2  0  0  0  0  0  0  0  0  0
  151.0220  142.3177  157.1253 C   0  0  0  0  0  0  0  0  0  0  0  0
  149.9887  141.6281  156.2423 C   0  0  2  0  0  0  0  0  0  0  0  0
  148.6992  142.1471  156.5108 O   0  0  0  0  0  0  0  0  0  0  0  0
  150.1487  140.1166  156.5406 C   0  0  2  0  0  0  0  0  0  0  0  0
  148.8522  139.3393  156.8374 C   0  0  0  0  0  0  0  0  0  0  0  0
  148.2652  139.8107  158.0319 O   0  0  0  0  0  0  0  0  0  0  0  0
  151.0064  140.0643  157.6745 O   0  0  0  0  0  0  0  0  0  0  0  0
  153.4236  140.5198  159.4957 C   0  0  0  0  0  0  0  0  0  0  0  0
  153.7433  139.5398  158.8221 O   0  0  0  0  0  0  0  0  0  0  0  0
  153.9538  140.7870  160.7235 N   0  5  0  0  0  0  0  0  0  0  0  0
  153.6152  141.8912  161.4498 C   0  0  0  0  0  0  0  0  0  0  0  0
  154.1001  142.1187  162.5579 O   0  0  0  0  0  0  0  0  0  0  0  0
  151.5440  144.6855  161.1126 H   0  0  0  0  0  0  0  0  0  0  0  0
  153.1529  144.6943  161.8384 H   0  0  0  0  0  0  0  0  0  0  0  0
  151.8321  143.8131  162.6192 H   0  0  0  0  0  0  0  0  0  0  0  0
  151.4094  143.2473  159.2344 H   0  0  0  0  0  0  0  0  0  0  0  0
  152.6953  140.8938  156.9217 H   0  0  0  0  0  0  0  0  0  0  0  0
  150.5529  142.7887  157.9913 H   0  0  0  0  0  0  0  0  0  0  0  0
  151.6291  143.0577  156.6031 H   0  0  0  0  0  0  0  0  0  0  0  0
  150.2131  141.8132  155.1912 H   0  0  0  0  0  0  0  0  0  0  0  0
  148.6394  143.0116  156.1342 H   0  0  0  0  0  0  0  0  0  0  0  0
  150.6719  139.6615  155.6975 H   0  0  0  0  0  0  0  0  0  0  0  0
  148.1459  139.4167  156.0101 H   0  0  0  0  0  0  0  0  0  0  0  0
  149.0661  138.2811  156.9893 H   0  0  0  0  0  0  0  0  0  0  0  0
  148.8101  140.4979  158.3834 H   0  0  0  0  0  0  0  0  0  0  0  0
  1  2  1  0  0  0  0
  1 18  1  0  0  0  0
  1 19  1  0  0  0  0
  1 20  1  0  0  0  0
  2 16  1  0  0  0  0
  2  3  2  0  0  0  0
  3  4  1  0  0  0  0
  3 21  1  0  0  0  0
  4  5  1  0  0  0  0
  4 13  1  0  0  0  0
  5 12  1  0  0  0  0
  5  6  1  0  0  0  0
  5 22  1  0  0  0  0
  6  7  1  0  0  0  0
  6 23  1  0  0  0  0
  6 24  1  0  0  0  0
  7  8  1  0  0  0  0
  7  9  1  0  0  0  0
  7 25  1  0  0  0  0
  8 26  1  0  0  0  0
  9 10  1  0  0  0  0
  9 12  1  0  0  0  0
  9 27  1  0  0  0  0
 10 11  1  0  0  0  0
 10 28  1  0  0  0  0
 10 29  1  0  0  0  0
 11 30  1  0  0  0  0
 13 14  2  0  0  0  0
 13 15  1  0  0  0  0
 15 16  1  0  0  0  0
 16 17  2  0  0  0  0
M  CHG  1  15  -1
M  END
> <s_m_source_file>
AV-unprocessed.smi

> <i_m_source_file_index>
107

> <i_lp_mmshare_version>
43012

> <i_f3d_flags>
0

> <s_epik_input>
Tz1jMVtuSF1jKD1PKW4oW2NIXWMxW0NIM10pW0NAQEhdMltDSDJdW0NAQEhdKFtPSF0pW0NASF0oTzIpW0NIMl1bT0hd

> <s_epik_cmdline>
J2VwaWtfcHl0aG9uJywgJy1waCcsICc3LjAnLCAnLXRuJywgJzgnLCAnLW1hJywgJzIwMCcsICctbWV0YWxfYmluZGluZycsICctaW1hZScsICc8aW5maWxlLm1hZT4nLCAnLW9tYWUnLCAnPG91dGZpbGUubWFlPic=

> <r_lp_tautomer_probability>
0.999537

> <r_epik_Ionization_Penalty>
3.66603

> <r_epik_Ionization_Penalty_Charging>
1.09773e-07

> <r_epik_Ionization_Penalty_Neutral>
3.66603

> <r_epik_State_Penalty>
3.66562

> <r_epik_Charging_Adjusted_Penalty>
3.66562

> <i_epik_Tot_Q>
-1

> <i_epik_Tot_abs_Q>
1

> <r_epik_Metal_State_Penalty>
0.234536

> <b_epik_Metal_Only>
1

> <s_epik_Chemistry_Notes>
This compound contains an acetal/aminal-like group ( X-CH(R)-Y where X, Y are N, S, or O) that may be acid/base labile, releasing an aldehyde.

> <s_lp_Force_Field>
OPLS_2005

> <r_lp_Energy>
40.7454

> <b_lp_Chiralities_Consistent>
1

> <s_lp_Variant>
AV-unprocessed.smi:107-15

> <Gold.Version>
5.8.1

> <Gold.Id.Protein>
6NUR|6NUR_protein|mol2

> <Gold.PLP.Fitness>
37.9454

> <Gold.PLP.PLP>
-32.2635

> <Gold.PLP.part.hbond>
-3.6686

> <Gold.PLP.part.metal>
0.0000

> <Gold.PLP.part.buried>
-4.0820

> <Gold.PLP.part.nonpolar>
-23.5092

> <Gold.PLP.part.repulsive>
0.0222

> <Gold.PLP.ligand.clash>
0.0000

> <Gold.PLP.ligand.torsion>
0.1711

> <Gold.PLP.Chemscore.Hbond>
2.0000

> <Gold.PLP.Chemscore.CHOScore>
0.0000

> <Gold.PLP.Chemscore.Metal>
0.0000

> <Gold.Chemscore.Hbonds>
donor molecule, donor type, donor heavy atom, donor atom, acceptor molecule, acceptor atom, score
      L1  H     8    26       P1  8028  1.00
      P1  H  7997  8009       L1    14  1.00

> <Gold.PLP.Chemscore.Internal.Correction>
0.0242

> <Gold.Rescore>
     Score         DG    S(hbond)    S(metal)    S(lipo)     H(rot)  DE(clash)    DE(int)     intcor
     11.38     -11.90       1.99        0.00      56.81       2.69       0.18       0.34       ----

> <Gold.Chemscore.Fitness>
11.3805

> <Gold.Chemscore.DG>
-11.8970

> <Gold.Chemscore.ZeroCoef>
-5.4800

> <Gold.Chemscore.Hbond>
1.9907

> <Gold.Chemscore.Metal>
0.0000

> <Gold.Chemscore.Lipo>
56.8137

> <Gold.Chemscore.Internal_Hbond>
0.0000

> <Gold.Chemscore.DEClash>
0.1766

> <Gold.Chemscore.DEInternal>
0.3399

> <Gold.Chemscore.Rot>
2.6871

> <Gold.Chemscore.Internal.Correction>
   9.000000E+99

> <Gold.Chemscore.Hbonds>
donor molecule, donor type, donor heavy atom, donor atom, acceptor molecule, acceptor atom, score
      L1  H     8    26       P1  8028  0.98
      P1  H  7997  8009       L1    14  0.83

> <Gold.Chemscore.Hbond.Weighted>
-6.6489

> <Gold.Chemscore.Metal.Weighted>
-0.0000

> <Gold.Chemscore.Lipo.Weighted>
-6.6472

> <Gold.Chemscore.Internal_Hbond.Weighted>
0.0000

> <Gold.Chemscore.DEClash.Weighted>
0.1766

> <Gold.Chemscore.DEInternal.Weighted>
0.3399

> <Gold.Chemscore.Rot.Weighted>
6.8791

> <Gold.Chemscore.Internal.Correction.Weighted>
   9.000000E+99

> <Gold.Protein.RotatedTorsions>
[ 6907 6896 6895 6894 ] final  -19.27 input  -60.11 | X-H torsion
[ 7974 7965 7964 7962 ] final  -71.54 input  175.53 | X-H torsion
[ 8008 7997 7996 7995 ] final  141.82 input   59.86 | X-H torsion
[ 10167 10162 10161 10158 ] final   99.64 input  -65.29 | X-H torsion
[ 10718 10713 10712 10709 ] final  108.31 input   66.30 | X-H torsion
[ 10763 10752 10751 10750 ] final  -10.89 input  -60.55 | X-H torsion
[ 11005 11000 10999 10996 ] final -123.11 input  -57.11 | X-H torsion

> <Gold.Protein.ActiveResidues>
 VAL166  LYS551  ARG553  GLY616  TRP617  ASP618  TYR619  PRO620  LYS621  CYS622 
 ASP623  PHE694  ASN695  SER759  ASP760  ASP761  ALA762  ILE779  LEU786  VAL792 
 PHE793  MET794  SER795  GLU796  ALA797  LYS798  CYS799  TRP800  GLU811  SER814 

> <Gold.Protein.RotatedAtoms>
  151.2657  135.0668  159.9114 H   0  0  0  0  0  0  0  0  0  0  0  0  # atno 6907 bound_to 6896
  152.5359  134.0184  159.7980 H   0  0  0  0  0  0  0  0  0  0  0  0  # atno 6908 bound_to 6896
  151.0414  133.5653  159.2682 H   0  0  0  0  0  0  0  0  0  0  0  0  # atno 6909 bound_to 6896
  145.6767  140.9202  143.0854 H   0  0  0  0  0  0  0  0  0  0  0  0  # atno 7974 bound_to 7965
  156.2959  140.2305  156.4628 H   0  0  0  0  0  0  0  0  0  0  0  0  # atno 8008 bound_to 7997
  154.8004  140.0449  157.1289 H   0  0  0  0  0  0  0  0  0  0  0  0  # atno 8009 bound_to 7997
  154.9541  140.3046  155.5065 H   0  0  0  0  0  0  0  0  0  0  0  0  # atno 8010 bound_to 7997
  139.7599  144.6957  151.0307 H   0  0  0  0  0  0  0  0  0  0  0  0  # atno 10167 bound_to 10162
  157.6592  131.0891  150.6286 H   0  0  0  0  0  0  0  0  0  0  0  0  # atno 10718 bound_to 10713
  153.4758  135.7017  153.5966 H   0  0  0  0  0  0  0  0  0  0  0  0  # atno 10763 bound_to 10752
  153.4201  135.3827  155.2106 H   0  0  0  0  0  0  0  0  0  0  0  0  # atno 10764 bound_to 10752
  154.8723  135.3925  154.4202 H   0  0  0  0  0  0  0  0  0  0  0  0  # atno 10765 bound_to 10752
  140.9944  134.0493  157.3616 H   0  0  0  0  0  0  0  0  0  0  0  0  # atno 11005 bound_to 11000
  144.7039  139.8643  143.7436 LP  0  0  0  0  0  0  0  0  0  0  0  0  # atno 17320 bound_to 7965
  146.0999  139.3994  143.0353 LP  0  0  0  0  0  0  0  0  0  0  0  0  # atno 17321 bound_to 7965
  140.7806  143.4709  151.0147 LP  0  0  0  0  0  0  0  0  0  0  0  0  # atno 17342 bound_to 10162
  139.8395  143.7582  152.3180 LP  0  0  0  0  0  0  0  0  0  0  0  0  # atno 17343 bound_to 10162
  156.6590  130.4506  149.5694 LP  0  0  0  0  0  0  0  0  0  0  0  0  # atno 17370 bound_to 10713
  156.2081  130.6662  151.1240 LP  0  0  0  0  0  0  0  0  0  0  0  0  # atno 17371 bound_to 10713
  139.9007  135.0163  156.7255 LP  0  0  0  0  0  0  0  0  0  0  0  0  # atno 17394 bound_to 11000
  140.6990  133.9323  155.8012 LP  0  0  0  0  0  0  0  0  0  0  0  0  # atno 17395 bound_to 11000

$$$$
