AV-unprocessed.smi:450|AV-procd|sdf|2607|dock8
  -GOLD-   2262023 03D 1   1.00000     0.00000
 Structure written by MMmdl.
 32 32  0  0  0  0  0  0  0  0  1 V2000
  152.7755  142.6820  161.8095 C   0  0  0  0  0  0  0  0  0  0  0  0
  152.5983  142.5967  160.2865 C   0  0  0  0  0  0  0  0  0  0  0  0
  152.0776  143.8978  159.6455 C   0  0  2  0  0  0  0  0  0  0  0  0
  150.8186  144.4159  160.3548 C   0  0  0  0  0  0  0  0  0  0  0  0
  151.7800  143.6886  158.2294 N   0  0  0  0  0  0  0  0  0  0  0  0
  151.2282  142.5894  157.6923 C   0  0  0  0  0  0  0  0  0  0  0  0
  150.9048  141.6003  158.3519 O   0  0  0  0  0  0  0  0  0  0  0  0
  151.0106  142.6342  156.1750 C   0  0  0  0  0  0  0  0  0  0  0  0
  150.4089  141.4082  155.6523 N   0  0  0  0  0  0  0  0  0  0  0  0
  149.2475  141.2711  154.9809 C   0  0  0  0  0  0  0  0  0  0  0  0
  148.4504  142.3708  154.6994 N   0  0  0  0  0  0  0  0  0  0  0  0
  148.9561  140.0199  154.6358 N   0  0  0  0  0  0  0  0  0  0  0  0
  150.0110  139.2536  155.1276 C   0  0  0  0  0  0  0  0  0  0  0  0
  150.0576  137.8404  154.9590 C   0  0  0  0  0  0  0  0  0  0  0  0
  150.0983  136.6923  154.8228 N   0  0  0  0  0  0  0  0  0  0  0  0
  150.8960  140.1069  155.7509 C   0  0  0  0  0  0  0  0  0  0  0  0
  152.0981  139.7438  156.3944 C   0  0  0  0  0  0  0  0  0  0  0  0
  153.0831  139.4448  156.9220 N   0  0  0  0  0  0  0  0  0  0  0  0
  153.0856  141.7197  162.2167 H   0  0  0  0  0  0  0  0  0  0  0  0
  151.8429  142.9645  162.2987 H   0  0  0  0  0  0  0  0  0  0  0  0
  153.5345  143.4143  162.0855 H   0  0  0  0  0  0  0  0  0  0  0  0
  153.5469  142.3123  159.8294 H   0  0  0  0  0  0  0  0  0  0  0  0
  151.9016  141.7876  160.0646 H   0  0  0  0  0  0  0  0  0  0  0  0
  152.8504  144.6596  159.7605 H   0  0  0  0  0  0  0  0  0  0  0  0
  151.0137  144.6063  161.4104 H   0  0  0  0  0  0  0  0  0  0  0  0
  150.0014  143.6966  160.2919 H   0  0  0  0  0  0  0  0  0  0  0  0
  150.4746  145.3508  159.9109 H   0  0  0  0  0  0  0  0  0  0  0  0
  152.0101  144.4489  157.6059 H   0  0  0  0  0  0  0  0  0  0  0  0
  150.3730  143.4827  155.9240 H   0  0  0  0  0  0  0  0  0  0  0  0
  151.9645  142.8084  155.6763 H   0  0  0  0  0  0  0  0  0  0  0  0
  148.7186  143.3003  154.9893 H   0  0  0  0  0  0  0  0  0  0  0  0
  147.6014  142.2857  154.1598 H   0  0  0  0  0  0  0  0  0  0  0  0
  1  2  1  0  0  0  0
  1 19  1  0  0  0  0
  1 20  1  0  0  0  0
  1 21  1  0  0  0  0
  2  3  1  0  0  0  0
  2 22  1  0  0  0  0
  2 23  1  0  0  0  0
  3  4  1  0  0  0  0
  3  5  1  0  0  0  0
  3 24  1  0  0  0  0
  4 25  1  0  0  0  0
  4 26  1  0  0  0  0
  4 27  1  0  0  0  0
  5  6  1  0  0  0  0
  5 28  1  0  0  0  0
  6  7  2  0  0  0  0
  6  8  1  0  0  0  0
  8  9  1  0  0  0  0
  8 29  1  0  0  0  0
  8 30  1  0  0  0  0
  9 16  1  0  0  0  0
  9 10  1  0  0  0  0
 10 11  1  0  0  0  0
 10 12  2  0  0  0  0
 11 31  1  0  0  0  0
 11 32  1  0  0  0  0
 12 13  1  0  0  0  0
 13 14  1  0  0  0  0
 13 16  2  0  0  0  0
 14 15  3  0  0  0  0
 16 17  1  0  0  0  0
 17 18  3  0  0  0  0
M  END
> <s_m_source_file>
AV-unprocessed.smi

> <i_m_source_file_index>
450

> <i_lp_mmshare_version>
43012

> <i_f3d_flags>
0

> <s_epik_input>
W0NIM11bQ0gyXVtDQEhdKFtDSDNdKVtOSF1DKD1PKVtDSDJdbjFjKFtOSDJdKW5jKEMjTiljMUMjTg==

> <s_epik_cmdline>
J2VwaWtfcHl0aG9uJywgJy1waCcsICc3LjAnLCAnLXRuJywgJzgnLCAnLW1hJywgJzIwMCcsICctbWV0YWxfYmluZGluZycsICctaW1hZScsICc8aW5maWxlLm1hZT4nLCAnLW9tYWUnLCAnPG91dGZpbGUubWFlPic=

> <r_epik_Ionization_Penalty>
0.000482749

> <r_epik_Ionization_Penalty_Charging>
7.71074e-10

> <r_epik_Ionization_Penalty_Neutral>
0.000482748

> <r_epik_State_Penalty>
0.000433536

> <r_epik_Charging_Adjusted_Penalty>
0.000433537

> <i_epik_Tot_Q>
0

> <i_epik_Tot_abs_Q>
0

> <r_epik_Metal_State_Penalty>
-0

> <b_epik_Metal_Only>
0

> <s_lp_Force_Field>
OPLS_2005

> <r_lp_Energy>
6.35239

> <b_lp_Chiralities_Consistent>
1

> <s_lp_Variant>
AV-unprocessed.smi:450-1

> <Gold.Version>
5.8.1

> <Gold.Id.Protein>
6NUR|6NUR_protein|mol2

> <Gold.PLP.Fitness>
39.7108

> <Gold.PLP.PLP>
-34.4436

> <Gold.PLP.part.hbond>
-1.7470

> <Gold.PLP.part.metal>
0.0000

> <Gold.PLP.part.buried>
-4.3768

> <Gold.PLP.part.nonpolar>
-28.3455

> <Gold.PLP.part.repulsive>
0.6371

> <Gold.PLP.ligand.clash>
0.0000

> <Gold.PLP.ligand.torsion>
0.3612

> <Gold.PLP.Chemscore.Hbond>
1.9920

> <Gold.PLP.Chemscore.CHOScore>
0.0000

> <Gold.PLP.Chemscore.Metal>
0.0000

> <Gold.Chemscore.Hbonds>
donor molecule, donor type, donor heavy atom, donor atom, acceptor molecule, acceptor atom, score
      L1  H    11    31       P1  8028  1.00
      P1  H  7997  8010       L1    18  0.96

> <Gold.PLP.Chemscore.Internal.Correction>
0.0137

> <Gold.Rescore>
     Score         DG    S(hbond)    S(metal)    S(lipo)     H(rot)  DE(clash)    DE(int)     intcor
     11.57     -13.85       1.96        0.00      63.99       2.21       0.40       1.88       ----

> <Gold.Chemscore.Fitness>
11.5699

> <Gold.Chemscore.DG>
-13.8503

> <Gold.Chemscore.ZeroCoef>
-5.4800

> <Gold.Chemscore.Hbond>
1.9600

> <Gold.Chemscore.Metal>
0.0000

> <Gold.Chemscore.Lipo>
63.9889

> <Gold.Chemscore.Internal_Hbond>
0.0000

> <Gold.Chemscore.DEClash>
0.3973

> <Gold.Chemscore.DEInternal>
1.8831

> <Gold.Chemscore.Rot>
2.2121

> <Gold.Chemscore.Internal.Correction>
   9.000000E+99

> <Gold.Chemscore.Hbonds>
donor molecule, donor type, donor heavy atom, donor atom, acceptor molecule, acceptor atom, score
      L1  H    11    31       P1  8028  0.96
      P1  H  7997  8010       L1    18  0.76

> <Gold.Chemscore.Hbond.Weighted>
-6.5464

> <Gold.Chemscore.Metal.Weighted>
-0.0000

> <Gold.Chemscore.Lipo.Weighted>
-7.4867

> <Gold.Chemscore.Internal_Hbond.Weighted>
0.0000

> <Gold.Chemscore.DEClash.Weighted>
0.3973

> <Gold.Chemscore.DEInternal.Weighted>
1.8831

> <Gold.Chemscore.Rot.Weighted>
5.6629

> <Gold.Chemscore.Internal.Correction.Weighted>
   9.000000E+99

> <Gold.Protein.RotatedTorsions>
[ 6907 6896 6895 6894 ] final -146.87 input  -60.11 | X-H torsion
[ 7974 7965 7964 7962 ] final   57.08 input  175.53 | X-H torsion
[ 8008 7997 7996 7995 ] final   81.22 input   59.86 | X-H torsion
[ 10167 10162 10161 10158 ] final  -29.15 input  -65.29 | X-H torsion
[ 10718 10713 10712 10709 ] final   63.11 input   66.30 | X-H torsion
[ 10763 10752 10751 10750 ] final   14.53 input  -60.55 | X-H torsion
[ 11005 11000 10999 10996 ] final  -81.61 input  -57.11 | X-H torsion

> <Gold.Protein.ActiveResidues>
 VAL166  LYS551  ARG553  GLY616  TRP617  ASP618  TYR619  PRO620  LYS621  CYS622 
 ASP623  PHE694  ASN695  SER759  ASP760  ASP761  ALA762  ILE779  LEU786  VAL792 
 PHE793  MET794  SER795  GLU796  ALA797  LYS798  CYS799  TRP800  GLU811  SER814 

> <Gold.Protein.RotatedAtoms>
  151.1477  133.4928  159.2595 H   0  0  0  0  0  0  0  0  0  0  0  0  # atno 6907 bound_to 6896
  151.1587  135.0262  159.8711 H   0  0  0  0  0  0  0  0  0  0  0  0  # atno 6908 bound_to 6896
  152.5463  134.1353  159.8509 H   0  0  0  0  0  0  0  0  0  0  0  0  # atno 6909 bound_to 6896
  145.9329  139.3823  143.0410 H   0  0  0  0  0  0  0  0  0  0  0  0  # atno 7974 bound_to 7965
  155.8942  140.3437  155.5979 H   0  0  0  0  0  0  0  0  0  0  0  0  # atno 8008 bound_to 7997
  155.7575  140.0828  157.2190 H   0  0  0  0  0  0  0  0  0  0  0  0  # atno 8009 bound_to 7997
  154.4036  140.1542  156.2782 H   0  0  0  0  0  0  0  0  0  0  0  0  # atno 8010 bound_to 7997
  140.7263  143.3951  151.1361 H   0  0  0  0  0  0  0  0  0  0  0  0  # atno 10167 bound_to 10162
  157.5949  130.9087  149.9674 H   0  0  0  0  0  0  0  0  0  0  0  0  # atno 10718 bound_to 10713
  153.1613  135.6796  153.8738 H   0  0  0  0  0  0  0  0  0  0  0  0  # atno 10763 bound_to 10752
  153.8133  135.3140  155.3404 H   0  0  0  0  0  0  0  0  0  0  0  0  # atno 10764 bound_to 10752
  154.7934  135.4821  154.0195 H   0  0  0  0  0  0  0  0  0  0  0  0  # atno 10765 bound_to 10752
  141.1666  133.7205  156.8448 H   0  0  0  0  0  0  0  0  0  0  0  0  # atno 11005 bound_to 11000
  145.8402  140.9585  143.0803 LP  0  0  0  0  0  0  0  0  0  0  0  0  # atno 17320 bound_to 7965
  144.6767  140.0274  143.7483 LP  0  0  0  0  0  0  0  0  0  0  0  0  # atno 17321 bound_to 7965
  139.7563  143.8703  152.3089 LP  0  0  0  0  0  0  0  0  0  0  0  0  # atno 17342 bound_to 10162
  139.8573  144.7134  150.9141 LP  0  0  0  0  0  0  0  0  0  0  0  0  # atno 17343 bound_to 10162
  156.1009  130.3656  150.0219 LP  0  0  0  0  0  0  0  0  0  0  0  0  # atno 17370 bound_to 10713
  156.8335  130.9400  151.3636 LP  0  0  0  0  0  0  0  0  0  0  0  0  # atno 17371 bound_to 10713
  140.1957  134.8933  157.3112 LP  0  0  0  0  0  0  0  0  0  0  0  0  # atno 17394 bound_to 11000
  140.2241  134.3987  155.7552 LP  0  0  0  0  0  0  0  0  0  0  0  0  # atno 17395 bound_to 11000

$$$$
