AV-unprocessed.smi:102|AV-procd|sdf|972|dock8
  -GOLD-   2262017523D 1   1.00000     0.00000
 Structure written by MMmdl.
 43 44  0  0  0  0  0  0  0  0  2 V2000
  150.9092  145.1701  160.7528 C   0  0  0  0  0  0  0  0  0  0  0  0
  151.5771  144.1015  159.8982 C   0  0  0  0  0  0  0  0  0  0  0  0
  152.2823  144.3988  158.9339 O   0  0  0  0  0  0  0  0  0  0  0  0
  151.3013  142.8564  160.3274 O   0  0  0  0  0  0  0  0  0  0  0  0
  151.9729  141.7357  159.7677 C   0  0  0  0  0  0  0  0  0  0  0  0
  151.1361  141.1098  158.6423 C   0  0  1  0  0  0  0  0  0  0  0  0
  151.1973  141.9065  157.4678 O   0  0  0  0  0  0  0  0  0  0  0  0
  150.8289  141.1230  156.3799 C   0  0  2  0  0  0  0  0  0  0  0  0
  149.3209  141.2357  156.2013 N   0  0  0  0  0  0  0  0  0  0  0  0
  148.4535  141.3072  157.2829 C   0  0  0  0  0  0  0  0  0  0  0  0
  147.1272  141.4802  157.1137 C   0  0  0  0  0  0  0  0  0  0  0  0
  146.3189  141.5456  158.1855 F   0  0  0  0  0  0  0  0  0  0  0  0
  146.5826  141.6161  155.7659 C   0  0  0  0  0  0  0  0  0  0  0  0
  145.3685  141.7433  155.6151 O   0  0  0  0  0  0  0  0  0  0  0  0
  147.4602  141.6042  154.7224 N   0  5  0  0  0  0  0  0  0  0  0  0
  148.8060  141.4466  154.8904 C   0  0  0  0  0  0  0  0  0  0  0  0
  149.6012  141.4795  153.9513 O   0  0  0  0  0  0  0  0  0  0  0  0
  151.3153  139.6937  156.6822 C   0  0  1  0  0  0  0  0  0  0  0  0
  152.4805  139.3908  155.9254 O   0  0  0  0  0  0  0  0  0  0  0  0
  152.5411  139.7021  154.6191 C   0  0  0  0  0  0  0  0  0  0  0  0
  153.9713  139.7326  154.0971 C   0  0  0  0  0  0  0  0  0  0  0  0
  151.5832  139.9456  153.8852 O   0  0  0  0  0  0  0  0  0  0  0  0
  151.6748  139.7539  158.1684 C   0  0  2  0  0  0  0  0  0  0  0  0
  151.0477  138.6957  158.8813 O   0  0  0  0  0  0  0  0  0  0  0  0
  151.4360  137.4239  158.6850 C   0  0  0  0  0  0  0  0  0  0  0  0
  150.2977  136.4326  158.8870 C   0  0  0  0  0  0  0  0  0  0  0  0
  152.5660  137.0505  158.3698 O   0  0  0  0  0  0  0  0  0  0  0  0
  151.2034  145.0600  161.7965 H   0  0  0  0  0  0  0  0  0  0  0  0
  149.8247  145.0829  160.6862 H   0  0  0  0  0  0  0  0  0  0  0  0
  151.1970  146.1660  160.4151 H   0  0  0  0  0  0  0  0  0  0  0  0
  152.9764  141.9895  159.4226 H   0  0  0  0  0  0  0  0  0  0  0  0
  152.0960  141.0056  160.5678 H   0  0  0  0  0  0  0  0  0  0  0  0
  150.0960  141.0123  158.9575 H   0  0  0  0  0  0  0  0  0  0  0  0
  151.2628  141.5066  155.4555 H   0  0  0  0  0  0  0  0  0  0  0  0
  148.8237  141.2445  158.2938 H   0  0  0  0  0  0  0  0  0  0  0  0
  150.5386  138.9582  156.4752 H   0  0  0  0  0  0  0  0  0  0  0  0
  154.4705  138.7864  154.3061 H   0  0  0  0  0  0  0  0  0  0  0  0
  154.5317  140.5349  154.5773 H   0  0  0  0  0  0  0  0  0  0  0  0
  153.9831  139.8989  153.0197 H   0  0  0  0  0  0  0  0  0  0  0  0
  152.7585  139.7332  158.2977 H   0  0  0  0  0  0  0  0  0  0  0  0
  149.7901  136.6238  159.8325 H   0  0  0  0  0  0  0  0  0  0  0  0
  150.6769  135.4106  158.8987 H   0  0  0  0  0  0  0  0  0  0  0  0
  149.5720  136.5235  158.0788 H   0  0  0  0  0  0  0  0  0  0  0  0
  1  2  1  0  0  0  0
  1 28  1  0  0  0  0
  1 29  1  0  0  0  0
  1 30  1  0  0  0  0
  2  3  2  0  0  0  0
  2  4  1  0  0  0  0
  4  5  1  0  0  0  0
  5  6  1  0  0  0  0
  5 31  1  0  0  0  0
  5 32  1  0  0  0  0
  6 23  1  0  0  0  0
  6  7  1  0  0  0  0
  6 33  1  0  0  0  0
  7  8  1  0  0  0  0
  8  9  1  0  0  0  0
  8 18  1  0  0  0  0
  8 34  1  0  0  0  0
  9 16  1  0  0  0  0
  9 10  1  0  0  0  0
 10 11  2  0  0  0  0
 10 35  1  0  0  0  0
 11 12  1  0  0  0  0
 11 13  1  0  0  0  0
 13 14  2  0  0  0  0
 13 15  1  0  0  0  0
 15 16  1  0  0  0  0
 16 17  2  0  0  0  0
 18 19  1  0  0  0  0
 18 23  1  0  0  0  0
 18 36  1  0  0  0  0
 19 20  1  0  0  0  0
 20 21  1  0  0  0  0
 20 22  2  0  0  0  0
 21 37  1  0  0  0  0
 21 38  1  0  0  0  0
 21 39  1  0  0  0  0
 23 24  1  0  0  0  0
 23 40  1  0  0  0  0
 24 25  1  0  0  0  0
 25 26  1  0  0  0  0
 25 27  2  0  0  0  0
 26 41  1  0  0  0  0
 26 42  1  0  0  0  0
 26 43  1  0  0  0  0
M  CHG  1  15  -1
M  END
> <s_m_source_file>
AV-unprocessed.smi

> <i_m_source_file_index>
102

> <i_lp_mmshare_version>
43012

> <i_f3d_flags>
0

> <s_epik_input>
W0NIM11DKD1PKU9bQ0gyXVtDQEBIXTFPW0NASF0oW0NAQEhdKE9DKD1PKVtDSDNdKVtDQEhdMU9DKD1PKVtDSDNdKW4yW2NIXWMoRiljKD1PKVtuSF1jMj1P

> <s_epik_cmdline>
J2VwaWtfcHl0aG9uJywgJy1waCcsICc3LjAnLCAnLXRuJywgJzgnLCAnLW1hJywgJzIwMCcsICctbWV0YWxfYmluZGluZycsICctaW1hZScsICc8aW5maWxlLm1hZT4nLCAnLW9tYWUnLCAnPG91dGZpbGUubWFlPic=

> <r_epik_Ionization_Penalty>
1.40304

> <r_epik_Ionization_Penalty_Charging>
1.43915e-08

> <r_epik_Ionization_Penalty_Neutral>
1.40304

> <r_epik_State_Penalty>
1.48536

> <r_epik_Charging_Adjusted_Penalty>
1.48536

> <i_epik_Tot_Q>
-1

> <i_epik_Tot_abs_Q>
1

> <r_epik_Metal_State_Penalty>
0.00663881

> <b_epik_Metal_Only>
0

> <s_epik_Chemistry_Notes>
This compound has an ester and may undergo hydrolysis at high or low pH. This compound contains an acetal/aminal-like group ( X-CH(R)-Y where X, Y are N, S, or O) that may be acid/base labile, releasing an aldehyde.

> <s_lp_Force_Field>
OPLS_2005

> <r_lp_Energy>
19.0054

> <b_lp_Chiralities_Consistent>
1

> <s_lp_Variant>
AV-unprocessed.smi:102-28

> <Gold.Version>
5.8.1

> <Gold.Id.Protein>
6NUR|6NUR_protein|mol2

> <Gold.PLP.Fitness>
46.5302

> <Gold.PLP.PLP>
-41.1175

> <Gold.PLP.part.hbond>
-5.0999

> <Gold.PLP.part.metal>
0.0000

> <Gold.PLP.part.buried>
-6.1668

> <Gold.PLP.part.nonpolar>
-32.1803

> <Gold.PLP.part.repulsive>
2.1119

> <Gold.PLP.ligand.clash>
0.0000

> <Gold.PLP.ligand.torsion>
1.6764

> <Gold.PLP.Chemscore.Hbond>
2.8720

> <Gold.PLP.Chemscore.CHOScore>
0.0000

> <Gold.PLP.Chemscore.Metal>
0.0000

> <Gold.Chemscore.Hbonds>
donor molecule, donor type, donor heavy atom, donor atom, acceptor molecule, acceptor atom, score
      P1  H  7989  7998       L1    17  0.17
      P1  H  8011  8017       L1    17  0.69

> <Gold.PLP.Chemscore.Internal.Correction>
0.1495

> <Gold.Rescore>
     Score         DG    S(hbond)    S(metal)    S(lipo)     H(rot)  DE(clash)    DE(int)     intcor
     -1.04      -8.24       2.05        0.00      52.36       4.00       3.83       5.44       ----

> <Gold.Chemscore.Fitness>
-1.0378

> <Gold.Chemscore.DG>
-8.2375

> <Gold.Chemscore.ZeroCoef>
-5.4800

> <Gold.Chemscore.Hbond>
2.0537

> <Gold.Chemscore.Metal>
0.0000

> <Gold.Chemscore.Lipo>
52.3561

> <Gold.Chemscore.Internal_Hbond>
0.0000

> <Gold.Chemscore.DEClash>
3.8346

> <Gold.Chemscore.DEInternal>
5.4407

> <Gold.Chemscore.Rot>
3.9951

> <Gold.Chemscore.Internal.Correction>
   9.000000E+99

> <Gold.Chemscore.Hbonds>
donor molecule, donor type, donor heavy atom, donor atom, acceptor molecule, acceptor atom, score
      P1  H  7989  7998       L1    17  0.17
      P1  H  8011  8017       L1    17  0.68

> <Gold.Chemscore.Hbond.Weighted>
-6.8593

> <Gold.Chemscore.Metal.Weighted>
-0.0000

> <Gold.Chemscore.Lipo.Weighted>
-6.1257

> <Gold.Chemscore.Internal_Hbond.Weighted>
0.0000

> <Gold.Chemscore.DEClash.Weighted>
3.8346

> <Gold.Chemscore.DEInternal.Weighted>
5.4407

> <Gold.Chemscore.Rot.Weighted>
10.2274

> <Gold.Chemscore.Internal.Correction.Weighted>
   9.000000E+99

> <Gold.Protein.RotatedTorsions>
[ 6907 6896 6895 6894 ] final -127.53 input  -60.11 | X-H torsion
[ 7974 7965 7964 7962 ] final   31.33 input  175.53 | X-H torsion
[ 8008 7997 7996 7995 ] final   17.09 input   59.86 | X-H torsion
[ 10167 10162 10161 10158 ] final -111.75 input  -65.29 | X-H torsion
[ 10718 10713 10712 10709 ] final -166.89 input   66.30 | X-H torsion
[ 10763 10752 10751 10750 ] final  141.66 input  -60.55 | X-H torsion
[ 11005 11000 10999 10996 ] final   29.13 input  -57.11 | X-H torsion

> <Gold.Protein.ActiveResidues>
 VAL166  LYS551  ARG553  GLY616  TRP617  ASP618  TYR619  PRO620  LYS621  CYS622 
 ASP623  PHE694  ASN695  SER759  ASP760  ASP761  ALA762  ILE779  LEU786  VAL792 
 PHE793  MET794  SER795  GLU796  ALA797  LYS798  CYS799  TRP800  GLU811  SER814 

> <Gold.Protein.RotatedAtoms>
  150.9082  133.7030  159.2861 H   0  0  0  0  0  0  0  0  0  0  0  0  # atno 6907 bound_to 6896
  151.4526  135.1030  159.9711 H   0  0  0  0  0  0  0  0  0  0  0  0  # atno 6908 bound_to 6896
  152.4915  133.8465  159.7234 H   0  0  0  0  0  0  0  0  0  0  0  0  # atno 6909 bound_to 6896
  146.1557  139.6671  142.9068 H   0  0  0  0  0  0  0  0  0  0  0  0  # atno 7974 bound_to 7965
  154.8864  140.2980  155.5395 H   0  0  0  0  0  0  0  0  0  0  0  0  # atno 8008 bound_to 7997
  156.3021  140.2432  156.3808 H   0  0  0  0  0  0  0  0  0  0  0  0  # atno 8009 bound_to 7997
  154.8663  140.0403  157.1686 H   0  0  0  0  0  0  0  0  0  0  0  0  # atno 8010 bound_to 7997
  140.1302  143.4367  152.1632 H   0  0  0  0  0  0  0  0  0  0  0  0  # atno 10167 bound_to 10162
  156.6745  130.9097  151.3048 H   0  0  0  0  0  0  0  0  0  0  0  0  # atno 10718 bound_to 10713
  153.9429  135.2978  155.3442 H   0  0  0  0  0  0  0  0  0  0  0  0  # atno 10763 bound_to 10752
  154.7467  135.4999  153.9220 H   0  0  0  0  0  0  0  0  0  0  0  0  # atno 10764 bound_to 10752
  153.1033  135.6740  153.9739 H   0  0  0  0  0  0  0  0  0  0  0  0  # atno 10765 bound_to 10752
  140.3082  134.2679  155.7739 H   0  0  0  0  0  0  0  0  0  0  0  0  # atno 11005 bound_to 11000
  145.4714  141.0436  143.2696 LP  0  0  0  0  0  0  0  0  0  0  0  0  # atno 17320 bound_to 7965
  144.7960  139.6233  143.7092 LP  0  0  0  0  0  0  0  0  0  0  0  0  # atno 17321 bound_to 7965
  139.5523  144.7347  151.4397 LP  0  0  0  0  0  0  0  0  0  0  0  0  # atno 17342 bound_to 10162
  140.6821  143.8057  150.7136 LP  0  0  0  0  0  0  0  0  0  0  0  0  # atno 17343 bound_to 10162
  157.7065  130.9391  150.0949 LP  0  0  0  0  0  0  0  0  0  0  0  0  # atno 17370 bound_to 10713
  156.1914  130.3655  149.8905 LP  0  0  0  0  0  0  0  0  0  0  0  0  # atno 17371 bound_to 10713
  141.2114  133.7691  156.9868 LP  0  0  0  0  0  0  0  0  0  0  0  0  # atno 17394 bound_to 11000
  140.1048  134.9513  157.1978 LP  0  0  0  0  0  0  0  0  0  0  0  0  # atno 17395 bound_to 11000

$$$$
