AV-unprocessed.smi:2012|AV-procd|sdf|8156|dock1
  -GOLD-   2272010393D 1   1.00000     0.00000
 Structure written by MMmdl.
 50 51  0  0  0  0  0  0  0  0  1 V2000
  149.3339  133.1044  153.6322 C   0  0  0  0  0  0  0  0  0  0  0  0
  148.3594  133.8876  154.5054 C   0  0  0  0  0  0  0  0  0  0  0  0
  147.7259  133.3038  155.3828 O   0  0  0  0  0  0  0  0  0  0  0  0
  148.2474  135.2009  154.2364 N   0  0  0  0  0  0  0  0  0  0  0  0
  147.4258  136.2147  154.9129 C   0  0  1  0  0  0  0  0  0  0  0  0
  148.2034  137.5309  155.0917 C   0  0  0  0  0  0  0  0  0  0  0  0
  148.4007  137.9904  156.2168 O   0  0  0  0  0  0  0  0  0  0  0  0
  148.6666  138.1120  153.9735 N   0  0  0  0  0  0  0  0  0  0  0  0
  149.4724  139.3274  153.9392 C   0  0  0  0  0  0  0  0  0  0  0  0
  150.6482  139.2947  154.9027 C   0  0  0  0  0  0  0  0  0  0  0  0
  151.6900  138.3653  154.7231 C   0  0  0  0  0  0  0  0  0  0  0  0
  152.7592  138.3791  155.6360 C   0  0  0  0  0  0  0  0  0  0  0  0
  152.8331  139.2360  156.6756 N   0  0  0  0  0  0  0  0  0  0  0  0
  151.8351  140.1328  156.8691 C   0  0  0  0  0  0  0  0  0  0  0  0
  151.9734  141.0131  157.9686 N   0  0  0  0  0  0  0  0  0  0  0  0
  151.0510  142.1403  158.0887 C   0  0  0  0  0  0  0  0  0  0  0  0
  151.5585  143.1542  159.1275 C   0  0  0  0  0  0  0  0  0  0  0  0
  151.8015  142.4970  160.3653 O   0  0  0  0  0  0  0  0  0  0  0  0
  152.8134  141.5052  160.2393 C   0  0  0  0  0  0  0  0  0  0  0  0
  152.3591  140.4193  159.2494 C   0  0  0  0  0  0  0  0  0  0  0  0
  150.7177  140.1849  155.9962 C   0  0  0  0  0  0  0  0  0  0  0  0
  145.9803  136.3599  154.3405 C   0  0  0  0  0  0  0  0  0  0  0  0
  145.2076  135.0265  154.3175 C   0  0  0  0  0  0  0  0  0  0  0  0
  145.9774  136.9744  152.9276 C   0  0  0  0  0  0  0  0  0  0  0  0
  150.1136  133.7519  153.2294 H   0  0  0  0  0  0  0  0  0  0  0  0
  148.8031  132.6438  152.7988 H   0  0  0  0  0  0  0  0  0  0  0  0
  149.8147  132.3155  154.2113 H   0  0  0  0  0  0  0  0  0  0  0  0
  148.8131  135.5479  153.4759 H   0  0  0  0  0  0  0  0  0  0  0  0
  147.3033  135.8066  155.9177 H   0  0  0  0  0  0  0  0  0  0  0  0
  148.4691  137.6685  153.0885 H   0  0  0  0  0  0  0  0  0  0  0  0
  149.8619  139.4509  152.9285 H   0  0  0  0  0  0  0  0  0  0  0  0
  148.8441  140.1975  154.1369 H   0  0  0  0  0  0  0  0  0  0  0  0
  151.6774  137.6619  153.9036 H   0  0  0  0  0  0  0  0  0  0  0  0
  153.5790  137.6844  155.5288 H   0  0  0  0  0  0  0  0  0  0  0  0
  150.9500  142.6544  157.1334 H   0  0  0  0  0  0  0  0  0  0  0  0
  150.0651  141.7702  158.3731 H   0  0  0  0  0  0  0  0  0  0  0  0
  152.4686  143.6450  158.7785 H   0  0  0  0  0  0  0  0  0  0  0  0
  150.8153  143.9367  159.2806 H   0  0  0  0  0  0  0  0  0  0  0  0
  153.7487  141.9623  159.9123 H   0  0  0  0  0  0  0  0  0  0  0  0
  153.0014  141.0642  161.2183 H   0  0  0  0  0  0  0  0  0  0  0  0
  151.5051  139.8762  159.6552 H   0  0  0  0  0  0  0  0  0  0  0  0
  153.1694  139.6999  159.1343 H   0  0  0  0  0  0  0  0  0  0  0  0
  149.9110  140.8861  156.1438 H   0  0  0  0  0  0  0  0  0  0  0  0
  145.4075  137.0240  154.9869 H   0  0  0  0  0  0  0  0  0  0  0  0
  145.7445  134.2652  153.7507 H   0  0  0  0  0  0  0  0  0  0  0  0
  144.2254  135.1486  153.8601 H   0  0  0  0  0  0  0  0  0  0  0  0
  145.0380  134.6415  155.3229 H   0  0  0  0  0  0  0  0  0  0  0  0
  146.5386  136.3559  152.2267 H   0  0  0  0  0  0  0  0  0  0  0  0
  146.4162  137.9717  152.9159 H   0  0  0  0  0  0  0  0  0  0  0  0
  144.9614  137.0706  152.5437 H   0  0  0  0  0  0  0  0  0  0  0  0
  1  2  1  0  0  0  0
  1 25  1  0  0  0  0
  1 26  1  0  0  0  0
  1 27  1  0  0  0  0
  2  3  2  0  0  0  0
  2  4  1  0  0  0  0
  4  5  1  0  0  0  0
  4 28  1  0  0  0  0
  5  6  1  0  0  0  0
  5 22  1  0  0  0  0
  5 29  1  0  0  0  0
  6  7  2  0  0  0  0
  6  8  1  0  0  0  0
  8  9  1  0  0  0  0
  8 30  1  0  0  0  0
  9 10  1  0  0  0  0
  9 31  1  0  0  0  0
  9 32  1  0  0  0  0
 10 21  1  0  0  0  0
 10 11  2  0  0  0  0
 11 12  1  0  0  0  0
 11 33  1  0  0  0  0
 12 13  2  0  0  0  0
 12 34  1  0  0  0  0
 13 14  1  0  0  0  0
 14 15  1  0  0  0  0
 14 21  2  0  0  0  0
 15 20  1  0  0  0  0
 15 16  1  0  0  0  0
 16 17  1  0  0  0  0
 16 35  1  0  0  0  0
 16 36  1  0  0  0  0
 17 18  1  0  0  0  0
 17 37  1  0  0  0  0
 17 38  1  0  0  0  0
 18 19  1  0  0  0  0
 19 20  1  0  0  0  0
 19 39  1  0  0  0  0
 19 40  1  0  0  0  0
 20 41  1  0  0  0  0
 20 42  1  0  0  0  0
 21 43  1  0  0  0  0
 22 23  1  0  0  0  0
 22 24  1  0  0  0  0
 22 44  1  0  0  0  0
 23 45  1  0  0  0  0
 23 46  1  0  0  0  0
 23 47  1  0  0  0  0
 24 48  1  0  0  0  0
 24 49  1  0  0  0  0
 24 50  1  0  0  0  0
M  END
> <s_m_source_file>
AV-unprocessed.smi

> <i_m_source_file_index>
2012

> <i_lp_mmshare_version>
43012

> <i_f3d_flags>
0

> <s_epik_input>
W0NIM11DKD1PKVtOSF1bQ0BASF0oW0NIXShbQ0gzXSlbQ0gzXSlDKD1PKVtOSF1bQ0gyXWMxW2NIXVtjSF1uYyhbY0hdMSlOMltDSDJdW0NIMl1PW0NIMl1bQ0gyXTI=

> <s_epik_cmdline>
J2VwaWtfcHl0aG9uJywgJy1waCcsICc3LjAnLCAnLXRuJywgJzgnLCAnLW1hJywgJzIwMCcsICctbWV0YWxfYmluZGluZycsICctaW1hZScsICc8aW5maWxlLm1hZT4nLCAnLW9tYWUnLCAnPG91dGZpbGUubWFlPic=

> <r_lp_tautomer_probability>
1

> <r_epik_Ionization_Penalty>
0.00518786

> <r_epik_Ionization_Penalty_Charging>
0

> <r_epik_Ionization_Penalty_Neutral>
0.00518786

> <r_epik_State_Penalty>
0.00378052

> <r_epik_Charging_Adjusted_Penalty>
0.00378052

> <i_epik_Tot_Q>
0

> <i_epik_Tot_abs_Q>
0

> <r_epik_Metal_State_Penalty>
-0

> <b_epik_Metal_Only>
0

> <s_lp_Force_Field>
OPLS_2005

> <r_lp_Energy>
18.0004

> <b_lp_Chiralities_Consistent>
1

> <s_lp_Variant>
AV-unprocessed.smi:2012-2

> <Gold.Version>
5.8.1

> <Gold.Id.Protein>
6NUR|6NUR_protein|mol2

> <Gold.PLP.Fitness>
44.0136

> <Gold.PLP.PLP>
-35.9145

> <Gold.PLP.part.hbond>
-3.0000

> <Gold.PLP.part.metal>
0.0000

> <Gold.PLP.part.buried>
-2.6998

> <Gold.PLP.part.nonpolar>
-30.8054

> <Gold.PLP.part.repulsive>
0.0455

> <Gold.PLP.ligand.clash>
0.0000

> <Gold.PLP.ligand.torsion>
0.8360

> <Gold.PLP.Chemscore.Hbond>
2.9440

> <Gold.PLP.Chemscore.CHOScore>
0.0000

> <Gold.PLP.Chemscore.Metal>
0.0000

> <Gold.Chemscore.Hbonds>
donor molecule, donor type, donor heavy atom, donor atom, acceptor molecule, acceptor atom, score
      L1  H     4    28       P1  7948  1.00
      L1  H     8    30       P1  7948  0.91
      P1  H  7997  8008       L1    13  1.00

> <Gold.PLP.Chemscore.Internal.Correction>
0.9391

> <Gold.Rescore>
     Score         DG    S(hbond)    S(metal)    S(lipo)     H(rot)  DE(clash)    DE(int)     intcor
     14.19     -17.28       2.18        0.00      86.34       2.18       0.61       2.48       ----

> <Gold.Chemscore.Fitness>
14.1913

> <Gold.Chemscore.DG>
-17.2844

> <Gold.Chemscore.ZeroCoef>
-5.4800

> <Gold.Chemscore.Hbond>
2.1815

> <Gold.Chemscore.Metal>
0.0000

> <Gold.Chemscore.Lipo>
86.3439

> <Gold.Chemscore.Internal_Hbond>
0.0000

> <Gold.Chemscore.DEClash>
0.6108

> <Gold.Chemscore.DEInternal>
2.4823

> <Gold.Chemscore.Rot>
2.1813

> <Gold.Chemscore.Internal.Correction>
   9.000000E+99

> <Gold.Chemscore.Hbonds>
donor molecule, donor type, donor heavy atom, donor atom, acceptor molecule, acceptor atom, score
      L1  H     4    28       P1  7948  0.87
      L1  H     8    30       P1  7948  0.89
      P1  H  7997  8008       L1    13  0.17

> <Gold.Chemscore.Hbond.Weighted>
-7.2863

> <Gold.Chemscore.Metal.Weighted>
-0.0000

> <Gold.Chemscore.Lipo.Weighted>
-10.1022

> <Gold.Chemscore.Internal_Hbond.Weighted>
0.0000

> <Gold.Chemscore.DEClash.Weighted>
0.6108

> <Gold.Chemscore.DEInternal.Weighted>
2.4823

> <Gold.Chemscore.Rot.Weighted>
5.5842

> <Gold.Chemscore.Internal.Correction.Weighted>
   9.000000E+99

> <Gold.Protein.RotatedTorsions>
[ 6907 6896 6895 6894 ] final  -68.84 input  -60.11 | X-H torsion
[ 7974 7965 7964 7962 ] final  147.13 input  175.53 | X-H torsion
[ 8008 7997 7996 7995 ] final  -34.15 input   59.86 | X-H torsion
[ 10167 10162 10161 10158 ] final   80.46 input  -65.29 | X-H torsion
[ 10718 10713 10712 10709 ] final -173.88 input   66.30 | X-H torsion
[ 10763 10752 10751 10750 ] final  -88.68 input  -60.55 | X-H torsion
[ 11005 11000 10999 10996 ] final   61.88 input  -57.11 | X-H torsion

> <Gold.Protein.ActiveResidues>
 VAL166  LYS551  ARG553  GLY616  TRP617  ASP618  TYR619  PRO620  LYS621  CYS622 
 ASP623  PHE694  ASN695  SER759  ASP760  ASP761  ALA762  ILE779  LEU786  VAL792 
 PHE793  MET794  SER795  GLU796  ALA797  LYS798  CYS799  TRP800  GLU811  SER814 

> <Gold.Protein.RotatedAtoms>
  150.7336  134.5682  159.5876 H   0  0  0  0  0  0  0  0  0  0  0  0  # atno 6907 bound_to 6896
  152.3128  134.7473  160.0341 H   0  0  0  0  0  0  0  0  0  0  0  0  # atno 6908 bound_to 6896
  151.8016  133.3335  159.3565 H   0  0  0  0  0  0  0  0  0  0  0  0  # atno 6909 bound_to 6896
  144.8616  139.5991  143.5928 H   0  0  0  0  0  0  0  0  0  0  0  0  # atno 7974 bound_to 7965
  154.4129  140.1691  156.2003 H   0  0  0  0  0  0  0  0  0  0  0  0  # atno 8008 bound_to 7997
  155.9529  140.3399  155.6400 H   0  0  0  0  0  0  0  0  0  0  0  0  # atno 8009 bound_to 7997
  155.6846  140.0726  157.2462 H   0  0  0  0  0  0  0  0  0  0  0  0  # atno 8010 bound_to 7997
  139.9495  144.6036  150.8174 H   0  0  0  0  0  0  0  0  0  0  0  0  # atno 10167 bound_to 10162
  156.7768  130.9469  151.3120 H   0  0  0  0  0  0  0  0  0  0  0  0  # atno 10718 bound_to 10713
  154.6472  135.5368  153.7858 H   0  0  0  0  0  0  0  0  0  0  0  0  # atno 10763 bound_to 10752
  153.0366  135.6473  154.1072 H   0  0  0  0  0  0  0  0  0  0  0  0  # atno 10764 bound_to 10752
  154.0992  135.2934  155.3235 H   0  0  0  0  0  0  0  0  0  0  0  0  # atno 10765 bound_to 10752
  140.0130  134.6267  155.9751 H   0  0  0  0  0  0  0  0  0  0  0  0  # atno 11005 bound_to 11000
  146.2864  139.7017  142.9192 LP  0  0  0  0  0  0  0  0  0  0  0  0  # atno 17320 bound_to 7965
  145.4302  141.0414  143.2915 LP  0  0  0  0  0  0  0  0  0  0  0  0  # atno 17321 bound_to 7965
  140.7587  143.3113  151.2838 LP  0  0  0  0  0  0  0  0  0  0  0  0  # atno 17342 bound_to 10162
  139.6640  144.0139  152.2711 LP  0  0  0  0  0  0  0  0  0  0  0  0  # atno 17343 bound_to 10162
  157.6665  130.9012  149.9944 LP  0  0  0  0  0  0  0  0  0  0  0  0  # atno 17370 bound_to 10713
  156.1243  130.3645  149.9835 LP  0  0  0  0  0  0  0  0  0  0  0  0  # atno 17371 bound_to 10713
  141.1724  133.6538  156.4701 LP  0  0  0  0  0  0  0  0  0  0  0  0  # atno 17394 bound_to 11000
  140.4520  134.6920  157.5044 LP  0  0  0  0  0  0  0  0  0  0  0  0  # atno 17395 bound_to 11000

$$$$
