AV-unprocessed.smi:2238|AV-procd|sdf|9055|dock3
  -GOLD-   2272012263D 1   1.00000     0.00000
 Structure written by MMmdl.
 38 39  0  0  0  0  0  0  0  0  1 V2000
  151.6534  145.1288  159.1161 C   0  0  0  0  0  0  0  0  0  0  0  0
  151.8850  143.6461  158.9091 C   0  0  0  0  0  0  0  0  0  0  0  0
  152.8053  142.9500  159.7170 C   0  0  0  0  0  0  0  0  0  0  0  0
  153.0159  141.5740  159.5153 C   0  0  0  0  0  0  0  0  0  0  0  0
  152.3090  140.8898  158.5073 C   0  0  0  0  0  0  0  0  0  0  0  0
  152.5871  139.1997  158.2814 Cl  0  0  0  0  0  0  0  0  0  0  0  0
  151.3823  141.5728  157.6884 C   0  0  0  0  0  0  0  0  0  0  0  0
  150.7268  140.8375  156.7226 O   0  0  0  0  0  0  0  0  0  0  0  0
  150.2228  141.5163  155.5804 C   0  0  0  0  0  0  0  0  0  0  0  0
  149.6366  140.4777  154.6079 C   0  0  1  0  0  0  0  0  0  0  0  0
  149.3193  141.1367  153.3993 O   0  0  0  0  0  0  0  0  0  0  0  0
  150.6133  139.3312  154.2562 C   0  0  0  0  0  0  0  0  0  0  0  0
  150.4320  138.1343  155.0972 N   0  0  0  0  0  0  0  0  0  0  0  0
  149.2563  138.0754  155.8726 C   0  0  0  0  0  0  0  0  0  0  0  0
  148.9986  137.0700  156.6475 N   0  0  0  0  0  0  0  0  0  0  0  0
  149.9059  136.0093  156.7278 C   0  0  0  0  0  0  0  0  0  0  0  0
  149.5515  134.8543  157.6414 C   0  0  0  0  0  0  0  0  0  0  0  0
  151.0533  136.0207  156.0114 C   0  0  0  0  0  0  0  0  0  0  0  0
  151.3742  137.1465  155.1338 C   0  0  0  0  0  0  0  0  0  0  0  0
  152.4149  137.1989  154.4781 O   0  0  0  0  0  0  0  0  0  0  0  0
  151.1781  142.9606  157.9000 C   0  0  0  0  0  0  0  0  0  0  0  0
  152.1317  145.4821  160.0302 H   0  0  0  0  0  0  0  0  0  0  0  0
  150.5863  145.3412  159.1882 H   0  0  0  0  0  0  0  0  0  0  0  0
  152.0604  145.6939  158.2771 H   0  0  0  0  0  0  0  0  0  0  0  0
  153.3524  143.4665  160.4922 H   0  0  0  0  0  0  0  0  0  0  0  0
  153.7221  141.0426  160.1363 H   0  0  0  0  0  0  0  0  0  0  0  0
  149.4716  142.2607  155.8502 H   0  0  0  0  0  0  0  0  0  0  0  0
  151.0560  142.0369  155.1084 H   0  0  0  0  0  0  0  0  0  0  0  0
  148.7164  140.0636  155.0214 H   0  0  0  0  0  0  0  0  0  0  0  0
  149.4293  140.5238  152.6880 H   0  0  0  0  0  0  0  0  0  0  0  0
  150.4721  139.0420  153.2129 H   0  0  0  0  0  0  0  0  0  0  0  0
  151.6397  139.7017  154.3003 H   0  0  0  0  0  0  0  0  0  0  0  0
  148.5818  138.9270  155.7702 H   0  0  0  0  0  0  0  0  0  0  0  0
  150.4017  134.5906  158.2712 H   0  0  0  0  0  0  0  0  0  0  0  0
  149.2755  133.9795  157.0521 H   0  0  0  0  0  0  0  0  0  0  0  0
  148.7135  135.1071  158.2921 H   0  0  0  0  0  0  0  0  0  0  0  0
  151.7433  135.1922  156.0837 H   0  0  0  0  0  0  0  0  0  0  0  0
  150.4816  143.5240  157.2975 H   0  0  0  0  0  0  0  0  0  0  0  0
  1  2  1  0  0  0  0
  1 22  1  0  0  0  0
  1 23  1  0  0  0  0
  1 24  1  0  0  0  0
  2 21  1  0  0  0  0
  2  3  2  0  0  0  0
  3  4  1  0  0  0  0
  3 25  1  0  0  0  0
  4  5  2  0  0  0  0
  4 26  1  0  0  0  0
  5  6  1  0  0  0  0
  5  7  1  0  0  0  0
  7  8  1  0  0  0  0
  7 21  2  0  0  0  0
  8  9  1  0  0  0  0
  9 10  1  0  0  0  0
  9 27  1  0  0  0  0
  9 28  1  0  0  0  0
 10 11  1  0  0  0  0
 10 12  1  0  0  0  0
 10 29  1  0  0  0  0
 11 30  1  0  0  0  0
 12 13  1  0  0  0  0
 12 31  1  0  0  0  0
 12 32  1  0  0  0  0
 13 19  1  0  0  0  0
 13 14  1  0  0  0  0
 14 15  2  0  0  0  0
 14 33  1  0  0  0  0
 15 16  1  0  0  0  0
 16 17  1  0  0  0  0
 16 18  2  0  0  0  0
 17 34  1  0  0  0  0
 17 35  1  0  0  0  0
 17 36  1  0  0  0  0
 18 19  1  0  0  0  0
 18 37  1  0  0  0  0
 19 20  2  0  0  0  0
 21 38  1  0  0  0  0
M  END
> <s_m_source_file>
AV-unprocessed.smi

> <i_m_source_file_index>
2238

> <i_lp_mmshare_version>
43012

> <i_f3d_flags>
0

> <s_epik_input>
W0NIM11jMVtjSF1bY0hdYyhDbCljKFtjSF0xKU9bQ0gyXVtDQEhdKFtPSF0pW0NIMl1uMltjSF1uYyhbQ0gzXSlbY0hdYzI9Tw==

> <s_epik_cmdline>
J2VwaWtfcHl0aG9uJywgJy1waCcsICc3LjAnLCAnLXRuJywgJzgnLCAnLW1hJywgJzIwMCcsICctbWV0YWxfYmluZGluZycsICctaW1hZScsICc8aW5maWxlLm1hZT4nLCAnLW9tYWUnLCAnPG91dGZpbGUubWFlPic=

> <r_lp_tautomer_probability>
1

> <r_epik_Ionization_Penalty>
1.78029e-05

> <r_epik_Ionization_Penalty_Charging>
3.78421e-08

> <r_epik_Ionization_Penalty_Neutral>
1.7765e-05

> <r_epik_State_Penalty>
-0

> <r_epik_Charging_Adjusted_Penalty>
3.78421e-08

> <i_epik_Tot_Q>
0

> <i_epik_Tot_abs_Q>
0

> <r_epik_Metal_State_Penalty>
-0

> <b_epik_Metal_Only>
0

> <s_lp_Force_Field>
OPLS_2005

> <r_lp_Energy>
22.1977

> <b_lp_Chiralities_Consistent>
1

> <s_lp_Variant>
AV-unprocessed.smi:2238-2

> <Gold.Version>
5.8.1

> <Gold.Id.Protein>
6NUR|6NUR_protein|mol2

> <Gold.PLP.Fitness>
47.7107

> <Gold.PLP.PLP>
-41.6946

> <Gold.PLP.part.hbond>
-3.7791

> <Gold.PLP.part.metal>
0.0000

> <Gold.PLP.part.buried>
-5.2633

> <Gold.PLP.part.nonpolar>
-32.7321

> <Gold.PLP.part.repulsive>
0.1505

> <Gold.PLP.ligand.clash>
0.3139

> <Gold.PLP.ligand.torsion>
1.0119

> <Gold.PLP.Chemscore.Hbond>
2.7600

> <Gold.PLP.Chemscore.CHOScore>
0.0000

> <Gold.PLP.Chemscore.Metal>
0.0000

> <Gold.Chemscore.Hbonds>
donor molecule, donor type, donor heavy atom, donor atom, acceptor molecule, acceptor atom, score
      L1  H    11    30       P1  7957  1.00
      P1  H  8011  8017       L1    11  0.45
      P1  H 10752 10763       L1    20  0.56

> <Gold.PLP.Chemscore.Internal.Correction>
0.0737

> <Gold.Rescore>
     Score         DG    S(hbond)    S(metal)    S(lipo)     H(rot)  DE(clash)    DE(int)     intcor
     18.50     -19.66       2.35        0.00     108.09       2.47       0.11       1.05       ----

> <Gold.Chemscore.Fitness>
18.5032

> <Gold.Chemscore.DG>
-19.6623

> <Gold.Chemscore.ZeroCoef>
-5.4800

> <Gold.Chemscore.Hbond>
2.3545

> <Gold.Chemscore.Metal>
0.0000

> <Gold.Chemscore.Lipo>
108.0860

> <Gold.Chemscore.Internal_Hbond>
0.0000

> <Gold.Chemscore.DEClash>
0.1056

> <Gold.Chemscore.DEInternal>
1.0534

> <Gold.Chemscore.Rot>
2.4718

> <Gold.Chemscore.Internal.Correction>
   9.000000E+99

> <Gold.Chemscore.Hbonds>
donor molecule, donor type, donor heavy atom, donor atom, acceptor molecule, acceptor atom, score
      L1  H    11    30       P1  7957  0.97
      P1  H  8011  8017       L1    11  0.02
      P1  H 10752 10763       L1    20  0.17

> <Gold.Chemscore.Hbond.Weighted>
-7.8641

> <Gold.Chemscore.Metal.Weighted>
-0.0000

> <Gold.Chemscore.Lipo.Weighted>
-12.6461

> <Gold.Chemscore.Internal_Hbond.Weighted>
0.0000

> <Gold.Chemscore.DEClash.Weighted>
0.1056

> <Gold.Chemscore.DEInternal.Weighted>
1.0534

> <Gold.Chemscore.Rot.Weighted>
6.3279

> <Gold.Chemscore.Internal.Correction.Weighted>
   9.000000E+99

> <Gold.Protein.RotatedTorsions>
[ 6907 6896 6895 6894 ] final -136.10 input  -60.11 | X-H torsion
[ 7974 7965 7964 7962 ] final  -91.43 input  175.53 | X-H torsion
[ 8008 7997 7996 7995 ] final   -4.70 input   59.86 | X-H torsion
[ 10167 10162 10161 10158 ] final -169.44 input  -65.29 | X-H torsion
[ 10718 10713 10712 10709 ] final -101.83 input   66.30 | X-H torsion
[ 10763 10752 10751 10750 ] final   64.17 input  -60.55 | X-H torsion
[ 11005 11000 10999 10996 ] final   85.39 input  -57.11 | X-H torsion

> <Gold.Protein.ActiveResidues>
 VAL166  LYS551  ARG553  GLY616  TRP617  ASP618  TYR619  PRO620  LYS621  CYS622 
 ASP623  PHE694  ASN695  SER759  ASP760  ASP761  ALA762  ILE779  LEU786  VAL792 
 PHE793  MET794  SER795  GLU796  ALA797  LYS798  CYS799  TRP800  GLU811  SER814 

> <Gold.Protein.RotatedAtoms>
  151.0060  133.6011  159.2688 H   0  0  0  0  0  0  0  0  0  0  0  0  # atno 6907 bound_to 6896
  151.3180  135.0810  159.9305 H   0  0  0  0  0  0  0  0  0  0  0  0  # atno 6908 bound_to 6896
  152.5287  133.9712  159.7817 H   0  0  0  0  0  0  0  0  0  0  0  0  # atno 6909 bound_to 6896
  145.4132  140.9546  143.2222 H   0  0  0  0  0  0  0  0  0  0  0  0  # atno 7974 bound_to 7965
  154.6115  140.2477  155.7663 H   0  0  0  0  0  0  0  0  0  0  0  0  # atno 8008 bound_to 7997
  156.2373  140.2945  156.0298 H   0  0  0  0  0  0  0  0  0  0  0  0  # atno 8009 bound_to 7997
  155.2044  140.0395  157.2913 H   0  0  0  0  0  0  0  0  0  0  0  0  # atno 8010 bound_to 7997
  139.5922  144.1188  152.1648 H   0  0  0  0  0  0  0  0  0  0  0  0  # atno 10167 bound_to 10162
  156.0208  130.5391  150.7020 H   0  0  0  0  0  0  0  0  0  0  0  0  # atno 10718 bound_to 10713
  153.0045  135.5402  154.6468 H   0  0  0  0  0  0  0  0  0  0  0  0  # atno 10763 bound_to 10752
  154.5710  135.2841  155.0829 H   0  0  0  0  0  0  0  0  0  0  0  0  # atno 10764 bound_to 10752
  154.1995  135.6486  153.5135 H   0  0  0  0  0  0  0  0  0  0  0  0  # atno 10765 bound_to 10752
  139.8973  134.8283  156.2576 H   0  0  0  0  0  0  0  0  0  0  0  0  # atno 11005 bound_to 11000
  144.8295  139.5653  143.6950 LP  0  0  0  0  0  0  0  0  0  0  0  0  # atno 17320 bound_to 7965
  146.2694  139.6599  142.9306 LP  0  0  0  0  0  0  0  0  0  0  0  0  # atno 17321 bound_to 7965
  140.0765  144.5736  150.7153 LP  0  0  0  0  0  0  0  0  0  0  0  0  # atno 17342 bound_to 10162
  140.7183  143.2564  151.4363 LP  0  0  0  0  0  0  0  0  0  0  0  0  # atno 17343 bound_to 10162
  157.4678  131.0890  151.0676 LP  0  0  0  0  0  0  0  0  0  0  0  0  # atno 17370 bound_to 10713
  157.1145  130.6035  149.5490 LP  0  0  0  0  0  0  0  0  0  0  0  0  # atno 17371 bound_to 10713
  141.0183  133.7055  156.1226 LP  0  0  0  0  0  0  0  0  0  0  0  0  # atno 17394 bound_to 11000
  140.7269  134.4297  157.5570 LP  0  0  0  0  0  0  0  0  0  0  0  0  # atno 17395 bound_to 11000

$$$$
