AV-unprocessed.smi:1554|AV-procd|sdf|6254|dock5
  -GOLD-   22720 6433D 1   1.00000     0.00000
 Structure written by MMmdl.
 48 50  0  0  0  0  0  0  0  0  2 V2000
  152.9731  142.8767  161.6186 C   0  0  0  0  0  0  0  0  0  0  0  0
  152.3746  142.4629  160.2849 C   0  0  0  0  0  0  0  0  0  0  0  0
  152.5428  141.1271  159.8558 C   0  0  0  0  0  0  0  0  0  0  0  0
  151.9848  140.7790  158.6314 C   0  0  0  0  0  0  0  0  0  0  0  0
  151.9778  139.5640  157.9431 N   0  3  0  0  0  0  0  0  0  0  0  0
  151.3027  139.7104  156.7698 C   0  0  0  0  0  0  0  0  0  0  0  0
  150.8783  141.0011  156.6981 N   0  0  0  0  0  0  0  0  0  0  0  0
  150.1137  141.6756  155.6391 C   0  0  0  0  0  0  0  0  0  0  0  0
  149.2595  140.6976  154.8059 C   0  0  2  0  0  0  0  0  0  0  0  0
  150.0971  139.9443  153.9524 O   0  0  0  0  0  0  0  0  0  0  0  0
  148.2208  141.4183  153.9236 C   0  0  0  0  0  0  0  0  0  0  0  0
  147.1223  142.0654  154.6418 N   0  0  0  0  0  0  0  0  0  0  0  0
  146.1733  141.1061  155.2023 C   0  0  0  0  0  0  0  0  0  0  0  0
  145.0088  141.8056  155.9238 C   0  0  0  0  0  0  0  0  0  0  0  0
  144.3609  142.7044  155.0301 O   0  0  0  0  0  0  0  0  0  0  0  0
  145.2413  143.6904  154.4986 C   0  0  2  0  0  0  0  0  0  0  0  0
  144.4375  144.6001  153.5638 C   0  0  0  0  0  0  0  0  0  0  0  0
  146.4016  142.9862  153.7689 C   0  0  0  0  0  0  0  0  0  0  0  0
  151.2789  141.7061  157.8398 C   0  0  0  0  0  0  0  0  0  0  0  0
  151.1040  143.0263  158.2489 C   0  0  0  0  0  0  0  0  0  0  0  0
  151.6628  143.3999  159.4919 C   0  0  0  0  0  0  0  0  0  0  0  0
  151.4864  144.8333  159.9636 C   0  0  0  0  0  0  0  0  0  0  0  0
  153.5311  142.0593  162.0764 H   0  0  0  0  0  0  0  0  0  0  0  0
  152.1876  143.1748  162.3132 H   0  0  0  0  0  0  0  0  0  0  0  0
  153.6588  143.7143  161.4897 H   0  0  0  0  0  0  0  0  0  0  0  0
  153.0834  140.4083  160.4541 H   0  0  0  0  0  0  0  0  0  0  0  0
  151.1352  138.9420  156.0286 H   0  0  0  0  0  0  0  0  0  0  0  0
  149.4688  142.4039  156.1325 H   0  0  0  0  0  0  0  0  0  0  0  0
  150.7928  142.2501  155.0092 H   0  0  0  0  0  0  0  0  0  0  0  0
  148.7672  139.9861  155.4682 H   0  0  0  0  0  0  0  0  0  0  0  0
  149.6670  139.8500  153.1166 H   0  0  0  0  0  0  0  0  0  0  0  0
  148.7482  142.1689  153.3328 H   0  0  0  0  0  0  0  0  0  0  0  0
  147.8079  140.7110  153.2022 H   0  0  0  0  0  0  0  0  0  0  0  0
  145.7765  140.4706  154.4090 H   0  0  0  0  0  0  0  0  0  0  0  0
  146.6723  140.4471  155.9117 H   0  0  0  0  0  0  0  0  0  0  0  0
  144.2848  141.0708  156.2765 H   0  0  0  0  0  0  0  0  0  0  0  0
  145.3679  142.3481  156.7997 H   0  0  0  0  0  0  0  0  0  0  0  0
  145.6366  144.2918  155.3193 H   0  0  0  0  0  0  0  0  0  0  0  0
  145.0681  145.3806  153.1373 H   0  0  0  0  0  0  0  0  0  0  0  0
  143.6231  145.0874  154.1002 H   0  0  0  0  0  0  0  0  0  0  0  0
  144.0022  144.0332  152.7404 H   0  0  0  0  0  0  0  0  0  0  0  0
  147.0891  143.7379  153.3794 H   0  0  0  0  0  0  0  0  0  0  0  0
  146.0111  142.4452  152.9052 H   0  0  0  0  0  0  0  0  0  0  0  0
  150.5675  143.7425  157.6448 H   0  0  0  0  0  0  0  0  0  0  0  0
  150.8878  145.4140  159.2610 H   0  0  0  0  0  0  0  0  0  0  0  0
  152.4545  145.3250  160.0623 H   0  0  0  0  0  0  0  0  0  0  0  0
  150.9825  144.8605  160.9300 H   0  0  0  0  0  0  0  0  0  0  0  0
  152.4029  138.6979  158.2485 H   0  0  0  0  0  0  0  0  0  0  0  0
  1  2  1  0  0  0  0
  1 23  1  0  0  0  0
  1 24  1  0  0  0  0
  1 25  1  0  0  0  0
  2 21  1  0  0  0  0
  2  3  2  0  0  0  0
  3  4  1  0  0  0  0
  3 26  1  0  0  0  0
  4 19  2  0  0  0  0
  4  5  1  0  0  0  0
  5  6  2  0  0  0  0
  5 48  1  0  0  0  0
  6  7  1  0  0  0  0
  6 27  1  0  0  0  0
  7  8  1  0  0  0  0
  7 19  1  0  0  0  0
  8  9  1  0  0  0  0
  8 28  1  0  0  0  0
  8 29  1  0  0  0  0
  9 10  1  0  0  0  0
  9 11  1  0  0  0  0
  9 30  1  0  0  0  0
 10 31  1  0  0  0  0
 11 12  1  0  0  0  0
 11 32  1  0  0  0  0
 11 33  1  0  0  0  0
 12 18  1  0  0  0  0
 12 13  1  0  0  0  0
 13 14  1  0  0  0  0
 13 34  1  0  0  0  0
 13 35  1  0  0  0  0
 14 15  1  0  0  0  0
 14 36  1  0  0  0  0
 14 37  1  0  0  0  0
 15 16  1  0  0  0  0
 16 17  1  0  0  0  0
 16 18  1  0  0  0  0
 16 38  1  0  0  0  0
 17 39  1  0  0  0  0
 17 40  1  0  0  0  0
 17 41  1  0  0  0  0
 18 42  1  0  0  0  0
 18 43  1  0  0  0  0
 19 20  1  0  0  0  0
 20 21  2  0  0  0  0
 20 44  1  0  0  0  0
 21 22  1  0  0  0  0
 22 45  1  0  0  0  0
 22 46  1  0  0  0  0
 22 47  1  0  0  0  0
M  CHG  1   5   1
M  END
> <s_m_source_file>
AV-unprocessed.smi

> <i_m_source_file_index>
1554

> <i_lp_mmshare_version>
43012

> <i_f3d_flags>
0

> <s_epik_input>
W0NIM11jKFtjSF0xKWMoW0NIM10pW2NIXWMoYzEyKW4oW2NIXW4yKVtDSDJdW0NASF0oW09IXSlbQ0gyXU4zW0NIMl1bQ0gyXU9bQ0BASF0oW0NIM10pW0NIMl0z

> <s_epik_cmdline>
J2VwaWtfcHl0aG9uJywgJy1waCcsICc3LjAnLCAnLXRuJywgJzgnLCAnLW1hJywgJzIwMCcsICctbWV0YWxfYmluZGluZycsICctaW1hZScsICc8aW5maWxlLm1hZT4nLCAnLW9tYWUnLCAnPG91dGZpbGUubWFlPic=

> <r_epik_Ionization_Penalty>
1.42504

> <r_epik_Ionization_Penalty_Charging>
1.21068

> <r_epik_Ionization_Penalty_Neutral>
0.214359

> <r_epik_State_Penalty>
1.46962

> <r_epik_Charging_Adjusted_Penalty>
2.6803

> <i_epik_Tot_Q>
1

> <i_epik_Tot_abs_Q>
1

> <r_epik_Metal_State_Penalty>
5.48754

> <b_epik_Metal_Only>
0

> <s_lp_Force_Field>
OPLS_2005

> <r_lp_Energy>
32.4448

> <b_lp_Chiralities_Consistent>
1

> <s_lp_Variant>
AV-unprocessed.smi:1554-15

> <Gold.Version>
5.8.1

> <Gold.Id.Protein>
6NUR|6NUR_protein|mol2

> <Gold.PLP.Fitness>
53.8939

> <Gold.PLP.PLP>
-49.2403

> <Gold.PLP.part.hbond>
-2.0000

> <Gold.PLP.part.metal>
0.0000

> <Gold.PLP.part.buried>
-6.9216

> <Gold.PLP.part.nonpolar>
-40.2816

> <Gold.PLP.part.repulsive>
0.3960

> <Gold.PLP.ligand.clash>
0.0000

> <Gold.PLP.ligand.torsion>
0.5733

> <Gold.PLP.Chemscore.Hbond>
1.9280

> <Gold.PLP.Chemscore.CHOScore>
0.0000

> <Gold.PLP.Chemscore.Metal>
0.0000

> <Gold.Chemscore.Hbonds>
donor molecule, donor type, donor heavy atom, donor atom, acceptor molecule, acceptor atom, score
      L1  H    10    31       P1  7957  1.00
      P1  H  7989  7998       L1    10  0.93

> <Gold.PLP.Chemscore.Internal.Correction>
0.0161

> <Gold.Rescore>
     Score         DG    S(hbond)    S(metal)    S(lipo)     H(rot)  DE(clash)    DE(int)     intcor
     19.56     -20.26       1.58        0.00     126.00       2.04       0.06       0.63       ----

> <Gold.Chemscore.Fitness>
19.5629

> <Gold.Chemscore.DG>
-20.2598

> <Gold.Chemscore.ZeroCoef>
-5.4800

> <Gold.Chemscore.Hbond>
1.5770

> <Gold.Chemscore.Metal>
0.0000

> <Gold.Chemscore.Lipo>
125.9989

> <Gold.Chemscore.Internal_Hbond>
0.0000

> <Gold.Chemscore.DEClash>
0.0624

> <Gold.Chemscore.DEInternal>
0.6345

> <Gold.Chemscore.Rot>
2.0427

> <Gold.Chemscore.Internal.Correction>
   9.000000E+99

> <Gold.Chemscore.Hbonds>
donor molecule, donor type, donor heavy atom, donor atom, acceptor molecule, acceptor atom, score
      L1  H    10    31       P1  7957  0.95
      P1  H  7989  7998       L1    10  0.22

> <Gold.Chemscore.Hbond.Weighted>
-5.2673

> <Gold.Chemscore.Metal.Weighted>
-0.0000

> <Gold.Chemscore.Lipo.Weighted>
-14.7419

> <Gold.Chemscore.Internal_Hbond.Weighted>
0.0000

> <Gold.Chemscore.DEClash.Weighted>
0.0624

> <Gold.Chemscore.DEInternal.Weighted>
0.6345

> <Gold.Chemscore.Rot.Weighted>
5.2294

> <Gold.Chemscore.Internal.Correction.Weighted>
   9.000000E+99

> <Gold.Protein.RotatedTorsions>
[ 6907 6896 6895 6894 ] final  165.20 input  -60.11 | X-H torsion
[ 7974 7965 7964 7962 ] final   52.91 input  175.53 | X-H torsion
[ 8008 7997 7996 7995 ] final  -67.00 input   59.86 | X-H torsion
[ 10167 10162 10161 10158 ] final  -19.41 input  -65.29 | X-H torsion
[ 10718 10713 10712 10709 ] final  100.05 input   66.30 | X-H torsion
[ 10763 10752 10751 10750 ] final -172.21 input  -60.55 | X-H torsion
[ 11005 11000 10999 10996 ] final   44.29 input  -57.11 | X-H torsion

> <Gold.Protein.ActiveResidues>
 VAL166  LYS551  ARG553  GLY616  TRP617  ASP618  TYR619  PRO620  LYS621  CYS622 
 ASP623  PHE694  ASN695  SER759  ASP760  ASP761  ALA762  ILE779  LEU786  VAL792 
 PHE793  MET794  SER795  GLU796  ALA797  LYS798  CYS799  TRP800  GLU811  SER814 

> <Gold.Protein.RotatedAtoms>
  151.8980  133.3531  159.3820 H   0  0  0  0  0  0  0  0  0  0  0  0  # atno 6907 bound_to 6896
  150.7087  134.4857  159.5501 H   0  0  0  0  0  0  0  0  0  0  0  0  # atno 6908 bound_to 6896
  152.2440  134.8201  160.0507 H   0  0  0  0  0  0  0  0  0  0  0  0  # atno 6909 bound_to 6896
  145.9765  139.4200  143.0158 H   0  0  0  0  0  0  0  0  0  0  0  0  # atno 7974 bound_to 7965
  154.4771  140.0901  156.7287 H   0  0  0  0  0  0  0  0  0  0  0  0  # atno 8008 bound_to 7997
  155.4569  140.3459  155.4289 H   0  0  0  0  0  0  0  0  0  0  0  0  # atno 8009 bound_to 7997
  156.1133  140.1454  156.9296 H   0  0  0  0  0  0  0  0  0  0  0  0  # atno 8010 bound_to 7997
  140.7268  143.4822  151.0103 H   0  0  0  0  0  0  0  0  0  0  0  0  # atno 10167 bound_to 10162
  157.6863  131.0687  150.5041 H   0  0  0  0  0  0  0  0  0  0  0  0  # atno 10718 bound_to 10713
  154.6219  135.2876  155.0316 H   0  0  0  0  0  0  0  0  0  0  0  0  # atno 10763 bound_to 10752
  154.1508  135.6504  153.4967 H   0  0  0  0  0  0  0  0  0  0  0  0  # atno 10764 bound_to 10752
  153.0240  135.5355  154.7012 H   0  0  0  0  0  0  0  0  0  0  0  0  # atno 10765 bound_to 10752
  140.1566  134.4394  155.8346 H   0  0  0  0  0  0  0  0  0  0  0  0  # atno 11005 bound_to 11000
  145.7831  140.9847  143.1088 LP  0  0  0  0  0  0  0  0  0  0  0  0  # atno 17320 bound_to 7965
  144.6850  139.9589  143.7480 LP  0  0  0  0  0  0  0  0  0  0  0  0  # atno 17321 bound_to 7965
  139.8521  143.7425  152.3177 LP  0  0  0  0  0  0  0  0  0  0  0  0  # atno 17342 bound_to 10162
  139.7610  144.7506  151.0363 LP  0  0  0  0  0  0  0  0  0  0  0  0  # atno 17343 bound_to 10162
  156.5362  130.4197  149.6177 LP  0  0  0  0  0  0  0  0  0  0  0  0  # atno 17370 bound_to 10713
  156.3026  130.7185  151.2060 LP  0  0  0  0  0  0  0  0  0  0  0  0  # atno 17371 bound_to 10713
  141.2205  133.6895  156.7518 LP  0  0  0  0  0  0  0  0  0  0  0  0  # atno 17394 bound_to 11000
  140.2540  134.8518  157.3695 LP  0  0  0  0  0  0  0  0  0  0  0  0  # atno 17395 bound_to 11000

$$$$
