AV-unprocessed.smi:1046|AV-procd|sdf|4549|dock7
  -GOLD-   22720 2573D 1   1.00000     0.00000
 Structure written by MMmdl.
 53 55  0  0  0  0  0  0  0  0  2 V2000
  152.9203  141.3991  159.4305 C   0  0  0  0  0  0  0  0  0  0  0  0
  151.9387  141.3505  158.2729 C   0  0  0  0  0  0  0  0  0  0  0  0
  152.0348  140.2985  157.3346 C   0  0  0  0  0  0  0  0  0  0  0  0
  151.1402  140.2159  156.2456 C   0  0  0  0  0  0  0  0  0  0  0  0
  151.0501  139.2851  155.2250 N   0  0  0  0  0  0  0  0  0  0  0  0
  150.0189  139.7511  154.5272 C   0  0  0  0  0  0  0  0  0  0  0  0
  149.4270  140.8747  154.9763 N   0  0  0  0  0  0  0  0  0  0  0  0
  148.2926  141.5600  154.3831 C   0  0  0  0  0  0  0  0  0  0  0  0
  147.0101  140.7034  154.4084 C   0  0  1  0  0  0  0  0  0  0  0  0
  145.9019  141.5121  154.0682 O   0  0  0  0  0  0  0  0  0  0  0  0
  147.0528  139.5247  153.4137 C   0  0  0  0  0  0  0  0  0  0  0  0
  145.7778  138.7653  153.3486 N   0  3  0  0  0  0  0  0  0  0  0  0
  145.1815  138.5473  154.6917 C   0  0  0  0  0  0  0  0  0  0  0  0
  143.8205  137.8320  154.5663 C   0  0  0  0  0  0  0  0  0  0  0  0
  143.9005  136.5564  153.8551 N   0  0  0  0  0  0  0  0  0  0  0  0
  144.5546  135.5060  154.6419 C   0  0  0  0  0  0  0  0  0  0  0  0
  143.6782  134.8815  155.7395 C   0  0  0  0  0  0  0  0  0  0  0  0
  142.4940  134.3768  155.1631 O   0  0  0  0  0  0  0  0  0  0  0  0
  144.4989  136.7932  152.5391 C   0  0  0  0  0  0  0  0  0  0  0  0
  145.8786  137.4795  152.6075 C   0  0  0  0  0  0  0  0  0  0  0  0
  150.1396  141.2237  156.1188 C   0  0  0  0  0  0  0  0  0  0  0  0
  150.0345  142.2756  157.0455 C   0  0  0  0  0  0  0  0  0  0  0  0
  150.9360  142.3426  158.1283 C   0  0  0  0  0  0  0  0  0  0  0  0
  150.8136  143.4817  159.1248 C   0  0  0  0  0  0  0  0  0  0  0  0
  153.6101  140.5552  159.4037 H   0  0  0  0  0  0  0  0  0  0  0  0
  152.3901  141.3672  160.3824 H   0  0  0  0  0  0  0  0  0  0  0  0
  153.5103  142.3151  159.3921 H   0  0  0  0  0  0  0  0  0  0  0  0
  152.7987  139.5429  157.4446 H   0  0  0  0  0  0  0  0  0  0  0  0
  149.6718  139.2449  153.6381 H   0  0  0  0  0  0  0  0  0  0  0  0
  148.1368  142.5024  154.9101 H   0  0  0  0  0  0  0  0  0  0  0  0
  148.5579  141.8191  153.3574 H   0  0  0  0  0  0  0  0  0  0  0  0
  146.8326  140.3394  155.4199 H   0  0  0  0  0  0  0  0  0  0  0  0
  145.3587  141.0394  153.4550 H   0  0  0  0  0  0  0  0  0  0  0  0
  147.3088  139.8775  152.4131 H   0  0  0  0  0  0  0  0  0  0  0  0
  147.8562  138.8499  153.7140 H   0  0  0  0  0  0  0  0  0  0  0  0
  145.8679  137.9736  155.3157 H   0  0  0  0  0  0  0  0  0  0  0  0
  145.0357  139.5080  155.1870 H   0  0  0  0  0  0  0  0  0  0  0  0
  143.3893  137.6789  155.5564 H   0  0  0  0  0  0  0  0  0  0  0  0
  143.1257  138.4882  154.0403 H   0  0  0  0  0  0  0  0  0  0  0  0
  144.9342  134.7182  153.9917 H   0  0  0  0  0  0  0  0  0  0  0  0
  145.4317  135.9351  155.1283 H   0  0  0  0  0  0  0  0  0  0  0  0
  144.2060  134.0678  156.2379 H   0  0  0  0  0  0  0  0  0  0  0  0
  143.4041  135.6125  156.4994 H   0  0  0  0  0  0  0  0  0  0  0  0
  142.6970  133.5695  154.7156 H   0  0  0  0  0  0  0  0  0  0  0  0
  144.5730  135.8621  151.9786 H   0  0  0  0  0  0  0  0  0  0  0  0
  143.8260  137.4249  151.9574 H   0  0  0  0  0  0  0  0  0  0  0  0
  146.2257  137.6569  151.5907 H   0  0  0  0  0  0  0  0  0  0  0  0
  146.6155  136.8294  153.0809 H   0  0  0  0  0  0  0  0  0  0  0  0
  149.2644  143.0233  156.9258 H   0  0  0  0  0  0  0  0  0  0  0  0
  150.0079  144.1642  158.8529 H   0  0  0  0  0  0  0  0  0  0  0  0
  151.7391  144.0565  159.1641 H   0  0  0  0  0  0  0  0  0  0  0  0
  150.6029  143.0949  160.1220 H   0  0  0  0  0  0  0  0  0  0  0  0
  145.1222  139.3439  152.8434 H   0  0  0  0  0  0  0  0  0  0  0  0
  1  2  1  0  0  0  0
  1 25  1  0  0  0  0
  1 26  1  0  0  0  0
  1 27  1  0  0  0  0
  2 23  1  0  0  0  0
  2  3  2  0  0  0  0
  3  4  1  0  0  0  0
  3 28  1  0  0  0  0
  4 21  2  0  0  0  0
  4  5  1  0  0  0  0
  5  6  2  0  0  0  0
  6  7  1  0  0  0  0
  6 29  1  0  0  0  0
  7  8  1  0  0  0  0
  7 21  1  0  0  0  0
  8  9  1  0  0  0  0
  8 30  1  0  0  0  0
  8 31  1  0  0  0  0
  9 10  1  0  0  0  0
  9 11  1  0  0  0  0
  9 32  1  0  0  0  0
 10 33  1  0  0  0  0
 11 12  1  0  0  0  0
 11 34  1  0  0  0  0
 11 35  1  0  0  0  0
 12 20  1  0  0  0  0
 12 13  1  0  0  0  0
 12 53  1  0  0  0  0
 13 14  1  0  0  0  0
 13 36  1  0  0  0  0
 13 37  1  0  0  0  0
 14 15  1  0  0  0  0
 14 38  1  0  0  0  0
 14 39  1  0  0  0  0
 15 16  1  0  0  0  0
 15 19  1  0  0  0  0
 16 17  1  0  0  0  0
 16 40  1  0  0  0  0
 16 41  1  0  0  0  0
 17 18  1  0  0  0  0
 17 42  1  0  0  0  0
 17 43  1  0  0  0  0
 18 44  1  0  0  0  0
 19 20  1  0  0  0  0
 19 45  1  0  0  0  0
 19 46  1  0  0  0  0
 20 47  1  0  0  0  0
 20 48  1  0  0  0  0
 21 22  1  0  0  0  0
 22 23  2  0  0  0  0
 22 49  1  0  0  0  0
 23 24  1  0  0  0  0
 24 50  1  0  0  0  0
 24 51  1  0  0  0  0
 24 52  1  0  0  0  0
M  CHG  1  12   1
M  END
> <s_m_source_file>
AV-unprocessed.smi

> <i_m_source_file_index>
1046

> <i_lp_mmshare_version>
43012

> <i_f3d_flags>
0

> <s_epik_input>
W0NIM11jKFtjSF0xKWMoW0NIM10pW2NIXWMoYzEyKW4oW2NIXW4yKVtDSDJdW0NASF0oW09IXSlbQ0gyXU4zW0NIMl1bQ0gyXU4oW0NIMl1bQ0gyXTMpW0NIMl1bQ0gyXVtPSF0=

> <s_epik_cmdline>
J2VwaWtfcHl0aG9uJywgJy1waCcsICc3LjAnLCAnLXRuJywgJzgnLCAnLW1hJywgJzIwMCcsICctbWV0YWxfYmluZGluZycsICctaW1hZScsICc8aW5maWxlLm1hZT4nLCAnLW9tYWUnLCAnPG91dGZpbGUubWFlPic=

> <r_epik_Ionization_Penalty>
0.131947

> <r_epik_Ionization_Penalty_Charging>
0.00213896

> <r_epik_Ionization_Penalty_Neutral>
0.129808

> <r_epik_State_Penalty>
0.319681

> <r_epik_Charging_Adjusted_Penalty>
0.32182

> <i_epik_Tot_Q>
1

> <i_epik_Tot_abs_Q>
1

> <r_epik_Metal_State_Penalty>
0.225417

> <b_epik_Metal_Only>
0

> <s_lp_Force_Field>
OPLS_2005

> <r_lp_Energy>
33.7571

> <b_lp_Chiralities_Consistent>
1

> <s_lp_Variant>
AV-unprocessed.smi:1046-2

> <Gold.Version>
5.8.1

> <Gold.Id.Protein>
6NUR|6NUR_protein|mol2

> <Gold.PLP.Fitness>
52.8178

> <Gold.PLP.PLP>
-36.6927

> <Gold.PLP.part.hbond>
-4.2631

> <Gold.PLP.part.metal>
0.0000

> <Gold.PLP.part.buried>
-2.9323

> <Gold.PLP.part.nonpolar>
-30.2764

> <Gold.PLP.part.repulsive>
0.0967

> <Gold.PLP.ligand.clash>
0.0000

> <Gold.PLP.ligand.torsion>
0.3918

> <Gold.PLP.Chemscore.Hbond>
4.5960

> <Gold.PLP.Chemscore.CHOScore>
1.0000

> <Gold.PLP.Chemscore.Metal>
0.0000

> <Gold.Chemscore.Hbonds>
donor molecule, donor type, donor heavy atom, donor atom, acceptor molecule, acceptor atom, score
      L1  H    10    33       P1 10175  1.00
      L1  H    12    53       P1 10175  2.00
      L1  H    18    44       P1 10957  0.91
      P1  H 11000 11005       L1    18  0.56
      L1  C     6    29       P1  7957  0.83

> <Gold.PLP.Chemscore.Internal.Correction>
0.1208

> <Gold.Rescore>
     Score         DG    S(hbond)    S(metal)    S(lipo)     H(rot)  DE(clash)    DE(int)     intcor
     18.19     -18.65       3.23        0.00      90.40       3.21       0.08       0.38       ----

> <Gold.Chemscore.Fitness>
18.1858

> <Gold.Chemscore.DG>
-18.6490

> <Gold.Chemscore.ZeroCoef>
-5.4800

> <Gold.Chemscore.Hbond>
3.2334

> <Gold.Chemscore.Metal>
0.0000

> <Gold.Chemscore.Lipo>
90.3958

> <Gold.Chemscore.Internal_Hbond>
0.0000

> <Gold.Chemscore.DEClash>
0.0785

> <Gold.Chemscore.DEInternal>
0.3847

> <Gold.Chemscore.Rot>
3.2058

> <Gold.Chemscore.Internal.Correction>
   9.000000E+99

> <Gold.Chemscore.Hbonds>
donor molecule, donor type, donor heavy atom, donor atom, acceptor molecule, acceptor atom, score
      L1  H    10    33       P1 10175  0.52
      L1  H    12    53       P1 10175  1.00
      L1  H    18    44       P1 10957  0.88
      P1  H 11000 11005       L1    18  0.10

> <Gold.Chemscore.Hbond.Weighted>
-10.7995

> <Gold.Chemscore.Metal.Weighted>
-0.0000

> <Gold.Chemscore.Lipo.Weighted>
-10.5763

> <Gold.Chemscore.Internal_Hbond.Weighted>
0.0000

> <Gold.Chemscore.DEClash.Weighted>
0.0785

> <Gold.Chemscore.DEInternal.Weighted>
0.3847

> <Gold.Chemscore.Rot.Weighted>
8.2067

> <Gold.Chemscore.Internal.Correction.Weighted>
   9.000000E+99

> <Gold.Protein.RotatedTorsions>
[ 6907 6896 6895 6894 ] final   63.56 input  -60.11 | X-H torsion
[ 7974 7965 7964 7962 ] final  -37.80 input  175.53 | X-H torsion
[ 8008 7997 7996 7995 ] final  -87.29 input   59.86 | X-H torsion
[ 10167 10162 10161 10158 ] final  124.48 input  -65.29 | X-H torsion
[ 10718 10713 10712 10709 ] final -112.24 input   66.30 | X-H torsion
[ 10763 10752 10751 10750 ] final  111.38 input  -60.55 | X-H torsion
[ 11005 11000 10999 10996 ] final  -40.30 input  -57.11 | X-H torsion

> <Gold.Protein.ActiveResidues>
 VAL166  LYS551  ARG553  GLY616  TRP617  ASP618  TYR619  PRO620  LYS621  CYS622 
 ASP623  PHE694  ASN695  SER759  ASP760  ASP761  ALA762  ILE779  LEU786  VAL792 
 PHE793  MET794  SER795  GLU796  ALA797  LYS798  CYS799  TRP800  GLU811  SER814 

> <Gold.Protein.RotatedAtoms>
  152.4262  134.5863  159.9961 H   0  0  0  0  0  0  0  0  0  0  0  0  # atno 6907 bound_to 6896
  151.5999  133.3352  159.3053 H   0  0  0  0  0  0  0  0  0  0  0  0  # atno 6908 bound_to 6896
  150.8152  134.7367  159.6789 H   0  0  0  0  0  0  0  0  0  0  0  0  # atno 6909 bound_to 6896
  146.0543  140.6438  142.9027 H   0  0  0  0  0  0  0  0  0  0  0  0  # atno 7974 bound_to 7965
  154.6615  140.0568  157.0067 H   0  0  0  0  0  0  0  0  0  0  0  0  # atno 8008 bound_to 7997
  155.1221  140.3248  155.4476 H   0  0  0  0  0  0  0  0  0  0  0  0  # atno 8009 bound_to 7997
  156.2620  140.1995  156.6343 H   0  0  0  0  0  0  0  0  0  0  0  0  # atno 8010 bound_to 7997
  139.5739  144.6953  151.3704 H   0  0  0  0  0  0  0  0  0  0  0  0  # atno 10167 bound_to 10162
  156.0694  130.5909  150.8482 H   0  0  0  0  0  0  0  0  0  0  0  0  # atno 10718 bound_to 10713
  153.4625  135.3719  155.2346 H   0  0  0  0  0  0  0  0  0  0  0  0  # atno 10763 bound_to 10752
  154.8757  135.3912  154.3908 H   0  0  0  0  0  0  0  0  0  0  0  0  # atno 10764 bound_to 10752
  153.4484  135.7085  153.6189 H   0  0  0  0  0  0  0  0  0  0  0  0  # atno 10765 bound_to 10752
  141.0165  133.6883  156.2303 H   0  0  0  0  0  0  0  0  0  0  0  0  # atno 11005 bound_to 11000
  144.7139  140.4140  143.7059 LP  0  0  0  0  0  0  0  0  0  0  0  0  # atno 17320 bound_to 7965
  145.6671  139.1592  143.2776 LP  0  0  0  0  0  0  0  0  0  0  0  0  # atno 17321 bound_to 7965
  140.7023  143.7601  150.7423 LP  0  0  0  0  0  0  0  0  0  0  0  0  # atno 17342 bound_to 10162
  140.1116  143.4694  152.2367 LP  0  0  0  0  0  0  0  0  0  0  0  0  # atno 17343 bound_to 10162
  157.5756  131.0946  150.9351 LP  0  0  0  0  0  0  0  0  0  0  0  0  # atno 17370 bound_to 10713
  156.9558  130.5437  149.5284 LP  0  0  0  0  0  0  0  0  0  0  0  0  # atno 17371 bound_to 10713
  140.6646  134.4932  157.5585 LP  0  0  0  0  0  0  0  0  0  0  0  0  # atno 17394 bound_to 11000
  139.9120  134.8325  156.1495 LP  0  0  0  0  0  0  0  0  0  0  0  0  # atno 17395 bound_to 11000

$$$$
