AV-unprocessed.smi:1807|AV-procd|sdf|7302|dock5
  -GOLD-   22720 8563D 1   1.00000     0.00000
 Structure written by MMmdl.
 44 45  0  0  0  0  0  0  0  0  1 V2000
  151.2562  145.4996  159.7524 C   0  0  0  0  0  0  0  0  0  0  0  0
  152.2763  144.4060  160.1122 C   0  0  1  0  0  0  0  0  0  0  0  0
  151.9551  143.7569  161.4743 C   0  0  0  0  0  0  0  0  0  0  0  0
  153.0127  142.7126  161.8657 C   0  0  0  0  0  0  0  0  0  0  0  0
  153.1727  141.6421  160.7760 C   0  0  0  0  0  0  0  0  0  0  0  0
  153.4885  142.2780  159.4108 C   0  0  0  0  0  0  0  0  0  0  0  0
  152.4431  143.3356  159.0023 C   0  0  1  0  0  0  0  0  0  0  0  0
  151.1739  142.6792  158.6795 N   0  0  0  0  0  0  0  0  0  0  0  0
  150.7357  142.3562  157.4529 C   0  0  0  0  0  0  0  0  0  0  0  0
  151.3735  142.5832  156.4232 O   0  0  0  0  0  0  0  0  0  0  0  0
  149.3683  141.6692  157.4016 C   0  0  0  0  0  0  0  0  0  0  0  0
  148.4642  142.3107  156.4569 N   0  0  0  0  0  0  0  0  0  0  0  0
  147.9329  141.5722  155.3947 C   0  0  0  0  0  0  0  0  0  0  0  0
  147.0458  142.1458  154.4440 C   0  0  0  0  0  0  0  0  0  0  0  0
  146.7801  141.1058  153.5990 C   0  0  0  0  0  0  0  0  0  0  0  0
  147.4835  140.0078  154.0560 N   0  0  0  0  0  0  0  0  0  0  0  0
  147.5315  138.6702  153.4931 C   0  0  0  0  0  0  0  0  0  0  0  0
  146.4636  138.4844  152.4125 C   0  0  0  0  0  0  0  0  0  0  0  0
  146.6589  139.1087  151.2484 N   0  0  0  0  0  0  0  0  0  0  0  0
  145.4752  137.7847  152.6234 O   0  0  0  0  0  0  0  0  0  0  0  0
  148.1936  140.2935  155.1699 N   0  0  0  0  0  0  0  0  0  0  0  0
  150.2420  145.1038  159.6949 H   0  0  0  0  0  0  0  0  0  0  0  0
  151.4925  145.9538  158.7898 H   0  0  0  0  0  0  0  0  0  0  0  0
  151.2559  146.2936  160.4994 H   0  0  0  0  0  0  0  0  0  0  0  0
  153.2405  144.9058  160.2159 H   0  0  0  0  0  0  0  0  0  0  0  0
  151.9003  144.5236  162.2478 H   0  0  0  0  0  0  0  0  0  0  0  0
  150.9715  143.2865  161.4406 H   0  0  0  0  0  0  0  0  0  0  0  0
  153.9699  143.2080  162.0334 H   0  0  0  0  0  0  0  0  0  0  0  0
  152.7390  142.2426  162.8106 H   0  0  0  0  0  0  0  0  0  0  0  0
  153.9663  140.9478  161.0528 H   0  0  0  0  0  0  0  0  0  0  0  0
  152.2588  141.0508  160.7065 H   0  0  0  0  0  0  0  0  0  0  0  0
  154.4716  142.7481  159.4577 H   0  0  0  0  0  0  0  0  0  0  0  0
  153.5612  141.5037  158.6458 H   0  0  0  0  0  0  0  0  0  0  0  0
  152.8250  143.8326  158.1089 H   0  0  0  0  0  0  0  0  0  0  0  0
  150.5770  142.4519  159.4613 H   0  0  0  0  0  0  0  0  0  0  0  0
  149.5106  140.6247  157.1208 H   0  0  0  0  0  0  0  0  0  0  0  0
  148.9210  141.6854  158.3968 H   0  0  0  0  0  0  0  0  0  0  0  0
  148.2978  143.3044  156.5307 H   0  0  0  0  0  0  0  0  0  0  0  0
  146.6674  143.1557  154.3878 H   0  0  0  0  0  0  0  0  0  0  0  0
  146.1583  141.0560  152.7176 H   0  0  0  0  0  0  0  0  0  0  0  0
  148.5181  138.4900  153.0629 H   0  0  0  0  0  0  0  0  0  0  0  0
  147.3971  137.9482  154.2999 H   0  0  0  0  0  0  0  0  0  0  0  0
  145.9838  139.0143  150.5037 H   0  0  0  0  0  0  0  0  0  0  0  0
  147.4864  139.6725  151.1169 H   0  0  0  0  0  0  0  0  0  0  0  0
  1  2  1  0  0  0  0
  1 22  1  0  0  0  0
  1 23  1  0  0  0  0
  1 24  1  0  0  0  0
  2  7  1  0  0  0  0
  2  3  1  0  0  0  0
  2 25  1  0  0  0  0
  3  4  1  0  0  0  0
  3 26  1  0  0  0  0
  3 27  1  0  0  0  0
  4  5  1  0  0  0  0
  4 28  1  0  0  0  0
  4 29  1  0  0  0  0
  5  6  1  0  0  0  0
  5 30  1  0  0  0  0
  5 31  1  0  0  0  0
  6  7  1  0  0  0  0
  6 32  1  0  0  0  0
  6 33  1  0  0  0  0
  7  8  1  0  0  0  0
  7 34  1  0  0  0  0
  8  9  1  0  0  0  0
  8 35  1  0  0  0  0
  9 10  2  0  0  0  0
  9 11  1  0  0  0  0
 11 12  1  0  0  0  0
 11 36  1  0  0  0  0
 11 37  1  0  0  0  0
 12 13  1  0  0  0  0
 12 38  1  0  0  0  0
 13 21  2  0  0  0  0
 13 14  1  0  0  0  0
 14 15  2  0  0  0  0
 14 39  1  0  0  0  0
 15 16  1  0  0  0  0
 15 40  1  0  0  0  0
 16 17  1  0  0  0  0
 16 21  1  0  0  0  0
 17 18  1  0  0  0  0
 17 41  1  0  0  0  0
 17 42  1  0  0  0  0
 18 19  1  0  0  0  0
 18 20  2  0  0  0  0
 19 43  1  0  0  0  0
 19 44  1  0  0  0  0
M  END
> <s_m_source_file>
AV-unprocessed.smi

> <i_m_source_file_index>
1807

> <i_lp_mmshare_version>
43012

> <i_f3d_flags>
0

> <s_epik_input>
W0NIM11bQ0BASF0xW0NIMl1bQ0gyXVtDSDJdW0NIMl1bQ0BIXTFbTkhdQyg9TylbQ0gyXVtOSF1jMltjSF1bY0hdbihuMilbQ0gyXUMoPU8pW05IMl0=

> <s_epik_cmdline>
J2VwaWtfcHl0aG9uJywgJy1waCcsICc3LjAnLCAnLXRuJywgJzgnLCAnLW1hJywgJzIwMCcsICctbWV0YWxfYmluZGluZycsICctaW1hZScsICc8aW5maWxlLm1hZT4nLCAnLW9tYWUnLCAnPG91dGZpbGUubWFlPic=

> <r_lp_tautomer_probability>
1

> <r_epik_Ionization_Penalty>
0.000167642

> <r_epik_Ionization_Penalty_Charging>
0

> <r_epik_Ionization_Penalty_Neutral>
0.000167642

> <r_epik_State_Penalty>
-0

> <r_epik_Charging_Adjusted_Penalty>
0

> <i_epik_Tot_Q>
0

> <i_epik_Tot_abs_Q>
0

> <r_epik_Metal_State_Penalty>
-0

> <b_epik_Metal_Only>
0

> <s_lp_Force_Field>
OPLS_2005

> <r_lp_Energy>
4.94833

> <b_lp_Chiralities_Consistent>
1

> <s_lp_Variant>
AV-unprocessed.smi:1807-2

> <Gold.Version>
5.8.1

> <Gold.Id.Protein>
6NUR|6NUR_protein|mol2

> <Gold.PLP.Fitness>
51.8346

> <Gold.PLP.PLP>
-44.6124

> <Gold.PLP.part.hbond>
-2.4430

> <Gold.PLP.part.metal>
0.0000

> <Gold.PLP.part.buried>
-3.9026

> <Gold.PLP.part.nonpolar>
-40.5271

> <Gold.PLP.part.repulsive>
0.5924

> <Gold.PLP.ligand.clash>
0.0000

> <Gold.PLP.ligand.torsion>
0.6120

> <Gold.PLP.Chemscore.Hbond>
2.0365

> <Gold.PLP.Chemscore.CHOScore>
0.7718

> <Gold.PLP.Chemscore.Metal>
0.0000

> <Gold.Chemscore.Hbonds>
donor molecule, donor type, donor heavy atom, donor atom, acceptor molecule, acceptor atom, score
      L1  H    12    38       P1  8028  0.72
      L1  H    19    43       P1 10171  0.49
      L1  H    19    44       P1  7957  0.83
      L1  C    15    40       P1 10175  0.85

> <Gold.PLP.Chemscore.Internal.Correction>
0.0213

> <Gold.Rescore>
     Score         DG    S(hbond)    S(metal)    S(lipo)     H(rot)  DE(clash)    DE(int)     intcor
     15.02     -17.20       1.81        0.00     106.23       2.64       1.38       0.80       ----

> <Gold.Chemscore.Fitness>
15.0183

> <Gold.Chemscore.DG>
-17.1984

> <Gold.Chemscore.ZeroCoef>
-5.4800

> <Gold.Chemscore.Hbond>
1.8082

> <Gold.Chemscore.Metal>
0.0000

> <Gold.Chemscore.Lipo>
106.2341

> <Gold.Chemscore.Internal_Hbond>
0.0000

> <Gold.Chemscore.DEClash>
1.3799

> <Gold.Chemscore.DEInternal>
0.8001

> <Gold.Chemscore.Rot>
2.6369

> <Gold.Chemscore.Internal.Correction>
   9.000000E+99

> <Gold.Chemscore.Hbonds>
donor molecule, donor type, donor heavy atom, donor atom, acceptor molecule, acceptor atom, score
      L1  H    12    38       P1  8028  0.29
      L1  H    19    43       P1 10171  0.48
      L1  H    19    44       P1  7957  0.75

> <Gold.Chemscore.Hbond.Weighted>
-6.0393

> <Gold.Chemscore.Metal.Weighted>
-0.0000

> <Gold.Chemscore.Lipo.Weighted>
-12.4294

> <Gold.Chemscore.Internal_Hbond.Weighted>
0.0000

> <Gold.Chemscore.DEClash.Weighted>
1.3799

> <Gold.Chemscore.DEInternal.Weighted>
0.8001

> <Gold.Chemscore.Rot.Weighted>
6.7504

> <Gold.Chemscore.Internal.Correction.Weighted>
   9.000000E+99

> <Gold.Protein.RotatedTorsions>
[ 6907 6896 6895 6894 ] final   27.52 input  -60.11 | X-H torsion
[ 7974 7965 7964 7962 ] final  -19.56 input  175.53 | X-H torsion
[ 8008 7997 7996 7995 ] final -160.35 input   59.86 | X-H torsion
[ 10167 10162 10161 10158 ] final -170.23 input  -65.29 | X-H torsion
[ 10718 10713 10712 10709 ] final  143.35 input   66.30 | X-H torsion
[ 10763 10752 10751 10750 ] final   35.69 input  -60.55 | X-H torsion
[ 11005 11000 10999 10996 ] final   52.57 input  -57.11 | X-H torsion

> <Gold.Protein.ActiveResidues>
 VAL166  LYS551  ARG553  GLY616  TRP617  ASP618  TYR619  PRO620  LYS621  CYS622 
 ASP623  PHE694  ASN695  SER759  ASP760  ASP761  ALA762  ILE779  LEU786  VAL792 
 PHE793  MET794  SER795  GLU796  ALA797  LYS798  CYS799  TRP800  GLU811  SER814 

> <Gold.Protein.RotatedAtoms>
  152.0034  134.9916  160.0565 H   0  0  0  0  0  0  0  0  0  0  0  0  # atno 6907 bound_to 6896
  152.1497  133.4509  159.4816 H   0  0  0  0  0  0  0  0  0  0  0  0  # atno 6908 bound_to 6896
  150.6874  134.2122  159.4407 H   0  0  0  0  0  0  0  0  0  0  0  0  # atno 6909 bound_to 6896
  146.1835  140.4079  142.8485 H   0  0  0  0  0  0  0  0  0  0  0  0  # atno 7974 bound_to 7965
  155.7761  140.0858  157.2083 H   0  0  0  0  0  0  0  0  0  0  0  0  # atno 8008 bound_to 7997
  154.3993  140.1516  156.3056 H   0  0  0  0  0  0  0  0  0  0  0  0  # atno 8009 bound_to 7997
  155.8699  140.3426  155.5817 H   0  0  0  0  0  0  0  0  0  0  0  0  # atno 8010 bound_to 7997
  139.5874  144.1288  152.1593 H   0  0  0  0  0  0  0  0  0  0  0  0  # atno 10167 bound_to 10162
  157.3700  131.0977  151.0837 H   0  0  0  0  0  0  0  0  0  0  0  0  # atno 10718 bound_to 10713
  153.0108  135.6326  154.1867 H   0  0  0  0  0  0  0  0  0  0  0  0  # atno 10763 bound_to 10752
  154.1609  135.2823  155.3111 H   0  0  0  0  0  0  0  0  0  0  0  0  # atno 10764 bound_to 10752
  154.5982  135.5596  153.7408 H   0  0  0  0  0  0  0  0  0  0  0  0  # atno 10765 bound_to 10752
  140.0838  134.5302  155.8919 H   0  0  0  0  0  0  0  0  0  0  0  0  # atno 11005 bound_to 11000
  144.8356  140.6776  143.6263 LP  0  0  0  0  0  0  0  0  0  0  0  0  # atno 17320 bound_to 7965
  145.4008  139.1598  143.4179 LP  0  0  0  0  0  0  0  0  0  0  0  0  # atno 17321 bound_to 7965
  140.0854  144.5665  150.7092 LP  0  0  0  0  0  0  0  0  0  0  0  0  # atno 17342 bound_to 10162
  140.7143  143.2531  151.4482 LP  0  0  0  0  0  0  0  0  0  0  0  0  # atno 17343 bound_to 10162
  157.1944  130.6366  149.5716 LP  0  0  0  0  0  0  0  0  0  0  0  0  # atno 17370 bound_to 10713
  155.9753  130.4711  150.6454 LP  0  0  0  0  0  0  0  0  0  0  0  0  # atno 17371 bound_to 10713
  141.2056  133.6648  156.6189 LP  0  0  0  0  0  0  0  0  0  0  0  0  # atno 17394 bound_to 11000
  140.3449  134.7818  157.4425 LP  0  0  0  0  0  0  0  0  0  0  0  0  # atno 17395 bound_to 11000

$$$$
