#       Name:                AV-unprocessed.smi:2414
#       Creating user name   scv26
#       Creation time:       Fri Mar 27 13:17:33 2020


#       File generated by GOLD software.
#

@<TRIPOS>MOLECULE
AV-unprocessed.smi:2414
    48    49     1
SMALL
NO_CHARGES


@<TRIPOS>ATOM
      1 ****        -3.1850  -4.0447   5.9460 C.3            1 S1                 0.0000
      2 ****        -2.6600  -2.8880   5.1647 C.2            1 S1                 0.0000
      3 ****        -2.2955  -1.6533   5.6411 C.2            1 S1                 0.0000
      4 ****        -1.8373  -0.7794   4.6527 N.2            1 S1                 0.0000
      5 ****        -1.8490  -1.3315   3.4359 C.2            1 S1                 0.0000
      6 ****        -1.4094  -0.6201   2.1949 C.3            1 S1                 0.0000
      7 ****        -2.3168   0.5819   1.8792 C.3            1 S1                 0.0000
      8 ****         0.0966  -0.2824   2.2384 C.3            1 S1                 0.0000
      9 ****         0.5662   0.3478   1.0090 N.am           1 S1                 0.0000
     10 ****         0.8475  -0.3013  -0.1287 C.2            1 S1                 0.0000
     11 ****         0.7675  -1.5222  -0.2653 O.2            1 S1                 0.0000
     12 ****         1.2163   0.5416  -1.1008 N.am           1 S1                 0.0000
     13 ****         1.5674   0.1449  -2.4595 C.3            1 S1                 0.0000
     14 ****         1.3830   1.3060  -3.4607 C.3            1 S1                 0.0000
     15 ****        -0.0606   1.8435  -3.4777 C.3            1 S1                 0.0000
     16 ****         1.8524   0.9008  -4.8701 C.3            1 S1                 0.0000
     17 ****         3.2701   1.4259  -4.9322 C.3            1 S1                 0.0000
     18 ****         3.1445   2.7063  -4.1218 C.3            1 S1                 0.0000
     19 ****         2.2614   2.3625  -3.0622 O.3            1 S1                 0.0000
     20 ****        -2.4335  -2.9919   3.4381 S.3            1 S1                 0.0000
     21 ****        -3.8239  -3.7057   6.7619 H              1 S1                 0.0000
     22 ****        -2.3665  -4.6224   6.3757 H              1 S1                 0.0000
     23 ****        -3.7734  -4.7109   5.3146 H              1 S1                 0.0000
     24 ****        -2.3293  -1.3119   6.6653 H              1 S1                 0.0000
     25 ****        -1.5507  -1.3298   1.3786 H              1 S1                 0.0000
     26 ****        -3.3610   0.2751   1.8141 H              1 S1                 0.0000
     27 ****        -2.0555   1.0442   0.9273 H              1 S1                 0.0000
     28 ****        -2.2421   1.3473   2.6522 H              1 S1                 0.0000
     29 ****         0.3019   0.4004   3.0633 H              1 S1                 0.0000
     30 ****         0.6812  -1.1833   2.4337 H              1 S1                 0.0000
     31 ****         0.6650   1.3524   1.0214 H              1 S1                 0.0000
     32 ****         1.2535   1.5288  -0.8927 H              1 S1                 0.0000
     33 ****         2.6024  -0.1994  -2.4616 H              1 S1                 0.0000
     34 ****         0.9531  -0.7021  -2.7706 H              1 S1                 0.0000
     35 ****        -0.7654   1.0659  -3.7735 H              1 S1                 0.0000
     36 ****        -0.1646   2.6703  -4.1808 H              1 S1                 0.0000
     37 ****        -0.3667   2.2147  -2.4995 H              1 S1                 0.0000
     38 ****         1.7903  -0.1720  -5.0566 H              1 S1                 0.0000
     39 ****         1.2555   1.3996  -5.6353 H              1 S1                 0.0000
     40 ****         3.9550   0.7327  -4.4420 H              1 S1                 0.0000
     41 ****         3.6210   1.5968  -5.9501 H              1 S1                 0.0000
     42 ****         4.1025   3.0665  -3.7468 H              1 S1                 0.0000
     43 ****         2.6912   3.4970  -4.7214 H              1 S1                 0.0000
     44 ****        -1.5341   0.1558   4.8354 LP             1 S1                 0.0000
     45 ****         0.4772  -2.0933   0.5026 LP             1 S1                 0.0000
     46 ****         0.9928  -1.9428  -1.1441 LP             1 S1                 0.0000
     47 ****         2.7968   2.0642  -2.2720 LP             1 S1                 0.0000
     48 ****         1.7187   3.1647  -2.8134 LP             1 S1                 0.0000
@<TRIPOS>BOND
    1    1    2 1     
    2    1   21 1     
    3    1   22 1     
    4    1   23 1     
    5    2   20 1     
    6    2    3 2     
    7    3    4 1     
    8    3   24 1     
    9    4    5 2     
   10    5    6 1     
   11    5   20 1     
   12    6    7 1     
   13    6    8 1     
   14    6   25 1     
   15    7   26 1     
   16    7   27 1     
   17    7   28 1     
   18    8    9 1     
   19    8   29 1     
   20    8   30 1     
   21    9   10 am    
   22    9   31 1     
   23   10   11 2     
   24   10   12 am    
   25   12   13 1     
   26   12   32 1     
   27   13   14 1     
   28   13   33 1     
   29   13   34 1     
   30   14   19 1     
   31   14   15 1     
   32   14   16 1     
   33   15   35 1     
   34   15   36 1     
   35   15   37 1     
   36   16   17 1     
   37   16   38 1     
   38   16   39 1     
   39   17   18 1     
   40   17   40 1     
   41   17   41 1     
   42   18   19 1     
   43   18   42 1     
   44   18   43 1     
   45    4   44 1     
   46   11   45 1     
   47   11   46 1     
   48   19   47 1     
   49   19   48 1     
@<TRIPOS>SUBSTRUCTURE
      1 S1             1
@<TRIPOS>SET
LONE_PAIRS      STATIC     ATOMS    <user>   **** ""
5 44 45 46 47 48
DONOR_HYDROGENS      STATIC     ATOMS    <user>   **** ""
2 31 32
ATOM$BLUE        STATIC     ATOMS    COLORGROUP SYSTEM
5 44 45 46 47 48
ATOM$RED        STATIC     ATOMS    COLORGROUP SYSTEM
2 31 32
