AV-unprocessed.smi:3209|AV-procd|sdf|12269|dock10
  -GOLD-   2272018103D 1   1.00000     0.00000
 Structure written by MMmdl.
 37 39  0  0  0  0  0  0  0  0  2 V2000
  153.7395  138.1939  154.4852 C   0  0  0  0  0  0  0  0  0  0  0  0
  152.3464  138.6081  154.8162 C   0  0  0  0  0  0  0  0  0  0  0  0
  151.9851  139.8744  155.0401 N   0  0  0  0  0  0  0  0  0  0  0  0
  150.6242  140.0028  155.3342 C   0  0  0  0  0  0  0  0  0  0  0  0
  150.0481  141.3573  155.6150 C   0  0  0  0  0  0  0  0  0  0  0  0
  150.8398  142.1136  156.6902 C   0  0  0  0  0  0  0  0  0  0  0  0
  149.9510  142.9758  157.4955 N   0  3  0  0  0  0  0  0  0  0  0  0
  150.4671  143.3028  158.8428 C   0  0  1  0  0  0  0  0  0  0  0  0
  151.4517  142.2358  159.3760 C   0  0  0  0  0  0  0  0  0  0  0  0
  152.7249  143.0536  159.6599 C   0  0  2  0  0  0  0  0  0  0  0  0
  152.4837  143.9879  160.8602 C   0  0  0  0  0  0  0  0  0  0  0  0
  151.5456  145.0595  160.2726 C   0  0  0  0  0  0  0  0  0  0  0  0
  151.3415  144.5758  158.8243 C   0  0  1  0  0  0  0  0  0  0  0  0
  152.7278  144.0313  158.4915 C   0  0  0  0  0  0  0  0  0  0  0  0
  149.9527  138.8054  155.3230 C   0  0  0  0  0  0  0  0  0  0  0  0
  151.0094  137.4720  154.9465 S   0  0  0  0  0  0  0  0  0  0  0  0
  154.4332  139.0214  154.6372 H   0  0  0  0  0  0  0  0  0  0  0  0
  153.7955  137.8761  153.4441 H   0  0  0  0  0  0  0  0  0  0  0  0
  154.0434  137.3636  155.1227 H   0  0  0  0  0  0  0  0  0  0  0  0
  150.0249  141.9472  154.6977 H   0  0  0  0  0  0  0  0  0  0  0  0
  149.0090  141.2571  155.9320 H   0  0  0  0  0  0  0  0  0  0  0  0
  151.3428  141.4059  157.3507 H   0  0  0  0  0  0  0  0  0  0  0  0
  151.6137  142.7217  156.2204 H   0  0  0  0  0  0  0  0  0  0  0  0
  149.7810  143.8372  156.9966 H   0  0  0  0  0  0  0  0  0  0  0  0
  149.6211  143.4373  159.5188 H   0  0  0  0  0  0  0  0  0  0  0  0
  151.0751  141.7339  160.2680 H   0  0  0  0  0  0  0  0  0  0  0  0
  151.6603  141.4685  158.6286 H   0  0  0  0  0  0  0  0  0  0  0  0
  153.6240  142.4441  159.7539 H   0  0  0  0  0  0  0  0  0  0  0  0
  152.0395  143.4644  161.7078 H   0  0  0  0  0  0  0  0  0  0  0  0
  153.4177  144.4395  161.1972 H   0  0  0  0  0  0  0  0  0  0  0  0
  150.6078  145.1413  160.8235 H   0  0  0  0  0  0  0  0  0  0  0  0
  152.0267  146.0385  160.2886 H   0  0  0  0  0  0  0  0  0  0  0  0
  150.9770  145.3580  158.1573 H   0  0  0  0  0  0  0  0  0  0  0  0
  153.5164  144.7831  158.5593 H   0  0  0  0  0  0  0  0  0  0  0  0
  152.7827  143.5429  157.5170 H   0  0  0  0  0  0  0  0  0  0  0  0
  148.9048  138.6250  155.5131 H   0  0  0  0  0  0  0  0  0  0  0  0
  149.0725  142.4902  157.6076 H   0  0  0  0  0  0  0  0  0  0  0  0
  1  2  1  0  0  0  0
  1 17  1  0  0  0  0
  1 18  1  0  0  0  0
  1 19  1  0  0  0  0
  2 16  1  0  0  0  0
  2  3  2  0  0  0  0
  3  4  1  0  0  0  0
  4  5  1  0  0  0  0
  4 15  2  0  0  0  0
  5  6  1  0  0  0  0
  5 20  1  0  0  0  0
  5 21  1  0  0  0  0
  6  7  1  0  0  0  0
  6 22  1  0  0  0  0
  6 23  1  0  0  0  0
  7  8  1  0  0  0  0
  7 24  1  0  0  0  0
  7 37  1  0  0  0  0
  8 13  1  0  0  0  0
  8  9  1  0  0  0  0
  8 25  1  0  0  0  0
  9 10  1  0  0  0  0
  9 26  1  0  0  0  0
  9 27  1  0  0  0  0
 10 14  1  0  0  0  0
 10 11  1  0  0  0  0
 10 28  1  0  0  0  0
 11 12  1  0  0  0  0
 11 29  1  0  0  0  0
 11 30  1  0  0  0  0
 12 13  1  0  0  0  0
 12 31  1  0  0  0  0
 12 32  1  0  0  0  0
 13 14  1  0  0  0  0
 13 33  1  0  0  0  0
 14 34  1  0  0  0  0
 14 35  1  0  0  0  0
 15 16  1  0  0  0  0
 15 36  1  0  0  0  0
M  CHG  1   7   1
M  END
> <s_m_source_file>
AV-unprocessed.smi

> <i_m_source_file_index>
3209

> <i_lp_mmshare_version>
43012

> <i_f3d_flags>
0

> <s_epik_input>
W0NIM11jMW5jKFtjSF1zMSlbQ0gyXVtDSDJdW05IXVtDQEhdKFtDSDJdW0NASF0yMylbQ0BIXShbQ0gyXTMpW0NIMl1bQ0gyXTI=

> <s_epik_cmdline>
J2VwaWtfcHl0aG9uJywgJy1waCcsICc3LjAnLCAnLXRuJywgJzgnLCAnLW1hJywgJzIwMCcsICctbWV0YWxfYmluZGluZycsICctaW1hZScsICc8aW5maWxlLm1hZT4nLCAnLW9tYWUnLCAnPG91dGZpbGUubWFlPic=

> <r_lp_tautomer_probability>
1

> <r_epik_Ionization_Penalty>
0.000342479

> <r_epik_Ionization_Penalty_Charging>
0.000317129

> <r_epik_Ionization_Penalty_Neutral>
2.535e-05

> <r_epik_State_Penalty>
-0

> <r_epik_Charging_Adjusted_Penalty>
0.000317129

> <i_epik_Tot_Q>
1

> <i_epik_Tot_abs_Q>
1

> <r_epik_Metal_State_Penalty>
-0

> <b_epik_Metal_Only>
0

> <s_lp_Force_Field>
OPLS_2005

> <r_lp_Energy>
48.296

> <b_lp_Chiralities_Consistent>
1

> <s_lp_Variant>
AV-unprocessed.smi:3209-2

> <Gold.Version>
5.8.1

> <Gold.Id.Protein>
6NUR|6NUR_protein|mol2

> <Gold.PLP.Fitness>
47.0194

> <Gold.PLP.PLP>
-41.7793

> <Gold.PLP.part.hbond>
-2.0000

> <Gold.PLP.part.metal>
0.0000

> <Gold.PLP.part.buried>
-3.9071

> <Gold.PLP.part.nonpolar>
-37.3230

> <Gold.PLP.part.repulsive>
0.0602

> <Gold.PLP.ligand.clash>
0.0000

> <Gold.PLP.ligand.torsion>
0.8140

> <Gold.PLP.Chemscore.Hbond>
2.2856

> <Gold.PLP.Chemscore.CHOScore>
0.0000

> <Gold.PLP.Chemscore.Metal>
0.0000

> <Gold.Chemscore.Hbonds>
donor molecule, donor type, donor heavy atom, donor atom, acceptor molecule, acceptor atom, score
      L1  H     7    24       P1  8028  1.98
      P1  H  7989  7998       L1     3  0.35

> <Gold.PLP.Chemscore.Internal.Correction>
0.0113

> <Gold.Rescore>
     Score         DG    S(hbond)    S(metal)    S(lipo)     H(rot)  DE(clash)    DE(int)     intcor
     19.78     -20.57       0.95        0.00     130.48       1.31       0.07       0.72       ----

> <Gold.Chemscore.Fitness>
19.7833

> <Gold.Chemscore.DG>
-20.5747

> <Gold.Chemscore.ZeroCoef>
-5.4800

> <Gold.Chemscore.Hbond>
0.9533

> <Gold.Chemscore.Metal>
0.0000

> <Gold.Chemscore.Lipo>
130.4838

> <Gold.Chemscore.Internal_Hbond>
0.0000

> <Gold.Chemscore.DEClash>
0.0726

> <Gold.Chemscore.DEInternal>
0.7189

> <Gold.Chemscore.Rot>
1.3108

> <Gold.Chemscore.Internal.Correction>
   9.000000E+99

> <Gold.Chemscore.Hbonds>
donor molecule, donor type, donor heavy atom, donor atom, acceptor molecule, acceptor atom, score
      L1  H     7    24       P1  8028  0.88
      P1  H  7989  7998       L1     3  0.01

> <Gold.Chemscore.Hbond.Weighted>
-3.1839

> <Gold.Chemscore.Metal.Weighted>
-0.0000

> <Gold.Chemscore.Lipo.Weighted>
-15.2666

> <Gold.Chemscore.Internal_Hbond.Weighted>
0.0000

> <Gold.Chemscore.DEClash.Weighted>
0.0726

> <Gold.Chemscore.DEInternal.Weighted>
0.7189

> <Gold.Chemscore.Rot.Weighted>
3.3558

> <Gold.Chemscore.Internal.Correction.Weighted>
   9.000000E+99

> <Gold.Protein.RotatedTorsions>
[ 6907 6896 6895 6894 ] final -162.48 input  -60.11 | X-H torsion
[ 7974 7965 7964 7962 ] final  110.91 input  175.53 | X-H torsion
[ 8008 7997 7996 7995 ] final  -40.74 input   59.86 | X-H torsion
[ 10167 10162 10161 10158 ] final   11.39 input  -65.29 | X-H torsion
[ 10718 10713 10712 10709 ] final  -20.04 input   66.30 | X-H torsion
[ 10763 10752 10751 10750 ] final   75.21 input  -60.55 | X-H torsion
[ 11005 11000 10999 10996 ] final   91.92 input  -57.11 | X-H torsion

> <Gold.Protein.ActiveResidues>
 VAL166  LYS551  ARG553  GLY616  TRP617  ASP618  TYR619  PRO620  LYS621  CYS622 
 ASP623  PHE694  ASN695  SER759  ASP760  ASP761  ALA762  ILE779  LEU786  VAL792 
 PHE793  MET794  SER795  GLU796  ALA797  LYS798  CYS799  TRP800  GLU811  SER814 

> <Gold.Protein.RotatedAtoms>
  151.3809  133.3821  159.2709 H   0  0  0  0  0  0  0  0  0  0  0  0  # atno 6907 bound_to 6896
  150.9578  134.8971  159.7722 H   0  0  0  0  0  0  0  0  0  0  0  0  # atno 6908 bound_to 6896
  152.5137  134.3767  159.9389 H   0  0  0  0  0  0  0  0  0  0  0  0  # atno 6909 bound_to 6896
  145.2490  139.2747  143.4078 H   0  0  0  0  0  0  0  0  0  0  0  0  # atno 7974 bound_to 7965
  154.4009  140.1517  156.3077 H   0  0  0  0  0  0  0  0  0  0  0  0  # atno 8008 bound_to 7997
  155.8643  140.3452  155.5756 H   0  0  0  0  0  0  0  0  0  0  0  0  # atno 8009 bound_to 7997
  155.7845  140.0848  157.2032 H   0  0  0  0  0  0  0  0  0  0  0  0  # atno 8010 bound_to 7997
  140.6135  143.8358  150.7092 H   0  0  0  0  0  0  0  0  0  0  0  0  # atno 10167 bound_to 10162
  156.5374  130.4670  149.6516 H   0  0  0  0  0  0  0  0  0  0  0  0  # atno 10718 bound_to 10713
  153.0639  135.4997  154.8156 H   0  0  0  0  0  0  0  0  0  0  0  0  # atno 10763 bound_to 10752
  154.6924  135.2987  154.9462 H   0  0  0  0  0  0  0  0  0  0  0  0  # atno 10764 bound_to 10752
  154.0213  135.6741  153.4825 H   0  0  0  0  0  0  0  0  0  0  0  0  # atno 10765 bound_to 10752
  139.8831  134.8702  156.3497 H   0  0  0  0  0  0  0  0  0  0  0  0  # atno 11005 bound_to 11000
  146.3308  140.2875  142.8613 LP  0  0  0  0  0  0  0  0  0  0  0  0  # atno 17320 bound_to 7965
  144.9520  140.8188  143.5566 LP  0  0  0  0  0  0  0  0  0  0  0  0  # atno 17321 bound_to 7965
  140.1932  143.4020  152.1848 LP  0  0  0  0  0  0  0  0  0  0  0  0  # atno 17342 bound_to 10162
  139.5380  144.7228  151.4829 LP  0  0  0  0  0  0  0  0  0  0  0  0  # atno 17343 bound_to 10162
  156.3003  130.7173  151.2043 LP  0  0  0  0  0  0  0  0  0  0  0  0  # atno 17370 bound_to 10713
  157.7411  131.0508  150.5118 LP  0  0  0  0  0  0  0  0  0  0  0  0  # atno 17371 bound_to 10713
  140.9602  133.7393  156.0391 LP  0  0  0  0  0  0  0  0  0  0  0  0  # atno 17394 bound_to 11000
  140.7998  134.3521  157.5442 LP  0  0  0  0  0  0  0  0  0  0  0  0  # atno 17395 bound_to 11000

$$$$
