AV-unprocessed.smi:2919|AV-procd|sdf|11193|dock4
  -GOLD-   2272016 83D 1   1.00000     0.00000
 Structure written by MMmdl.
 34 36  0  0  0  0  0  0  0  0  1 V2000
  151.7307  144.9749  160.0685 C   0  0  0  0  0  0  0  0  0  0  0  0
  151.9513  143.6257  159.4081 C   0  0  0  0  0  0  0  0  0  0  0  0
  151.3236  143.4616  158.2230 N   0  0  0  0  0  0  0  0  0  0  0  0
  151.4431  142.3180  157.5470 N   0  0  0  0  0  0  0  0  0  0  0  0
  152.1909  141.2973  158.0314 C   0  0  0  0  0  0  0  0  0  0  0  0
  152.2692  140.1231  157.2601 N   0  0  0  0  0  0  0  0  0  0  0  0
  152.0114  140.1522  155.8234 C   0  0  1  0  0  0  0  0  0  0  0  0
  152.7819  139.0743  155.0575 C   0  0  0  0  0  0  0  0  0  0  0  0
  151.6566  138.3669  154.2891 C   0  0  1  0  0  0  0  0  0  0  0  0
  150.8193  137.4731  155.2131 C   0  0  0  0  0  0  0  0  0  0  0  0
  150.0312  138.5074  156.0141 C   0  0  0  0  0  0  0  0  0  0  0  0
  150.5554  139.8302  155.4292 C   0  0  2  0  0  0  0  0  0  0  0  0
  150.7545  139.4406  154.0807 O   0  0  0  0  0  0  0  0  0  0  0  0
  152.8789  141.4013  159.2681 C   0  0  0  0  0  0  0  0  0  0  0  0
  153.6830  140.2958  159.7857 C   0  0  0  0  0  0  0  0  0  0  0  0
  154.3193  139.4208  160.1959 N   0  0  0  0  0  0  0  0  0  0  0  0
  152.7546  142.6149  159.9899 C   0  0  0  0  0  0  0  0  0  0  0  0
  153.4567  142.8153  161.3306 C   0  0  0  0  0  0  0  0  0  0  0  0
  152.6811  145.4901  160.2099 H   0  0  0  0  0  0  0  0  0  0  0  0
  151.2519  144.8501  161.0400 H   0  0  0  0  0  0  0  0  0  0  0  0
  151.0905  145.6177  159.4622 H   0  0  0  0  0  0  0  0  0  0  0  0
  152.1624  139.2370  157.7324 H   0  0  0  0  0  0  0  0  0  0  0  0
  152.2923  141.1274  155.4227 H   0  0  0  0  0  0  0  0  0  0  0  0
  153.4920  139.5356  154.3703 H   0  0  0  0  0  0  0  0  0  0  0  0
  153.3331  138.3855  155.6993 H   0  0  0  0  0  0  0  0  0  0  0  0
  151.9874  137.8717  153.3758 H   0  0  0  0  0  0  0  0  0  0  0  0
  150.1437  136.8406  154.6361 H   0  0  0  0  0  0  0  0  0  0  0  0
  151.4368  136.8306  155.8416 H   0  0  0  0  0  0  0  0  0  0  0  0
  148.9634  138.4011  155.8202 H   0  0  0  0  0  0  0  0  0  0  0  0
  150.1855  138.4220  157.0899 H   0  0  0  0  0  0  0  0  0  0  0  0
  149.8679  140.6676  155.5511 H   0  0  0  0  0  0  0  0  0  0  0  0
  153.1377  142.0519  162.0412 H   0  0  0  0  0  0  0  0  0  0  0  0
  153.2538  143.7836  161.7847 H   0  0  0  0  0  0  0  0  0  0  0  0
  154.5370  142.7346  161.2047 H   0  0  0  0  0  0  0  0  0  0  0  0
  1  2  1  0  0  0  0
  1 19  1  0  0  0  0
  1 20  1  0  0  0  0
  1 21  1  0  0  0  0
  2 17  1  0  0  0  0
  2  3  2  0  0  0  0
  3  4  1  0  0  0  0
  4  5  2  0  0  0  0
  5  6  1  0  0  0  0
  5 14  1  0  0  0  0
  6  7  1  0  0  0  0
  6 22  1  0  0  0  0
  7 12  1  0  0  0  0
  7  8  1  0  0  0  0
  7 23  1  0  0  0  0
  8  9  1  0  0  0  0
  8 24  1  0  0  0  0
  8 25  1  0  0  0  0
  9 13  1  0  0  0  0
  9 10  1  0  0  0  0
  9 26  1  0  0  0  0
 10 11  1  0  0  0  0
 10 27  1  0  0  0  0
 10 28  1  0  0  0  0
 11 12  1  0  0  0  0
 11 29  1  0  0  0  0
 11 30  1  0  0  0  0
 12 13  1  0  0  0  0
 12 31  1  0  0  0  0
 14 15  1  0  0  0  0
 14 17  2  0  0  0  0
 15 16  3  0  0  0  0
 17 18  1  0  0  0  0
 18 32  1  0  0  0  0
 18 33  1  0  0  0  0
 18 34  1  0  0  0  0
M  END
> <s_m_source_file>
AV-unprocessed.smi

> <i_m_source_file_index>
2919

> <i_lp_mmshare_version>
43012

> <i_f3d_flags>
0

> <s_epik_input>
W0NIM11jMW5uYyhjKEMjTiljMVtDSDNdKVtOSF1bQ0BIXShbQ0gyXVtDQEBIXTIzKVtDQEBIXShPMylbQ0gyXVtDSDJdMg==

> <s_epik_cmdline>
J2VwaWtfcHl0aG9uJywgJy1waCcsICc3LjAnLCAnLXRuJywgJzgnLCAnLW1hJywgJzIwMCcsICctbWV0YWxfYmluZGluZycsICctaW1hZScsICc8aW5maWxlLm1hZT4nLCAnLW9tYWUnLCAnPG91dGZpbGUubWFlPic=

> <r_lp_tautomer_probability>
1

> <r_epik_Ionization_Penalty>
0.00143865

> <r_epik_Ionization_Penalty_Charging>
0

> <r_epik_Ionization_Penalty_Neutral>
0.00143865

> <r_epik_State_Penalty>
-0

> <r_epik_Charging_Adjusted_Penalty>
0

> <i_epik_Tot_Q>
0

> <i_epik_Tot_abs_Q>
0

> <r_epik_Metal_State_Penalty>
-0

> <b_epik_Metal_Only>
0

> <s_lp_Force_Field>
OPLS_2005

> <r_lp_Energy>
49.159

> <b_lp_Chiralities_Consistent>
1

> <s_lp_Variant>
AV-unprocessed.smi:2919-2

> <Gold.Version>
5.8.1

> <Gold.Id.Protein>
6NUR|6NUR_protein|mol2

> <Gold.PLP.Fitness>
39.3093

> <Gold.PLP.PLP>
-37.2611

> <Gold.PLP.part.hbond>
-1.0000

> <Gold.PLP.part.metal>
0.0000

> <Gold.PLP.part.buried>
-6.7157

> <Gold.PLP.part.nonpolar>
-30.1231

> <Gold.PLP.part.repulsive>
0.7808

> <Gold.PLP.ligand.clash>
0.0000

> <Gold.PLP.ligand.torsion>
0.4810

> <Gold.PLP.Chemscore.Hbond>
1.0000

> <Gold.PLP.Chemscore.CHOScore>
0.0000

> <Gold.PLP.Chemscore.Metal>
0.0000

> <Gold.Chemscore.Hbonds>
donor molecule, donor type, donor heavy atom, donor atom, acceptor molecule, acceptor atom, score
      P1  H  7989  7998       L1    13  1.00

> <Gold.PLP.Chemscore.Internal.Correction>
0.0102

> <Gold.Rescore>
     Score         DG    S(hbond)    S(metal)    S(lipo)     H(rot)  DE(clash)    DE(int)     intcor
     15.46     -15.91       0.67        0.00      91.89       1.00       0.03       0.42       ----

> <Gold.Chemscore.Fitness>
15.4556

> <Gold.Chemscore.DG>
-15.9074

> <Gold.Chemscore.ZeroCoef>
-5.4800

> <Gold.Chemscore.Hbond>
0.6696

> <Gold.Chemscore.Metal>
0.0000

> <Gold.Chemscore.Lipo>
91.8881

> <Gold.Chemscore.Internal_Hbond>
0.0000

> <Gold.Chemscore.DEClash>
0.0348

> <Gold.Chemscore.DEInternal>
0.4170

> <Gold.Chemscore.Rot>
1.0000

> <Gold.Chemscore.Internal.Correction>
   9.000000E+99

> <Gold.Chemscore.Hbonds>
donor molecule, donor type, donor heavy atom, donor atom, acceptor molecule, acceptor atom, score
      P1  H  7989  7998       L1    13  0.19

> <Gold.Chemscore.Hbond.Weighted>
-2.2364

> <Gold.Chemscore.Metal.Weighted>
-0.0000

> <Gold.Chemscore.Lipo.Weighted>
-10.7509

> <Gold.Chemscore.Internal_Hbond.Weighted>
0.0000

> <Gold.Chemscore.DEClash.Weighted>
0.0348

> <Gold.Chemscore.DEInternal.Weighted>
0.4170

> <Gold.Chemscore.Rot.Weighted>
2.5600

> <Gold.Chemscore.Internal.Correction.Weighted>
   9.000000E+99

> <Gold.Protein.RotatedTorsions>
[ 6907 6896 6895 6894 ] final   59.05 input  -60.11 | X-H torsion
[ 7974 7965 7964 7962 ] final -106.46 input  175.53 | X-H torsion
[ 8008 7997 7996 7995 ] final   20.94 input   59.86 | X-H torsion
[ 10167 10162 10161 10158 ] final  -14.90 input  -65.29 | X-H torsion
[ 10718 10713 10712 10709 ] final  -76.74 input   66.30 | X-H torsion
[ 10763 10752 10751 10750 ] final   77.33 input  -60.55 | X-H torsion
[ 11005 11000 10999 10996 ] final  101.23 input  -57.11 | X-H torsion

> <Gold.Protein.ActiveResidues>
 VAL166  LYS551  ARG553  GLY616  TRP617  ASP618  TYR619  PRO620  LYS621  CYS622 
 ASP623  PHE694  ASN695  SER759  ASP760  ASP761  ALA762  ILE779  LEU786  VAL792 
 PHE793  MET794  SER795  GLU796  ALA797  LYS798  CYS799  TRP800  GLU811  SER814 

> <Gold.Protein.RotatedAtoms>
  152.3880  134.6486  160.0118 H   0  0  0  0  0  0  0  0  0  0  0  0  # atno 6907 bound_to 6896
  151.6729  133.3308  159.3209 H   0  0  0  0  0  0  0  0  0  0  0  0  # atno 6908 bound_to 6896
  150.7802  134.6784  159.6475 H   0  0  0  0  0  0  0  0  0  0  0  0  # atno 6909 bound_to 6896
  145.2176  140.9121  143.3278 H   0  0  0  0  0  0  0  0  0  0  0  0  # atno 7974 bound_to 7965
  154.9431  140.3055  155.5111 H   0  0  0  0  0  0  0  0  0  0  0  0  # atno 8008 bound_to 7997
  156.2994  140.2333  156.4439 H   0  0  0  0  0  0  0  0  0  0  0  0  # atno 8009 bound_to 7997
  154.8127  140.0427  157.1342 H   0  0  0  0  0  0  0  0  0  0  0  0  # atno 8010 bound_to 7997
  140.7209  143.5274  150.9561 H   0  0  0  0  0  0  0  0  0  0  0  0  # atno 10167 bound_to 10162
  156.0166  130.4473  150.3240 H   0  0  0  0  0  0  0  0  0  0  0  0  # atno 10718 bound_to 10713
  153.0790  135.4918  154.8464 H   0  0  0  0  0  0  0  0  0  0  0  0  # atno 10763 bound_to 10752
  154.7126  135.3023  154.9176 H   0  0  0  0  0  0  0  0  0  0  0  0  # atno 10764 bound_to 10752
  153.9864  135.6783  153.4805 H   0  0  0  0  0  0  0  0  0  0  0  0  # atno 10765 bound_to 10752
  139.8773  134.9174  156.4876 H   0  0  0  0  0  0  0  0  0  0  0  0  # atno 11005 bound_to 11000
  144.9796  139.3797  143.6269 LP  0  0  0  0  0  0  0  0  0  0  0  0  # atno 17320 bound_to 7965
  146.3383  139.8930  142.8806 LP  0  0  0  0  0  0  0  0  0  0  0  0  # atno 17321 bound_to 7965
  139.8993  143.6856  152.3134 LP  0  0  0  0  0  0  0  0  0  0  0  0  # atno 17342 bound_to 10162
  139.7199  144.7604  151.0972 LP  0  0  0  0  0  0  0  0  0  0  0  0  # atno 17343 bound_to 10162
  157.1339  131.0279  151.2957 LP  0  0  0  0  0  0  0  0  0  0  0  0  # atno 17370 bound_to 10713
  157.4528  130.7608  149.7166 LP  0  0  0  0  0  0  0  0  0  0  0  0  # atno 17371 bound_to 10713
  140.8682  133.8008  155.9336 LP  0  0  0  0  0  0  0  0  0  0  0  0  # atno 17394 bound_to 11000
  140.8980  134.2414  157.5058 LP  0  0  0  0  0  0  0  0  0  0  0  0  # atno 17395 bound_to 11000

$$$$
