AV-unprocessed.smi:1670|AV-procd|sdf|6696|dock1
  -GOLD-   22720 7433D 1   1.00000     0.00000
 Structure written by MMmdl.
 41 42  0  0  0  0  0  0  0  0  1 V2000
  147.6578  138.0100  155.9729 C   0  0  0  0  0  0  0  0  0  0  0  0
  147.4719  138.5284  154.5404 C   0  0  1  0  0  0  0  0  0  0  0  0
  148.5935  139.5140  154.1493 C   0  0  0  0  0  0  0  0  0  0  0  0
  149.9203  138.9871  154.4188 N   0  0  0  0  0  0  0  0  0  0  0  0
  150.3420  137.6744  154.3940 C   0  0  0  0  0  0  0  0  0  0  0  0
  151.6648  137.6663  154.7322 C   0  0  0  0  0  0  0  0  0  0  0  0
  151.9673  139.0401  154.9459 C   0  0  0  0  0  0  0  0  0  0  0  0
  150.9225  139.8287  154.7536 N   0  0  0  0  0  0  0  0  0  0  0  0
  147.4360  137.3905  153.6223 N   0  0  0  0  0  0  0  0  0  0  0  0
  146.5481  136.3860  153.6600 C   0  0  0  0  0  0  0  0  0  0  0  0
  145.6627  136.2757  154.5086 O   0  0  0  0  0  0  0  0  0  0  0  0
  146.7324  135.5235  152.6511 N   0  0  0  0  0  0  0  0  0  0  0  0
  145.9111  134.3448  152.3928 C   0  0  2  0  0  0  0  0  0  0  0  0
  146.7464  133.0578  152.5431 C   0  0  0  0  0  0  0  0  0  0  0  0
  145.9161  131.8049  152.2138 C   0  0  0  0  0  0  0  0  0  0  0  0
  145.2578  131.8865  150.8232 C   0  0  2  0  0  0  0  0  0  0  0  0
  146.2418  131.7801  149.8132 O   0  0  0  0  0  0  0  0  0  0  0  0
  144.4615  133.1936  150.6481 C   0  0  0  0  0  0  0  0  0  0  0  0
  145.3028  134.4381  150.9820 C   0  0  0  0  0  0  0  0  0  0  0  0
  147.6601  138.8316  156.6898 H   0  0  0  0  0  0  0  0  0  0  0  0
  148.5996  137.4710  156.0821 H   0  0  0  0  0  0  0  0  0  0  0  0
  146.8508  137.3320  156.2535 H   0  0  0  0  0  0  0  0  0  0  0  0
  146.5181  139.0586  154.5120 H   0  0  0  0  0  0  0  0  0  0  0  0
  148.5370  139.7389  153.0836 H   0  0  0  0  0  0  0  0  0  0  0  0
  148.4698  140.4636  154.6731 H   0  0  0  0  0  0  0  0  0  0  0  0
  149.6712  136.8648  154.1474 H   0  0  0  0  0  0  0  0  0  0  0  0
  152.3162  136.8093  154.8168 H   0  0  0  0  0  0  0  0  0  0  0  0
  152.9086  139.4847  155.2329 H   0  0  0  0  0  0  0  0  0  0  0  0
  148.1213  137.3865  152.8814 H   0  0  0  0  0  0  0  0  0  0  0  0
  147.4858  135.7027  152.0036 H   0  0  0  0  0  0  0  0  0  0  0  0
  145.0900  134.3186  153.1119 H   0  0  0  0  0  0  0  0  0  0  0  0
  147.6158  133.1025  151.8857 H   0  0  0  0  0  0  0  0  0  0  0  0
  147.1346  132.9782  153.5591 H   0  0  0  0  0  0  0  0  0  0  0  0
  146.5391  130.9128  152.2867 H   0  0  0  0  0  0  0  0  0  0  0  0
  145.1368  131.6921  152.9687 H   0  0  0  0  0  0  0  0  0  0  0  0
  144.5826  131.0396  150.6980 H   0  0  0  0  0  0  0  0  0  0  0  0
  147.0233  131.4085  150.1930 H   0  0  0  0  0  0  0  0  0  0  0  0
  144.0713  133.2662  149.6322 H   0  0  0  0  0  0  0  0  0  0  0  0
  143.5916  133.1696  151.3056 H   0  0  0  0  0  0  0  0  0  0  0  0
  144.6808  135.3305  150.9021 H   0  0  0  0  0  0  0  0  0  0  0  0
  146.0969  134.5499  150.2421 H   0  0  0  0  0  0  0  0  0  0  0  0
  1  2  1  0  0  0  0
  1 20  1  0  0  0  0
  1 21  1  0  0  0  0
  1 22  1  0  0  0  0
  2  3  1  0  0  0  0
  2  9  1  0  0  0  0
  2 23  1  0  0  0  0
  3  4  1  0  0  0  0
  3 24  1  0  0  0  0
  3 25  1  0  0  0  0
  4  8  1  0  0  0  0
  4  5  1  0  0  0  0
  5  6  2  0  0  0  0
  5 26  1  0  0  0  0
  6  7  1  0  0  0  0
  6 27  1  0  0  0  0
  7  8  2  0  0  0  0
  7 28  1  0  0  0  0
  9 10  1  0  0  0  0
  9 29  1  0  0  0  0
 10 11  2  0  0  0  0
 10 12  1  0  0  0  0
 12 13  1  0  0  0  0
 12 30  1  0  0  0  0
 13 19  1  0  0  0  0
 13 14  1  0  0  0  0
 13 31  1  0  0  0  0
 14 15  1  0  0  0  0
 14 32  1  0  0  0  0
 14 33  1  0  0  0  0
 15 16  1  0  0  0  0
 15 34  1  0  0  0  0
 15 35  1  0  0  0  0
 16 17  1  0  0  0  0
 16 18  1  0  0  0  0
 16 36  1  0  0  0  0
 17 37  1  0  0  0  0
 18 19  1  0  0  0  0
 18 38  1  0  0  0  0
 18 39  1  0  0  0  0
 19 40  1  0  0  0  0
 19 41  1  0  0  0  0
M  END
> <s_m_source_file>
AV-unprocessed.smi

> <i_m_source_file_index>
1670

> <i_lp_mmshare_version>
43012

> <i_f3d_flags>
0

> <s_epik_input>
bjFbY0hdW2NIXVtjSF1uMVtDSDJdW0NAQEhdKFtDSDNdKVtOSF1DKD1PKVtOSF1bQ0BASF0yW0NIMl1bQ0gyXVtDQEBIXShbT0hdKVtDSDJdW0NIMl0y

> <s_epik_cmdline>
J2VwaWtfcHl0aG9uJywgJy1waCcsICc3LjAnLCAnLXRuJywgJzgnLCAnLW1hJywgJzIwMCcsICctbWV0YWxfYmluZGluZycsICctaW1hZScsICc8aW5maWxlLm1hZT4nLCAnLW9tYWUnLCAnPG91dGZpbGUubWFlPic=

> <r_lp_tautomer_probability>
1

> <r_epik_Ionization_Penalty>
7.33369e-05

> <r_epik_Ionization_Penalty_Charging>
0

> <r_epik_Ionization_Penalty_Neutral>
7.33369e-05

> <r_epik_State_Penalty>
-0

> <r_epik_Charging_Adjusted_Penalty>
0

> <i_epik_Tot_Q>
0

> <i_epik_Tot_abs_Q>
0

> <r_epik_Metal_State_Penalty>
-0

> <b_epik_Metal_Only>
0

> <s_lp_Force_Field>
OPLS_2005

> <r_lp_Energy>
7.95732

> <b_lp_Chiralities_Consistent>
1

> <s_lp_Variant>
AV-unprocessed.smi:1670-4

> <Gold.Version>
5.8.1

> <Gold.Id.Protein>
6NUR|6NUR_protein|mol2

> <Gold.PLP.Fitness>
43.7688

> <Gold.PLP.PLP>
-30.7640

> <Gold.PLP.part.hbond>
-3.7303

> <Gold.PLP.part.metal>
0.0000

> <Gold.PLP.part.buried>
-3.3888

> <Gold.PLP.part.nonpolar>
-24.1941

> <Gold.PLP.part.repulsive>
0.1228

> <Gold.PLP.ligand.clash>
0.0000

> <Gold.PLP.ligand.torsion>
0.4392

> <Gold.PLP.Chemscore.Hbond>
3.7100

> <Gold.PLP.Chemscore.CHOScore>
0.8887

> <Gold.PLP.Chemscore.Metal>
0.0000

> <Gold.Chemscore.Hbonds>
donor molecule, donor type, donor heavy atom, donor atom, acceptor molecule, acceptor atom, score
      L1  H     9    29       P1  7948  0.80
      L1  H    12    30       P1  7948  0.93
      L1  H    17    37       P1 10747  1.00
      P1  H  7989  7998       L1     8  0.90
      L1  C     5    26       P1  7948  0.90

> <Gold.PLP.Chemscore.Internal.Correction>
0.0872

> <Gold.Rescore>
     Score         DG    S(hbond)    S(metal)    S(lipo)     H(rot)  DE(clash)    DE(int)     intcor
     15.52     -18.27       3.20        0.00      66.44       2.22       0.41       2.34       ----

> <Gold.Chemscore.Fitness>
15.5233

> <Gold.Chemscore.DG>
-18.2654

> <Gold.Chemscore.ZeroCoef>
-5.4800

> <Gold.Chemscore.Hbond>
3.2040

> <Gold.Chemscore.Metal>
0.0000

> <Gold.Chemscore.Lipo>
66.4381

> <Gold.Chemscore.Internal_Hbond>
0.0000

> <Gold.Chemscore.DEClash>
0.4051

> <Gold.Chemscore.DEInternal>
2.3371

> <Gold.Chemscore.Rot>
2.2224

> <Gold.Chemscore.Internal.Correction>
   9.000000E+99

> <Gold.Chemscore.Hbonds>
donor molecule, donor type, donor heavy atom, donor atom, acceptor molecule, acceptor atom, score
      L1  H     9    29       P1  7948  0.80
      L1  H    12    30       P1  7948  0.85
      L1  H    17    37       P1 10747  0.93
      P1  H  7989  7998       L1     8  0.17

> <Gold.Chemscore.Hbond.Weighted>
-10.7015

> <Gold.Chemscore.Metal.Weighted>
-0.0000

> <Gold.Chemscore.Lipo.Weighted>
-7.7733

> <Gold.Chemscore.Internal_Hbond.Weighted>
0.0000

> <Gold.Chemscore.DEClash.Weighted>
0.4051

> <Gold.Chemscore.DEInternal.Weighted>
2.3371

> <Gold.Chemscore.Rot.Weighted>
5.6893

> <Gold.Chemscore.Internal.Correction.Weighted>
   9.000000E+99

> <Gold.Protein.RotatedTorsions>
[ 6907 6896 6895 6894 ] final -123.84 input  -60.11 | X-H torsion
[ 7974 7965 7964 7962 ] final -124.94 input  175.53 | X-H torsion
[ 8008 7997 7996 7995 ] final   97.92 input   59.86 | X-H torsion
[ 10167 10162 10161 10158 ] final  -48.38 input  -65.29 | X-H torsion
[ 10718 10713 10712 10709 ] final -166.49 input   66.30 | X-H torsion
[ 10763 10752 10751 10750 ] final   22.03 input  -60.55 | X-H torsion
[ 11005 11000 10999 10996 ] final  118.57 input  -57.11 | X-H torsion

> <Gold.Protein.ActiveResidues>
 VAL166  LYS551  ARG553  GLY616  TRP617  ASP618  TYR619  PRO620  LYS621  CYS622 
 ASP623  PHE694  ASN695  SER759  ASP760  ASP761  ALA762  ILE779  LEU786  VAL792 
 PHE793  MET794  SER795  GLU796  ALA797  LYS798  CYS799  TRP800  GLU811  SER814 

> <Gold.Protein.RotatedAtoms>
  150.8709  133.7506  159.2961 H   0  0  0  0  0  0  0  0  0  0  0  0  # atno 6907 bound_to 6896
  151.5118  135.1063  159.9865 H   0  0  0  0  0  0  0  0  0  0  0  0  # atno 6908 bound_to 6896
  152.4694  133.7952  159.6979 H   0  0  0  0  0  0  0  0  0  0  0  0  # atno 6909 bound_to 6896
  145.0027  140.7835  143.4486 H   0  0  0  0  0  0  0  0  0  0  0  0  # atno 7974 bound_to 7965
  156.0951  140.3251  155.7867 H   0  0  0  0  0  0  0  0  0  0  0  0  # atno 8008 bound_to 7997
  155.4931  140.0563  157.2968 H   0  0  0  0  0  0  0  0  0  0  0  0  # atno 8009 bound_to 7997
  154.4661  140.1990  156.0130 H   0  0  0  0  0  0  0  0  0  0  0  0  # atno 8010 bound_to 7997
  140.6733  143.2742  151.4063 H   0  0  0  0  0  0  0  0  0  0  0  0  # atno 10167 bound_to 10162
  156.6687  130.9075  151.3040 H   0  0  0  0  0  0  0  0  0  0  0  0  # atno 10718 bound_to 10713
  153.0948  135.6657  153.9784 H   0  0  0  0  0  0  0  0  0  0  0  0  # atno 10763 bound_to 10752
  153.9371  135.2998  155.3445 H   0  0  0  0  0  0  0  0  0  0  0  0  # atno 10764 bound_to 10752
  154.7366  135.5099  153.9125 H   0  0  0  0  0  0  0  0  0  0  0  0  # atno 10765 bound_to 10752
  139.9114  134.9621  156.7524 H   0  0  0  0  0  0  0  0  0  0  0  0  # atno 11005 bound_to 11000
  145.2130  139.2195  143.5133 LP  0  0  0  0  0  0  0  0  0  0  0  0  # atno 17320 bound_to 7965
  146.3455  140.1972  142.8589 LP  0  0  0  0  0  0  0  0  0  0  0  0  # atno 17321 bound_to 7965
  139.6012  144.1291  152.2200 LP  0  0  0  0  0  0  0  0  0  0  0  0  # atno 17342 bound_to 10162
  140.0676  144.5806  150.7216 LP  0  0  0  0  0  0  0  0  0  0  0  0  # atno 17343 bound_to 10162
  157.7085  130.9412  150.1009 LP  0  0  0  0  0  0  0  0  0  0  0  0  # atno 17370 bound_to 10713
  156.1955  130.3657  149.8854 LP  0  0  0  0  0  0  0  0  0  0  0  0  # atno 17371 bound_to 10713
  140.6763  133.9514  155.7885 LP  0  0  0  0  0  0  0  0  0  0  0  0  # atno 17394 bound_to 11000
  141.0542  134.0441  157.3744 LP  0  0  0  0  0  0  0  0  0  0  0  0  # atno 17395 bound_to 11000

$$$$
