AV-unprocessed.smi:1695|AV-procd|sdf|6789|dock4
  -GOLD-   22720 7553D 1   1.00000     0.00000
 Structure written by MMmdl.
 51 53  0  0  0  0  0  0  0  0  2 V2000
  152.2433  142.9807  160.5548 C   0  0  0  0  0  0  0  0  0  0  0  0
  151.7750  142.2879  159.2873 C   0  0  0  0  0  0  0  0  0  0  0  0
  152.4667  141.1417  158.8352 C   0  0  0  0  0  0  0  0  0  0  0  0
  152.0637  140.4686  157.6614 C   0  0  0  0  0  0  0  0  0  0  0  0
  152.5840  139.3424  157.0472 N   0  0  0  0  0  0  0  0  0  0  0  0
  151.7755  139.2098  156.0000 C   0  0  0  0  0  0  0  0  0  0  0  0
  150.7869  140.1146  155.8661 N   0  0  0  0  0  0  0  0  0  0  0  0
  149.7845  140.1602  154.8176 C   0  0  0  0  0  0  0  0  0  0  0  0
  149.2388  138.7629  154.4647 C   0  0  2  0  0  0  0  0  0  0  0  0
  149.8458  138.3558  153.2551 O   0  0  0  0  0  0  0  0  0  0  0  0
  147.7045  138.7247  154.2881 C   0  0  0  0  0  0  0  0  0  0  0  0
  147.2263  137.4263  153.7481 N   0  3  1  0  0  0  0  0  0  0  0  0
  147.2834  136.3230  154.7434 C   0  0  0  0  0  0  0  0  0  0  0  0
  146.9034  134.9735  154.1038 C   0  0  0  0  0  0  0  0  0  0  0  0
  145.5321  134.9984  153.3956 C   0  0  1  0  0  0  0  0  0  0  0  0
  144.3498  134.9413  154.3815 C   0  0  0  0  0  0  0  0  0  0  0  0
  143.1274  134.8288  153.8558 N   0  0  0  0  0  0  0  0  0  0  0  0
  144.5273  134.9980  155.5964 O   0  0  0  0  0  0  0  0  0  0  0  0
  145.4646  136.2177  152.4516 C   0  0  0  0  0  0  0  0  0  0  0  0
  145.8808  137.5375  153.1297 C   0  0  0  0  0  0  0  0  0  0  0  0
  150.9406  140.9779  156.9460 C   0  0  0  0  0  0  0  0  0  0  0  0
  150.2441  142.1176  157.3855 C   0  0  0  0  0  0  0  0  0  0  0  0
  150.6601  142.7778  158.5606 C   0  0  0  0  0  0  0  0  0  0  0  0
  149.9019  144.0076  159.0278 C   0  0  0  0  0  0  0  0  0  0  0  0
  153.1014  142.4708  160.9938 H   0  0  0  0  0  0  0  0  0  0  0  0
  151.4471  142.9961  161.2993 H   0  0  0  0  0  0  0  0  0  0  0  0
  152.5385  144.0083  160.3416 H   0  0  0  0  0  0  0  0  0  0  0  0
  153.3155  140.7679  159.3888 H   0  0  0  0  0  0  0  0  0  0  0  0
  151.9048  138.4043  155.2918 H   0  0  0  0  0  0  0  0  0  0  0  0
  148.9760  140.8196  155.1362 H   0  0  0  0  0  0  0  0  0  0  0  0
  150.2349  140.6233  153.9382 H   0  0  0  0  0  0  0  0  0  0  0  0
  149.5503  138.0680  155.2442 H   0  0  0  0  0  0  0  0  0  0  0  0
  149.6785  139.0122  152.5957 H   0  0  0  0  0  0  0  0  0  0  0  0
  147.1915  138.9149  155.2313 H   0  0  0  0  0  0  0  0  0  0  0  0
  147.4158  139.5378  153.6201 H   0  0  0  0  0  0  0  0  0  0  0  0
  148.2882  136.2397  155.1555 H   0  0  0  0  0  0  0  0  0  0  0  0
  146.6289  136.5515  155.5851 H   0  0  0  0  0  0  0  0  0  0  0  0
  147.6701  134.7002  153.3776 H   0  0  0  0  0  0  0  0  0  0  0  0
  146.9224  134.1901  154.8628 H   0  0  0  0  0  0  0  0  0  0  0  0
  145.4689  134.1022  152.7754 H   0  0  0  0  0  0  0  0  0  0  0  0
  142.3178  134.7870  154.4579 H   0  0  0  0  0  0  0  0  0  0  0  0
  143.0160  134.7855  152.8528 H   0  0  0  0  0  0  0  0  0  0  0  0
  146.1201  136.0381  151.5983 H   0  0  0  0  0  0  0  0  0  0  0  0
  144.4606  136.3197  152.0367 H   0  0  0  0  0  0  0  0  0  0  0  0
  145.1531  137.8393  153.8833 H   0  0  0  0  0  0  0  0  0  0  0  0
  145.8910  138.3276  152.3777 H   0  0  0  0  0  0  0  0  0  0  0  0
  149.3963  142.4812  156.8243 H   0  0  0  0  0  0  0  0  0  0  0  0
  149.0801  144.2490  158.3529 H   0  0  0  0  0  0  0  0  0  0  0  0
  150.5648  144.8721  159.0700 H   0  0  0  0  0  0  0  0  0  0  0  0
  149.4823  143.8436  160.0205 H   0  0  0  0  0  0  0  0  0  0  0  0
  147.8597  137.1829  152.9996 H   0  0  0  0  0  0  0  0  0  0  0  0
  1  2  1  0  0  0  0
  1 25  1  0  0  0  0
  1 26  1  0  0  0  0
  1 27  1  0  0  0  0
  2 23  1  0  0  0  0
  2  3  2  0  0  0  0
  3  4  1  0  0  0  0
  3 28  1  0  0  0  0
  4 21  2  0  0  0  0
  4  5  1  0  0  0  0
  5  6  2  0  0  0  0
  6  7  1  0  0  0  0
  6 29  1  0  0  0  0
  7  8  1  0  0  0  0
  7 21  1  0  0  0  0
  8  9  1  0  0  0  0
  8 30  1  0  0  0  0
  8 31  1  0  0  0  0
  9 10  1  0  0  0  0
  9 11  1  0  0  0  0
  9 32  1  0  0  0  0
 10 33  1  0  0  0  0
 11 12  1  0  0  0  0
 11 34  1  0  0  0  0
 11 35  1  0  0  0  0
 12 20  1  0  0  0  0
 12 13  1  0  0  0  0
 12 51  1  0  0  0  0
 13 14  1  0  0  0  0
 13 36  1  0  0  0  0
 13 37  1  0  0  0  0
 14 15  1  0  0  0  0
 14 38  1  0  0  0  0
 14 39  1  0  0  0  0
 15 16  1  0  0  0  0
 15 19  1  0  0  0  0
 15 40  1  0  0  0  0
 16 17  1  0  0  0  0
 16 18  2  0  0  0  0
 17 41  1  0  0  0  0
 17 42  1  0  0  0  0
 19 20  1  0  0  0  0
 19 43  1  0  0  0  0
 19 44  1  0  0  0  0
 20 45  1  0  0  0  0
 20 46  1  0  0  0  0
 21 22  1  0  0  0  0
 22 23  2  0  0  0  0
 22 47  1  0  0  0  0
 23 24  1  0  0  0  0
 24 48  1  0  0  0  0
 24 49  1  0  0  0  0
 24 50  1  0  0  0  0
M  CHG  1  12   1
M  END
> <s_m_source_file>
AV-unprocessed.smi

> <i_m_source_file_index>
1695

> <i_lp_mmshare_version>
43012

> <i_f3d_flags>
0

> <s_epik_input>
W0NIM11jKFtjSF0xKWMoW0NIM10pW2NIXWMoYzEyKW4oW2NIXW4yKVtDSDJdW0NASF0oW09IXSlbQ0gyXU4zW0NIMl1bQ0gyXVtDSF0oQyg9TylbTkgyXSlbQ0gyXVtDSDJdMw==

> <s_epik_cmdline>
J2VwaWtfcHl0aG9uJywgJy1waCcsICc3LjAnLCAnLXRuJywgJzgnLCAnLW1hJywgJzIwMCcsICctbWV0YWxfYmluZGluZycsICctaW1hZScsICc8aW5maWxlLm1hZT4nLCAnLW9tYWUnLCAnPG91dGZpbGUubWFlPic=

> <r_epik_Ionization_Penalty>
0.113899

> <r_epik_Ionization_Penalty_Charging>
0.0258844

> <r_epik_Ionization_Penalty_Neutral>
0.0880147

> <r_epik_State_Penalty>
0.0974403

> <r_epik_Charging_Adjusted_Penalty>
0.123325

> <i_epik_Tot_Q>
1

> <i_epik_Tot_abs_Q>
1

> <r_epik_Metal_State_Penalty>
0.0851148

> <b_epik_Metal_Only>
0

> <s_lp_Force_Field>
OPLS_2005

> <r_lp_Energy>
17.7393

> <b_lp_Chiralities_Consistent>
1

> <s_lp_Variant>
AV-unprocessed.smi:1695-1

> <Gold.Version>
5.8.1

> <Gold.Id.Protein>
6NUR|6NUR_protein|mol2

> <Gold.PLP.Fitness>
47.1254

> <Gold.PLP.PLP>
-37.1480

> <Gold.PLP.part.hbond>
-4.8397

> <Gold.PLP.part.metal>
0.0000

> <Gold.PLP.part.buried>
-1.9268

> <Gold.PLP.part.nonpolar>
-29.0634

> <Gold.PLP.part.repulsive>
0.0599

> <Gold.PLP.ligand.clash>
0.0000

> <Gold.PLP.ligand.torsion>
1.0889

> <Gold.PLP.Chemscore.Hbond>
4.0000

> <Gold.PLP.Chemscore.CHOScore>
0.0000

> <Gold.PLP.Chemscore.Metal>
0.0000

> <Gold.Chemscore.Hbonds>
donor molecule, donor type, donor heavy atom, donor atom, acceptor molecule, acceptor atom, score
      L1  H    10    33       P1  7957  1.00
      L1  H    12    51       P1  7948  2.00
      P1  H  7997  8008       L1     5  0.91

> <Gold.PLP.Chemscore.Internal.Correction>
0.1552

> <Gold.Rescore>
     Score         DG    S(hbond)    S(metal)    S(lipo)     H(rot)  DE(clash)    DE(int)     intcor
     17.19     -18.32       3.00        0.00      86.42       2.85       0.10       1.03       ----

> <Gold.Chemscore.Fitness>
17.1870

> <Gold.Chemscore.DG>
-18.3178

> <Gold.Chemscore.ZeroCoef>
-5.4800

> <Gold.Chemscore.Hbond>
2.9980

> <Gold.Chemscore.Metal>
0.0000

> <Gold.Chemscore.Lipo>
86.4218

> <Gold.Chemscore.Internal_Hbond>
0.0000

> <Gold.Chemscore.DEClash>
0.0981

> <Gold.Chemscore.DEInternal>
1.0326

> <Gold.Chemscore.Rot>
2.8464

> <Gold.Chemscore.Internal.Correction>
   9.000000E+99

> <Gold.Chemscore.Hbonds>
donor molecule, donor type, donor heavy atom, donor atom, acceptor molecule, acceptor atom, score
      L1  H    10    33       P1  7957  0.88
      L1  H    12    51       P1  7948  1.00
      P1  H  7997  8008       L1     5  0.12

> <Gold.Chemscore.Hbond.Weighted>
-10.0132

> <Gold.Chemscore.Metal.Weighted>
-0.0000

> <Gold.Chemscore.Lipo.Weighted>
-10.1114

> <Gold.Chemscore.Internal_Hbond.Weighted>
0.0000

> <Gold.Chemscore.DEClash.Weighted>
0.0981

> <Gold.Chemscore.DEInternal.Weighted>
1.0326

> <Gold.Chemscore.Rot.Weighted>
7.2867

> <Gold.Chemscore.Internal.Correction.Weighted>
   9.000000E+99

> <Gold.Protein.RotatedTorsions>
[ 6907 6896 6895 6894 ] final  -21.14 input  -60.11 | X-H torsion
[ 7974 7965 7964 7962 ] final -166.88 input  175.53 | X-H torsion
[ 8008 7997 7996 7995 ] final  -41.49 input   59.86 | X-H torsion
[ 10167 10162 10161 10158 ] final   28.99 input  -65.29 | X-H torsion
[ 10718 10713 10712 10709 ] final -101.68 input   66.30 | X-H torsion
[ 10763 10752 10751 10750 ] final -120.35 input  -60.55 | X-H torsion
[ 11005 11000 10999 10996 ] final  -88.41 input  -57.11 | X-H torsion

> <Gold.Protein.ActiveResidues>
 VAL166  LYS551  ARG553  GLY616  TRP617  ASP618  TYR619  PRO620  LYS621  CYS622 
 ASP623  PHE694  ASN695  SER759  ASP760  ASP761  ALA762  ILE779  LEU786  VAL792 
 PHE793  MET794  SER795  GLU796  ALA797  LYS798  CYS799  TRP800  GLU811  SER814 

> <Gold.Protein.RotatedAtoms>
  151.2378  135.0578  159.9012 H   0  0  0  0  0  0  0  0  0  0  0  0  # atno 6907 bound_to 6896
  152.5397  134.0467  159.8102 H   0  0  0  0  0  0  0  0  0  0  0  0  # atno 6908 bound_to 6896
  151.0656  133.5459  159.2662 H   0  0  0  0  0  0  0  0  0  0  0  0  # atno 6909 bound_to 6896
  144.7235  140.2602  143.6266 H   0  0  0  0  0  0  0  0  0  0  0  0  # atno 7974 bound_to 7965
  154.4004  140.1498  156.3199 H   0  0  0  0  0  0  0  0  0  0  0  0  # atno 8008 bound_to 7997
  155.8539  140.3456  155.5690 H   0  0  0  0  0  0  0  0  0  0  0  0  # atno 8009 bound_to 7997
  155.7954  140.0862  157.1977 H   0  0  0  0  0  0  0  0  0  0  0  0  # atno 8010 bound_to 7997
  140.4804  144.0624  150.6264 H   0  0  0  0  0  0  0  0  0  0  0  0  # atno 10167 bound_to 10162
  156.0203  130.5385  150.6998 H   0  0  0  0  0  0  0  0  0  0  0  0  # atno 10718 bound_to 10713
  154.8642  135.4206  154.2445 H   0  0  0  0  0  0  0  0  0  0  0  0  # atno 10763 bound_to 10752
  153.3403  135.6993  153.6878 H   0  0  0  0  0  0  0  0  0  0  0  0  # atno 10764 bound_to 10752
  153.5859  135.3564  155.2865 H   0  0  0  0  0  0  0  0  0  0  0  0  # atno 10765 bound_to 10752
  141.1602  133.7568  156.9448 H   0  0  0  0  0  0  0  0  0  0  0  0  # atno 11005 bound_to 11000
  145.8143  139.2016  143.1974 LP  0  0  0  0  0  0  0  0  0  0  0  0  # atno 17320 bound_to 7965
  146.0569  140.8012  142.9754 LP  0  0  0  0  0  0  0  0  0  0  0  0  # atno 17321 bound_to 7965
  140.3865  143.2775  152.0110 LP  0  0  0  0  0  0  0  0  0  0  0  0  # atno 17342 bound_to 10162
  139.4832  144.6113  151.7429 LP  0  0  0  0  0  0  0  0  0  0  0  0  # atno 17343 bound_to 10162
  157.4661  131.0888  151.0693 LP  0  0  0  0  0  0  0  0  0  0  0  0  # atno 17370 bound_to 10713
  157.1167  130.6044  149.5495 LP  0  0  0  0  0  0  0  0  0  0  0  0  # atno 17371 bound_to 10713
  140.1297  134.9364  157.2320 LP  0  0  0  0  0  0  0  0  0  0  0  0  # atno 17394 bound_to 11000
  140.2968  134.3177  155.7300 LP  0  0  0  0  0  0  0  0  0  0  0  0  # atno 17395 bound_to 11000

$$$$
