#       Name:                AV-unprocessed.smi:2062
#       Creating user name   scv26
#       Creation time:       Fri Mar 27 11:09:03 2020


#       File generated by GOLD software.
#

@<TRIPOS>MOLECULE
AV-unprocessed.smi:2062
    48    49     1
SMALL
NO_CHARGES


@<TRIPOS>ATOM
      1 ****        -3.7513   1.8902  -2.7038 C.3            1 S1                 0.0000
      2 ****        -2.2264   2.0693  -2.6675 C.3            1 S1                 0.0000
      3 ****        -1.7270   2.6746  -3.9903 C.3            1 S1                 0.0000
      4 ****        -1.5300   0.7288  -2.3459 C.3            1 S1                 0.0000
      5 ****        -0.0579   0.8629  -2.1722 N.4            1 S1                 1.0000
      6 ****         0.6852  -0.3965  -2.4198 C.3            1 S1                 0.0000
      7 ****         0.5883  -1.3444  -1.2122 C.3            1 S1                 0.0000
      8 ****         1.0743  -0.6745  -0.0578 O.3            1 S1                 0.0000
      9 ****         0.2962   0.4689   0.2828 C.3            1 S1                 0.0000
     10 ****         0.8438   1.0740   1.5875 C.3            1 S1                 0.0000
     11 ****         0.6047   0.1949   2.7271 N.am           1 S1                 0.0000
     12 ****         1.4148  -0.7861   3.1485 C.2            1 S1                 0.0000
     13 ****         2.4872  -0.9898   2.5748 O.2            1 S1                 0.0000
     14 ****         0.9285  -1.4730   4.2063 N.pl3          1 S1                -1.0000
     15 ****         1.6361  -2.4875   4.7298 C.2            1 S1                 0.0000
     16 ****         1.4197  -3.7693   4.4119 N.2            1 S1                 0.0000
     17 ****         2.2676  -4.6566   5.0774 C.2            1 S1                 0.0000
     18 ****         3.1433  -4.0367   5.9290 C.2            1 S1                 0.0000
     19 ****         2.9289  -2.3094   5.9191 S.3            1 S1                 0.0000
     20 ****         0.3696   1.4753  -0.8871 C.3            1 S1                 0.0000
     21 ****        -4.0515   1.1959  -3.4895 H              1 S1                 0.0000
     22 ****        -4.2548   2.8394  -2.8899 H              1 S1                 0.0000
     23 ****        -4.1254   1.5026  -1.7557 H              1 S1                 0.0000
     24 ****        -2.0152   2.7835  -1.8722 H              1 S1                 0.0000
     25 ****        -1.9139   2.0041  -4.8298 H              1 S1                 0.0000
     26 ****        -0.6566   2.8789  -3.9589 H              1 S1                 0.0000
     27 ****        -2.2295   3.6187  -4.2030 H              1 S1                 0.0000
     28 ****        -1.9707   0.2742  -1.4587 H              1 S1                 0.0000
     29 ****        -1.7344   0.0391  -3.1659 H              1 S1                 0.0000
     30 ****         0.3308  -0.8850  -3.3280 H              1 S1                 0.0000
     31 ****         1.7324  -0.1473  -2.5962 H              1 S1                 0.0000
     32 ****        -0.4354  -1.6861  -1.0522 H              1 S1                 0.0000
     33 ****         1.1961  -2.2329  -1.3836 H              1 S1                 0.0000
     34 ****        -0.7384   0.1664   0.4517 H              1 S1                 0.0000
     35 ****         1.9045   1.3125   1.4921 H              1 S1                 0.0000
     36 ****         0.3356   2.0157   1.7961 H              1 S1                 0.0000
     37 ****        -0.2578   0.3285   3.2343 H              1 S1                 0.0000
     38 ****         2.1767  -5.7151   4.8847 H              1 S1                 0.0000
     39 ****         3.8960  -4.4867   6.5583 H              1 S1                 0.0000
     40 ****         1.4002   1.8129  -1.0049 H              1 S1                 0.0000
     41 ****        -0.2142   2.3670  -0.6634 H              1 S1                 0.0000
     42 ****         0.2317   1.4976  -2.9027 H              1 S1                 0.0000
     43 ****         2.0148  -0.3816  -0.2301 LP             1 S1                 0.0000
     44 ****         1.0595  -1.3124   0.7122 LP             1 S1                 0.0000
     45 ****         2.7526  -0.4229   1.7949 LP             1 S1                 0.0000
     46 ****         3.0914  -1.7218   2.8895 LP             1 S1                 0.0000
     47 ****         0.0425  -1.2260   4.5988 LP             1 S1                 0.0000
     48 ****         0.7192  -4.0628   3.7614 LP             1 S1                 0.0000
@<TRIPOS>BOND
    1    1    2 1     
    2    1   21 1     
    3    1   22 1     
    4    1   23 1     
    5    2    3 1     
    6    2    4 1     
    7    2   24 1     
    8    3   25 1     
    9    3   26 1     
   10    3   27 1     
   11    4    5 1     
   12    4   28 1     
   13    4   29 1     
   14    5   20 1     
   15    5    6 1     
   16    5   42 1     
   17    6    7 1     
   18    6   30 1     
   19    6   31 1     
   20    7    8 1     
   21    7   32 1     
   22    7   33 1     
   23    8    9 1     
   24    9   10 1     
   25    9   20 1     
   26    9   34 1     
   27   10   11 1     
   28   10   35 1     
   29   10   36 1     
   30   11   12 am    
   31   11   37 1     
   32   12   13 2     
   33   12   14 1     
   34   14   15 1     
   35   15   19 1     
   36   15   16 2     
   37   16   17 1     
   38   17   18 2     
   39   17   38 1     
   40   18   19 1     
   41   18   39 1     
   42   20   40 1     
   43   20   41 1     
   44    8   43 1     
   45    8   44 1     
   46   13   45 1     
   47   13   46 1     
   48   14   47 1     
   49   16   48 1     
@<TRIPOS>SUBSTRUCTURE
      1 S1             1
@<TRIPOS>SET
LONE_PAIRS      STATIC     ATOMS    <user>   **** ""
6 43 44 45 46 47 48
DONOR_HYDROGENS      STATIC     ATOMS    <user>   **** ""
2 42 37
ATOM$BLUE        STATIC     ATOMS    COLORGROUP SYSTEM
6 43 44 45 46 47 48
ATOM$RED        STATIC     ATOMS    COLORGROUP SYSTEM
2 42 37
