AV-unprocessed.smi:1852|AV-procd|sdf|7526|dock7
  -GOLD-   22720 9233D 1   1.00000     0.00000
 Structure written by MMmdl.
 46 48  0  0  0  0  0  0  0  0  2 V2000
  153.7214  139.6395  160.6122 C   0  0  0  0  0  0  0  0  0  0  0  0
  153.1201  140.9734  160.2197 C   0  0  0  0  0  0  0  0  0  0  0  0
  153.5158  142.1540  160.8778 C   0  0  0  0  0  0  0  0  0  0  0  0
  152.9537  143.3885  160.5055 C   0  0  0  0  0  0  0  0  0  0  0  0
  151.9940  143.4511  159.4741 C   0  0  0  0  0  0  0  0  0  0  0  0
  151.4016  144.7911  159.0789 C   0  0  0  0  0  0  0  0  0  0  0  0
  151.5879  142.2730  158.8060 C   0  0  0  0  0  0  0  0  0  0  0  0
  150.6427  142.4038  157.8110 O   0  0  0  0  0  0  0  0  0  0  0  0
  150.1233  141.2278  157.2055 C   0  0  0  0  0  0  0  0  0  0  0  0
  150.9517  140.8967  155.9565 C   0  0  0  0  0  0  0  0  0  0  0  0
  150.1786  140.1229  154.9719 N   0  0  0  0  0  0  0  0  0  0  0  0
  150.4283  138.9014  154.4171 C   0  0  0  0  0  0  0  0  0  0  0  0
  151.5959  138.0047  154.6901 C   0  0  0  0  0  0  0  0  0  0  0  0
  151.2055  136.7123  155.2406 N   0  0  0  0  0  0  0  0  0  0  0  0
  150.5730  136.5347  156.4094 C   0  0  0  0  0  0  0  0  0  0  0  0
  150.2276  137.4466  157.1589 O   0  0  0  0  0  0  0  0  0  0  0  0
  149.4100  138.6370  153.5502 N   0  3  0  0  0  0  0  0  0  0  0  0
  148.5064  139.6998  153.5426 C   0  0  0  0  0  0  0  0  0  0  0  0
  147.3300  139.8897  152.8239 C   0  0  0  0  0  0  0  0  0  0  0  0
  146.6424  141.1011  153.0440 C   0  0  0  0  0  0  0  0  0  0  0  0
  147.1291  142.0672  153.9479 C   0  0  0  0  0  0  0  0  0  0  0  0
  148.3210  141.8619  154.6729 C   0  0  0  0  0  0  0  0  0  0  0  0
  148.9945  140.6603  154.4517 C   0  0  0  0  0  0  0  0  0  0  0  0
  152.1606  141.0336  159.1891 C   0  0  0  0  0  0  0  0  0  0  0  0
  154.3399  139.7292  161.5058 H   0  0  0  0  0  0  0  0  0  0  0  0
  154.3430  139.2542  159.8037 H   0  0  0  0  0  0  0  0  0  0  0  0
  152.9342  138.9133  160.8165 H   0  0  0  0  0  0  0  0  0  0  0  0
  154.2501  142.1186  161.6692 H   0  0  0  0  0  0  0  0  0  0  0  0
  153.2648  144.2882  161.0161 H   0  0  0  0  0  0  0  0  0  0  0  0
  150.3274  144.7986  159.2640 H   0  0  0  0  0  0  0  0  0  0  0  0
  151.5689  144.9822  158.0185 H   0  0  0  0  0  0  0  0  0  0  0  0
  151.8498  145.6087  159.6440 H   0  0  0  0  0  0  0  0  0  0  0  0
  150.1745  140.3916  157.9047 H   0  0  0  0  0  0  0  0  0  0  0  0
  149.0791  141.3725  156.9258 H   0  0  0  0  0  0  0  0  0  0  0  0
  151.2909  141.8136  155.4752 H   0  0  0  0  0  0  0  0  0  0  0  0
  151.8536  140.3453  156.2212 H   0  0  0  0  0  0  0  0  0  0  0  0
  152.1293  137.8335  153.7548 H   0  0  0  0  0  0  0  0  0  0  0  0
  152.3025  138.4957  155.3600 H   0  0  0  0  0  0  0  0  0  0  0  0
  151.4476  135.8928  154.7027 H   0  0  0  0  0  0  0  0  0  0  0  0
  150.4052  135.4645  156.6062 H   0  0  0  0  0  0  0  0  0  0  0  0
  146.9568  139.1525  152.1284 H   0  0  0  0  0  0  0  0  0  0  0  0
  145.7246  141.2939  152.5075 H   0  0  0  0  0  0  0  0  0  0  0  0
  146.5781  142.9860  154.0881 H   0  0  0  0  0  0  0  0  0  0  0  0
  148.6862  142.6130  155.3573 H   0  0  0  0  0  0  0  0  0  0  0  0
  151.8745  140.1112  158.7068 H   0  0  0  0  0  0  0  0  0  0  0  0
  149.3423  137.7894  153.0020 H   0  0  0  0  0  0  0  0  0  0  0  0
  1  2  1  0  0  0  0
  1 25  1  0  0  0  0
  1 26  1  0  0  0  0
  1 27  1  0  0  0  0
  2 24  1  0  0  0  0
  2  3  2  0  0  0  0
  3  4  1  0  0  0  0
  3 28  1  0  0  0  0
  4  5  2  0  0  0  0
  4 29  1  0  0  0  0
  5  6  1  0  0  0  0
  5  7  1  0  0  0  0
  6 30  1  0  0  0  0
  6 31  1  0  0  0  0
  6 32  1  0  0  0  0
  7  8  1  0  0  0  0
  7 24  2  0  0  0  0
  8  9  1  0  0  0  0
  9 10  1  0  0  0  0
  9 33  1  0  0  0  0
  9 34  1  0  0  0  0
 10 11  1  0  0  0  0
 10 35  1  0  0  0  0
 10 36  1  0  0  0  0
 11 23  1  0  0  0  0
 11 12  1  0  0  0  0
 12 13  1  0  0  0  0
 12 17  2  0  0  0  0
 13 14  1  0  0  0  0
 13 37  1  0  0  0  0
 13 38  1  0  0  0  0
 14 15  1  0  0  0  0
 14 39  1  0  0  0  0
 15 16  2  0  0  0  0
 15 40  1  0  0  0  0
 17 18  1  0  0  0  0
 17 46  1  0  0  0  0
 18 23  2  0  0  0  0
 18 19  1  0  0  0  0
 19 20  2  0  0  0  0
 19 41  1  0  0  0  0
 20 21  1  0  0  0  0
 20 42  1  0  0  0  0
 21 22  2  0  0  0  0
 21 43  1  0  0  0  0
 22 23  1  0  0  0  0
 22 44  1  0  0  0  0
 24 45  1  0  0  0  0
M  CHG  1  17   1
M  END
> <s_m_source_file>
AV-unprocessed.smi

> <i_m_source_file_index>
1852

> <i_lp_mmshare_version>
43012

> <i_f3d_flags>
0

> <s_epik_input>
W0NIM11jMVtjSF1bY0hdYyhbQ0gzXSljKFtjSF0xKU9bQ0gyXVtDSDJdbihjKG4yKVtDSDJdW05IXVtDSF09TyljKGMyMylbY0hdW2NIXVtjSF1bY0hdMw==

> <s_epik_cmdline>
J2VwaWtfcHl0aG9uJywgJy1waCcsICc3LjAnLCAnLXRuJywgJzgnLCAnLW1hJywgJzIwMCcsICctbWV0YWxfYmluZGluZycsICctaW1hZScsICc8aW5maWxlLm1hZT4nLCAnLW9tYWUnLCAnPG91dGZpbGUubWFlPic=

> <r_lp_tautomer_probability>
1

> <r_epik_Ionization_Penalty>
1.39865

> <r_epik_Ionization_Penalty_Charging>
1.39865

> <r_epik_Ionization_Penalty_Neutral>
7.38905e-08

> <r_epik_State_Penalty>
1.48061

> <r_epik_Charging_Adjusted_Penalty>
2.87925

> <i_epik_Tot_Q>
1

> <i_epik_Tot_abs_Q>
1

> <r_epik_Metal_State_Penalty>
1.53473

> <b_epik_Metal_Only>
0

> <s_lp_Force_Field>
OPLS_2005

> <r_lp_Energy>
13.537

> <b_lp_Chiralities_Consistent>
1

> <s_lp_Variant>
AV-unprocessed.smi:1852-2

> <Gold.Version>
5.8.1

> <Gold.Id.Protein>
6NUR|6NUR_protein|mol2

> <Gold.PLP.Fitness>
56.0786

> <Gold.PLP.PLP>
-50.7951

> <Gold.PLP.part.hbond>
-2.0000

> <Gold.PLP.part.metal>
0.0000

> <Gold.PLP.part.buried>
1.3869

> <Gold.PLP.part.nonpolar>
-50.2799

> <Gold.PLP.part.repulsive>
0.8484

> <Gold.PLP.ligand.clash>
0.0000

> <Gold.PLP.ligand.torsion>
0.3999

> <Gold.PLP.Chemscore.Hbond>
2.0000

> <Gold.PLP.Chemscore.CHOScore>
0.0000

> <Gold.PLP.Chemscore.Metal>
0.0000

> <Gold.Chemscore.Hbonds>
donor molecule, donor type, donor heavy atom, donor atom, acceptor molecule, acceptor atom, score
      L1  H    17    46       P1  7948  2.00

> <Gold.PLP.Chemscore.Internal.Correction>
0.0833

> <Gold.Rescore>
     Score         DG    S(hbond)    S(metal)    S(lipo)     H(rot)  DE(clash)    DE(int)     intcor
     17.04     -19.30       0.96        0.00     143.96       2.44       1.72       0.53       ----

> <Gold.Chemscore.Fitness>
17.0420

> <Gold.Chemscore.DG>
-19.2961

> <Gold.Chemscore.ZeroCoef>
-5.4800

> <Gold.Chemscore.Hbond>
0.9649

> <Gold.Chemscore.Metal>
0.0000

> <Gold.Chemscore.Lipo>
143.9557

> <Gold.Chemscore.Internal_Hbond>
0.0000

> <Gold.Chemscore.DEClash>
1.7235

> <Gold.Chemscore.DEInternal>
0.5306

> <Gold.Chemscore.Rot>
2.4411

> <Gold.Chemscore.Internal.Correction>
   9.000000E+99

> <Gold.Chemscore.Hbonds>
donor molecule, donor type, donor heavy atom, donor atom, acceptor molecule, acceptor atom, score
      L1  H    17    46       P1  7948  0.94

> <Gold.Chemscore.Hbond.Weighted>
-3.2226

> <Gold.Chemscore.Metal.Weighted>
-0.0000

> <Gold.Chemscore.Lipo.Weighted>
-16.8428

> <Gold.Chemscore.Internal_Hbond.Weighted>
0.0000

> <Gold.Chemscore.DEClash.Weighted>
1.7235

> <Gold.Chemscore.DEInternal.Weighted>
0.5306

> <Gold.Chemscore.Rot.Weighted>
6.2493

> <Gold.Chemscore.Internal.Correction.Weighted>
   9.000000E+99

> <Gold.Protein.RotatedTorsions>
[ 6907 6896 6895 6894 ] final -122.57 input  -60.11 | X-H torsion
[ 7974 7965 7964 7962 ] final   22.21 input  175.53 | X-H torsion
[ 8008 7997 7996 7995 ] final  178.62 input   59.86 | X-H torsion
[ 10167 10162 10161 10158 ] final  -51.72 input  -65.29 | X-H torsion
[ 10718 10713 10712 10709 ] final  -36.75 input   66.30 | X-H torsion
[ 10763 10752 10751 10750 ] final    1.95 input  -60.55 | X-H torsion
[ 11005 11000 10999 10996 ] final   42.32 input  -57.11 | X-H torsion

> <Gold.Protein.ActiveResidues>
 VAL166  LYS551  ARG553  GLY616  TRP617  ASP618  TYR619  PRO620  LYS621  CYS622 
 ASP623  PHE694  ASN695  SER759  ASP760  ASP761  ALA762  ILE779  LEU786  VAL792 
 PHE793  MET794  SER795  GLU796  ALA797  LYS798  CYS799  TRP800  GLU811  SER814 

> <Gold.Protein.RotatedAtoms>
  150.8589  133.7674  159.2999 H   0  0  0  0  0  0  0  0  0  0  0  0  # atno 6907 bound_to 6896
  151.5323  135.1067  159.9915 H   0  0  0  0  0  0  0  0  0  0  0  0  # atno 6908 bound_to 6896
  152.4611  133.7780  159.6891 H   0  0  0  0  0  0  0  0  0  0  0  0  # atno 6909 bound_to 6896
  146.2038  139.7917  142.8741 H   0  0  0  0  0  0  0  0  0  0  0  0  # atno 7974 bound_to 7965
  156.0526  140.1329  157.0032 H   0  0  0  0  0  0  0  0  0  0  0  0  # atno 8008 bound_to 7997
  154.4442  140.1007  156.6470 H   0  0  0  0  0  0  0  0  0  0  0  0  # atno 8009 bound_to 7997
  155.5500  140.3462  155.4468 H   0  0  0  0  0  0  0  0  0  0  0  0  # atno 8010 bound_to 7997
  140.6574  143.2609  151.4545 H   0  0  0  0  0  0  0  0  0  0  0  0  # atno 10167 bound_to 10162
  156.3232  130.4268  149.7940 H   0  0  0  0  0  0  0  0  0  0  0  0  # atno 10718 bound_to 10713
  153.3017  135.6956  153.7197 H   0  0  0  0  0  0  0  0  0  0  0  0  # atno 10763 bound_to 10752
  153.6109  135.3444  155.2979 H   0  0  0  0  0  0  0  0  0  0  0  0  # atno 10764 bound_to 10752
  154.8552  135.4363  154.2129 H   0  0  0  0  0  0  0  0  0  0  0  0  # atno 10765 bound_to 10752
  140.1750  134.4174  155.8234 H   0  0  0  0  0  0  0  0  0  0  0  0  # atno 11005 bound_to 11000
  145.3390  141.0283  143.3403 LP  0  0  0  0  0  0  0  0  0  0  0  0  # atno 17320 bound_to 7965
  144.8745  139.4990  143.6752 LP  0  0  0  0  0  0  0  0  0  0  0  0  # atno 17321 bound_to 7965
  139.5799  144.1733  152.1954 LP  0  0  0  0  0  0  0  0  0  0  0  0  # atno 17342 bound_to 10162
  140.1055  144.5503  150.6960 LP  0  0  0  0  0  0  0  0  0  0  0  0  # atno 17343 bound_to 10162
  156.5240  130.8228  151.3214 LP  0  0  0  0  0  0  0  0  0  0  0  0  # atno 17370 bound_to 10713
  157.7416  130.9873  150.2457 LP  0  0  0  0  0  0  0  0  0  0  0  0  # atno 17371 bound_to 10713
  141.2220  133.6974  156.7831 LP  0  0  0  0  0  0  0  0  0  0  0  0  # atno 17394 bound_to 11000
  140.2333  134.8669  157.3499 LP  0  0  0  0  0  0  0  0  0  0  0  0  # atno 17395 bound_to 11000

$$$$
