#       Name:                AV-unprocessed.smi:1740
#       Creating user name   scv26
#       Creation time:       Fri Mar 27 08:23:17 2020


#       File generated by GOLD software.
#

@<TRIPOS>MOLECULE
AV-unprocessed.smi:1740
    58    60     1
SMALL
NO_CHARGES


@<TRIPOS>ATOM
      1 ****        -5.1427  -4.3179   0.1097 N.pl3          1 S1                -1.0000
      2 ****        -3.9161  -4.4912  -0.4221 C.2            1 S1                 0.0000
      3 ****        -3.5816  -5.2688  -1.3126 O.2            1 S1                 0.0000
      4 ****        -2.8694  -3.5698   0.2132 C.3            1 S1                 0.0000
      5 ****        -3.1962  -2.1433  -0.0415 N.4            1 S1                 1.0000
      6 ****        -2.8668  -1.7033  -1.4239 C.3            1 S1                 0.0000
      7 ****        -3.3391  -0.2602  -1.6799 C.3            1 S1                 0.0000
      8 ****        -2.7755   0.7257  -0.6419 C.3            1 S1                 0.0000
      9 ****        -1.3407   0.9219  -0.8482 N.am           1 S1                 0.0000
     10 ****        -0.6273   1.9604  -0.3903 C.2            1 S1                 0.0000
     11 ****        -1.1108   2.8901   0.2552 O.2            1 S1                 0.0000
     12 ****         0.6727   1.8375  -0.7043 N.am           1 S1                 0.0000
     13 ****         1.7363   2.6903  -0.2990 C.ar           1 S1                 0.0000
     14 ****         1.5700   4.0986  -0.2958 C.ar           1 S1                 0.0000
     15 ****         2.6526   4.9332   0.0386 C.ar           1 S1                 0.0000
     16 ****         3.8914   4.3470   0.3492 C.ar           1 S1                 0.0000
     17 ****         4.0209   3.0044   0.3257 N.pl3          1 S1                 1.0000
     18 ****         3.0131   2.1464   0.0270 C.ar           1 S1                 0.0000
     19 ****         3.2972   0.7613   0.0576 N.3            1 S1                 0.0000
     20 ****         4.6627   0.2930   0.2639 C.3            1 S1                 0.0000
     21 ****         4.5294  -1.1954   0.5730 C.3            1 S1                 0.0000
     22 ****         3.2199  -1.2526   1.3540 C.3            1 S1                 0.0000
     23 ****         2.3673  -0.1498   0.7181 C.3            1 S1                 0.0000
     24 ****        -3.0840   0.2107   0.7780 C.3            1 S1                 0.0000
     25 ****        -2.6103  -1.2395   0.9801 C.3            1 S1                 0.0000
     26 ****        -5.9166  -4.8961  -0.2396 H              1 S1                 0.0000
     27 ****        -2.8544  -3.7713   1.2858 H              1 S1                 0.0000
     28 ****        -1.8715  -3.8047  -0.1607 H              1 S1                 0.0000
     29 ****        -1.7905  -1.7832  -1.5845 H              1 S1                 0.0000
     30 ****        -3.3401  -2.3637  -2.1511 H              1 S1                 0.0000
     31 ****        -3.0633   0.0517  -2.6880 H              1 S1                 0.0000
     32 ****        -4.4290  -0.2334  -1.6432 H              1 S1                 0.0000
     33 ****        -3.2714   1.6878  -0.7844 H              1 S1                 0.0000
     34 ****        -0.8575   0.2099  -1.3761 H              1 S1                 0.0000
     35 ****         0.9462   0.9782  -1.1580 H              1 S1                 0.0000
     36 ****         0.6279   4.5515  -0.5671 H              1 S1                 0.0000
     37 ****         2.5363   6.0072   0.0435 H              1 S1                 0.0000
     38 ****         4.7781   4.9063   0.6098 H              1 S1                 0.0000
     39 ****         5.2837   0.4705  -0.6145 H              1 S1                 0.0000
     40 ****         5.1144   0.8044   1.1149 H              1 S1                 0.0000
     41 ****         4.4358  -1.7635  -0.3535 H              1 S1                 0.0000
     42 ****         5.3784  -1.5917   1.1302 H              1 S1                 0.0000
     43 ****         2.7429  -2.2321   1.3150 H              1 S1                 0.0000
     44 ****         3.4086  -1.0128   2.4012 H              1 S1                 0.0000
     45 ****         1.7544   0.3562   1.4651 H              1 S1                 0.0000
     46 ****         1.7042  -0.5792  -0.0332 H              1 S1                 0.0000
     47 ****        -2.6346   0.8594   1.5306 H              1 S1                 0.0000
     48 ****        -4.1606   0.2578   0.9475 H              1 S1                 0.0000
     49 ****        -2.9047  -1.5732   1.9759 H              1 S1                 0.0000
     50 ****        -1.5214  -1.2953   0.9370 H              1 S1                 0.0000
     51 ****        -4.2001  -2.0790   0.0601 H              1 S1                 0.0000
     52 ****         4.9333   2.6100   0.5553 H              1 S1                 0.0000
     53 ****        -5.2960  -3.6406   0.8292 LP             1 S1                 0.0000
     54 ****        -4.2609  -5.8715  -1.7313 LP             1 S1                 0.0000
     55 ****        -2.6301  -5.2990  -1.6187 LP             1 S1                 0.0000
     56 ****        -2.0885   2.8979   0.4650 LP             1 S1                 0.0000
     57 ****        -0.5260   3.6377   0.5698 LP             1 S1                 0.0000
     58 ****         3.1278   0.7026  -0.9262 LP             1 S1                 0.0000
@<TRIPOS>BOND
    1    1    2 1     
    2    1   26 1     
    3    2    3 2     
    4    2    4 1     
    5    4    5 1     
    6    4   27 1     
    7    4   28 1     
    8    5   25 1     
    9    5    6 1     
   10    5   51 1     
   11    6    7 1     
   12    6   29 1     
   13    6   30 1     
   14    7    8 1     
   15    7   31 1     
   16    7   32 1     
   17    8    9 1     
   18    8   24 1     
   19    8   33 1     
   20    9   10 am    
   21    9   34 1     
   22   10   11 2     
   23   10   12 am    
   24   12   13 1     
   25   12   35 1     
   26   13   18 ar    
   27   13   14 ar    
   28   14   15 ar    
   29   14   36 1     
   30   15   16 ar    
   31   15   37 1     
   32   16   17 ar    
   33   16   38 1     
   34   17   18 ar    
   35   17   52 1     
   36   18   19 1     
   37   19   23 1     
   38   19   20 1     
   39   20   21 1     
   40   20   39 1     
   41   20   40 1     
   42   21   22 1     
   43   21   41 1     
   44   21   42 1     
   45   22   23 1     
   46   22   43 1     
   47   22   44 1     
   48   23   45 1     
   49   23   46 1     
   50   24   25 1     
   51   24   47 1     
   52   24   48 1     
   53   25   49 1     
   54   25   50 1     
   55    1   53 1     
   56    3   54 1     
   57    3   55 1     
   58   11   56 1     
   59   11   57 1     
   60   19   58 1     
@<TRIPOS>SUBSTRUCTURE
      1 S1             1
@<TRIPOS>SET
LONE_PAIRS      STATIC     ATOMS    <user>   **** ""
6 53 54 55 56 57 58
DONOR_HYDROGENS      STATIC     ATOMS    <user>   **** ""
5 26 51 34 35 52
ATOM$BLUE        STATIC     ATOMS    COLORGROUP SYSTEM
6 53 54 55 56 57 58
ATOM$RED        STATIC     ATOMS    COLORGROUP SYSTEM
5 26 51 34 35 52
