AV-unprocessed.smi:1231|AV-procd|sdf|5163|dock2
  -GOLD-   22720 4233D 1   1.00000     0.00000
 Structure written by MMmdl.
 43 44  0  0  0  0  0  0  0  0  2 V2000
  151.5728  138.0745  154.4049 C   0  0  0  0  0  0  0  0  0  0  0  0
  150.3980  138.9243  154.9013 C   0  0  2  0  0  0  0  0  0  0  0  0
  149.0502  138.4197  154.3555 C   0  0  0  0  0  0  0  0  0  0  0  0
  147.9503  139.3153  154.7816 N   0  3  2  0  0  0  0  0  0  0  0  0
  146.6177  138.8106  154.3685 C   0  0  0  0  0  0  0  0  0  0  0  0
  146.4418  138.7999  152.8372 C   0  0  0  0  0  0  0  0  0  0  0  0
  146.8171  137.5137  152.2612 N   0  0  0  0  0  0  0  0  0  0  0  0
  145.9515  136.5549  151.9010 C   0  0  0  0  0  0  0  0  0  0  0  0
  144.7308  136.6698  152.0163 O   0  0  0  0  0  0  0  0  0  0  0  0
  146.5903  135.4785  151.4097 N   0  0  0  0  0  0  0  0  0  0  0  0
  146.0240  134.2794  150.9005 C   0  0  0  0  0  0  0  0  0  0  0  0
  144.6801  134.3853  150.4761 C   0  0  0  0  0  0  0  0  0  0  0  0
  144.0260  133.2507  149.9577 C   0  0  0  0  0  0  0  0  0  0  0  0
  144.7331  132.0377  149.8788 C   0  0  0  0  0  0  0  0  0  0  0  0
  146.0678  132.0180  150.3237 C   0  0  0  0  0  0  0  0  0  0  0  0
  146.6968  133.1043  150.8203 N   0  0  0  0  0  0  0  0  0  0  0  0
  148.2220  140.7057  154.3398 C   0  0  0  0  0  0  0  0  0  0  0  0
  149.5947  141.1900  154.8456 C   0  0  1  0  0  0  0  0  0  0  0  0
  149.6167  141.5019  156.3526 C   0  0  0  0  0  0  0  0  0  0  0  0
  150.6143  140.2647  154.4681 O   0  0  0  0  0  0  0  0  0  0  0  0
  151.4696  137.0367  154.7226 H   0  0  0  0  0  0  0  0  0  0  0  0
  152.5179  138.4497  154.7980 H   0  0  0  0  0  0  0  0  0  0  0  0
  151.6372  138.0868  153.3164 H   0  0  0  0  0  0  0  0  0  0  0  0
  150.3903  138.8857  155.9908 H   0  0  0  0  0  0  0  0  0  0  0  0
  149.0756  138.3676  153.2654 H   0  0  0  0  0  0  0  0  0  0  0  0
  148.8658  137.4083  154.7198 H   0  0  0  0  0  0  0  0  0  0  0  0
  146.4582  137.8179  154.7922 H   0  0  0  0  0  0  0  0  0  0  0  0
  145.8452  139.4541  154.7924 H   0  0  0  0  0  0  0  0  0  0  0  0
  145.4001  138.9948  152.5814 H   0  0  0  0  0  0  0  0  0  0  0  0
  147.0303  139.5843  152.3606 H   0  0  0  0  0  0  0  0  0  0  0  0
  147.8036  137.3383  152.1365 H   0  0  0  0  0  0  0  0  0  0  0  0
  147.5984  135.5229  151.3918 H   0  0  0  0  0  0  0  0  0  0  0  0
  144.1514  135.3247  150.5449 H   0  0  0  0  0  0  0  0  0  0  0  0
  142.9994  133.3108  149.6277 H   0  0  0  0  0  0  0  0  0  0  0  0
  144.2657  131.1462  149.4876 H   0  0  0  0  0  0  0  0  0  0  0  0
  146.6459  131.1069  150.2804 H   0  0  0  0  0  0  0  0  0  0  0  0
  148.2005  140.7432  153.2495 H   0  0  0  0  0  0  0  0  0  0  0  0
  147.4466  141.3859  154.6903 H   0  0  0  0  0  0  0  0  0  0  0  0
  149.8282  142.1214  154.3293 H   0  0  0  0  0  0  0  0  0  0  0  0
  148.9220  142.3081  156.5893 H   0  0  0  0  0  0  0  0  0  0  0  0
  150.6100  141.8204  156.6692 H   0  0  0  0  0  0  0  0  0  0  0  0
  149.3315  140.6424  156.9588 H   0  0  0  0  0  0  0  0  0  0  0  0
  147.9590  139.3160  155.7915 H   0  0  0  0  0  0  0  0  0  0  0  0
  1  2  1  0  0  0  0
  1 21  1  0  0  0  0
  1 22  1  0  0  0  0
  1 23  1  0  0  0  0
  2 20  1  0  0  0  0
  2  3  1  0  0  0  0
  2 24  1  0  0  0  0
  3  4  1  0  0  0  0
  3 25  1  0  0  0  0
  3 26  1  0  0  0  0
  4  5  1  0  0  0  0
  4 17  1  0  0  0  0
  4 43  1  0  0  0  0
  5  6  1  0  0  0  0
  5 27  1  0  0  0  0
  5 28  1  0  0  0  0
  6  7  1  0  0  0  0
  6 29  1  0  0  0  0
  6 30  1  0  0  0  0
  7  8  1  0  0  0  0
  7 31  1  0  0  0  0
  8  9  2  0  0  0  0
  8 10  1  0  0  0  0
 10 11  1  0  0  0  0
 10 32  1  0  0  0  0
 11 16  1  0  0  0  0
 11 12  2  0  0  0  0
 12 13  1  0  0  0  0
 12 33  1  0  0  0  0
 13 14  2  0  0  0  0
 13 34  1  0  0  0  0
 14 15  1  0  0  0  0
 14 35  1  0  0  0  0
 15 16  2  0  0  0  0
 15 36  1  0  0  0  0
 17 18  1  0  0  0  0
 17 37  1  0  0  0  0
 17 38  1  0  0  0  0
 18 19  1  0  0  0  0
 18 20  1  0  0  0  0
 18 39  1  0  0  0  0
 19 40  1  0  0  0  0
 19 41  1  0  0  0  0
 19 42  1  0  0  0  0
M  CHG  1   4   1
M  END
> <s_m_source_file>
AV-unprocessed.smi

> <i_m_source_file_index>
1231

> <i_lp_mmshare_version>
43012

> <i_f3d_flags>
0

> <s_epik_input>
W0NIM11bQ0BASF0xW0NIMl1OKFtDSDJdW0NASF0oTzEpW0NIM10pW0NIMl1bQ0gyXVtOSF1DKD1PKVtOSF1jMltjSF1bY0hdW2NIXVtjSF1uMg==

> <s_epik_cmdline>
J2VwaWtfcHl0aG9uJywgJy1waCcsICc3LjAnLCAnLXRuJywgJzgnLCAnLW1hJywgJzIwMCcsICctbWV0YWxfYmluZGluZycsICctaW1hZScsICc8aW5maWxlLm1hZT4nLCAnLW9tYWUnLCAnPG91dGZpbGUubWFlPic=

> <r_epik_Ionization_Penalty>
0.602565

> <r_epik_Ionization_Penalty_Charging>
0.602531

> <r_epik_Ionization_Penalty_Neutral>
3.43186e-05

> <r_epik_State_Penalty>
0.617039

> <r_epik_Charging_Adjusted_Penalty>
1.21957

> <i_epik_Tot_Q>
1

> <i_epik_Tot_abs_Q>
1

> <r_epik_Metal_State_Penalty>
0.617041

> <b_epik_Metal_Only>
0

> <s_lp_Force_Field>
OPLS_2005

> <r_lp_Energy>
18.1203

> <b_lp_Chiralities_Consistent>
1

> <s_lp_Variant>
AV-unprocessed.smi:1231-4

> <Gold.Version>
5.8.1

> <Gold.Id.Protein>
6NUR|6NUR_protein|mol2

> <Gold.PLP.Fitness>
45.3720

> <Gold.PLP.PLP>
-34.4542

> <Gold.PLP.part.hbond>
-2.9486

> <Gold.PLP.part.metal>
0.0000

> <Gold.PLP.part.buried>
-2.4741

> <Gold.PLP.part.nonpolar>
-30.0190

> <Gold.PLP.part.repulsive>
1.4473

> <Gold.PLP.ligand.clash>
0.0000

> <Gold.PLP.ligand.torsion>
0.4600

> <Gold.PLP.Chemscore.Hbond>
3.0000

> <Gold.PLP.Chemscore.CHOScore>
0.9400

> <Gold.PLP.Chemscore.Metal>
0.0000

> <Gold.Chemscore.Hbonds>
donor molecule, donor type, donor heavy atom, donor atom, acceptor molecule, acceptor atom, score
      L1  H     7    31       P1  7948  0.94
      L1  H    10    32       P1  7948  1.00
      P1  H  7989  7998       L1    20  0.99
      L1  C    15    36       P1 10747  0.98

> <Gold.PLP.Chemscore.Internal.Correction>
0.0177

> <Gold.Rescore>
     Score         DG    S(hbond)    S(metal)    S(lipo)     H(rot)  DE(clash)    DE(int)     intcor
     18.92     -20.88       2.84        0.00      84.66       1.55       0.08       1.88       ----

> <Gold.Chemscore.Fitness>
18.9239

> <Gold.Chemscore.DG>
-20.8821

> <Gold.Chemscore.ZeroCoef>
-5.4800

> <Gold.Chemscore.Hbond>
2.8372

> <Gold.Chemscore.Metal>
0.0000

> <Gold.Chemscore.Lipo>
84.6611

> <Gold.Chemscore.Internal_Hbond>
0.0000

> <Gold.Chemscore.DEClash>
0.0809

> <Gold.Chemscore.DEInternal>
1.8773

> <Gold.Chemscore.Rot>
1.5546

> <Gold.Chemscore.Internal.Correction>
   9.000000E+99

> <Gold.Chemscore.Hbonds>
donor molecule, donor type, donor heavy atom, donor atom, acceptor molecule, acceptor atom, score
      L1  H     7    31       P1  7948  0.90
      L1  H    10    32       P1  7948  0.75
      P1  H  7989  7998       L1    20  0.75

> <Gold.Chemscore.Hbond.Weighted>
-9.4764

> <Gold.Chemscore.Metal.Weighted>
-0.0000

> <Gold.Chemscore.Lipo.Weighted>
-9.9054

> <Gold.Chemscore.Internal_Hbond.Weighted>
0.0000

> <Gold.Chemscore.DEClash.Weighted>
0.0809

> <Gold.Chemscore.DEInternal.Weighted>
1.8773

> <Gold.Chemscore.Rot.Weighted>
3.9797

> <Gold.Chemscore.Internal.Correction.Weighted>
   9.000000E+99

> <Gold.Protein.RotatedTorsions>
[ 6907 6896 6895 6894 ] final  -46.89 input  -60.11 | X-H torsion
[ 7974 7965 7964 7962 ] final  -13.59 input  175.53 | X-H torsion
[ 8008 7997 7996 7995 ] final  -63.45 input   59.86 | X-H torsion
[ 10167 10162 10161 10158 ] final    2.50 input  -65.29 | X-H torsion
[ 10718 10713 10712 10709 ] final -104.43 input   66.30 | X-H torsion
[ 10763 10752 10751 10750 ] final   63.30 input  -60.55 | X-H torsion
[ 11005 11000 10999 10996 ] final   15.64 input  -57.11 | X-H torsion

> <Gold.Protein.ActiveResidues>
 VAL166  LYS551  ARG553  GLY616  TRP617  ASP618  TYR619  PRO620  LYS621  CYS622 
 ASP623  PHE694  ASN695  SER759  ASP760  ASP761  ALA762  ILE779  LEU786  VAL792 
 PHE793  MET794  SER795  GLU796  ALA797  LYS798  CYS799  TRP800  GLU811  SER814 

> <Gold.Protein.RotatedAtoms>
  150.9065  134.8480  159.7395 H   0  0  0  0  0  0  0  0  0  0  0  0  # atno 6907 bound_to 6896
  152.4921  134.4424  159.9557 H   0  0  0  0  0  0  0  0  0  0  0  0  # atno 6908 bound_to 6896
  151.4470  133.3588  159.2825 H   0  0  0  0  0  0  0  0  0  0  0  0  # atno 6909 bound_to 6896
  146.2108  140.3226  142.8392 H   0  0  0  0  0  0  0  0  0  0  0  0  # atno 7974 bound_to 7965
  154.4555  140.0974  156.6744 H   0  0  0  0  0  0  0  0  0  0  0  0  # atno 8008 bound_to 7997
  155.5152  140.3477  155.4377 H   0  0  0  0  0  0  0  0  0  0  0  0  # atno 8009 bound_to 7997
  156.0768  140.1363  156.9750 H   0  0  0  0  0  0  0  0  0  0  0  0  # atno 8010 bound_to 7997
  140.6632  143.7249  150.7778 H   0  0  0  0  0  0  0  0  0  0  0  0  # atno 10167 bound_to 10162
  156.0304  130.5515  150.7395 H   0  0  0  0  0  0  0  0  0  0  0  0  # atno 10718 bound_to 10713
  153.0013  135.5434  154.6330 H   0  0  0  0  0  0  0  0  0  0  0  0  # atno 10763 bound_to 10752
  154.5603  135.2833  155.0927 H   0  0  0  0  0  0  0  0  0  0  0  0  # atno 10764 bound_to 10752
  154.2132  135.6463  153.5174 H   0  0  0  0  0  0  0  0  0  0  0  0  # atno 10765 bound_to 10752
  140.4560  134.1175  155.7709 H   0  0  0  0  0  0  0  0  0  0  0  0  # atno 11005 bound_to 11000
  144.8909  140.7522  143.5927 LP  0  0  0  0  0  0  0  0  0  0  0  0  # atno 17320 bound_to 7965
  145.3148  139.1807  143.4619 LP  0  0  0  0  0  0  0  0  0  0  0  0  # atno 17321 bound_to 7965
  140.0921  143.4868  152.2473 LP  0  0  0  0  0  0  0  0  0  0  0  0  # atno 17342 bound_to 10162
  139.5872  144.7536  151.3490 LP  0  0  0  0  0  0  0  0  0  0  0  0  # atno 17343 bound_to 10162
  157.4967  131.0915  151.0362 LP  0  0  0  0  0  0  0  0  0  0  0  0  # atno 17370 bound_to 10713
  157.0754  130.5881  149.5410 LP  0  0  0  0  0  0  0  0  0  0  0  0  # atno 17371 bound_to 10713
  141.1642  133.8734  157.1761 LP  0  0  0  0  0  0  0  0  0  0  0  0  # atno 17394 bound_to 11000
  139.9976  135.0041  157.0117 LP  0  0  0  0  0  0  0  0  0  0  0  0  # atno 17395 bound_to 11000

$$$$
