AV-unprocessed.smi:675|AV-procd|sdf|3305|dock9
  -GOLD-   22720 0263D 1   1.00000     0.00000
 Structure written by MMmdl.
 28 29  0  0  0  0  0  0  0  0  2 V2000
  154.2453  135.4377  160.5425 O   0  0  0  0  0  0  0  0  0  0  0  0
  154.1185  136.6435  160.3348 C   0  0  0  0  0  0  0  0  0  0  0  0
  154.0442  137.1706  159.0778 N   0  5  0  0  0  0  0  0  0  0  0  0
  153.9074  138.5088  158.8259 C   0  0  0  0  0  0  0  0  0  0  0  0
  153.8492  138.9568  157.6809 O   0  0  0  0  0  0  0  0  0  0  0  0
  153.8403  139.3737  159.8825 N   0  0  0  0  0  0  0  0  0  0  0  0
  153.7195  140.8317  159.7220 C   0  0  0  0  0  0  0  0  0  0  0  0
  152.2497  141.3101  159.7334 C   0  0  2  0  0  0  0  0  0  0  0  0
  151.5746  140.6699  158.6689 O   0  0  0  0  0  0  0  0  0  0  0  0
  152.1142  142.8320  159.6730 C   0  0  0  0  0  0  0  0  0  0  0  0
  151.9102  143.4524  158.4192 C   0  0  0  0  0  0  0  0  0  0  0  0
  151.8059  144.8522  158.3171 C   0  0  0  0  0  0  0  0  0  0  0  0
  151.9054  145.6494  159.4710 C   0  0  0  0  0  0  0  0  0  0  0  0
  152.1110  145.0441  160.7240 C   0  0  0  0  0  0  0  0  0  0  0  0
  152.2175  143.6430  160.8332 C   0  0  0  0  0  0  0  0  0  0  0  0
  152.4849  142.9672  162.4026 Cl  0  0  0  0  0  0  0  0  0  0  0  0
  153.9041  138.8809  161.1966 C   0  0  0  0  0  0  0  0  0  0  0  0
  154.0414  137.5679  161.4638 C   0  0  0  0  0  0  0  0  0  0  0  0
  154.1309  136.9945  163.0909 Cl  0  0  0  0  0  0  0  0  0  0  0  0
  154.2887  141.3626  160.4866 H   0  0  0  0  0  0  0  0  0  0  0  0
  154.1879  141.1178  158.7788 H   0  0  0  0  0  0  0  0  0  0  0  0
  151.7711  140.9331  160.6356 H   0  0  0  0  0  0  0  0  0  0  0  0
  150.6447  140.7386  158.8211 H   0  0  0  0  0  0  0  0  0  0  0  0
  151.8456  142.8533  157.5227 H   0  0  0  0  0  0  0  0  0  0  0  0
  151.6555  145.3137  157.3525 H   0  0  0  0  0  0  0  0  0  0  0  0
  151.8289  146.7241  159.3951 H   0  0  0  0  0  0  0  0  0  0  0  0
  152.1927  145.6600  161.6075 H   0  0  0  0  0  0  0  0  0  0  0  0
  153.8460  139.6352  161.9679 H   0  0  0  0  0  0  0  0  0  0  0  0
  1  2  2  0  0  0  0
  2 18  1  0  0  0  0
  2  3  1  0  0  0  0
  3  4  1  0  0  0  0
  4  5  2  0  0  0  0
  4  6  1  0  0  0  0
  6  7  1  0  0  0  0
  6 17  1  0  0  0  0
  7  8  1  0  0  0  0
  7 20  1  0  0  0  0
  7 21  1  0  0  0  0
  8  9  1  0  0  0  0
  8 10  1  0  0  0  0
  8 22  1  0  0  0  0
  9 23  1  0  0  0  0
 10 15  1  0  0  0  0
 10 11  2  0  0  0  0
 11 12  1  0  0  0  0
 11 24  1  0  0  0  0
 12 13  2  0  0  0  0
 12 25  1  0  0  0  0
 13 14  1  0  0  0  0
 13 26  1  0  0  0  0
 14 15  2  0  0  0  0
 14 27  1  0  0  0  0
 15 16  1  0  0  0  0
 17 18  2  0  0  0  0
 17 28  1  0  0  0  0
 18 19  1  0  0  0  0
M  CHG  1   3  -1
M  END
> <s_m_source_file>
AV-unprocessed.smi

> <i_m_source_file_index>
675

> <i_lp_mmshare_version>
43012

> <i_f3d_flags>
0

> <s_epik_input>
Tz1jMVtuSF1jKD1PKW4oW2NIXWMxQ2wpW0NIMl1bQ0BIXShbT0hdKWMyW2NIXVtjSF1bY0hdW2NIXWMyQ2w=

> <s_epik_cmdline>
J2VwaWtfcHl0aG9uJywgJy1waCcsICc3LjAnLCAnLXRuJywgJzgnLCAnLW1hJywgJzIwMCcsICctbWV0YWxfYmluZGluZycsICctaW1hZScsICc8aW5maWxlLm1hZT4nLCAnLW9tYWUnLCAnPG91dGZpbGUubWFlPic=

> <r_epik_Ionization_Penalty>
1.79791

> <r_epik_Ionization_Penalty_Charging>
3.23819e-08

> <r_epik_Ionization_Penalty_Neutral>
1.79791

> <r_epik_State_Penalty>
1.91135

> <r_epik_Charging_Adjusted_Penalty>
1.91135

> <i_epik_Tot_Q>
-1

> <i_epik_Tot_abs_Q>
1

> <r_epik_Metal_State_Penalty>
0.014155

> <b_epik_Metal_Only>
0

> <s_lp_Force_Field>
OPLS_2005

> <r_lp_Energy>
20.012

> <b_lp_Chiralities_Consistent>
1

> <s_lp_Variant>
AV-unprocessed.smi:675-3

> <Gold.Version>
5.8.1

> <Gold.Id.Protein>
6NUR|6NUR_protein|mol2

> <Gold.PLP.Fitness>
47.4921

> <Gold.PLP.PLP>
-43.6158

> <Gold.PLP.part.hbond>
-2.0000

> <Gold.PLP.part.metal>
0.0000

> <Gold.PLP.part.buried>
-4.8429

> <Gold.PLP.part.nonpolar>
-36.9500

> <Gold.PLP.part.repulsive>
0.0000

> <Gold.PLP.ligand.clash>
0.0000

> <Gold.PLP.ligand.torsion>
1.0702

> <Gold.PLP.Chemscore.Hbond>
2.0000

> <Gold.PLP.Chemscore.CHOScore>
0.0000

> <Gold.PLP.Chemscore.Metal>
0.0000

> <Gold.Chemscore.Hbonds>
donor molecule, donor type, donor heavy atom, donor atom, acceptor molecule, acceptor atom, score
      P1  H  6896  6907       L1     1  1.00
      P1  H  7997  8010       L1     5  0.94

> <Gold.PLP.Chemscore.Internal.Correction>
0.0168

> <Gold.Rescore>
     Score         DG    S(hbond)    S(metal)    S(lipo)     H(rot)  DE(clash)    DE(int)     intcor
     19.18     -20.32       1.83        0.00     121.19       2.13       0.07       1.07       ----

> <Gold.Chemscore.Fitness>
19.1770

> <Gold.Chemscore.DG>
-20.3235

> <Gold.Chemscore.ZeroCoef>
-5.4800

> <Gold.Chemscore.Hbond>
1.8299

> <Gold.Chemscore.Metal>
0.0000

> <Gold.Chemscore.Lipo>
121.1858

> <Gold.Chemscore.Internal_Hbond>
0.0000

> <Gold.Chemscore.DEClash>
0.0741

> <Gold.Chemscore.DEInternal>
1.0725

> <Gold.Chemscore.Rot>
2.1278

> <Gold.Chemscore.Internal.Correction>
   9.000000E+99

> <Gold.Chemscore.Hbonds>
donor molecule, donor type, donor heavy atom, donor atom, acceptor molecule, acceptor atom, score
      P1  H  6896  6907       L1     1  0.62
      P1  H  7997  8010       L1     5  0.84

> <Gold.Chemscore.Hbond.Weighted>
-6.1119

> <Gold.Chemscore.Metal.Weighted>
-0.0000

> <Gold.Chemscore.Lipo.Weighted>
-14.1787

> <Gold.Chemscore.Internal_Hbond.Weighted>
0.0000

> <Gold.Chemscore.DEClash.Weighted>
0.0741

> <Gold.Chemscore.DEInternal.Weighted>
1.0725

> <Gold.Chemscore.Rot.Weighted>
5.4470

> <Gold.Chemscore.Internal.Correction.Weighted>
   9.000000E+99

> <Gold.Protein.RotatedTorsions>
[ 6907 6896 6895 6894 ] final   68.79 input  -60.11 | X-H torsion
[ 7974 7965 7964 7962 ] final   82.33 input  175.53 | X-H torsion
[ 8008 7997 7996 7995 ] final   50.51 input   59.86 | X-H torsion
[ 10167 10162 10161 10158 ] final  -65.81 input  -65.29 | X-H torsion
[ 10718 10713 10712 10709 ] final  -19.36 input   66.30 | X-H torsion
[ 10763 10752 10751 10750 ] final   10.21 input  -60.55 | X-H torsion
[ 11005 11000 10999 10996 ] final   58.95 input  -57.11 | X-H torsion

> <Gold.Protein.ActiveResidues>
 VAL166  LYS551  ARG553  GLY616  TRP617  ASP618  TYR619  PRO620  LYS621  CYS622 
 ASP623  PHE694  ASN695  SER759  ASP760  ASP761  ALA762  ILE779  LEU786  VAL792 
 PHE793  MET794  SER795  GLU796  ALA797  LYS798  CYS799  TRP800  GLU811  SER814 

> <Gold.Protein.RotatedAtoms>
  152.4643  134.5111  159.9753 H   0  0  0  0  0  0  0  0  0  0  0  0  # atno 6907 bound_to 6896
  151.5152  133.3471  159.2899 H   0  0  0  0  0  0  0  0  0  0  0  0  # atno 6908 bound_to 6896
  150.8621  134.8004  159.7152 H   0  0  0  0  0  0  0  0  0  0  0  0  # atno 6909 bound_to 6896
  145.6264  139.2396  143.2109 H   0  0  0  0  0  0  0  0  0  0  0  0  # atno 7974 bound_to 7965
  155.4200  140.3446  155.4270 H   0  0  0  0  0  0  0  0  0  0  0  0  # atno 8008 bound_to 7997
  156.1399  140.1539  156.8968 H   0  0  0  0  0  0  0  0  0  0  0  0  # atno 8009 bound_to 7997
  154.4962  140.0827  156.7682 H   0  0  0  0  0  0  0  0  0  0  0  0  # atno 8010 bound_to 7997
  140.5702  143.2317  151.6553 H   0  0  0  0  0  0  0  0  0  0  0  0  # atno 10167 bound_to 10162
  156.5468  130.4691  149.6471 H   0  0  0  0  0  0  0  0  0  0  0  0  # atno 10718 bound_to 10713
  153.2056  135.6862  153.8177 H   0  0  0  0  0  0  0  0  0  0  0  0  # atno 10763 bound_to 10752
  153.7427  135.3235  155.3308 H   0  0  0  0  0  0  0  0  0  0  0  0  # atno 10764 bound_to 10752
  154.8195  135.4662  154.0841 H   0  0  0  0  0  0  0  0  0  0  0  0  # atno 10765 bound_to 10752
  140.0340  134.5971  155.9469 H   0  0  0  0  0  0  0  0  0  0  0  0  # atno 11005 bound_to 11000
  146.1391  140.7082  142.9376 LP  0  0  0  0  0  0  0  0  0  0  0  0  # atno 17320 bound_to 7965
  144.7210  140.4374  143.7008 LP  0  0  0  0  0  0  0  0  0  0  0  0  # atno 17321 bound_to 7965
  139.5114  144.3511  152.0651 LP  0  0  0  0  0  0  0  0  0  0  0  0  # atno 17342 bound_to 10162
  140.2648  144.4028  150.6172 LP  0  0  0  0  0  0  0  0  0  0  0  0  # atno 17343 bound_to 10162
  156.2921  130.7130  151.1981 LP  0  0  0  0  0  0  0  0  0  0  0  0  # atno 17370 bound_to 10713
  157.7395  131.0528  150.5227 LP  0  0  0  0  0  0  0  0  0  0  0  0  # atno 17371 bound_to 10713
  141.1847  133.6553  156.5166 LP  0  0  0  0  0  0  0  0  0  0  0  0  # atno 17394 bound_to 11000
  140.4179  134.7214  157.4873 LP  0  0  0  0  0  0  0  0  0  0  0  0  # atno 17395 bound_to 11000

$$$$
