AV-unprocessed.smi:247|AV-procd|sdf|1894|dock5
  -GOLD-   2262020563D 1   1.00000     0.00000
 Structure written by MMmdl.
 61 65  0  0  0  0  0  0  0  0  1 V2000
  147.9288  137.3719  163.4268 O   0  0  0  0  0  0  0  0  0  0  0  0
  148.2119  136.6229  162.2610 C   0  0  0  0  0  0  0  0  0  0  0  0
  147.0376  135.7088  161.8125 C   0  0  0  0  0  0  0  0  0  0  0  0
  147.2525  135.3234  160.3144 C   0  0  0  0  0  0  0  0  0  0  0  0
  147.4229  136.4479  159.4049 N   0  0  0  0  0  0  0  0  0  0  0  0
  146.4670  137.3728  159.0483 C   0  0  0  0  0  0  0  0  0  0  0  0
  146.8668  138.2963  158.2181 N   0  0  0  0  0  0  0  0  0  0  0  0
  148.2059  137.9980  157.9963 C   0  0  0  0  0  0  0  0  0  0  0  0
  149.2372  138.5920  157.2147 C   0  0  0  0  0  0  0  0  0  0  0  0
  149.0276  139.6871  156.4387 N   0  0  0  0  0  0  0  0  0  0  0  0
  147.9147  139.6101  155.4980 C   0  0  0  0  0  0  0  0  0  0  0  0
  148.3707  140.3380  154.2301 C   0  0  0  0  0  0  0  0  0  0  0  0
  149.4788  141.2621  154.7237 C   0  0  0  0  0  0  0  0  0  0  0  0
  150.1346  140.4273  155.8315 C   0  0  1  0  0  0  0  0  0  0  0  0
  151.0256  141.2109  156.8416 C   0  0  1  0  0  0  0  0  0  0  0  0
  150.1858  142.2749  157.5819 C   0  0  0  0  0  0  0  0  0  0  0  0
  151.0043  143.0618  158.4403 O   0  0  0  0  0  0  0  0  0  0  0  0
  151.6155  142.3001  159.4741 C   0  0  0  0  0  0  0  0  0  0  0  0
  152.5545  141.2570  158.8536 C   0  0  0  0  0  0  0  0  0  0  0  0
  151.7870  140.3496  157.8814 C   0  0  2  0  0  0  0  0  0  0  0  0
  152.7253  139.4922  157.2628 O   0  0  0  0  0  0  0  0  0  0  0  0
  150.4668  138.0143  157.2634 N   0  0  0  0  0  0  0  0  0  0  0  0
  150.6772  136.9330  158.0190 C   0  0  0  0  0  0  0  0  0  0  0  0
  149.8117  136.2733  158.7906 N   0  0  0  0  0  0  0  0  0  0  0  0
  148.5748  136.8464  158.7476 C   0  0  0  0  0  0  0  0  0  0  0  0
  146.9637  134.4600  162.7292 C   0  0  0  0  0  0  0  0  0  0  0  0
  145.6883  133.6325  162.4896 C   0  0  0  0  0  0  0  0  0  0  0  0
  144.5399  134.4494  162.6828 O   0  0  0  0  0  0  0  0  0  0  0  0
  144.4695  135.5386  161.7705 C   0  0  0  0  0  0  0  0  0  0  0  0
  145.6894  136.4629  161.9497 C   0  0  0  0  0  0  0  0  0  0  0  0
  147.5430  136.7948  164.0680 H   0  0  0  0  0  0  0  0  0  0  0  0
  148.4717  137.3230  161.4661 H   0  0  0  0  0  0  0  0  0  0  0  0
  149.1050  136.0334  162.4678 H   0  0  0  0  0  0  0  0  0  0  0  0
  148.1194  134.6765  160.1895 H   0  0  0  0  0  0  0  0  0  0  0  0
  146.4041  134.7354  159.9615 H   0  0  0  0  0  0  0  0  0  0  0  0
  145.4540  137.3379  159.4220 H   0  0  0  0  0  0  0  0  0  0  0  0
  147.6236  138.5821  155.2762 H   0  0  0  0  0  0  0  0  0  0  0  0
  147.0548  140.1165  155.9374 H   0  0  0  0  0  0  0  0  0  0  0  0
  148.7840  139.6182  153.5224 H   0  0  0  0  0  0  0  0  0  0  0  0
  147.5600  140.8708  153.7325 H   0  0  0  0  0  0  0  0  0  0  0  0
  150.1750  141.5422  153.9328 H   0  0  0  0  0  0  0  0  0  0  0  0
  149.0297  142.1724  155.1181 H   0  0  0  0  0  0  0  0  0  0  0  0
  150.7677  139.6912  155.3331 H   0  0  0  0  0  0  0  0  0  0  0  0
  151.7744  141.7616  156.2715 H   0  0  0  0  0  0  0  0  0  0  0  0
  149.7087  142.9417  156.8631 H   0  0  0  0  0  0  0  0  0  0  0  0
  149.3857  141.8134  158.1625 H   0  0  0  0  0  0  0  0  0  0  0  0
  152.1781  142.9723  160.1222 H   0  0  0  0  0  0  0  0  0  0  0  0
  150.8538  141.8228  160.0926 H   0  0  0  0  0  0  0  0  0  0  0  0
  153.3606  141.7708  158.3276 H   0  0  0  0  0  0  0  0  0  0  0  0
  153.0225  140.6621  159.6390 H   0  0  0  0  0  0  0  0  0  0  0  0
  151.0914  139.7399  158.4567 H   0  0  0  0  0  0  0  0  0  0  0  0
  152.6191  138.6242  157.6219 H   0  0  0  0  0  0  0  0  0  0  0  0
  151.6826  136.5384  158.0006 H   0  0  0  0  0  0  0  0  0  0  0  0
  147.8486  133.8348  162.6181 H   0  0  0  0  0  0  0  0  0  0  0  0
  146.9586  134.7693  163.7748 H   0  0  0  0  0  0  0  0  0  0  0  0
  145.6746  133.1907  161.4931 H   0  0  0  0  0  0  0  0  0  0  0  0
  145.6470  132.8043  163.1969 H   0  0  0  0  0  0  0  0  0  0  0  0
  144.3871  135.1692  160.7482 H   0  0  0  0  0  0  0  0  0  0  0  0
  143.5542  136.0961  161.9696 H   0  0  0  0  0  0  0  0  0  0  0  0
  145.6092  136.9151  162.9384 H   0  0  0  0  0  0  0  0  0  0  0  0
  145.6398  137.2886  161.2389 H   0  0  0  0  0  0  0  0  0  0  0  0
  1  2  1  0  0  0  0
  1 31  1  0  0  0  0
  2  3  1  0  0  0  0
  2 32  1  0  0  0  0
  2 33  1  0  0  0  0
  3 30  1  0  0  0  0
  3  4  1  0  0  0  0
  3 26  1  0  0  0  0
  4  5  1  0  0  0  0
  4 34  1  0  0  0  0
  4 35  1  0  0  0  0
  5 25  1  0  0  0  0
  5  6  1  0  0  0  0
  6  7  2  0  0  0  0
  6 36  1  0  0  0  0
  7  8  1  0  0  0  0
  8 25  2  0  0  0  0
  8  9  1  0  0  0  0
  9 10  1  0  0  0  0
  9 22  2  0  0  0  0
 10 14  1  0  0  0  0
 10 11  1  0  0  0  0
 11 12  1  0  0  0  0
 11 37  1  0  0  0  0
 11 38  1  0  0  0  0
 12 13  1  0  0  0  0
 12 39  1  0  0  0  0
 12 40  1  0  0  0  0
 13 14  1  0  0  0  0
 13 41  1  0  0  0  0
 13 42  1  0  0  0  0
 14 15  1  0  0  0  0
 14 43  1  0  0  0  0
 15 20  1  0  0  0  0
 15 16  1  0  0  0  0
 15 44  1  0  0  0  0
 16 17  1  0  0  0  0
 16 45  1  0  0  0  0
 16 46  1  0  0  0  0
 17 18  1  0  0  0  0
 18 19  1  0  0  0  0
 18 47  1  0  0  0  0
 18 48  1  0  0  0  0
 19 20  1  0  0  0  0
 19 49  1  0  0  0  0
 19 50  1  0  0  0  0
 20 21  1  0  0  0  0
 20 51  1  0  0  0  0
 21 52  1  0  0  0  0
 22 23  1  0  0  0  0
 23 24  2  0  0  0  0
 23 53  1  0  0  0  0
 24 25  1  0  0  0  0
 26 27  1  0  0  0  0
 26 54  1  0  0  0  0
 26 55  1  0  0  0  0
 27 28  1  0  0  0  0
 27 56  1  0  0  0  0
 27 57  1  0  0  0  0
 28 29  1  0  0  0  0
 29 30  1  0  0  0  0
 29 58  1  0  0  0  0
 29 59  1  0  0  0  0
 30 60  1  0  0  0  0
 30 61  1  0  0  0  0
M  END
> <s_m_source_file>
AV-unprocessed.smi

> <i_m_source_file_index>
247

> <i_lp_mmshare_version>
43012

> <i_f3d_flags>
0

> <s_epik_input>
W0NIMl0xW0NIMl1PW0NIMl1bQ0gyXUMxKFtDSDJdW09IXSlbQ0gyXW4oW2NIXW4yKWMoYzIzKW5bY0hdbmMzTjRbQ0gyXVtDSDJdW0NIMl1bQ0BIXTRbQ0BASF01W0NIMl1PW0NIMl1bQ0gyXVtDQEhdNVtPSF0=

> <s_epik_cmdline>
J2VwaWtfcHl0aG9uJywgJy1waCcsICc3LjAnLCAnLXRuJywgJzgnLCAnLW1hJywgJzIwMCcsICctbWV0YWxfYmluZGluZycsICctaW1hZScsICc8aW5maWxlLm1hZT4nLCAnLW9tYWUnLCAnPG91dGZpbGUubWFlPic=

> <r_lp_tautomer_probability>
1

> <r_epik_Ionization_Penalty>
0.00362597

> <r_epik_Ionization_Penalty_Charging>
0

> <r_epik_Ionization_Penalty_Neutral>
0.00362597

> <r_epik_State_Penalty>
0.00241433

> <r_epik_Charging_Adjusted_Penalty>
0.00241433

> <i_epik_Tot_Q>
0

> <i_epik_Tot_abs_Q>
0

> <r_epik_Metal_State_Penalty>
-0

> <b_epik_Metal_Only>
0

> <s_lp_Force_Field>
OPLS_2005

> <r_lp_Energy>
58.3113

> <b_lp_Chiralities_Consistent>
1

> <s_lp_Variant>
AV-unprocessed.smi:247-7

> <Gold.Version>
5.8.1

> <Gold.Id.Protein>
6NUR|6NUR_protein|mol2

> <Gold.PLP.Fitness>
47.5036

> <Gold.PLP.PLP>
-42.1473

> <Gold.PLP.part.hbond>
-3.0000

> <Gold.PLP.part.metal>
0.0000

> <Gold.PLP.part.buried>
-4.1887

> <Gold.PLP.part.nonpolar>
-35.1975

> <Gold.PLP.part.repulsive>
0.1417

> <Gold.PLP.ligand.clash>
0.0000

> <Gold.PLP.ligand.torsion>
0.5089

> <Gold.PLP.Chemscore.Hbond>
1.9920

> <Gold.PLP.Chemscore.CHOScore>
0.0000

> <Gold.PLP.Chemscore.Metal>
0.0000

> <Gold.Chemscore.Hbonds>
donor molecule, donor type, donor heavy atom, donor atom, acceptor molecule, acceptor atom, score
      P1  H  6896  6908       L1    24  0.99
      P1  H  7997  8010       L1    21  1.00

> <Gold.PLP.Chemscore.Internal.Correction>
0.3982

> <Gold.Rescore>
     Score         DG    S(hbond)    S(metal)    S(lipo)     H(rot)  DE(clash)    DE(int)     intcor
     12.45     -15.69       1.80        0.00     106.50       3.23       0.25       3.00       ----

> <Gold.Chemscore.Fitness>
12.4478

> <Gold.Chemscore.DG>
-15.6946

> <Gold.Chemscore.ZeroCoef>
-5.4800

> <Gold.Chemscore.Hbond>
1.8016

> <Gold.Chemscore.Metal>
0.0000

> <Gold.Chemscore.Lipo>
106.4996

> <Gold.Chemscore.Internal_Hbond>
0.0000

> <Gold.Chemscore.DEClash>
0.2473

> <Gold.Chemscore.DEInternal>
2.9995

> <Gold.Chemscore.Rot>
3.2278

> <Gold.Chemscore.Internal.Correction>
   9.000000E+99

> <Gold.Chemscore.Hbonds>
donor molecule, donor type, donor heavy atom, donor atom, acceptor molecule, acceptor atom, score
      P1  H  6896  6908       L1    24  0.65
      P1  H  7997  8010       L1    21  0.97

> <Gold.Chemscore.Hbond.Weighted>
-6.0175

> <Gold.Chemscore.Metal.Weighted>
-0.0000

> <Gold.Chemscore.Lipo.Weighted>
-12.4605

> <Gold.Chemscore.Internal_Hbond.Weighted>
0.0000

> <Gold.Chemscore.DEClash.Weighted>
0.2473

> <Gold.Chemscore.DEInternal.Weighted>
2.9995

> <Gold.Chemscore.Rot.Weighted>
8.2633

> <Gold.Chemscore.Internal.Correction.Weighted>
   9.000000E+99

> <Gold.Protein.RotatedTorsions>
[ 6907 6896 6895 6894 ] final  170.17 input  -60.11 | X-H torsion
[ 7974 7965 7964 7962 ] final  110.70 input  175.53 | X-H torsion
[ 8008 7997 7996 7995 ] final   53.65 input   59.86 | X-H torsion
[ 10167 10162 10161 10158 ] final  -37.95 input  -65.29 | X-H torsion
[ 10718 10713 10712 10709 ] final  174.80 input   66.30 | X-H torsion
[ 10763 10752 10751 10750 ] final  -72.01 input  -60.55 | X-H torsion
[ 11005 11000 10999 10996 ] final  -33.18 input  -57.11 | X-H torsion

> <Gold.Protein.ActiveResidues>
 VAL166  LYS551  ARG553  GLY616  TRP617  ASP618  TYR619  PRO620  LYS621  CYS622 
 ASP623  PHE694  ASN695  SER759  ASP760  ASP761  ALA762  ILE779  LEU786  VAL792 
 PHE793  MET794  SER795  GLU796  ALA797  LYS798  CYS799  TRP800  GLU811  SER814 

> <Gold.Protein.RotatedAtoms>
  151.8203  133.3394  159.3581 H   0  0  0  0  0  0  0  0  0  0  0  0  # atno 6907 bound_to 6896
  150.7297  134.5580  159.5837 H   0  0  0  0  0  0  0  0  0  0  0  0  # atno 6908 bound_to 6896
  152.3010  134.7611  160.0409 H   0  0  0  0  0  0  0  0  0  0  0  0  # atno 6909 bound_to 6896
  145.2516  139.2737  143.4064 H   0  0  0  0  0  0  0  0  0  0  0  0  # atno 7974 bound_to 7965
  155.4718  140.3465  155.4327 H   0  0  0  0  0  0  0  0  0  0  0  0  # atno 8008 bound_to 7997
  156.1095  140.1457  156.9386 H   0  0  0  0  0  0  0  0  0  0  0  0  # atno 8009 bound_to 7997
  154.4747  140.0889  156.7211 H   0  0  0  0  0  0  0  0  0  0  0  0  # atno 8010 bound_to 7997
  140.7105  143.3309  151.2572 H   0  0  0  0  0  0  0  0  0  0  0  0  # atno 10167 bound_to 10162
  156.9442  131.0011  151.2962 H   0  0  0  0  0  0  0  0  0  0  0  0  # atno 10718 bound_to 10713
  154.4398  135.5943  153.6122 H   0  0  0  0  0  0  0  0  0  0  0  0  # atno 10763 bound_to 10752
  152.9804  135.5995  154.3737 H   0  0  0  0  0  0  0  0  0  0  0  0  # atno 10764 bound_to 10752
  154.3585  135.2841  155.2311 H   0  0  0  0  0  0  0  0  0  0  0  0  # atno 10765 bound_to 10752
  140.9614  133.7162  156.1375 H   0  0  0  0  0  0  0  0  0  0  0  0  # atno 11005 bound_to 11000
  146.3301  140.2909  142.8615 LP  0  0  0  0  0  0  0  0  0  0  0  0  # atno 17320 bound_to 7965
  144.9497  140.8166  143.5579 LP  0  0  0  0  0  0  0  0  0  0  0  0  # atno 17321 bound_to 7965
  139.6790  143.9887  152.2798 LP  0  0  0  0  0  0  0  0  0  0  0  0  # atno 17342 bound_to 10162
  139.9511  144.6620  150.8171 LP  0  0  0  0  0  0  0  0  0  0  0  0  # atno 17343 bound_to 10162
  157.5764  130.8346  149.8462 LP  0  0  0  0  0  0  0  0  0  0  0  0  # atno 17370 bound_to 10713
  156.0391  130.3743  150.1483 LP  0  0  0  0  0  0  0  0  0  0  0  0  # atno 17371 bound_to 10713
  140.7462  134.4095  157.5548 LP  0  0  0  0  0  0  0  0  0  0  0  0  # atno 17394 bound_to 11000
  139.8879  134.8869  156.2501 LP  0  0  0  0  0  0  0  0  0  0  0  0  # atno 17395 bound_to 11000

$$$$
