AV-unprocessed.smi:1920|AV-procd|sdf|7780|dock9
  -GOLD-   22720 9523D 1   1.00000     0.00000
 Structure written by MMmdl.
 37 38  0  0  0  0  0  0  0  0  2 V2000
  149.4364  138.5396  155.4796 C   0  0  0  0  0  0  0  0  0  0  0  0
  150.2852  139.8101  155.3367 C   0  0  1  0  0  0  0  0  0  0  0  0
  149.6883  140.7642  154.2805 C   0  0  0  0  0  0  0  0  0  0  0  0
  148.2566  141.0153  154.4784 N   0  0  0  0  0  0  0  0  0  0  0  0
  147.6709  141.7183  155.4999 C   0  0  0  0  0  0  0  0  0  0  0  0
  146.3194  141.6867  155.2717 C   0  0  0  0  0  0  0  0  0  0  0  0
  146.1380  140.9740  154.1169 N   0  3  0  0  0  0  0  0  0  0  0  0
  147.3172  140.5693  153.6342 C   0  0  0  0  0  0  0  0  0  0  0  0
  150.3803  140.4647  156.6409 N   0  0  0  0  0  0  0  0  0  0  0  0
  151.5173  140.7774  157.2829 C   0  0  0  0  0  0  0  0  0  0  0  0
  152.6371  140.5477  156.8254 O   0  0  0  0  0  0  0  0  0  0  0  0
  151.3581  141.4600  158.6467 C   0  0  0  0  0  0  0  0  0  0  0  0
  152.2454  142.7107  158.8404 C   0  0  1  0  0  0  0  0  0  0  0  0
  151.6807  143.9616  158.2114 C   0  0  0  0  0  0  0  0  0  0  0  0
  151.5592  144.9652  159.0767 C   0  0  0  0  0  0  0  0  0  0  0  0
  152.0154  144.5914  160.4591 C   0  0  0  0  0  0  0  0  0  0  0  0
  152.4181  143.1050  160.3302 C   0  0  0  0  0  0  0  0  0  0  0  0
  149.3679  138.0051  154.5317 H   0  0  0  0  0  0  0  0  0  0  0  0
  148.4214  138.7729  155.8037 H   0  0  0  0  0  0  0  0  0  0  0  0
  149.8713  137.8563  156.2099 H   0  0  0  0  0  0  0  0  0  0  0  0
  151.2773  139.4959  155.0077 H   0  0  0  0  0  0  0  0  0  0  0  0
  150.1878  141.7331  154.3226 H   0  0  0  0  0  0  0  0  0  0  0  0
  149.8417  140.3746  153.2725 H   0  0  0  0  0  0  0  0  0  0  0  0
  148.2443  142.1704  156.2964 H   0  0  0  0  0  0  0  0  0  0  0  0
  145.4956  142.1078  155.8294 H   0  0  0  0  0  0  0  0  0  0  0  0
  147.4765  139.9889  152.7429 H   0  0  0  0  0  0  0  0  0  0  0  0
  149.5081  140.6879  157.0990 H   0  0  0  0  0  0  0  0  0  0  0  0
  150.3110  141.7334  158.7878 H   0  0  0  0  0  0  0  0  0  0  0  0
  151.5904  140.7255  159.4185 H   0  0  0  0  0  0  0  0  0  0  0  0
  153.2281  142.5357  158.4000 H   0  0  0  0  0  0  0  0  0  0  0  0
  151.4299  144.0167  157.1632 H   0  0  0  0  0  0  0  0  0  0  0  0
  151.1893  145.9519  158.8397 H   0  0  0  0  0  0  0  0  0  0  0  0
  152.8600  145.2137  160.7562 H   0  0  0  0  0  0  0  0  0  0  0  0
  151.2078  144.7320  161.1781 H   0  0  0  0  0  0  0  0  0  0  0  0
  151.7875  142.4929  160.9767 H   0  0  0  0  0  0  0  0  0  0  0  0
  153.4474  142.9507  160.6560 H   0  0  0  0  0  0  0  0  0  0  0  0
  145.2417  140.7789  153.6885 H   0  0  0  0  0  0  0  0  0  0  0  0
  1  2  1  0  0  0  0
  1 18  1  0  0  0  0
  1 19  1  0  0  0  0
  1 20  1  0  0  0  0
  2  3  1  0  0  0  0
  2  9  1  0  0  0  0
  2 21  1  0  0  0  0
  3  4  1  0  0  0  0
  3 22  1  0  0  0  0
  3 23  1  0  0  0  0
  4  8  1  0  0  0  0
  4  5  1  0  0  0  0
  5  6  2  0  0  0  0
  5 24  1  0  0  0  0
  6  7  1  0  0  0  0
  6 25  1  0  0  0  0
  7  8  2  0  0  0  0
  7 37  1  0  0  0  0
  8 26  1  0  0  0  0
  9 10  1  0  0  0  0
  9 27  1  0  0  0  0
 10 11  2  0  0  0  0
 10 12  1  0  0  0  0
 12 13  1  0  0  0  0
 12 28  1  0  0  0  0
 12 29  1  0  0  0  0
 13 17  1  0  0  0  0
 13 14  1  0  0  0  0
 13 30  1  0  0  0  0
 14 15  2  0  0  0  0
 14 31  1  0  0  0  0
 15 16  1  0  0  0  0
 15 32  1  0  0  0  0
 16 17  1  0  0  0  0
 16 33  1  0  0  0  0
 16 34  1  0  0  0  0
 17 35  1  0  0  0  0
 17 36  1  0  0  0  0
M  CHG  1   7   1
M  END
> <s_m_source_file>
AV-unprocessed.smi

> <i_m_source_file_index>
1920

> <i_lp_mmshare_version>
43012

> <i_f3d_flags>
0

> <s_epik_input>
W2NIXTFuW2NIXVtjSF1uMVtDSDJdW0NAQEhdKFtDSDNdKVtOSF1DKD1PKVtDSDJdW0NAQEhdMltDSF09W0NIXVtDSDJdW0NIMl0y

> <s_epik_cmdline>
J2VwaWtfcHl0aG9uJywgJy1waCcsICc3LjAnLCAnLXRuJywgJzgnLCAnLW1hJywgJzIwMCcsICctbWV0YWxfYmluZGluZycsICctaW1hZScsICc8aW5maWxlLm1hZT4nLCAnLW9tYWUnLCAnPG91dGZpbGUubWFlPic=

> <r_lp_tautomer_probability>
1

> <r_epik_Ionization_Penalty>
0.24816

> <r_epik_Ionization_Penalty_Charging>
0

> <r_epik_Ionization_Penalty_Neutral>
0.24816

> <r_epik_State_Penalty>
0.2394

> <r_epik_Charging_Adjusted_Penalty>
0.2394

> <i_epik_Tot_Q>
1

> <i_epik_Tot_abs_Q>
1

> <r_epik_Metal_State_Penalty>
0.531457

> <b_epik_Metal_Only>
0

> <s_lp_Force_Field>
OPLS_2005

> <r_lp_Energy>
19.5873

> <b_lp_Chiralities_Consistent>
1

> <s_lp_Variant>
AV-unprocessed.smi:1920-4

> <Gold.Version>
5.8.1

> <Gold.Id.Protein>
6NUR|6NUR_protein|mol2

> <Gold.PLP.Fitness>
49.3806

> <Gold.PLP.PLP>
-36.8758

> <Gold.PLP.part.hbond>
-2.0000

> <Gold.PLP.part.metal>
0.0000

> <Gold.PLP.part.buried>
0.3028

> <Gold.PLP.part.nonpolar>
-34.5842

> <Gold.PLP.part.repulsive>
0.0423

> <Gold.PLP.ligand.clash>
0.0000

> <Gold.PLP.ligand.torsion>
0.4865

> <Gold.PLP.Chemscore.Hbond>
3.0000

> <Gold.PLP.Chemscore.CHOScore>
1.4835

> <Gold.PLP.Chemscore.Metal>
0.0000

> <Gold.Chemscore.Hbonds>
donor molecule, donor type, donor heavy atom, donor atom, acceptor molecule, acceptor atom, score
      L1  H     7    37       P1 10175  2.00
      P1  H  7997  8009       L1    11  0.75
      L1  C     5    24       P1  8028  0.35
      L1  C     8    26       P1  7957  0.70

> <Gold.PLP.Chemscore.Internal.Correction>
0.0272

> <Gold.Rescore>
     Score         DG    S(hbond)    S(metal)    S(lipo)     H(rot)  DE(clash)    DE(int)     intcor
     17.27     -17.75       1.97        0.00      92.70       2.01       0.04       0.45       ----

> <Gold.Chemscore.Fitness>
17.2683

> <Gold.Chemscore.DG>
-17.7532

> <Gold.Chemscore.ZeroCoef>
-5.4800

> <Gold.Chemscore.Hbond>
1.9702

> <Gold.Chemscore.Metal>
0.0000

> <Gold.Chemscore.Lipo>
92.7017

> <Gold.Chemscore.Internal_Hbond>
0.0000

> <Gold.Chemscore.DEClash>
0.0383

> <Gold.Chemscore.DEInternal>
0.4466

> <Gold.Chemscore.Rot>
2.0130

> <Gold.Chemscore.Internal.Correction>
   9.000000E+99

> <Gold.Chemscore.Hbonds>
donor molecule, donor type, donor heavy atom, donor atom, acceptor molecule, acceptor atom, score
      L1  H     7    37       P1 10175  0.90
      P1  H  7997  8009       L1    11  0.74

> <Gold.Chemscore.Hbond.Weighted>
-6.5804

> <Gold.Chemscore.Metal.Weighted>
-0.0000

> <Gold.Chemscore.Lipo.Weighted>
-10.8461

> <Gold.Chemscore.Internal_Hbond.Weighted>
0.0000

> <Gold.Chemscore.DEClash.Weighted>
0.0383

> <Gold.Chemscore.DEInternal.Weighted>
0.4466

> <Gold.Chemscore.Rot.Weighted>
5.1533

> <Gold.Chemscore.Internal.Correction.Weighted>
   9.000000E+99

> <Gold.Protein.RotatedTorsions>
[ 6907 6896 6895 6894 ] final  -94.02 input  -60.11 | X-H torsion
[ 7974 7965 7964 7962 ] final  -16.36 input  175.53 | X-H torsion
[ 8008 7997 7996 7995 ] final  173.53 input   59.86 | X-H torsion
[ 10167 10162 10161 10158 ] final  -85.61 input  -65.29 | X-H torsion
[ 10718 10713 10712 10709 ] final  -90.13 input   66.30 | X-H torsion
[ 10763 10752 10751 10750 ] final  134.16 input  -60.55 | X-H torsion
[ 11005 11000 10999 10996 ] final  114.93 input  -57.11 | X-H torsion

> <Gold.Protein.ActiveResidues>
 VAL166  LYS551  ARG553  GLY616  TRP617  ASP618  TYR619  PRO620  LYS621  CYS622 
 ASP623  PHE694  ASN695  SER759  ASP760  ASP761  ALA762  ILE779  LEU786  VAL792 
 PHE793  MET794  SER795  GLU796  ALA797  LYS798  CYS799  TRP800  GLU811  SER814 

> <Gold.Protein.RotatedAtoms>
  150.6933  134.1878  159.4273 H   0  0  0  0  0  0  0  0  0  0  0  0  # atno 6907 bound_to 6896
  151.9850  135.0007  160.0568 H   0  0  0  0  0  0  0  0  0  0  0  0  # atno 6908 bound_to 6896
  152.1720  133.4615  159.4951 H   0  0  0  0  0  0  0  0  0  0  0  0  # atno 6909 bound_to 6896
  146.1991  140.3625  142.8430 H   0  0  0  0  0  0  0  0  0  0  0  0  # atno 7974 bound_to 7965
  156.1066  140.1457  156.9396 H   0  0  0  0  0  0  0  0  0  0  0  0  # atno 8008 bound_to 7997
  154.4738  140.0901  156.7255 H   0  0  0  0  0  0  0  0  0  0  0  0  # atno 8009 bound_to 7997
  155.4669  140.3440  155.4322 H   0  0  0  0  0  0  0  0  0  0  0  0  # atno 8010 bound_to 7997
  140.4021  143.2658  151.9128 H   0  0  0  0  0  0  0  0  0  0  0  0  # atno 10167 bound_to 10162
  155.9986  130.4898  150.5276 H   0  0  0  0  0  0  0  0  0  0  0  0  # atno 10718 bound_to 10713
  153.8189  135.3119  155.3408 H   0  0  0  0  0  0  0  0  0  0  0  0  # atno 10763 bound_to 10752
  154.8021  135.4720  154.0303 H   0  0  0  0  0  0  0  0  0  0  0  0  # atno 10764 bound_to 10752
  153.1706  135.6877  153.8703 H   0  0  0  0  0  0  0  0  0  0  0  0  # atno 10765 bound_to 10752
  139.8995  134.9576  156.6967 H   0  0  0  0  0  0  0  0  0  0  0  0  # atno 11005 bound_to 11000
  144.8644  140.7185  143.6087 LP  0  0  0  0  0  0  0  0  0  0  0  0  # atno 17320 bound_to 7965
  145.3545  139.1697  143.4417 LP  0  0  0  0  0  0  0  0  0  0  0  0  # atno 17321 bound_to 7965
  139.4784  144.5623  151.8220 LP  0  0  0  0  0  0  0  0  0  0  0  0  # atno 17342 bound_to 10162
  140.4728  144.1562  150.5920 LP  0  0  0  0  0  0  0  0  0  0  0  0  # atno 17343 bound_to 10162
  157.3229  131.0685  151.1918 LP  0  0  0  0  0  0  0  0  0  0  0  0  # atno 17370 bound_to 10713
  157.2825  130.6757  149.6073 LP  0  0  0  0  0  0  0  0  0  0  0  0  # atno 17371 bound_to 10713
  140.7183  133.9163  155.8129 LP  0  0  0  0  0  0  0  0  0  0  0  0  # atno 17394 bound_to 11000
  141.0247  134.0839  157.4081 LP  0  0  0  0  0  0  0  0  0  0  0  0  # atno 17395 bound_to 11000

$$$$
