AV-unprocessed.smi:3117|AV-procd|sdf|11885|dock5
  -GOLD-   2272017273D 1   1.00000     0.00000
 Structure written by MMmdl.
 36 36  0  0  0  0  0  0  0  0  1 V2000
  149.0950  142.3022  158.2441 C   0  0  0  0  0  0  0  0  0  0  0  0
  150.2640  141.9002  157.3296 C   0  0  1  0  0  0  0  0  0  0  0  0
  149.7702  141.8775  155.9455 N   0  0  0  0  0  0  0  0  0  0  0  0
  148.7289  140.8979  155.6360 C   0  0  0  0  0  0  0  0  0  0  0  0
  148.2812  140.9795  154.1624 C   0  0  0  0  0  0  0  0  0  0  0  0
  147.5474  139.7074  153.7019 C   0  0  0  0  0  0  0  0  0  0  0  0
  147.4615  142.2502  153.8745 C   0  0  0  0  0  0  0  0  0  0  0  0
  149.4616  141.0708  153.3909 O   0  0  0  0  0  0  0  0  0  0  0  0
  151.5059  142.8140  157.5689 C   0  0  1  0  0  0  0  0  0  0  0  0
  151.3000  144.2889  157.1649 C   0  0  0  0  0  0  0  0  0  0  0  0
  152.1071  142.6550  158.8924 N   0  0  0  0  0  0  0  0  0  0  0  0
  152.3553  143.6348  159.8326 C   0  0  0  0  0  0  0  0  0  0  0  0
  152.9560  143.0379  160.9036 C   0  0  0  0  0  0  0  0  0  0  0  0
  153.0447  141.6712  160.5210 C   0  0  0  0  0  0  0  0  0  0  0  0
  152.5393  141.4457  159.3200 N   0  0  0  0  0  0  0  0  0  0  0  0
  149.3856  142.2744  159.2946 H   0  0  0  0  0  0  0  0  0  0  0  0
  148.2524  141.6206  158.1246 H   0  0  0  0  0  0  0  0  0  0  0  0
  148.7378  143.3080  158.0229 H   0  0  0  0  0  0  0  0  0  0  0  0
  150.5354  140.8840  157.6180 H   0  0  0  0  0  0  0  0  0  0  0  0
  149.4425  142.8034  155.6903 H   0  0  0  0  0  0  0  0  0  0  0  0
  149.0884  139.8901  155.8279 H   0  0  0  0  0  0  0  0  0  0  0  0
  147.8688  141.0552  156.2883 H   0  0  0  0  0  0  0  0  0  0  0  0
  146.6015  139.5796  154.2295 H   0  0  0  0  0  0  0  0  0  0  0  0
  148.1482  138.8148  153.8808 H   0  0  0  0  0  0  0  0  0  0  0  0
  147.3212  139.7447  152.6356 H   0  0  0  0  0  0  0  0  0  0  0  0
  146.5154  142.2439  154.4163 H   0  0  0  0  0  0  0  0  0  0  0  0
  147.2280  142.3400  152.8130 H   0  0  0  0  0  0  0  0  0  0  0  0
  148.0032  143.1488  154.1720 H   0  0  0  0  0  0  0  0  0  0  0  0
  149.4726  140.3533  152.7759 H   0  0  0  0  0  0  0  0  0  0  0  0
  152.2692  142.4702  156.8692 H   0  0  0  0  0  0  0  0  0  0  0  0
  150.9438  144.3630  156.1374 H   0  0  0  0  0  0  0  0  0  0  0  0
  152.2410  144.8370  157.2204 H   0  0  0  0  0  0  0  0  0  0  0  0
  150.5865  144.8146  157.7948 H   0  0  0  0  0  0  0  0  0  0  0  0
  152.0870  144.6670  159.6624 H   0  0  0  0  0  0  0  0  0  0  0  0
  153.2861  143.5069  161.8187 H   0  0  0  0  0  0  0  0  0  0  0  0
  153.4595  140.8424  161.0754 H   0  0  0  0  0  0  0  0  0  0  0  0
  1  2  1  0  0  0  0
  1 16  1  0  0  0  0
  1 17  1  0  0  0  0
  1 18  1  0  0  0  0
  2  3  1  0  0  0  0
  2  9  1  0  0  0  0
  2 19  1  0  0  0  0
  3  4  1  0  0  0  0
  3 20  1  0  0  0  0
  4  5  1  0  0  0  0
  4 21  1  0  0  0  0
  4 22  1  0  0  0  0
  5  6  1  0  0  0  0
  5  7  1  0  0  0  0
  5  8  1  0  0  0  0
  6 23  1  0  0  0  0
  6 24  1  0  0  0  0
  6 25  1  0  0  0  0
  7 26  1  0  0  0  0
  7 27  1  0  0  0  0
  7 28  1  0  0  0  0
  8 29  1  0  0  0  0
  9 10  1  0  0  0  0
  9 11  1  0  0  0  0
  9 30  1  0  0  0  0
 10 31  1  0  0  0  0
 10 32  1  0  0  0  0
 10 33  1  0  0  0  0
 11 15  1  0  0  0  0
 11 12  1  0  0  0  0
 12 13  2  0  0  0  0
 12 34  1  0  0  0  0
 13 14  1  0  0  0  0
 13 35  1  0  0  0  0
 14 15  2  0  0  0  0
 14 36  1  0  0  0  0
M  END
> <s_m_source_file>
AV-unprocessed.smi

> <i_m_source_file_index>
3117

> <i_lp_mmshare_version>
43012

> <i_f3d_flags>
0

> <s_epik_input>
W0NIM11DKFtDSDNdKShbT0hdKVtDSDJdW05IXVtDQEBIXShbQ0gzXSlbQ0BIXShbQ0gzXSluMVtjSF1bY0hdW2NIXW4x

> <s_epik_cmdline>
J2VwaWtfcHl0aG9uJywgJy1waCcsICc3LjAnLCAnLXRuJywgJzgnLCAnLW1hJywgJzIwMCcsICctbWV0YWxfYmluZGluZycsICctaW1hZScsICc8aW5maWxlLm1hZT4nLCAnLW9tYWUnLCAnPG91dGZpbGUubWFlPic=

> <r_lp_tautomer_probability>
1

> <r_epik_Ionization_Penalty>
2.13419

> <r_epik_Ionization_Penalty_Charging>
0

> <r_epik_Ionization_Penalty_Neutral>
2.13419

> <r_epik_State_Penalty>
2.27148

> <r_epik_Charging_Adjusted_Penalty>
2.27148

> <i_epik_Tot_Q>
0

> <i_epik_Tot_abs_Q>
0

> <r_epik_Metal_State_Penalty>
2.27029

> <b_epik_Metal_Only>
0

> <s_lp_Force_Field>
OPLS_2005

> <r_lp_Energy>
16.3619

> <b_lp_Chiralities_Consistent>
1

> <s_lp_Variant>
AV-unprocessed.smi:3117-8

> <Gold.Version>
5.8.1

> <Gold.Id.Protein>
6NUR|6NUR_protein|mol2

> <Gold.PLP.Fitness>
42.8606

> <Gold.PLP.PLP>
-34.5042

> <Gold.PLP.part.hbond>
-3.7545

> <Gold.PLP.part.metal>
0.0000

> <Gold.PLP.part.buried>
-3.2966

> <Gold.PLP.part.nonpolar>
-27.4804

> <Gold.PLP.part.repulsive>
0.0000

> <Gold.PLP.ligand.clash>
0.0000

> <Gold.PLP.ligand.torsion>
0.3250

> <Gold.PLP.Chemscore.Hbond>
2.9029

> <Gold.PLP.Chemscore.CHOScore>
0.0000

> <Gold.PLP.Chemscore.Metal>
0.0000

> <Gold.Chemscore.Hbonds>
donor molecule, donor type, donor heavy atom, donor atom, acceptor molecule, acceptor atom, score
      L1  H     3    20       P1  8028  1.00
      L1  H     8    29       P1  7957  0.82
      P1  H  7989  7998       L1     8  0.05
      P1  H  8011  8017       L1     8  1.00

> <Gold.PLP.Chemscore.Internal.Correction>
0.2978

> <Gold.Rescore>
     Score         DG    S(hbond)    S(metal)    S(lipo)     H(rot)  DE(clash)    DE(int)     intcor
     16.94     -17.88       2.12        0.00      93.33       2.19       0.61       0.34       ----

> <Gold.Chemscore.Fitness>
16.9387

> <Gold.Chemscore.DG>
-17.8843

> <Gold.Chemscore.ZeroCoef>
-5.4800

> <Gold.Chemscore.Hbond>
2.1219

> <Gold.Chemscore.Metal>
0.0000

> <Gold.Chemscore.Lipo>
93.3255

> <Gold.Chemscore.Internal_Hbond>
0.0000

> <Gold.Chemscore.DEClash>
0.6100

> <Gold.Chemscore.DEInternal>
0.3356

> <Gold.Chemscore.Rot>
2.1882

> <Gold.Chemscore.Internal.Correction>
   9.000000E+99

> <Gold.Chemscore.Hbonds>
donor molecule, donor type, donor heavy atom, donor atom, acceptor molecule, acceptor atom, score
      L1  H     3    20       P1  8028  0.97
      L1  H     8    29       P1  7957  0.81
      P1  H  8011  8017       L1     8  0.29

> <Gold.Chemscore.Hbond.Weighted>
-7.0870

> <Gold.Chemscore.Metal.Weighted>
-0.0000

> <Gold.Chemscore.Lipo.Weighted>
-10.9191

> <Gold.Chemscore.Internal_Hbond.Weighted>
0.0000

> <Gold.Chemscore.DEClash.Weighted>
0.6100

> <Gold.Chemscore.DEInternal.Weighted>
0.3356

> <Gold.Chemscore.Rot.Weighted>
5.6018

> <Gold.Chemscore.Internal.Correction.Weighted>
   9.000000E+99

> <Gold.Protein.RotatedTorsions>
[ 6907 6896 6895 6894 ] final  139.35 input  -60.11 | X-H torsion
[ 7974 7965 7964 7962 ] final -154.56 input  175.53 | X-H torsion
[ 8008 7997 7996 7995 ] final   43.04 input   59.86 | X-H torsion
[ 10167 10162 10161 10158 ] final  103.11 input  -65.29 | X-H torsion
[ 10718 10713 10712 10709 ] final  105.24 input   66.30 | X-H torsion
[ 10763 10752 10751 10750 ] final -145.86 input  -60.55 | X-H torsion
[ 11005 11000 10999 10996 ] final   33.80 input  -57.11 | X-H torsion

> <Gold.Protein.ActiveResidues>
 VAL166  LYS551  ARG553  GLY616  TRP617  ASP618  TYR619  PRO620  LYS621  CYS622 
 ASP623  PHE694  ASN695  SER759  ASP760  ASP761  ALA762  ILE779  LEU786  VAL792 
 PHE793  MET794  SER795  GLU796  ALA797  LYS798  CYS799  TRP800  GLU811  SER814 

> <Gold.Protein.RotatedAtoms>
  152.2559  133.5255  159.5352 H   0  0  0  0  0  0  0  0  0  0  0  0  # atno 6907 bound_to 6896
  150.7109  134.0896  159.3936 H   0  0  0  0  0  0  0  0  0  0  0  0  # atno 6908 bound_to 6896
  151.8815  135.0451  160.0540 H   0  0  0  0  0  0  0  0  0  0  0  0  # atno 6909 bound_to 6896
  144.7683  140.4371  143.5925 H   0  0  0  0  0  0  0  0  0  0  0  0  # atno 7974 bound_to 7965
  155.2962  140.3382  155.4250 H   0  0  0  0  0  0  0  0  0  0  0  0  # atno 8008 bound_to 7997
  156.2023  140.1737  156.7913 H   0  0  0  0  0  0  0  0  0  0  0  0  # atno 8009 bound_to 7997
  154.5575  140.0694  156.8750 H   0  0  0  0  0  0  0  0  0  0  0  0  # atno 8010 bound_to 7997
  139.7291  144.7040  151.0750 H   0  0  0  0  0  0  0  0  0  0  0  0  # atno 10167 bound_to 10162
  157.6712  131.0823  150.5827 H   0  0  0  0  0  0  0  0  0  0  0  0  # atno 10718 bound_to 10713
  154.8364  135.3402  154.6570 H   0  0  0  0  0  0  0  0  0  0  0  0  # atno 10763 bound_to 10752
  153.7185  135.6959  153.5023 H   0  0  0  0  0  0  0  0  0  0  0  0  # atno 10764 bound_to 10752
  153.2399  135.4388  155.0640 H   0  0  0  0  0  0  0  0  0  0  0  0  # atno 10765 bound_to 10752
  140.2594  134.3210  155.7863 H   0  0  0  0  0  0  0  0  0  0  0  0  # atno 11005 bound_to 11000
  145.6401  139.1549  143.2920 LP  0  0  0  0  0  0  0  0  0  0  0  0  # atno 17320 bound_to 7965
  146.1809  140.6498  142.9189 LP  0  0  0  0  0  0  0  0  0  0  0  0  # atno 17321 bound_to 7965
  140.7768  143.5066  150.9704 LP  0  0  0  0  0  0  0  0  0  0  0  0  # atno 17342 bound_to 10162
  139.8754  143.7139  152.3162 LP  0  0  0  0  0  0  0  0  0  0  0  0  # atno 17343 bound_to 10162
  156.6128  130.4384  149.5852 LP  0  0  0  0  0  0  0  0  0  0  0  0  # atno 17370 bound_to 10713
  156.2417  130.6855  151.1562 LP  0  0  0  0  0  0  0  0  0  0  0  0  # atno 17371 bound_to 10713
  141.2192  133.7400  156.9162 LP  0  0  0  0  0  0  0  0  0  0  0  0  # atno 17394 bound_to 11000
  140.1480  134.9249  157.2555 LP  0  0  0  0  0  0  0  0  0  0  0  0  # atno 17395 bound_to 11000

$$$$
