AV-unprocessed.smi:671|AV-procd|sdf|3284|dock9
  -GOLD-   22720 0243D 1   1.00000     0.00000
 Structure written by MMmdl.
 50 51  0  0  0  0  0  0  0  0  2 V2000
  146.4748  142.4073  153.6862 C   0  0  0  0  0  0  0  0  0  0  0  0
  147.6925  141.6643  154.1221 C   0  0  0  0  0  0  0  0  0  0  0  0
  148.6721  142.1890  154.9064 N   0  3  0  0  0  0  0  0  0  0  0  0
  149.6324  141.2782  155.1205 N   0  0  0  0  0  0  0  0  0  0  0  0
  150.7816  141.6443  155.9490 C   0  0  0  0  0  0  0  0  0  0  0  0
  149.3240  140.1113  154.4868 C   0  0  0  0  0  0  0  0  0  0  0  0
  150.1702  138.8807  154.5145 C   0  0  0  0  0  0  0  0  0  0  0  0
  148.0963  140.3508  153.8562 C   0  0  0  0  0  0  0  0  0  0  0  0
  147.3350  139.3563  153.0248 C   0  0  0  0  0  0  0  0  0  0  0  0
  146.7081  138.2157  153.8573 C   0  0  1  0  0  0  0  0  0  0  0  0
  145.3474  138.6012  154.4588 C   0  0  0  0  0  0  0  0  0  0  0  0
  146.5336  137.0221  153.0269 N   0  0  0  0  0  0  0  0  0  0  0  0
  145.7416  135.9569  153.2482 C   0  0  0  0  0  0  0  0  0  0  0  0
  145.0369  135.8728  154.2518 O   0  0  0  0  0  0  0  0  0  0  0  0
  145.7957  135.0086  152.2968 N   0  0  0  0  0  0  0  0  0  0  0  0
  145.0289  133.7623  152.2879 C   0  0  1  0  0  0  0  0  0  0  0  0
  144.2228  133.6638  150.9854 C   0  0  0  0  0  0  0  0  0  0  0  0
  145.0722  132.8004  150.0576 C   0  0  0  0  0  0  0  0  0  0  0  0
  145.7167  131.7738  150.9850 C   0  0  0  0  0  0  0  0  0  0  0  0
  145.9080  132.4806  152.3393 C   0  0  1  0  0  0  0  0  0  0  0  0
  147.3954  132.6849  152.6871 C   0  0  0  0  0  0  0  0  0  0  0  0
  146.4906  142.5513  152.6056 H   0  0  0  0  0  0  0  0  0  0  0  0
  146.4277  143.3850  154.1668 H   0  0  0  0  0  0  0  0  0  0  0  0
  145.5768  141.8484  153.9501 H   0  0  0  0  0  0  0  0  0  0  0  0
  151.6624  141.0964  155.6137 H   0  0  0  0  0  0  0  0  0  0  0  0
  150.5665  141.3901  156.9870 H   0  0  0  0  0  0  0  0  0  0  0  0
  150.9737  142.7148  155.8652 H   0  0  0  0  0  0  0  0  0  0  0  0
  149.7745  138.1260  153.8367 H   0  0  0  0  0  0  0  0  0  0  0  0
  150.1933  138.4631  155.5210 H   0  0  0  0  0  0  0  0  0  0  0  0
  151.1898  139.1131  154.2073 H   0  0  0  0  0  0  0  0  0  0  0  0
  146.5517  139.8601  152.4571 H   0  0  0  0  0  0  0  0  0  0  0  0
  148.0047  138.9382  152.2726 H   0  0  0  0  0  0  0  0  0  0  0  0
  147.3692  137.9736  154.6910 H   0  0  0  0  0  0  0  0  0  0  0  0
  145.4340  139.4545  155.1318 H   0  0  0  0  0  0  0  0  0  0  0  0
  144.9271  137.7766  155.0355 H   0  0  0  0  0  0  0  0  0  0  0  0
  144.6286  138.8615  153.6810 H   0  0  0  0  0  0  0  0  0  0  0  0
  147.0926  136.9914  152.1863 H   0  0  0  0  0  0  0  0  0  0  0  0
  146.4148  135.1620  151.5148 H   0  0  0  0  0  0  0  0  0  0  0  0
  144.3314  133.7679  153.1277 H   0  0  0  0  0  0  0  0  0  0  0  0
  143.2788  133.1536  151.1830 H   0  0  0  0  0  0  0  0  0  0  0  0
  143.9793  134.6340  150.5497 H   0  0  0  0  0  0  0  0  0  0  0  0
  144.4875  132.3382  149.2616 H   0  0  0  0  0  0  0  0  0  0  0  0
  145.8480  133.4083  149.5916 H   0  0  0  0  0  0  0  0  0  0  0  0
  145.0393  130.9281  151.1113 H   0  0  0  0  0  0  0  0  0  0  0  0
  146.6462  131.3805  150.5714 H   0  0  0  0  0  0  0  0  0  0  0  0
  145.4946  131.8263  153.1083 H   0  0  0  0  0  0  0  0  0  0  0  0
  147.9005  133.3092  151.9492 H   0  0  0  0  0  0  0  0  0  0  0  0
  147.9193  131.7294  152.7207 H   0  0  0  0  0  0  0  0  0  0  0  0
  147.5127  133.1518  153.6652 H   0  0  0  0  0  0  0  0  0  0  0  0
  148.7336  143.1182  155.3033 H   0  0  0  0  0  0  0  0  0  0  0  0
  1  2  1  0  0  0  0
  1 22  1  0  0  0  0
  1 23  1  0  0  0  0
  1 24  1  0  0  0  0
  2  8  1  0  0  0  0
  2  3  2  0  0  0  0
  3  4  1  0  0  0  0
  3 50  1  0  0  0  0
  4  5  1  0  0  0  0
  4  6  1  0  0  0  0
  5 25  1  0  0  0  0
  5 26  1  0  0  0  0
  5 27  1  0  0  0  0
  6  7  1  0  0  0  0
  6  8  2  0  0  0  0
  7 28  1  0  0  0  0
  7 29  1  0  0  0  0
  7 30  1  0  0  0  0
  8  9  1  0  0  0  0
  9 10  1  0  0  0  0
  9 31  1  0  0  0  0
  9 32  1  0  0  0  0
 10 11  1  0  0  0  0
 10 12  1  0  0  0  0
 10 33  1  0  0  0  0
 11 34  1  0  0  0  0
 11 35  1  0  0  0  0
 11 36  1  0  0  0  0
 12 13  1  0  0  0  0
 12 37  1  0  0  0  0
 13 14  2  0  0  0  0
 13 15  1  0  0  0  0
 15 16  1  0  0  0  0
 15 38  1  0  0  0  0
 16 20  1  0  0  0  0
 16 17  1  0  0  0  0
 16 39  1  0  0  0  0
 17 18  1  0  0  0  0
 17 40  1  0  0  0  0
 17 41  1  0  0  0  0
 18 19  1  0  0  0  0
 18 42  1  0  0  0  0
 18 43  1  0  0  0  0
 19 20  1  0  0  0  0
 19 44  1  0  0  0  0
 19 45  1  0  0  0  0
 20 21  1  0  0  0  0
 20 46  1  0  0  0  0
 21 47  1  0  0  0  0
 21 48  1  0  0  0  0
 21 49  1  0  0  0  0
M  CHG  1   3   1
M  END
> <s_m_source_file>
AV-unprocessed.smi

> <i_m_source_file_index>
671

> <i_lp_mmshare_version>
43012

> <i_f3d_flags>
0

> <s_epik_input>
W0NIM11jMW5uKFtDSDNdKWMoW0NIM10pYzFbQ0gyXVtDQEhdKFtDSDNdKVtOSF1DKD1PKVtOSF1bQ0BASF0yW0NIMl1bQ0gyXVtDSDJdW0NASF0yW0NIM10=

> <s_epik_cmdline>
J2VwaWtfcHl0aG9uJywgJy1waCcsICc3LjAnLCAnLXRuJywgJzgnLCAnLW1hJywgJzIwMCcsICctbWV0YWxfYmluZGluZycsICctaW1hZScsICc8aW5maWxlLm1hZT4nLCAnLW9tYWUnLCAnPG91dGZpbGUubWFlPic=

> <r_lp_tautomer_probability>
1

> <r_epik_Ionization_Penalty>
2.28705

> <r_epik_Ionization_Penalty_Charging>
2.28698

> <r_epik_Ionization_Penalty_Neutral>
6.23157e-05

> <r_epik_State_Penalty>
2.43671

> <r_epik_Charging_Adjusted_Penalty>
4.72369

> <i_epik_Tot_Q>
1

> <i_epik_Tot_abs_Q>
1

> <r_epik_Metal_State_Penalty>
2.44911

> <b_epik_Metal_Only>
0

> <s_lp_Force_Field>
OPLS_2005

> <r_lp_Energy>
36.9698

> <b_lp_Chiralities_Consistent>
1

> <s_lp_Variant>
AV-unprocessed.smi:671-12

> <Gold.Version>
5.8.1

> <Gold.Id.Protein>
6NUR|6NUR_protein|mol2

> <Gold.PLP.Fitness>
45.3907

> <Gold.PLP.PLP>
-39.0096

> <Gold.PLP.part.hbond>
-2.0494

> <Gold.PLP.part.metal>
0.0000

> <Gold.PLP.part.buried>
-4.1627

> <Gold.PLP.part.nonpolar>
-32.9312

> <Gold.PLP.part.repulsive>
0.2411

> <Gold.PLP.ligand.clash>
0.0000

> <Gold.PLP.ligand.torsion>
0.6852

> <Gold.PLP.Chemscore.Hbond>
2.5760

> <Gold.PLP.Chemscore.CHOScore>
0.0000

> <Gold.PLP.Chemscore.Metal>
0.0000

> <Gold.Chemscore.Hbonds>
donor molecule, donor type, donor heavy atom, donor atom, acceptor molecule, acceptor atom, score
      L1  H     3    50       P1  8028  2.00
      L1  H    12    37       P1  7948  0.64

> <Gold.PLP.Chemscore.Internal.Correction>
0.0234

> <Gold.Rescore>
     Score         DG    S(hbond)    S(metal)    S(lipo)     H(rot)  DE(clash)    DE(int)     intcor
     16.80     -19.24       1.96        0.00      94.55       1.51       0.07       2.38       ----

> <Gold.Chemscore.Fitness>
16.7991

> <Gold.Chemscore.DG>
-19.2437

> <Gold.Chemscore.ZeroCoef>
-5.4800

> <Gold.Chemscore.Hbond>
1.9630

> <Gold.Chemscore.Metal>
0.0000

> <Gold.Chemscore.Lipo>
94.5468

> <Gold.Chemscore.Internal_Hbond>
0.0000

> <Gold.Chemscore.DEClash>
0.0675

> <Gold.Chemscore.DEInternal>
2.3771

> <Gold.Chemscore.Rot>
1.5057

> <Gold.Chemscore.Internal.Correction>
   9.000000E+99

> <Gold.Chemscore.Hbonds>
donor molecule, donor type, donor heavy atom, donor atom, acceptor molecule, acceptor atom, score
      L1  H     3    50       P1  8028  1.00
      L1  H    12    37       P1  7948  0.60

> <Gold.Chemscore.Hbond.Weighted>
-6.5564

> <Gold.Chemscore.Metal.Weighted>
-0.0000

> <Gold.Chemscore.Lipo.Weighted>
-11.0620

> <Gold.Chemscore.Internal_Hbond.Weighted>
0.0000

> <Gold.Chemscore.DEClash.Weighted>
0.0675

> <Gold.Chemscore.DEInternal.Weighted>
2.3771

> <Gold.Chemscore.Rot.Weighted>
3.8547

> <Gold.Chemscore.Internal.Correction.Weighted>
   9.000000E+99

> <Gold.Protein.RotatedTorsions>
[ 6907 6896 6895 6894 ] final  113.37 input  -60.11 | X-H torsion
[ 7974 7965 7964 7962 ] final  175.27 input  175.53 | X-H torsion
[ 8008 7997 7996 7995 ] final -174.36 input   59.86 | X-H torsion
[ 10167 10162 10161 10158 ] final   42.12 input  -65.29 | X-H torsion
[ 10718 10713 10712 10709 ] final   21.67 input   66.30 | X-H torsion
[ 10763 10752 10751 10750 ] final   34.64 input  -60.55 | X-H torsion
[ 11005 11000 10999 10996 ] final    3.11 input  -57.11 | X-H torsion

> <Gold.Protein.ActiveResidues>
 VAL166  LYS551  ARG553  GLY616  TRP617  ASP618  TYR619  PRO620  LYS621  CYS622 
 ASP623  PHE694  ASN695  SER759  ASP760  ASP761  ALA762  ILE779  LEU786  VAL792 
 PHE793  MET794  SER795  GLU796  ALA797  LYS798  CYS799  TRP800  GLU811  SER814 

> <Gold.Protein.RotatedAtoms>
  152.4864  133.8385  159.7140 H   0  0  0  0  0  0  0  0  0  0  0  0  # atno 6907 bound_to 6896
  150.8955  133.7177  159.2899 H   0  0  0  0  0  0  0  0  0  0  0  0  # atno 6908 bound_to 6896
  151.4636  135.1044  159.9784 H   0  0  0  0  0  0  0  0  0  0  0  0  # atno 6909 bound_to 6896
  144.7205  139.9921  143.6440 H   0  0  0  0  0  0  0  0  0  0  0  0  # atno 7974 bound_to 7965
  155.9691  140.1159  157.0828 H   0  0  0  0  0  0  0  0  0  0  0  0  # atno 8008 bound_to 7997
  154.4151  140.1167  156.5349 H   0  0  0  0  0  0  0  0  0  0  0  0  # atno 8009 bound_to 7997
  155.6621  140.3473  155.4788 H   0  0  0  0  0  0  0  0  0  0  0  0  # atno 8010 bound_to 7997
  140.3575  144.2271  150.6140 H   0  0  0  0  0  0  0  0  0  0  0  0  # atno 10167 bound_to 10162
  157.1417  130.6635  149.5983 H   0  0  0  0  0  0  0  0  0  0  0  0  # atno 10718 bound_to 10713
  153.0155  135.6355  154.1700 H   0  0  0  0  0  0  0  0  0  0  0  0  # atno 10763 bound_to 10752
  154.1439  135.2833  155.3155 H   0  0  0  0  0  0  0  0  0  0  0  0  # atno 10764 bound_to 10752
  154.6104  135.5558  153.7528 H   0  0  0  0  0  0  0  0  0  0  0  0  # atno 10765 bound_to 10752
  140.5968  133.9873  155.8113 H   0  0  0  0  0  0  0  0  0  0  0  0  # atno 11005 bound_to 11000
  146.0403  139.3415  143.0701 LP  0  0  0  0  0  0  0  0  0  0  0  0  # atno 17320 bound_to 7965
  145.8343  140.9614  143.0832 LP  0  0  0  0  0  0  0  0  0  0  0  0  # atno 17321 bound_to 7965
  140.5159  143.2278  151.8463 LP  0  0  0  0  0  0  0  0  0  0  0  0  # atno 17342 bound_to 10162
  139.4818  144.4894  151.9204 LP  0  0  0  0  0  0  0  0  0  0  0  0  # atno 17343 bound_to 10162
  155.9787  130.4775  150.6672 LP  0  0  0  0  0  0  0  0  0  0  0  0  # atno 17370 bound_to 10713
  157.4301  131.0848  151.1047 LP  0  0  0  0  0  0  0  0  0  0  0  0  # atno 17371 bound_to 10713
  141.0899  133.9933  157.3254 LP  0  0  0  0  0  0  0  0  0  0  0  0  # atno 17394 bound_to 11000
  139.9250  135.0201  156.8201 LP  0  0  0  0  0  0  0  0  0  0  0  0  # atno 17395 bound_to 11000

$$$$
