AV-unprocessed.smi:2802|AV-procd|sdf|10805|dock4
  -GOLD-   2272015243D 1   1.00000     0.00000
 Structure written by MMmdl.
 47 48  0  0  0  0  0  0  0  0  1 V2000
  153.0873  140.5406  159.9660 C   0  0  0  0  0  0  0  0  0  0  0  0
  152.4782  141.6409  159.0845 C   0  0  2  0  0  0  0  0  0  0  0  0
  152.3281  142.9572  159.8660 C   0  0  0  0  0  0  0  0  0  0  0  0
  151.7456  144.1114  159.0198 C   0  0  0  0  0  0  0  0  0  0  0  0
  151.3735  145.2699  159.9698 C   0  0  0  0  0  0  0  0  0  0  0  0
  152.8027  144.6668  158.0393 C   0  0  0  0  0  0  0  0  0  0  0  0
  150.4503  143.6524  158.2905 C   0  0  0  0  0  0  0  0  0  0  0  0
  150.4515  142.2569  157.5876 C   0  0  2  0  0  0  0  0  0  0  0  0
  151.1454  142.2906  156.1940 C   0  0  0  0  0  0  0  0  0  0  0  0
  151.2187  141.0078  155.6010 O   0  0  0  0  0  0  0  0  0  0  0  0
  149.0521  141.8236  157.4320 N   0  0  0  0  0  0  0  0  0  0  0  0
  148.5854  140.6298  157.0237 C   0  0  0  0  0  0  0  0  0  0  0  0
  149.3091  139.6814  156.7171 O   0  0  0  0  0  0  0  0  0  0  0  0
  147.0591  140.5007  156.9619 C   0  0  0  0  0  0  0  0  0  0  0  0
  146.4411  141.5429  156.0445 C   0  0  0  0  0  0  0  0  0  0  0  0
  146.8494  141.6568  154.6994 C   0  0  0  0  0  0  0  0  0  0  0  0
  146.2556  142.6454  153.8916 C   0  0  0  0  0  0  0  0  0  0  0  0
  145.2761  143.4808  154.4650 C   0  0  0  0  0  0  0  0  0  0  0  0
  144.8752  143.3796  155.7507 N   0  0  0  0  0  0  0  0  0  0  0  0
  145.4499  142.4289  156.5186 C   0  0  0  0  0  0  0  0  0  0  0  0
  151.1139  141.2087  158.5188 C   0  0  0  0  0  0  0  0  0  0  0  0
  152.4527  140.3210  160.8251 H   0  0  0  0  0  0  0  0  0  0  0  0
  154.0668  140.8371  160.3427 H   0  0  0  0  0  0  0  0  0  0  0  0
  153.2189  139.6155  159.4040 H   0  0  0  0  0  0  0  0  0  0  0  0
  153.1698  141.7942  158.2576 H   0  0  0  0  0  0  0  0  0  0  0  0
  151.6791  142.7751  160.7240 H   0  0  0  0  0  0  0  0  0  0  0  0
  153.2927  143.2542  160.2804 H   0  0  0  0  0  0  0  0  0  0  0  0
  150.9532  146.1139  159.4213 H   0  0  0  0  0  0  0  0  0  0  0  0
  152.2442  145.6344  160.5164 H   0  0  0  0  0  0  0  0  0  0  0  0
  150.6341  144.9632  160.7105 H   0  0  0  0  0  0  0  0  0  0  0  0
  152.3721  145.4176  157.3759 H   0  0  0  0  0  0  0  0  0  0  0  0
  153.2600  143.9028  157.4180 H   0  0  0  0  0  0  0  0  0  0  0  0
  153.6213  145.1453  158.5780 H   0  0  0  0  0  0  0  0  0  0  0  0
  149.6598  143.6260  159.0431 H   0  0  0  0  0  0  0  0  0  0  0  0
  150.1406  144.4281  157.5892 H   0  0  0  0  0  0  0  0  0  0  0  0
  150.6225  142.9574  155.5088 H   0  0  0  0  0  0  0  0  0  0  0  0
  152.1642  142.6598  156.2575 H   0  0  0  0  0  0  0  0  0  0  0  0
  150.4476  140.5196  155.8463 H   0  0  0  0  0  0  0  0  0  0  0  0
  148.3588  142.5190  157.6663 H   0  0  0  0  0  0  0  0  0  0  0  0
  146.8012  139.4996  156.6145 H   0  0  0  0  0  0  0  0  0  0  0  0
  146.6359  140.6090  157.9617 H   0  0  0  0  0  0  0  0  0  0  0  0
  147.6069  141.0022  154.2939 H   0  0  0  0  0  0  0  0  0  0  0  0
  146.5454  142.7622  152.8580 H   0  0  0  0  0  0  0  0  0  0  0  0
  144.8021  144.2510  153.8745 H   0  0  0  0  0  0  0  0  0  0  0  0
  145.1124  142.3767  157.5434 H   0  0  0  0  0  0  0  0  0  0  0  0
  151.2154  140.2544  158.0002 H   0  0  0  0  0  0  0  0  0  0  0  0
  150.4507  141.0107  159.3631 H   0  0  0  0  0  0  0  0  0  0  0  0
  1  2  1  0  0  0  0
  1 22  1  0  0  0  0
  1 23  1  0  0  0  0
  1 24  1  0  0  0  0
  2 21  1  0  0  0  0
  2  3  1  0  0  0  0
  2 25  1  0  0  0  0
  3  4  1  0  0  0  0
  3 26  1  0  0  0  0
  3 27  1  0  0  0  0
  4  5  1  0  0  0  0
  4  6  1  0  0  0  0
  4  7  1  0  0  0  0
  5 28  1  0  0  0  0
  5 29  1  0  0  0  0
  5 30  1  0  0  0  0
  6 31  1  0  0  0  0
  6 32  1  0  0  0  0
  6 33  1  0  0  0  0
  7  8  1  0  0  0  0
  7 34  1  0  0  0  0
  7 35  1  0  0  0  0
  8  9  1  0  0  0  0
  8 11  1  0  0  0  0
  8 21  1  0  0  0  0
  9 10  1  0  0  0  0
  9 36  1  0  0  0  0
  9 37  1  0  0  0  0
 10 38  1  0  0  0  0
 11 12  1  0  0  0  0
 11 39  1  0  0  0  0
 12 13  2  0  0  0  0
 12 14  1  0  0  0  0
 14 15  1  0  0  0  0
 14 40  1  0  0  0  0
 14 41  1  0  0  0  0
 15 20  1  0  0  0  0
 15 16  2  0  0  0  0
 16 17  1  0  0  0  0
 16 42  1  0  0  0  0
 17 18  2  0  0  0  0
 17 43  1  0  0  0  0
 18 19  1  0  0  0  0
 18 44  1  0  0  0  0
 19 20  2  0  0  0  0
 20 45  1  0  0  0  0
 21 46  1  0  0  0  0
 21 47  1  0  0  0  0
M  END
> <s_m_source_file>
AV-unprocessed.smi

> <i_m_source_file_index>
2802

> <i_lp_mmshare_version>
43012

> <i_f3d_flags>
0

> <s_epik_input>
W0NIM11DMShbQ0gzXSlbQ0gyXVtDQEBIXShbQ0gzXSlbQ0gyXVtDQF0oW0NIMl0xKShbQ0gyXVtPSF0pW05IXUMoPU8pW0NIMl1jMltjSF1bY0hdW2NIXW5bY0hdMg==

> <s_epik_cmdline>
J2VwaWtfcHl0aG9uJywgJy1waCcsICc3LjAnLCAnLXRuJywgJzgnLCAnLW1hJywgJzIwMCcsICctbWV0YWxfYmluZGluZycsICctaW1hZScsICc8aW5maWxlLm1hZT4nLCAnLW9tYWUnLCAnPG91dGZpbGUubWFlPic=

> <r_epik_Ionization_Penalty>
0.004793

> <r_epik_Ionization_Penalty_Charging>
0

> <r_epik_Ionization_Penalty_Neutral>
0.004793

> <r_epik_State_Penalty>
0.00347421

> <r_epik_Charging_Adjusted_Penalty>
0.00347421

> <i_epik_Tot_Q>
0

> <i_epik_Tot_abs_Q>
0

> <r_epik_Metal_State_Penalty>
-0

> <b_epik_Metal_Only>
0

> <s_lp_Force_Field>
OPLS_2005

> <r_lp_Energy>
22.6418

> <b_lp_Chiralities_Consistent>
1

> <s_lp_Variant>
AV-unprocessed.smi:2802-3

> <Gold.Version>
5.8.1

> <Gold.Id.Protein>
6NUR|6NUR_protein|mol2

> <Gold.PLP.Fitness>
42.9750

> <Gold.PLP.PLP>
-41.7335

> <Gold.PLP.part.hbond>
-1.0000

> <Gold.PLP.part.metal>
0.0000

> <Gold.PLP.part.buried>
-5.8903

> <Gold.PLP.part.nonpolar>
-34.4625

> <Gold.PLP.part.repulsive>
0.2143

> <Gold.PLP.ligand.clash>
0.0000

> <Gold.PLP.ligand.torsion>
0.1036

> <Gold.PLP.Chemscore.Hbond>
0.4784

> <Gold.PLP.Chemscore.CHOScore>
0.0000

> <Gold.PLP.Chemscore.Metal>
0.0000

> <Gold.Chemscore.Hbonds>
donor molecule, donor type, donor heavy atom, donor atom, acceptor molecule, acceptor atom, score
      P1  H  7989  7998       L1    10  0.48

> <Gold.PLP.Chemscore.Internal.Correction>
0.0135

> <Gold.Rescore>
     Score         DG    S(hbond)    S(metal)    S(lipo)     H(rot)  DE(clash)    DE(int)     intcor
     11.60     -16.21       0.51        0.00     121.13       2.00       0.62       3.99       ----

> <Gold.Chemscore.Fitness>
11.6042

> <Gold.Chemscore.DG>
-16.2142

> <Gold.Chemscore.ZeroCoef>
-5.4800

> <Gold.Chemscore.Hbond>
0.5056

> <Gold.Chemscore.Metal>
0.0000

> <Gold.Chemscore.Lipo>
121.1310

> <Gold.Chemscore.Internal_Hbond>
0.0000

> <Gold.Chemscore.DEClash>
0.6234

> <Gold.Chemscore.DEInternal>
3.9866

> <Gold.Chemscore.Rot>
2.0026

> <Gold.Chemscore.Internal.Correction>
   9.000000E+99

> <Gold.Chemscore.Hbonds>
donor molecule, donor type, donor heavy atom, donor atom, acceptor molecule, acceptor atom, score
      P1  H  7989  7998       L1    10  0.39

> <Gold.Chemscore.Hbond.Weighted>
-1.6886

> <Gold.Chemscore.Metal.Weighted>
-0.0000

> <Gold.Chemscore.Lipo.Weighted>
-14.1723

> <Gold.Chemscore.Internal_Hbond.Weighted>
0.0000

> <Gold.Chemscore.DEClash.Weighted>
0.6234

> <Gold.Chemscore.DEInternal.Weighted>
3.9866

> <Gold.Chemscore.Rot.Weighted>
5.1267

> <Gold.Chemscore.Internal.Correction.Weighted>
   9.000000E+99

> <Gold.Protein.RotatedTorsions>
[ 6907 6896 6895 6894 ] final  135.93 input  -60.11 | X-H torsion
[ 7974 7965 7964 7962 ] final  -13.64 input  175.53 | X-H torsion
[ 8008 7997 7996 7995 ] final -173.21 input   59.86 | X-H torsion
[ 10167 10162 10161 10158 ] final  -35.13 input  -65.29 | X-H torsion
[ 10718 10713 10712 10709 ] final  -74.96 input   66.30 | X-H torsion
[ 10763 10752 10751 10750 ] final -177.74 input  -60.55 | X-H torsion
[ 11005 11000 10999 10996 ] final  -90.80 input  -57.11 | X-H torsion

> <Gold.Protein.ActiveResidues>
 VAL166  LYS551  ARG553  GLY616  TRP617  ASP618  TYR619  PRO620  LYS621  CYS622 
 ASP623  PHE694  ASN695  SER759  ASP760  ASP761  ALA762  ILE779  LEU786  VAL792 
 PHE793  MET794  SER795  GLU796  ALA797  LYS798  CYS799  TRP800  GLU811  SER814 

> <Gold.Protein.RotatedAtoms>
  152.2950  133.5598  159.5581 H   0  0  0  0  0  0  0  0  0  0  0  0  # atno 6907 bound_to 6896
  150.7252  134.0374  159.3763 H   0  0  0  0  0  0  0  0  0  0  0  0  # atno 6908 bound_to 6896
  151.8278  135.0631  160.0484 H   0  0  0  0  0  0  0  0  0  0  0  0  # atno 6909 bound_to 6896
  146.2106  140.3233  142.8392 H   0  0  0  0  0  0  0  0  0  0  0  0  # atno 7974 bound_to 7965
  155.9546  140.1133  157.0948 H   0  0  0  0  0  0  0  0  0  0  0  0  # atno 8008 bound_to 7997
  154.4117  140.1194  156.5164 H   0  0  0  0  0  0  0  0  0  0  0  0  # atno 8009 bound_to 7997
  155.6799  140.3473  155.4853 H   0  0  0  0  0  0  0  0  0  0  0  0  # atno 8010 bound_to 7997
  140.7171  143.3499  151.2177 H   0  0  0  0  0  0  0  0  0  0  0  0  # atno 10167 bound_to 10162
  156.0224  130.4429  150.2971 H   0  0  0  0  0  0  0  0  0  0  0  0  # atno 10718 bound_to 10713
  154.5564  135.2817  155.0960 H   0  0  0  0  0  0  0  0  0  0  0  0  # atno 10763 bound_to 10752
  154.2386  135.6361  153.5203 H   0  0  0  0  0  0  0  0  0  0  0  0  # atno 10764 bound_to 10752
  153.0017  135.5554  154.6145 H   0  0  0  0  0  0  0  0  0  0  0  0  # atno 10765 bound_to 10752
  141.1558  133.7715  156.9789 H   0  0  0  0  0  0  0  0  0  0  0  0  # atno 11005 bound_to 11000
  144.8905  140.7517  143.5930 LP  0  0  0  0  0  0  0  0  0  0  0  0  # atno 17320 bound_to 7965
  145.3155  139.1805  143.4616 LP  0  0  0  0  0  0  0  0  0  0  0  0  # atno 17321 bound_to 7965
  139.7027  143.9506  152.2913 LP  0  0  0  0  0  0  0  0  0  0  0  0  # atno 17342 bound_to 10162
  139.9204  144.6803  150.8467 LP  0  0  0  0  0  0  0  0  0  0  0  0  # atno 17343 bound_to 10162
  157.1074  131.0212  151.3061 LP  0  0  0  0  0  0  0  0  0  0  0  0  # atno 17370 bound_to 10713
  157.4732  130.7721  149.7343 LP  0  0  0  0  0  0  0  0  0  0  0  0  # atno 17371 bound_to 10713
  140.1079  134.9495  157.2021 LP  0  0  0  0  0  0  0  0  0  0  0  0  # atno 17394 bound_to 11000
  140.3232  134.2892  155.7242 LP  0  0  0  0  0  0  0  0  0  0  0  0  # atno 17395 bound_to 11000

$$$$
