AV-unprocessed.smi:2849|AV-procd|sdf|10959|dock5
  -GOLD-   2272015413D 1   1.00000     0.00000
 Structure written by MMmdl.
 55 58  0  0  0  0  0  0  0  0  2 V2000
  145.9335  134.0223  151.2900 C   0  0  0  0  0  0  0  0  0  0  0  0
  146.2490  135.2478  152.0619 N   0  3  2  0  0  0  0  0  0  0  0  0
  146.2099  135.0847  153.5358 C   0  0  2  0  0  0  0  0  0  0  0  0
  144.7588  134.8848  154.0415 C   0  0  0  0  0  0  0  0  0  0  0  0
  143.7717  135.9606  153.5508 C   0  0  0  0  0  0  0  0  0  0  0  0
  143.9895  136.3300  152.0707 C   0  0  0  0  0  0  0  0  0  0  0  0
  145.4801  136.4514  151.6618 C   0  0  1  0  0  0  0  0  0  0  0  0
  146.2023  137.7070  152.2036 C   0  0  0  0  0  0  0  0  0  0  0  0
  146.5044  137.6668  153.7206 C   0  0  2  0  0  0  0  0  0  0  0  0
  147.5272  138.6634  154.0325 N   0  0  0  0  0  0  0  0  0  0  0  0
  148.1548  138.7859  155.2116 C   0  0  0  0  0  0  0  0  0  0  0  0
  147.9367  138.0476  156.1711 O   0  0  0  0  0  0  0  0  0  0  0  0
  149.0276  139.8083  155.1897 N   0  0  0  0  0  0  0  0  0  0  0  0
  149.8620  140.3082  156.2282 C   0  0  0  0  0  0  0  0  0  0  0  0
  150.4975  139.5161  157.2139 C   0  0  0  0  0  0  0  0  0  0  0  0
  151.2977  140.1470  158.1859 C   0  0  0  0  0  0  0  0  0  0  0  0
  151.4518  141.5529  158.1481 C   0  0  0  0  0  0  0  0  0  0  0  0
  152.2328  142.2247  159.1089 N   0  0  0  0  0  0  0  0  0  0  0  0
  152.8559  141.5298  160.2243 C   0  0  0  0  0  0  0  0  0  0  0  0
  153.5288  142.6343  161.0375 C   0  0  0  0  0  0  0  0  0  0  0  0
  152.6086  143.8362  160.8202 C   0  0  0  0  0  0  0  0  0  0  0  0
  152.0638  143.6411  159.4002 C   0  0  0  0  0  0  0  0  0  0  0  0
  150.8476  142.3087  157.2016 N   0  0  0  0  0  0  0  0  0  0  0  0
  150.0818  141.6997  156.2729 C   0  0  0  0  0  0  0  0  0  0  0  0
  146.9671  136.2636  154.1906 C   0  0  0  0  0  0  0  0  0  0  0  0
  144.9071  133.6894  151.4408 H   0  0  0  0  0  0  0  0  0  0  0  0
  146.5982  133.2083  151.5809 H   0  0  0  0  0  0  0  0  0  0  0  0
  146.0772  134.1985  150.2238 H   0  0  0  0  0  0  0  0  0  0  0  0
  146.7675  134.1808  153.7862 H   0  0  0  0  0  0  0  0  0  0  0  0
  144.4009  133.9108  153.7073 H   0  0  0  0  0  0  0  0  0  0  0  0
  144.7434  134.8391  155.1309 H   0  0  0  0  0  0  0  0  0  0  0  0
  142.7502  135.6056  153.6896 H   0  0  0  0  0  0  0  0  0  0  0  0
  143.8364  136.8466  154.1767 H   0  0  0  0  0  0  0  0  0  0  0  0
  143.5177  135.5651  151.4533 H   0  0  0  0  0  0  0  0  0  0  0  0
  143.4594  137.2545  151.8397 H   0  0  0  0  0  0  0  0  0  0  0  0
  145.5129  136.5212  150.5733 H   0  0  0  0  0  0  0  0  0  0  0  0
  147.1461  137.7991  151.6630 H   0  0  0  0  0  0  0  0  0  0  0  0
  145.6338  138.6054  151.9592 H   0  0  0  0  0  0  0  0  0  0  0  0
  145.6026  137.9509  154.2578 H   0  0  0  0  0  0  0  0  0  0  0  0
  147.7671  139.3151  153.2998 H   0  0  0  0  0  0  0  0  0  0  0  0
  149.0705  140.3281  154.3252 H   0  0  0  0  0  0  0  0  0  0  0  0
  150.3982  138.4434  157.2514 H   0  0  0  0  0  0  0  0  0  0  0  0
  151.7741  139.5460  158.9460 H   0  0  0  0  0  0  0  0  0  0  0  0
  152.0877  141.0287  160.8147 H   0  0  0  0  0  0  0  0  0  0  0  0
  153.5753  140.7834  159.8855 H   0  0  0  0  0  0  0  0  0  0  0  0
  153.6508  142.3722  162.0889 H   0  0  0  0  0  0  0  0  0  0  0  0
  154.5160  142.8476  160.6251 H   0  0  0  0  0  0  0  0  0  0  0  0
  151.7858  143.7968  161.5353 H   0  0  0  0  0  0  0  0  0  0  0  0
  153.1182  144.7914  160.9497 H   0  0  0  0  0  0  0  0  0  0  0  0
  152.6428  144.2202  158.6802 H   0  0  0  0  0  0  0  0  0  0  0  0
  151.0212  143.9542  159.3358 H   0  0  0  0  0  0  0  0  0  0  0  0
  149.6246  142.3504  155.5418 H   0  0  0  0  0  0  0  0  0  0  0  0
  146.9062  136.1927  155.2772 H   0  0  0  0  0  0  0  0  0  0  0  0
  148.0249  136.1483  153.9476 H   0  0  0  0  0  0  0  0  0  0  0  0
  147.2121  135.4504  151.8354 H   0  0  0  0  0  0  0  0  0  0  0  0
  1  2  1  0  0  0  0
  1 26  1  0  0  0  0
  1 27  1  0  0  0  0
  1 28  1  0  0  0  0
  2  7  1  0  0  0  0
  2  3  1  0  0  0  0
  2 55  1  0  0  0  0
  3 25  1  0  0  0  0
  3  4  1  0  0  0  0
  3 29  1  0  0  0  0
  4  5  1  0  0  0  0
  4 30  1  0  0  0  0
  4 31  1  0  0  0  0
  5  6  1  0  0  0  0
  5 32  1  0  0  0  0
  5 33  1  0  0  0  0
  6  7  1  0  0  0  0
  6 34  1  0  0  0  0
  6 35  1  0  0  0  0
  7  8  1  0  0  0  0
  7 36  1  0  0  0  0
  8  9  1  0  0  0  0
  8 37  1  0  0  0  0
  8 38  1  0  0  0  0
  9 10  1  0  0  0  0
  9 25  1  0  0  0  0
  9 39  1  0  0  0  0
 10 11  1  0  0  0  0
 10 40  1  0  0  0  0
 11 12  2  0  0  0  0
 11 13  1  0  0  0  0
 13 14  1  0  0  0  0
 13 41  1  0  0  0  0
 14 24  1  0  0  0  0
 14 15  2  0  0  0  0
 15 16  1  0  0  0  0
 15 42  1  0  0  0  0
 16 17  2  0  0  0  0
 16 43  1  0  0  0  0
 17 18  1  0  0  0  0
 17 23  1  0  0  0  0
 18 22  1  0  0  0  0
 18 19  1  0  0  0  0
 19 20  1  0  0  0  0
 19 44  1  0  0  0  0
 19 45  1  0  0  0  0
 20 21  1  0  0  0  0
 20 46  1  0  0  0  0
 20 47  1  0  0  0  0
 21 22  1  0  0  0  0
 21 48  1  0  0  0  0
 21 49  1  0  0  0  0
 22 50  1  0  0  0  0
 22 51  1  0  0  0  0
 23 24  2  0  0  0  0
 24 52  1  0  0  0  0
 25 53  1  0  0  0  0
 25 54  1  0  0  0  0
M  CHG  1   2   1
M  END
> <s_m_source_file>
AV-unprocessed.smi

> <i_m_source_file_index>
2849

> <i_lp_mmshare_version>
43012

> <i_f3d_flags>
0

> <s_epik_input>
W0NIMl0xW0NIMl1bQ0gyXVtDQEhdKE4oW0NIM10pW0NIXTEyKVtDSDJdW0NASF0oW0NIMl0yKVtOSF1DKD1PKVtOSF1jM1tjSF1bY0hdYyhuW2NIXTMpTjRbQ0gyXVtDSDJdW0NIMl1bQ0gyXTQ=

> <s_epik_cmdline>
J2VwaWtfcHl0aG9uJywgJy1waCcsICc3LjAnLCAnLXRuJywgJzgnLCAnLW1hJywgJzIwMCcsICctbWV0YWxfYmluZGluZycsICctaW1hZScsICc8aW5maWxlLm1hZT4nLCAnLW9tYWUnLCAnPG91dGZpbGUubWFlPic=

> <r_lp_tautomer_probability>
1

> <r_epik_Ionization_Penalty>
0.07954

> <r_epik_Ionization_Penalty_Charging>
0.00089841

> <r_epik_Ionization_Penalty_Neutral>
0.0786416

> <r_epik_State_Penalty>
0.0689917

> <r_epik_Charging_Adjusted_Penalty>
0.0698901

> <i_epik_Tot_Q>
1

> <i_epik_Tot_abs_Q>
1

> <r_epik_Metal_State_Penalty>
0.060891

> <b_epik_Metal_Only>
0

> <s_lp_Force_Field>
OPLS_2005

> <r_lp_Energy>
61.678

> <b_lp_Chiralities_Consistent>
1

> <s_lp_Variant>
AV-unprocessed.smi:2849-3

> <Gold.Version>
5.8.1

> <Gold.Id.Protein>
6NUR|6NUR_protein|mol2

> <Gold.PLP.Fitness>
44.1702

> <Gold.PLP.PLP>
-35.9594

> <Gold.PLP.part.hbond>
-1.0000

> <Gold.PLP.part.metal>
0.0000

> <Gold.PLP.part.buried>
-3.2767

> <Gold.PLP.part.nonpolar>
-30.8591

> <Gold.PLP.part.repulsive>
0.1700

> <Gold.PLP.ligand.clash>
0.0000

> <Gold.PLP.ligand.torsion>
0.4693

> <Gold.PLP.Chemscore.Hbond>
2.0000

> <Gold.PLP.Chemscore.CHOScore>
1.0000

> <Gold.PLP.Chemscore.Metal>
0.0000

> <Gold.Chemscore.Hbonds>
donor molecule, donor type, donor heavy atom, donor atom, acceptor molecule, acceptor atom, score
      L1  H     2    55       P1  7948  2.00
      L1  C    24    52       P1  8028  1.00

> <Gold.PLP.Chemscore.Internal.Correction>
0.1494

> <Gold.Rescore>
     Score         DG    S(hbond)    S(metal)    S(lipo)     H(rot)  DE(clash)    DE(int)     intcor
     15.98     -17.74       0.99        0.00      98.37       1.00       0.05       1.71       ----

> <Gold.Chemscore.Fitness>
15.9778

> <Gold.Chemscore.DG>
-17.7386

> <Gold.Chemscore.ZeroCoef>
-5.4800

> <Gold.Chemscore.Hbond>
0.9909

> <Gold.Chemscore.Metal>
0.0000

> <Gold.Chemscore.Lipo>
98.3667

> <Gold.Chemscore.Internal_Hbond>
0.0000

> <Gold.Chemscore.DEClash>
0.0458

> <Gold.Chemscore.DEInternal>
1.7149

> <Gold.Chemscore.Rot>
1.0000

> <Gold.Chemscore.Internal.Correction>
   9.000000E+99

> <Gold.Chemscore.Hbonds>
donor molecule, donor type, donor heavy atom, donor atom, acceptor molecule, acceptor atom, score
      L1  H     2    55       P1  7948  1.00

> <Gold.Chemscore.Hbond.Weighted>
-3.3096

> <Gold.Chemscore.Metal.Weighted>
-0.0000

> <Gold.Chemscore.Lipo.Weighted>
-11.5089

> <Gold.Chemscore.Internal_Hbond.Weighted>
0.0000

> <Gold.Chemscore.DEClash.Weighted>
0.0458

> <Gold.Chemscore.DEInternal.Weighted>
1.7149

> <Gold.Chemscore.Rot.Weighted>
2.5600

> <Gold.Chemscore.Internal.Correction.Weighted>
   9.000000E+99

> <Gold.Protein.RotatedTorsions>
[ 6907 6896 6895 6894 ] final   51.56 input  -60.11 | X-H torsion
[ 7974 7965 7964 7962 ] final   86.26 input  175.53 | X-H torsion
[ 8008 7997 7996 7995 ] final   33.60 input   59.86 | X-H torsion
[ 10167 10162 10161 10158 ] final -120.61 input  -65.29 | X-H torsion
[ 10718 10713 10712 10709 ] final  118.92 input   66.30 | X-H torsion
[ 10763 10752 10751 10750 ] final -129.63 input  -60.55 | X-H torsion
[ 11005 11000 10999 10996 ] final   79.34 input  -57.11 | X-H torsion

> <Gold.Protein.ActiveResidues>
 VAL166  LYS551  ARG553  GLY616  TRP617  ASP618  TYR619  PRO620  LYS621  CYS622 
 ASP623  PHE694  ASN695  SER759  ASP760  ASP761  ALA762  ILE779  LEU786  VAL792 
 PHE793  MET794  SER795  GLU796  ALA797  LYS798  CYS799  TRP800  GLU811  SER814 

> <Gold.Protein.RotatedAtoms>
  152.3140  134.7462  160.0329 H   0  0  0  0  0  0  0  0  0  0  0  0  # atno 6907 bound_to 6896
  151.7934  133.3356  159.3513 H   0  0  0  0  0  0  0  0  0  0  0  0  # atno 6908 bound_to 6896
  150.7335  134.5752  159.5955 H   0  0  0  0  0  0  0  0  0  0  0  0  # atno 6909 bound_to 6896
  145.5746  139.2317  143.2387 H   0  0  0  0  0  0  0  0  0  0  0  0  # atno 7974 bound_to 7965
  155.1413  140.3266  155.4451 H   0  0  0  0  0  0  0  0  0  0  0  0  # atno 8008 bound_to 7997
  156.2604  140.1993  156.6478 H   0  0  0  0  0  0  0  0  0  0  0  0  # atno 8009 bound_to 7997
  154.6540  140.0555  156.9974 H   0  0  0  0  0  0  0  0  0  0  0  0  # atno 8010 bound_to 7997
  140.0340  143.5220  152.2163 H   0  0  0  0  0  0  0  0  0  0  0  0  # atno 10167 bound_to 10162
  157.5997  131.1053  150.7824 H   0  0  0  0  0  0  0  0  0  0  0  0  # atno 10718 bound_to 10713
  154.8757  135.3889  154.3952 H   0  0  0  0  0  0  0  0  0  0  0  0  # atno 10763 bound_to 10752
  153.4683  135.7029  153.6014 H   0  0  0  0  0  0  0  0  0  0  0  0  # atno 10764 bound_to 10752
  153.4482  135.3840  155.2236 H   0  0  0  0  0  0  0  0  0  0  0  0  # atno 10765 bound_to 10752
  139.9176  134.7835  156.1766 H   0  0  0  0  0  0  0  0  0  0  0  0  # atno 11005 bound_to 11000
  146.1760  140.6572  142.9211 LP  0  0  0  0  0  0  0  0  0  0  0  0  # atno 17320 bound_to 7965
  144.7422  140.4972  143.6861 LP  0  0  0  0  0  0  0  0  0  0  0  0  # atno 17321 bound_to 7965
  139.6057  144.7595  151.3066 LP  0  0  0  0  0  0  0  0  0  0  0  0  # atno 17342 bound_to 10162
  140.7290  143.6921  150.7914 LP  0  0  0  0  0  0  0  0  0  0  0  0  # atno 17343 bound_to 10162
  156.8226  130.4989  149.5341 LP  0  0  0  0  0  0  0  0  0  0  0  0  # atno 17370 bound_to 10713
  156.1068  130.6010  150.9983 LP  0  0  0  0  0  0  0  0  0  0  0  0  # atno 17371 bound_to 10713
  141.0668  133.6815  156.2060 LP  0  0  0  0  0  0  0  0  0  0  0  0  # atno 17394 bound_to 11000
  140.6572  134.5005  157.5581 LP  0  0  0  0  0  0  0  0  0  0  0  0  # atno 17395 bound_to 11000

$$$$
