AV-unprocessed.smi:276|AV-procd|sdf|2072|dock8
  -GOLD-   2262021333D 1   1.00000     0.00000
 Structure written by MMmdl.
 57 61  0  0  0  0  0  0  0  0  1 V2000
  146.4905  131.5428  152.5412 C   0  0  0  0  0  0  0  0  0  0  0  0
  147.6795  131.4771  153.3090 O   0  0  0  0  0  0  0  0  0  0  0  0
  148.4484  132.6664  153.2266 C   0  0  2  0  0  0  0  0  0  0  0  0
  149.7382  132.6417  154.0543 C   0  0  0  0  0  0  0  0  0  0  0  0
  149.4576  134.1125  154.3892 C   0  0  2  0  0  0  0  0  0  0  0  0
  149.8481  134.4721  155.7545 N   0  0  0  0  0  0  0  0  0  0  0  0
  151.1108  133.9174  156.2264 C   0  0  0  0  0  0  0  0  0  0  0  0
  149.7618  135.7823  156.0792 C   0  0  0  0  0  0  0  0  0  0  0  0
  148.6947  136.1588  156.8273 N   0  0  0  0  0  0  0  0  0  0  0  0
  148.5395  137.4386  157.1783 C   0  0  0  0  0  0  0  0  0  0  0  0
  149.3230  138.4817  156.8978 N   0  0  0  0  0  0  0  0  0  0  0  0
  150.4084  138.1032  156.1642 C   0  0  0  0  0  0  0  0  0  0  0  0
  150.7096  136.7843  155.7209 C   0  0  0  0  0  0  0  0  0  0  0  0
  151.9103  136.7869  155.0197 N   0  0  0  0  0  0  0  0  0  0  0  0
  152.2865  138.0362  155.0315 C   0  0  0  0  0  0  0  0  0  0  0  0
  151.4427  138.8947  155.6976 N   0  0  0  0  0  0  0  0  0  0  0  0
  151.6207  140.3258  155.8675 C   0  0  0  0  0  0  0  0  0  0  0  0
  150.4039  140.9914  156.5382 C   0  0  2  0  0  0  0  0  0  0  0  0
  149.6798  141.7663  155.6013 O   0  0  0  0  0  0  0  0  0  0  0  0
  150.7891  141.8393  157.7675 C   0  0  2  0  0  0  0  0  0  0  0  0
  151.5220  143.1545  157.4892 C   0  0  0  0  0  0  0  0  0  0  0  0
  152.2102  143.3917  158.8144 C   0  0  0  0  0  0  0  0  0  0  0  0
  152.6136  141.9741  159.2141 C   0  0  0  0  0  0  0  0  0  0  0  0
  151.6057  141.1161  158.6853 O   0  0  0  0  0  0  0  0  0  0  0  0
  147.9559  133.7962  154.1521 C   0  0  0  0  0  0  0  0  0  0  0  0
  146.9779  134.8565  153.6289 C   0  0  0  0  0  0  0  0  0  0  0  0
  146.2581  134.8279  154.9812 C   0  0  0  0  0  0  0  0  0  0  0  0
  146.9633  133.5042  155.2964 C   0  0  0  0  0  0  0  0  0  0  0  0
  145.9374  130.6092  152.6423 H   0  0  0  0  0  0  0  0  0  0  0  0
  146.7078  131.6908  151.4828 H   0  0  0  0  0  0  0  0  0  0  0  0
  145.8468  132.3545  152.8827 H   0  0  0  0  0  0  0  0  0  0  0  0
  148.6047  133.0161  152.2036 H   0  0  0  0  0  0  0  0  0  0  0  0
  149.6736  131.9771  154.9182 H   0  0  0  0  0  0  0  0  0  0  0  0
  150.6470  132.4698  153.4774 H   0  0  0  0  0  0  0  0  0  0  0  0
  149.8685  134.7653  153.6180 H   0  0  0  0  0  0  0  0  0  0  0  0
  151.9406  134.2731  155.6147 H   0  0  0  0  0  0  0  0  0  0  0  0
  151.0944  132.8289  156.1778 H   0  0  0  0  0  0  0  0  0  0  0  0
  151.3048  134.1955  157.2634 H   0  0  0  0  0  0  0  0  0  0  0  0
  147.6607  137.6585  157.7666 H   0  0  0  0  0  0  0  0  0  0  0  0
  153.1981  138.3676  154.5554 H   0  0  0  0  0  0  0  0  0  0  0  0
  152.5166  140.4868  156.4683 H   0  0  0  0  0  0  0  0  0  0  0  0
  151.8165  140.7732  154.8923 H   0  0  0  0  0  0  0  0  0  0  0  0
  149.7264  140.2067  156.8774 H   0  0  0  0  0  0  0  0  0  0  0  0
  149.7289  142.6736  155.8607 H   0  0  0  0  0  0  0  0  0  0  0  0
  149.8751  142.0798  158.3132 H   0  0  0  0  0  0  0  0  0  0  0  0
  152.2717  143.0413  156.7055 H   0  0  0  0  0  0  0  0  0  0  0  0
  150.8500  143.9642  157.2038 H   0  0  0  0  0  0  0  0  0  0  0  0
  153.0586  144.0730  158.7429 H   0  0  0  0  0  0  0  0  0  0  0  0
  151.5023  143.8001  159.5369 H   0  0  0  0  0  0  0  0  0  0  0  0
  153.5673  141.7082  158.7562 H   0  0  0  0  0  0  0  0  0  0  0  0
  152.7118  141.8561  160.2934 H   0  0  0  0  0  0  0  0  0  0  0  0
  147.4312  135.8155  153.3796 H   0  0  0  0  0  0  0  0  0  0  0  0
  146.3532  134.4853  152.8153 H   0  0  0  0  0  0  0  0  0  0  0  0
  146.5595  135.6419  155.6403 H   0  0  0  0  0  0  0  0  0  0  0  0
  145.1726  134.7540  154.9109 H   0  0  0  0  0  0  0  0  0  0  0  0
  146.3188  132.6467  155.1012 H   0  0  0  0  0  0  0  0  0  0  0  0
  147.3954  133.4470  156.2949 H   0  0  0  0  0  0  0  0  0  0  0  0
  1  2  1  0  0  0  0
  1 29  1  0  0  0  0
  1 30  1  0  0  0  0
  1 31  1  0  0  0  0
  2  3  1  0  0  0  0
  3 25  1  0  0  0  0
  3  4  1  0  0  0  0
  3 32  1  0  0  0  0
  4  5  1  0  0  0  0
  4 33  1  0  0  0  0
  4 34  1  0  0  0  0
  5  6  1  0  0  0  0
  5 25  1  0  0  0  0
  5 35  1  0  0  0  0
  6  7  1  0  0  0  0
  6  8  1  0  0  0  0
  7 36  1  0  0  0  0
  7 37  1  0  0  0  0
  7 38  1  0  0  0  0
  8 13  1  0  0  0  0
  8  9  2  0  0  0  0
  9 10  1  0  0  0  0
 10 11  2  0  0  0  0
 10 39  1  0  0  0  0
 11 12  1  0  0  0  0
 12 16  1  0  0  0  0
 12 13  2  0  0  0  0
 13 14  1  0  0  0  0
 14 15  2  0  0  0  0
 15 16  1  0  0  0  0
 15 40  1  0  0  0  0
 16 17  1  0  0  0  0
 17 18  1  0  0  0  0
 17 41  1  0  0  0  0
 17 42  1  0  0  0  0
 18 19  1  0  0  0  0
 18 20  1  0  0  0  0
 18 43  1  0  0  0  0
 19 44  1  0  0  0  0
 20 24  1  0  0  0  0
 20 21  1  0  0  0  0
 20 45  1  0  0  0  0
 21 22  1  0  0  0  0
 21 46  1  0  0  0  0
 21 47  1  0  0  0  0
 22 23  1  0  0  0  0
 22 48  1  0  0  0  0
 22 49  1  0  0  0  0
 23 24  1  0  0  0  0
 23 50  1  0  0  0  0
 23 51  1  0  0  0  0
 25 28  1  0  0  0  0
 25 26  1  0  0  0  0
 26 27  1  0  0  0  0
 26 52  1  0  0  0  0
 26 53  1  0  0  0  0
 27 28  1  0  0  0  0
 27 54  1  0  0  0  0
 27 55  1  0  0  0  0
 28 56  1  0  0  0  0
 28 57  1  0  0  0  0
M  END
> <s_m_source_file>
AV-unprocessed.smi

> <i_m_source_file_index>
276

> <i_lp_mmshare_version>
43012

> <i_f3d_flags>
0

> <s_epik_input>
W0NIMl0xW0NIMl1bQ0gyXUMxMltDQEhdKE9bQ0gzXSlbQ0gyXVtDQEhdMk4oW0NIM10pYyhuW2NIXW4zKWMoYzM0KW5bY0hdbjRbQ0gyXVtDQEhdKFtPSF0pW0NAQEhdNVtDSDJdW0NIMl1bQ0gyXU81

> <s_epik_cmdline>
J2VwaWtfcHl0aG9uJywgJy1waCcsICc3LjAnLCAnLXRuJywgJzgnLCAnLW1hJywgJzIwMCcsICctbWV0YWxfYmluZGluZycsICctaW1hZScsICc8aW5maWxlLm1hZT4nLCAnLW9tYWUnLCAnPG91dGZpbGUubWFlPic=

> <r_lp_tautomer_probability>
1

> <r_epik_Ionization_Penalty>
0.00204117

> <r_epik_Ionization_Penalty_Charging>
0

> <r_epik_Ionization_Penalty_Neutral>
0.00204117

> <r_epik_State_Penalty>
0.00127401

> <r_epik_Charging_Adjusted_Penalty>
0.00127401

> <i_epik_Tot_Q>
0

> <i_epik_Tot_abs_Q>
0

> <r_epik_Metal_State_Penalty>
-0

> <b_epik_Metal_Only>
0

> <s_lp_Force_Field>
OPLS_2005

> <r_lp_Energy>
58.4332

> <b_lp_Chiralities_Consistent>
1

> <s_lp_Variant>
AV-unprocessed.smi:276-3

> <Gold.Version>
5.8.1

> <Gold.Id.Protein>
6NUR|6NUR_protein|mol2

> <Gold.PLP.Fitness>
43.0861

> <Gold.PLP.PLP>
-39.7880

> <Gold.PLP.part.hbond>
-2.0000

> <Gold.PLP.part.metal>
0.0000

> <Gold.PLP.part.buried>
-4.7334

> <Gold.PLP.part.nonpolar>
-33.1711

> <Gold.PLP.part.repulsive>
0.2422

> <Gold.PLP.ligand.clash>
0.0000

> <Gold.PLP.ligand.torsion>
1.7181

> <Gold.PLP.Chemscore.Hbond>
1.9920

> <Gold.PLP.Chemscore.CHOScore>
0.0000

> <Gold.PLP.Chemscore.Metal>
0.0000

> <Gold.Chemscore.Hbonds>
donor molecule, donor type, donor heavy atom, donor atom, acceptor molecule, acceptor atom, score
      L1  H    19    44       P1  8028  0.49
      P1  H 10752 10765       L1    14  1.00

> <Gold.PLP.Chemscore.Internal.Correction>
0.7581

> <Gold.Rescore>
     Score         DG    S(hbond)    S(metal)    S(lipo)     H(rot)  DE(clash)    DE(int)     intcor
     12.75     -15.97       1.87        0.00      95.66       2.72       0.07       3.14       ----

> <Gold.Chemscore.Fitness>
12.7522

> <Gold.Chemscore.DG>
-15.9709

> <Gold.Chemscore.ZeroCoef>
-5.4800

> <Gold.Chemscore.Hbond>
1.8727

> <Gold.Chemscore.Metal>
0.0000

> <Gold.Chemscore.Lipo>
95.6582

> <Gold.Chemscore.Internal_Hbond>
0.0000

> <Gold.Chemscore.DEClash>
0.0742

> <Gold.Chemscore.DEInternal>
3.1445

> <Gold.Chemscore.Rot>
2.7172

> <Gold.Chemscore.Internal.Correction>
   9.000000E+99

> <Gold.Chemscore.Hbonds>
donor molecule, donor type, donor heavy atom, donor atom, acceptor molecule, acceptor atom, score
      L1  H    19    44       P1  8028  0.47
      P1  H 10752 10765       L1    14  0.95

> <Gold.Chemscore.Hbond.Weighted>
-6.2549

> <Gold.Chemscore.Metal.Weighted>
-0.0000

> <Gold.Chemscore.Lipo.Weighted>
-11.1920

> <Gold.Chemscore.Internal_Hbond.Weighted>
0.0000

> <Gold.Chemscore.DEClash.Weighted>
0.0742

> <Gold.Chemscore.DEInternal.Weighted>
3.1445

> <Gold.Chemscore.Rot.Weighted>
6.9560

> <Gold.Chemscore.Internal.Correction.Weighted>
   9.000000E+99

> <Gold.Protein.RotatedTorsions>
[ 6907 6896 6895 6894 ] final  -69.57 input  -60.11 | X-H torsion
[ 7974 7965 7964 7962 ] final -103.76 input  175.53 | X-H torsion
[ 8008 7997 7996 7995 ] final   19.07 input   59.86 | X-H torsion
[ 10167 10162 10161 10158 ] final  107.70 input  -65.29 | X-H torsion
[ 10718 10713 10712 10709 ] final  170.74 input   66.30 | X-H torsion
[ 10763 10752 10751 10750 ] final  172.48 input  -60.55 | X-H torsion
[ 11005 11000 10999 10996 ] final -133.53 input  -57.11 | X-H torsion

> <Gold.Protein.ActiveResidues>
 VAL166  LYS551  ARG553  GLY616  TRP617  ASP618  TYR619  PRO620  LYS621  CYS622 
 ASP623  PHE694  ASN695  SER759  ASP760  ASP761  ALA762  ILE779  LEU786  VAL792 
 PHE793  MET794  SER795  GLU796  ALA797  LYS798  CYS799  TRP800  GLU811  SER814 

> <Gold.Protein.RotatedAtoms>
  150.7299  134.5578  159.5826 H   0  0  0  0  0  0  0  0  0  0  0  0  # atno 6907 bound_to 6896
  152.3049  134.7564  160.0358 H   0  0  0  0  0  0  0  0  0  0  0  0  # atno 6908 bound_to 6896
  151.8132  133.3349  159.3598 H   0  0  0  0  0  0  0  0  0  0  0  0  # atno 6909 bound_to 6896
  145.2518  140.9240  143.3091 H   0  0  0  0  0  0  0  0  0  0  0  0  # atno 7974 bound_to 7965
  154.9153  140.3020  155.5244 H   0  0  0  0  0  0  0  0  0  0  0  0  # atno 8008 bound_to 7997
  156.3013  140.2381  156.4133 H   0  0  0  0  0  0  0  0  0  0  0  0  # atno 8009 bound_to 7997
  154.8384  140.0415  157.1513 H   0  0  0  0  0  0  0  0  0  0  0  0  # atno 8010 bound_to 7997
  139.6906  144.7108  151.1356 H   0  0  0  0  0  0  0  0  0  0  0  0  # atno 10167 bound_to 10162
  157.0037  131.0183  151.2823 H   0  0  0  0  0  0  0  0  0  0  0  0  # atno 10718 bound_to 10713
  154.4266  135.2759  155.1940 H   0  0  0  0  0  0  0  0  0  0  0  0  # atno 10763 bound_to 10752
  154.3864  135.6076  153.5822 H   0  0  0  0  0  0  0  0  0  0  0  0  # atno 10764 bound_to 10752
  152.9834  135.5892  154.4570 H   0  0  0  0  0  0  0  0  0  0  0  0  # atno 10765 bound_to 10752
  140.9073  134.1614  157.4416 H   0  0  0  0  0  0  0  0  0  0  0  0  # atno 11005 bound_to 11000
  144.9496  139.4097  143.6409 LP  0  0  0  0  0  0  0  0  0  0  0  0  # atno 17320 bound_to 7965
  146.3300  139.8497  142.8875 LP  0  0  0  0  0  0  0  0  0  0  0  0  # atno 17321 bound_to 7965
  140.7681  143.5565  150.9146 LP  0  0  0  0  0  0  0  0  0  0  0  0  # atno 17342 bound_to 10162
  139.9243  143.6569  152.3090 LP  0  0  0  0  0  0  0  0  0  0  0  0  # atno 17343 bound_to 10162
  157.5372  130.8096  149.7985 LP  0  0  0  0  0  0  0  0  0  0  0  0  # atno 17370 bound_to 10713
  156.0162  130.3813  150.2105 LP  0  0  0  0  0  0  0  0  0  0  0  0  # atno 17371 bound_to 10713
  139.8751  134.9922  156.5583 LP  0  0  0  0  0  0  0  0  0  0  0  0  # atno 17394 bound_to 11000
  140.8155  133.8395  155.8848 LP  0  0  0  0  0  0  0  0  0  0  0  0  # atno 17395 bound_to 11000

$$$$
