AV-unprocessed.smi:1574|AV-procd|sdf|6338|dock10
  -GOLD-   22720 6553D 1   1.00000     0.00000
 Structure written by MMmdl.
 40 41  0  0  0  0  0  0  0  0  1 V2000
  153.7697  141.1201  160.3705 C   0  0  0  0  0  0  0  0  0  0  0  0
  152.6742  142.1828  160.1872 C   0  0  1  0  0  0  0  0  0  0  0  0
  152.9299  143.3943  161.1070 C   0  0  0  0  0  0  0  0  0  0  0  0
  151.8539  144.4781  160.9372 C   0  0  0  0  0  0  0  0  0  0  0  0
  151.7481  144.9258  159.4729 C   0  0  0  0  0  0  0  0  0  0  0  0
  151.4820  143.7270  158.5530 C   0  0  0  0  0  0  0  0  0  0  0  0
  152.5566  142.6321  158.7136 C   0  0  2  0  0  0  0  0  0  0  0  0
  152.1679  141.5090  157.9345 O   0  0  0  0  0  0  0  0  0  0  0  0
  151.0496  140.8018  158.4503 C   0  0  0  0  0  0  0  0  0  0  0  0
  151.0301  139.3967  157.8329 C   0  0  0  0  0  0  0  0  0  0  0  0
  149.8326  138.6648  158.2320 N   0  0  0  0  0  0  0  0  0  0  0  0
  149.8101  137.3814  158.6247 C   0  0  0  0  0  0  0  0  0  0  0  0
  150.8226  136.6937  158.7530 O   0  0  0  0  0  0  0  0  0  0  0  0
  148.4354  136.7729  158.9013 C   0  0  0  0  0  0  0  0  0  0  0  0
  148.4434  136.0041  160.1322 N   0  0  0  0  0  0  0  0  0  0  0  0
  148.4181  134.6867  160.3432 C   0  0  0  0  0  0  0  0  0  0  0  0
  148.4359  134.3973  161.6355 N   0  0  0  0  0  0  0  0  0  0  0  0
  148.4799  135.6442  162.2364 N   0  0  0  0  0  0  0  0  0  0  0  0
  148.4826  136.6014  161.3498 N   0  0  0  0  0  0  0  0  0  0  0  0
  154.7472  141.5036  160.0767 H   0  0  0  0  0  0  0  0  0  0  0  0
  153.5664  140.2336  159.7693 H   0  0  0  0  0  0  0  0  0  0  0  0
  153.8366  140.8008  161.4108 H   0  0  0  0  0  0  0  0  0  0  0  0
  151.7241  141.7348  160.4826 H   0  0  0  0  0  0  0  0  0  0  0  0
  152.9588  143.0724  162.1487 H   0  0  0  0  0  0  0  0  0  0  0  0
  153.9101  143.8213  160.8902 H   0  0  0  0  0  0  0  0  0  0  0  0
  150.8900  144.0932  161.2726 H   0  0  0  0  0  0  0  0  0  0  0  0
  152.0839  145.3342  161.5721 H   0  0  0  0  0  0  0  0  0  0  0  0
  150.9493  145.6600  159.3647 H   0  0  0  0  0  0  0  0  0  0  0  0
  152.6710  145.4223  159.1708 H   0  0  0  0  0  0  0  0  0  0  0  0
  150.5061  143.3045  158.7903 H   0  0  0  0  0  0  0  0  0  0  0  0
  151.4244  144.0670  157.5191 H   0  0  0  0  0  0  0  0  0  0  0  0
  153.5272  143.0095  158.3844 H   0  0  0  0  0  0  0  0  0  0  0  0
  151.0838  140.7296  159.5381 H   0  0  0  0  0  0  0  0  0  0  0  0
  150.1376  141.3433  158.1967 H   0  0  0  0  0  0  0  0  0  0  0  0
  151.0821  139.4609  156.7450 H   0  0  0  0  0  0  0  0  0  0  0  0
  151.9071  138.8343  158.1547 H   0  0  0  0  0  0  0  0  0  0  0  0
  148.9539  139.1560  158.1552 H   0  0  0  0  0  0  0  0  0  0  0  0
  147.6843  137.5606  158.9776 H   0  0  0  0  0  0  0  0  0  0  0  0
  148.1383  136.1223  158.0775 H   0  0  0  0  0  0  0  0  0  0  0  0
  148.3876  133.9465  159.5576 H   0  0  0  0  0  0  0  0  0  0  0  0
  1  2  1  0  0  0  0
  1 20  1  0  0  0  0
  1 21  1  0  0  0  0
  1 22  1  0  0  0  0
  2  7  1  0  0  0  0
  2  3  1  0  0  0  0
  2 23  1  0  0  0  0
  3  4  1  0  0  0  0
  3 24  1  0  0  0  0
  3 25  1  0  0  0  0
  4  5  1  0  0  0  0
  4 26  1  0  0  0  0
  4 27  1  0  0  0  0
  5  6  1  0  0  0  0
  5 28  1  0  0  0  0
  5 29  1  0  0  0  0
  6  7  1  0  0  0  0
  6 30  1  0  0  0  0
  6 31  1  0  0  0  0
  7  8  1  0  0  0  0
  7 32  1  0  0  0  0
  8  9  1  0  0  0  0
  9 10  1  0  0  0  0
  9 33  1  0  0  0  0
  9 34  1  0  0  0  0
 10 11  1  0  0  0  0
 10 35  1  0  0  0  0
 10 36  1  0  0  0  0
 11 12  1  0  0  0  0
 11 37  1  0  0  0  0
 12 13  2  0  0  0  0
 12 14  1  0  0  0  0
 14 15  1  0  0  0  0
 14 38  1  0  0  0  0
 14 39  1  0  0  0  0
 15 19  1  0  0  0  0
 15 16  1  0  0  0  0
 16 17  2  0  0  0  0
 16 40  1  0  0  0  0
 17 18  1  0  0  0  0
 18 19  2  0  0  0  0
M  END
> <s_m_source_file>
AV-unprocessed.smi

> <i_m_source_file_index>
1574

> <i_lp_mmshare_version>
43012

> <i_f3d_flags>
0

> <s_epik_input>
W0NIM11bQ0BASF0xW0NIMl1bQ0gyXVtDSDJdW0NIMl1bQ0BIXTFPW0NIMl1bQ0gyXVtOSF1DKD1PKVtDSDJdbjJbY0hdbm5uMg==

> <s_epik_cmdline>
J2VwaWtfcHl0aG9uJywgJy1waCcsICc3LjAnLCAnLXRuJywgJzgnLCAnLW1hJywgJzIwMCcsICctbWV0YWxfYmluZGluZycsICctaW1hZScsICc8aW5maWxlLm1hZT4nLCAnLW9tYWUnLCAnPG91dGZpbGUubWFlPic=

> <r_lp_tautomer_probability>
1

> <r_epik_Ionization_Penalty>
1.44269e-06

> <r_epik_Ionization_Penalty_Charging>
0

> <r_epik_Ionization_Penalty_Neutral>
1.44269e-06

> <r_epik_State_Penalty>
-0

> <r_epik_Charging_Adjusted_Penalty>
0

> <i_epik_Tot_Q>
0

> <i_epik_Tot_abs_Q>
0

> <r_epik_Metal_State_Penalty>
-0

> <b_epik_Metal_Only>
0

> <s_lp_Force_Field>
OPLS_2005

> <r_lp_Energy>
11.2802

> <b_lp_Chiralities_Consistent>
1

> <s_lp_Variant>
AV-unprocessed.smi:1574-4

> <Gold.Version>
5.8.1

> <Gold.Id.Protein>
6NUR|6NUR_protein|mol2

> <Gold.PLP.Fitness>
47.5360

> <Gold.PLP.PLP>
-40.3472

> <Gold.PLP.part.hbond>
-3.0000

> <Gold.PLP.part.metal>
0.0000

> <Gold.PLP.part.buried>
-5.8347

> <Gold.PLP.part.nonpolar>
-30.8919

> <Gold.PLP.part.repulsive>
0.1635

> <Gold.PLP.ligand.clash>
0.0000

> <Gold.PLP.ligand.torsion>
0.5950

> <Gold.PLP.Chemscore.Hbond>
2.7680

> <Gold.PLP.Chemscore.CHOScore>
0.0000

> <Gold.PLP.Chemscore.Metal>
0.0000

> <Gold.Chemscore.Hbonds>
donor molecule, donor type, donor heavy atom, donor atom, acceptor molecule, acceptor atom, score
      P1  H  6896  6908       L1    13  0.96
      P1  H  6931  6943       L1    19  1.00

> <Gold.PLP.Chemscore.Internal.Correction>
0.0748

> <Gold.Rescore>
     Score         DG    S(hbond)    S(metal)    S(lipo)     H(rot)  DE(clash)    DE(int)     intcor
     16.27     -16.78       2.48        0.00      89.23       2.90       0.00       0.50       ----

> <Gold.Chemscore.Fitness>
16.2709

> <Gold.Chemscore.DG>
-16.7778

> <Gold.Chemscore.ZeroCoef>
-5.4800

> <Gold.Chemscore.Hbond>
2.4834

> <Gold.Chemscore.Metal>
0.0000

> <Gold.Chemscore.Lipo>
89.2308

> <Gold.Chemscore.Internal_Hbond>
0.0000

> <Gold.Chemscore.DEClash>
0.0048

> <Gold.Chemscore.DEInternal>
0.5021

> <Gold.Chemscore.Rot>
2.9050

> <Gold.Chemscore.Internal.Correction>
   9.000000E+99

> <Gold.Chemscore.Hbonds>
donor molecule, donor type, donor heavy atom, donor atom, acceptor molecule, acceptor atom, score
      P1  H  6896  6908       L1    13  0.90
      P1  H  6931  6943       L1    19  0.94

> <Gold.Chemscore.Hbond.Weighted>
-8.2945

> <Gold.Chemscore.Metal.Weighted>
-0.0000

> <Gold.Chemscore.Lipo.Weighted>
-10.4400

> <Gold.Chemscore.Internal_Hbond.Weighted>
0.0000

> <Gold.Chemscore.DEClash.Weighted>
0.0048

> <Gold.Chemscore.DEInternal.Weighted>
0.5021

> <Gold.Chemscore.Rot.Weighted>
7.4367

> <Gold.Chemscore.Internal.Correction.Weighted>
   9.000000E+99

> <Gold.Protein.RotatedTorsions>
[ 6907 6896 6895 6894 ] final -156.57 input  -60.11 | X-H torsion
[ 7974 7965 7964 7962 ] final  107.38 input  175.53 | X-H torsion
[ 8008 7997 7996 7995 ] final  -47.48 input   59.86 | X-H torsion
[ 10167 10162 10161 10158 ] final  118.26 input  -65.29 | X-H torsion
[ 10718 10713 10712 10709 ] final  -78.64 input   66.30 | X-H torsion
[ 10763 10752 10751 10750 ] final -156.80 input  -60.55 | X-H torsion
[ 11005 11000 10999 10996 ] final   57.09 input  -57.11 | X-H torsion

> <Gold.Protein.ActiveResidues>
 VAL166  LYS551  ARG553  GLY616  TRP617  ASP618  TYR619  PRO620  LYS621  CYS622 
 ASP623  PHE694  ASN695  SER759  ASP760  ASP761  ALA762  ILE779  LEU786  VAL792 
 PHE793  MET794  SER795  GLU796  ALA797  LYS798  CYS799  TRP800  GLU811  SER814 

> <Gold.Protein.RotatedAtoms>
  151.2897  133.4171  159.2632 H   0  0  0  0  0  0  0  0  0  0  0  0  # atno 6907 bound_to 6896
  151.0288  134.9524  159.8110 H   0  0  0  0  0  0  0  0  0  0  0  0  # atno 6908 bound_to 6896
  152.5341  134.2858  159.9077 H   0  0  0  0  0  0  0  0  0  0  0  0  # atno 6909 bound_to 6896
  145.2944  139.2590  143.3847 H   0  0  0  0  0  0  0  0  0  0  0  0  # atno 7974 bound_to 7965
  154.4017  140.1345  156.4182 H   0  0  0  0  0  0  0  0  0  0  0  0  # atno 8008 bound_to 7997
  155.7668  140.3485  155.5206 H   0  0  0  0  0  0  0  0  0  0  0  0  # atno 8009 bound_to 7997
  155.8806  140.0986  157.1478 H   0  0  0  0  0  0  0  0  0  0  0  0  # atno 8010 bound_to 7997
  139.6123  144.7084  151.2816 H   0  0  0  0  0  0  0  0  0  0  0  0  # atno 10167 bound_to 10162
  156.0112  130.4523  150.3527 H   0  0  0  0  0  0  0  0  0  0  0  0  # atno 10718 bound_to 10713
  154.7685  135.3138  154.8237 H   0  0  0  0  0  0  0  0  0  0  0  0  # atno 10763 bound_to 10752
  153.8979  135.6819  153.4761 H   0  0  0  0  0  0  0  0  0  0  0  0  # atno 10764 bound_to 10752
  153.1295  135.4786  154.9259 H   0  0  0  0  0  0  0  0  0  0  0  0  # atno 10765 bound_to 10752
  140.0479  134.5779  155.9300 H   0  0  0  0  0  0  0  0  0  0  0  0  # atno 11005 bound_to 11000
  146.3174  140.3443  142.8650 LP  0  0  0  0  0  0  0  0  0  0  0  0  # atno 17320 bound_to 7965
  144.9146  140.7797  143.5786 LP  0  0  0  0  0  0  0  0  0  0  0  0  # atno 17321 bound_to 7965
  140.7327  143.6814  150.7998 LP  0  0  0  0  0  0  0  0  0  0  0  0  # atno 17342 bound_to 10162
  140.0411  143.5345  152.2717 LP  0  0  0  0  0  0  0  0  0  0  0  0  # atno 17343 bound_to 10162
  157.1618  131.0347  151.2837 LP  0  0  0  0  0  0  0  0  0  0  0  0  # atno 17370 bound_to 10713
  157.4304  130.7487  149.6985 LP  0  0  0  0  0  0  0  0  0  0  0  0  # atno 17371 bound_to 10713
  141.1916  133.6572  156.5463 LP  0  0  0  0  0  0  0  0  0  0  0  0  # atno 17394 bound_to 11000
  140.3964  134.7395  157.4753 LP  0  0  0  0  0  0  0  0  0  0  0  0  # atno 17395 bound_to 11000

$$$$
