AV-unprocessed.smi:249|AV-procd|sdf|1906|dock10
  -GOLD-   2262020593D 1   1.00000     0.00000
 Structure written by MMmdl.
 64 67  0  0  0  0  0  0  0  0  2 V2000
  147.1999  133.0523  152.6093 C   0  0  0  0  0  0  0  0  0  0  0  0
  146.1990  134.1077  152.1108 C   0  0  0  0  0  0  0  0  0  0  0  0
  146.4277  135.4637  152.6894 N   0  3  2  0  0  0  0  0  0  0  0  0
  146.1773  135.4880  154.1592 C   0  0  0  0  0  0  0  0  0  0  0  0
  146.5498  136.8380  154.7865 C   0  0  0  0  0  0  0  0  0  0  0  0
  145.7649  137.9830  154.1244 C   0  0  1  0  0  0  0  0  0  0  0  0
  146.0313  139.2976  154.7293 N   0  0  0  0  0  0  0  0  0  0  0  0
  145.3038  139.6320  155.9485 C   0  0  0  0  0  0  0  0  0  0  0  0
  147.3180  139.7223  154.7252 C   0  0  0  0  0  0  0  0  0  0  0  0
  147.8413  140.2897  153.6064 N   0  0  0  0  0  0  0  0  0  0  0  0
  149.0864  140.7754  153.6231 C   0  0  0  0  0  0  0  0  0  0  0  0
  149.9557  140.8086  154.6355 N   0  0  0  0  0  0  0  0  0  0  0  0
  149.4382  140.2207  155.7520 C   0  0  0  0  0  0  0  0  0  0  0  0
  148.1479  139.6363  155.8746 C   0  0  0  0  0  0  0  0  0  0  0  0
  147.9771  139.1179  157.1523 N   0  0  0  0  0  0  0  0  0  0  0  0
  149.0944  139.4060  157.7620 C   0  0  0  0  0  0  0  0  0  0  0  0
  150.0092  140.1052  157.0066 N   0  0  0  0  0  0  0  0  0  0  0  0
  151.3014  140.5972  157.4447 C   0  0  0  0  0  0  0  0  0  0  0  0
  151.2337  141.7229  158.5160 C   0  0  2  0  0  0  0  0  0  0  0  0
  150.7494  143.0301  157.8422 C   0  0  0  0  0  0  0  0  0  0  0  0
  149.4978  142.8520  157.2110 O   0  0  0  0  0  0  0  0  0  0  0  0
  152.5771  141.9310  159.2837 C   0  0  1  0  0  0  0  0  0  0  0  0
  152.4711  142.7349  160.5721 C   0  0  0  0  0  0  0  0  0  0  0  0
  153.7583  142.3670  161.2938 C   0  0  0  0  0  0  0  0  0  0  0  0
  153.9128  140.9817  161.0346 O   0  0  0  0  0  0  0  0  0  0  0  0
  153.2558  140.6519  159.8142 C   0  0  0  0  0  0  0  0  0  0  0  0
  146.0215  137.9314  152.6059 C   0  0  0  0  0  0  0  0  0  0  0  0
  145.6783  136.5586  151.9909 C   0  0  1  0  0  0  0  0  0  0  0  0
  145.9620  136.6235  150.4751 C   0  0  0  0  0  0  0  0  0  0  0  0
  147.0921  132.1288  152.0397 H   0  0  0  0  0  0  0  0  0  0  0  0
  147.0471  132.7935  153.6562 H   0  0  0  0  0  0  0  0  0  0  0  0
  148.2283  133.3937  152.4877 H   0  0  0  0  0  0  0  0  0  0  0  0
  146.3142  134.1322  151.0299 H   0  0  0  0  0  0  0  0  0  0  0  0
  145.1751  133.7864  152.3075 H   0  0  0  0  0  0  0  0  0  0  0  0
  145.1278  135.2614  154.3542 H   0  0  0  0  0  0  0  0  0  0  0  0
  146.7623  134.7215  154.6639 H   0  0  0  0  0  0  0  0  0  0  0  0
  146.3450  136.8036  155.8566 H   0  0  0  0  0  0  0  0  0  0  0  0
  147.6234  136.9960  154.6797 H   0  0  0  0  0  0  0  0  0  0  0  0
  144.7022  137.7910  154.2792 H   0  0  0  0  0  0  0  0  0  0  0  0
  145.4237  140.6889  156.1898 H   0  0  0  0  0  0  0  0  0  0  0  0
  145.6552  139.0454  156.7980 H   0  0  0  0  0  0  0  0  0  0  0  0
  144.2385  139.4393  155.8195 H   0  0  0  0  0  0  0  0  0  0  0  0
  149.4298  141.2146  152.6979 H   0  0  0  0  0  0  0  0  0  0  0  0
  149.2692  139.1439  158.7954 H   0  0  0  0  0  0  0  0  0  0  0  0
  151.8761  139.7542  157.8304 H   0  0  0  0  0  0  0  0  0  0  0  0
  151.8288  140.9442  156.5557 H   0  0  0  0  0  0  0  0  0  0  0  0
  150.4776  141.4491  159.2533 H   0  0  0  0  0  0  0  0  0  0  0  0
  150.6134  143.8293  158.5696 H   0  0  0  0  0  0  0  0  0  0  0  0
  151.4763  143.3825  157.1098 H   0  0  0  0  0  0  0  0  0  0  0  0
  149.2313  143.6760  156.8327 H   0  0  0  0  0  0  0  0  0  0  0  0
  153.2803  142.4511  158.6311 H   0  0  0  0  0  0  0  0  0  0  0  0
  152.3887  143.8093  160.4038 H   0  0  0  0  0  0  0  0  0  0  0  0
  151.6106  142.4098  161.1591 H   0  0  0  0  0  0  0  0  0  0  0  0
  154.6047  142.9080  160.8681 H   0  0  0  0  0  0  0  0  0  0  0  0
  153.7185  142.5752  162.3631 H   0  0  0  0  0  0  0  0  0  0  0  0
  152.5266  139.8702  160.0288 H   0  0  0  0  0  0  0  0  0  0  0  0
  153.9832  140.2508  159.1100 H   0  0  0  0  0  0  0  0  0  0  0  0
  145.4301  138.7058  152.1166 H   0  0  0  0  0  0  0  0  0  0  0  0
  147.0679  138.1520  152.3895 H   0  0  0  0  0  0  0  0  0  0  0  0
  144.6108  136.3783  152.1288 H   0  0  0  0  0  0  0  0  0  0  0  0
  145.5284  137.5231  150.0371 H   0  0  0  0  0  0  0  0  0  0  0  0
  145.5243  135.7870  149.9316 H   0  0  0  0  0  0  0  0  0  0  0  0
  147.0330  136.6453  150.2696 H   0  0  0  0  0  0  0  0  0  0  0  0
  147.4085  135.6663  152.5585 H   0  0  0  0  0  0  0  0  0  0  0  0
  1  2  1  0  0  0  0
  1 30  1  0  0  0  0
  1 31  1  0  0  0  0
  1 32  1  0  0  0  0
  2  3  1  0  0  0  0
  2 33  1  0  0  0  0
  2 34  1  0  0  0  0
  3 28  1  0  0  0  0
  3  4  1  0  0  0  0
  3 64  1  0  0  0  0
  4  5  1  0  0  0  0
  4 35  1  0  0  0  0
  4 36  1  0  0  0  0
  5  6  1  0  0  0  0
  5 37  1  0  0  0  0
  5 38  1  0  0  0  0
  6  7  1  0  0  0  0
  6 27  1  0  0  0  0
  6 39  1  0  0  0  0
  7  8  1  0  0  0  0
  7  9  1  0  0  0  0
  8 40  1  0  0  0  0
  8 41  1  0  0  0  0
  8 42  1  0  0  0  0
  9 14  1  0  0  0  0
  9 10  2  0  0  0  0
 10 11  1  0  0  0  0
 11 12  2  0  0  0  0
 11 43  1  0  0  0  0
 12 13  1  0  0  0  0
 13 17  1  0  0  0  0
 13 14  2  0  0  0  0
 14 15  1  0  0  0  0
 15 16  2  0  0  0  0
 16 17  1  0  0  0  0
 16 44  1  0  0  0  0
 17 18  1  0  0  0  0
 18 19  1  0  0  0  0
 18 45  1  0  0  0  0
 18 46  1  0  0  0  0
 19 20  1  0  0  0  0
 19 22  1  0  0  0  0
 19 47  1  0  0  0  0
 20 21  1  0  0  0  0
 20 48  1  0  0  0  0
 20 49  1  0  0  0  0
 21 50  1  0  0  0  0
 22 26  1  0  0  0  0
 22 23  1  0  0  0  0
 22 51  1  0  0  0  0
 23 24  1  0  0  0  0
 23 52  1  0  0  0  0
 23 53  1  0  0  0  0
 24 25  1  0  0  0  0
 24 54  1  0  0  0  0
 24 55  1  0  0  0  0
 25 26  1  0  0  0  0
 26 56  1  0  0  0  0
 26 57  1  0  0  0  0
 27 28  1  0  0  0  0
 27 58  1  0  0  0  0
 27 59  1  0  0  0  0
 28 29  1  0  0  0  0
 28 60  1  0  0  0  0
 29 61  1  0  0  0  0
 29 62  1  0  0  0  0
 29 63  1  0  0  0  0
M  CHG  1   3   1
M  END
> <s_m_source_file>
AV-unprocessed.smi

> <i_m_source_file_index>
249

> <i_lp_mmshare_version>
43012

> <i_f3d_flags>
0

> <s_epik_input>
W0NIM11bQ0gyXU4xW0NIMl1bQ0gyXVtDQEhdKFtDSDJdW0NASF0xW0NIM10pTihbQ0gzXSljKG5bY0hdbjIpYyhjMjMpbltjSF1uM1tDSDJdW0NASF0oW0NIMl1bT0hdKVtDQEBIXTRbQ0gyXVtDSDJdT1tDSDJdNA==

> <s_epik_cmdline>
J2VwaWtfcHl0aG9uJywgJy1waCcsICc3LjAnLCAnLXRuJywgJzgnLCAnLW1hJywgJzIwMCcsICctbWV0YWxfYmluZGluZycsICctaW1hZScsICc8aW5maWxlLm1hZT4nLCAnLW9tYWUnLCAnPG91dGZpbGUubWFlPic=

> <r_lp_tautomer_probability>
1

> <r_epik_Ionization_Penalty>
0.00294688

> <r_epik_Ionization_Penalty_Charging>
0.00169971

> <r_epik_Ionization_Penalty_Neutral>
0.00124717

> <r_epik_State_Penalty>
-0

> <r_epik_Charging_Adjusted_Penalty>
0.00169971

> <i_epik_Tot_Q>
1

> <i_epik_Tot_abs_Q>
1

> <r_epik_Metal_State_Penalty>
-0

> <b_epik_Metal_Only>
0

> <s_lp_Force_Field>
OPLS_2005

> <r_lp_Energy>
53.7377

> <b_lp_Chiralities_Consistent>
1

> <s_lp_Variant>
AV-unprocessed.smi:249-9

> <Gold.Version>
5.8.1

> <Gold.Id.Protein>
6NUR|6NUR_protein|mol2

> <Gold.PLP.Fitness>
46.2239

> <Gold.PLP.PLP>
-35.1865

> <Gold.PLP.part.hbond>
-3.0000

> <Gold.PLP.part.metal>
0.0000

> <Gold.PLP.part.buried>
1.6745

> <Gold.PLP.part.nonpolar>
-34.6594

> <Gold.PLP.part.repulsive>
0.5719

> <Gold.PLP.ligand.clash>
0.0000

> <Gold.PLP.ligand.torsion>
1.1675

> <Gold.PLP.Chemscore.Hbond>
3.4759

> <Gold.PLP.Chemscore.CHOScore>
0.6847

> <Gold.PLP.Chemscore.Metal>
0.0000

> <Gold.Chemscore.Hbonds>
donor molecule, donor type, donor heavy atom, donor atom, acceptor molecule, acceptor atom, score
      L1  H     3    64       P1  7948  2.00
      L1  H    21    50       P1  8028  1.00
      P1  H  7989  7998       L1    12  0.59
      L1  C    11    43       P1  7957  0.58

> <Gold.PLP.Chemscore.Internal.Correction>
0.8906

> <Gold.Rescore>
     Score         DG    S(hbond)    S(metal)    S(lipo)     H(rot)  DE(clash)    DE(int)     intcor
      9.30     -15.71       1.88        0.00      97.22       2.90       2.34       4.07       ----

> <Gold.Chemscore.Fitness>
9.2971

> <Gold.Chemscore.DG>
-15.7061

> <Gold.Chemscore.ZeroCoef>
-5.4800

> <Gold.Chemscore.Hbond>
1.8795

> <Gold.Chemscore.Metal>
0.0000

> <Gold.Chemscore.Lipo>
97.2154

> <Gold.Chemscore.Internal_Hbond>
0.0000

> <Gold.Chemscore.DEClash>
2.3440

> <Gold.Chemscore.DEInternal>
4.0651

> <Gold.Chemscore.Rot>
2.9006

> <Gold.Chemscore.Internal.Correction>
   9.000000E+99

> <Gold.Chemscore.Hbonds>
donor molecule, donor type, donor heavy atom, donor atom, acceptor molecule, acceptor atom, score
      L1  H     3    64       P1  7948  1.00
      L1  H    21    50       P1  8028  0.83
      P1  H  7989  7998       L1    12  0.08

> <Gold.Chemscore.Hbond.Weighted>
-6.2776

> <Gold.Chemscore.Metal.Weighted>
-0.0000

> <Gold.Chemscore.Lipo.Weighted>
-11.3742

> <Gold.Chemscore.Internal_Hbond.Weighted>
0.0000

> <Gold.Chemscore.DEClash.Weighted>
2.3440

> <Gold.Chemscore.DEInternal.Weighted>
4.0651

> <Gold.Chemscore.Rot.Weighted>
7.4256

> <Gold.Chemscore.Internal.Correction.Weighted>
   9.000000E+99

> <Gold.Protein.RotatedTorsions>
[ 6907 6896 6895 6894 ] final -126.48 input  -60.11 | X-H torsion
[ 7974 7965 7964 7962 ] final  -87.63 input  175.53 | X-H torsion
[ 8008 7997 7996 7995 ] final -175.14 input   59.86 | X-H torsion
[ 10167 10162 10161 10158 ] final   -2.50 input  -65.29 | X-H torsion
[ 10718 10713 10712 10709 ] final -145.43 input   66.30 | X-H torsion
[ 10763 10752 10751 10750 ] final  -79.38 input  -60.55 | X-H torsion
[ 11005 11000 10999 10996 ] final  -36.15 input  -57.11 | X-H torsion

> <Gold.Protein.ActiveResidues>
 VAL166  LYS551  ARG553  GLY616  TRP617  ASP618  TYR619  PRO620  LYS621  CYS622 
 ASP623  PHE694  ASN695  SER759  ASP760  ASP761  ALA762  ILE779  LEU786  VAL792 
 PHE793  MET794  SER795  GLU796  ALA797  LYS798  CYS799  TRP800  GLU811  SER814 

> <Gold.Protein.RotatedAtoms>
  150.8973  133.7164  159.2888 H   0  0  0  0  0  0  0  0  0  0  0  0  # atno 6907 bound_to 6896
  151.4694  135.1043  159.9757 H   0  0  0  0  0  0  0  0  0  0  0  0  # atno 6908 bound_to 6896
  152.4856  133.8317  159.7162 H   0  0  0  0  0  0  0  0  0  0  0  0  # atno 6909 bound_to 6896
  145.4639  140.9560  143.1954 H   0  0  0  0  0  0  0  0  0  0  0  0  # atno 7974 bound_to 7965
  155.9789  140.1178  157.0745 H   0  0  0  0  0  0  0  0  0  0  0  0  # atno 8008 bound_to 7997
  154.4177  140.1148  156.5476 H   0  0  0  0  0  0  0  0  0  0  0  0  # atno 8009 bound_to 7997
  155.6497  140.3473  155.4746 H   0  0  0  0  0  0  0  0  0  0  0  0  # atno 8010 bound_to 7997
  140.6853  143.6649  150.8234 H   0  0  0  0  0  0  0  0  0  0  0  0  # atno 10167 bound_to 10162
  156.3824  130.7844  151.2037 H   0  0  0  0  0  0  0  0  0  0  0  0  # atno 10718 bound_to 10713
  154.5379  135.5697  153.6814 H   0  0  0  0  0  0  0  0  0  0  0  0  # atno 10763 bound_to 10752
  152.9956  135.6220  154.2542 H   0  0  0  0  0  0  0  0  0  0  0  0  # atno 10764 bound_to 10752
  154.2471  135.2860  155.2811 H   0  0  0  0  0  0  0  0  0  0  0  0  # atno 10765 bound_to 10752
  140.9852  133.7034  156.1753 H   0  0  0  0  0  0  0  0  0  0  0  0  # atno 11005 bound_to 11000
  144.7986  139.6185  143.7082 LP  0  0  0  0  0  0  0  0  0  0  0  0  # atno 17320 bound_to 7965
  146.2435  139.6051  142.9475 LP  0  0  0  0  0  0  0  0  0  0  0  0  # atno 17321 bound_to 7965
  140.0356  143.5399  152.2741 LP  0  0  0  0  0  0  0  0  0  0  0  0  # atno 17342 bound_to 10162
  139.6207  144.7628  151.2746 LP  0  0  0  0  0  0  0  0  0  0  0  0  # atno 17343 bound_to 10162
  157.7493  131.0340  150.4297 LP  0  0  0  0  0  0  0  0  0  0  0  0  # atno 17370 bound_to 10713
  156.4544  130.4018  149.6616 LP  0  0  0  0  0  0  0  0  0  0  0  0  # atno 17371 bound_to 10713
  140.7125  134.4446  157.5580 LP  0  0  0  0  0  0  0  0  0  0  0  0  # atno 17394 bound_to 11000
  139.8967  134.8652  156.2074 LP  0  0  0  0  0  0  0  0  0  0  0  0  # atno 17395 bound_to 11000

$$$$
