AV-unprocessed.smi:82|AV-procd|sdf|799|dock9
  -GOLD-   2262017183D 1   1.00000     0.00000
 Structure written by MMmdl.
 58 61  0  0  0  0  0  0  0  0  1 V2000
  152.2371  144.4325  158.5331 C   0  0  0  0  0  0  0  0  0  0  0  0
  151.7248  143.8141  157.3656 O   0  0  0  0  0  0  0  0  0  0  0  0
  151.1705  142.5354  157.6257 C   0  0  0  0  0  0  0  0  0  0  0  0
  150.6504  141.9483  156.3030 C   0  0  0  0  0  0  0  0  0  0  0  0
  150.0016  140.6341  156.4054 N   0  0  0  0  0  0  0  0  0  0  0  0
  148.5435  140.7656  156.2885 C   0  0  0  0  0  0  0  0  0  0  0  0
  147.8105  139.4234  156.4209 C   0  0  0  0  0  0  0  0  0  0  0  0
  148.3104  138.4889  155.4177 N   0  0  0  0  0  0  0  0  0  0  0  0
  147.6111  137.3454  155.2032 C   0  0  0  0  0  0  0  0  0  0  0  0
  147.5575  136.3887  156.1688 N   0  0  0  0  0  0  0  0  0  0  0  0
  146.8821  135.2548  155.9602 C   0  0  0  0  0  0  0  0  0  0  0  0
  146.1931  134.8808  154.8808 N   0  0  0  0  0  0  0  0  0  0  0  0
  146.2299  135.8411  153.9131 C   0  0  0  0  0  0  0  0  0  0  0  0
  146.9131  137.0881  153.9893 C   0  0  0  0  0  0  0  0  0  0  0  0
  146.7266  137.8008  152.8105 N   0  0  0  0  0  0  0  0  0  0  0  0
  145.9904  137.0141  152.0745 C   0  0  0  0  0  0  0  0  0  0  0  0
  145.6210  135.8294  152.6701 N   0  0  0  0  0  0  0  0  0  0  0  0
  144.8501  134.7766  152.0767 C   0  0  0  0  0  0  0  0  0  0  0  0
  144.8089  133.3796  152.6990 C   0  0  0  0  0  0  0  0  0  0  0  0
  144.6627  132.7637  151.2887 C   0  0  0  0  0  0  0  0  0  0  0  0
  145.4909  131.4973  151.0101 C   0  0  0  0  0  0  0  0  0  0  0  0
  146.7887  131.5836  151.5612 O   0  0  0  0  0  0  0  0  0  0  0  0
  143.2228  132.5551  150.7735 C   0  0  0  0  0  0  0  0  0  0  0  0
  143.1937  132.0167  149.4676 O   0  0  0  0  0  0  0  0  0  0  0  0
  145.3169  134.0752  150.7987 C   0  0  0  0  0  0  0  0  0  0  0  0
  149.7595  138.3244  155.4796 C   0  0  0  0  0  0  0  0  0  0  0  0
  150.4798  139.6886  155.3742 C   0  0  2  0  0  0  0  0  0  0  0  0
  151.9979  139.4209  155.4111 C   0  0  0  0  0  0  0  0  0  0  0  0
  152.6599  145.4041  158.2780 H   0  0  0  0  0  0  0  0  0  0  0  0
  153.0266  143.8303  158.9843 H   0  0  0  0  0  0  0  0  0  0  0  0
  151.4513  144.5910  159.2729 H   0  0  0  0  0  0  0  0  0  0  0  0
  151.9320  141.8805  158.0524 H   0  0  0  0  0  0  0  0  0  0  0  0
  150.3666  142.6352  158.3554 H   0  0  0  0  0  0  0  0  0  0  0  0
  149.9759  142.6610  155.8263 H   0  0  0  0  0  0  0  0  0  0  0  0
  151.5196  141.8732  155.6523 H   0  0  0  0  0  0  0  0  0  0  0  0
  148.1589  141.4260  157.0642 H   0  0  0  0  0  0  0  0  0  0  0  0
  148.2875  141.2262  155.3328 H   0  0  0  0  0  0  0  0  0  0  0  0
  147.9611  139.0094  157.4189 H   0  0  0  0  0  0  0  0  0  0  0  0
  146.7389  139.5785  156.2887 H   0  0  0  0  0  0  0  0  0  0  0  0
  146.8944  134.5465  156.7754 H   0  0  0  0  0  0  0  0  0  0  0  0
  145.6881  137.2837  151.0728 H   0  0  0  0  0  0  0  0  0  0  0  0
  143.8411  135.1743  151.9549 H   0  0  0  0  0  0  0  0  0  0  0  0
  145.7505  133.1076  153.1803 H   0  0  0  0  0  0  0  0  0  0  0  0
  143.9665  133.2090  153.3699 H   0  0  0  0  0  0  0  0  0  0  0  0
  144.9981  130.6066  151.4005 H   0  0  0  0  0  0  0  0  0  0  0  0
  145.6046  131.3378  149.9373 H   0  0  0  0  0  0  0  0  0  0  0  0
  147.3845  131.1045  151.0061 H   0  0  0  0  0  0  0  0  0  0  0  0
  142.6693  131.8730  151.4190 H   0  0  0  0  0  0  0  0  0  0  0  0
  142.6645  133.4918  150.7776 H   0  0  0  0  0  0  0  0  0  0  0  0
  143.3580  132.7133  148.8509 H   0  0  0  0  0  0  0  0  0  0  0  0
  144.8951  134.4848  149.8803 H   0  0  0  0  0  0  0  0  0  0  0  0
  146.4051  134.0176  150.7333 H   0  0  0  0  0  0  0  0  0  0  0  0
  150.0173  137.8358  156.4207 H   0  0  0  0  0  0  0  0  0  0  0  0
  150.1090  137.6682  154.6835 H   0  0  0  0  0  0  0  0  0  0  0  0
  150.2481  140.1032  154.3917 H   0  0  0  0  0  0  0  0  0  0  0  0
  152.2709  138.6215  154.7217 H   0  0  0  0  0  0  0  0  0  0  0  0
  152.3241  139.1212  156.4075 H   0  0  0  0  0  0  0  0  0  0  0  0
  152.5790  140.2922  155.1107 H   0  0  0  0  0  0  0  0  0  0  0  0
  1  2  1  0  0  0  0
  1 29  1  0  0  0  0
  1 30  1  0  0  0  0
  1 31  1  0  0  0  0
  2  3  1  0  0  0  0
  3  4  1  0  0  0  0
  3 32  1  0  0  0  0
  3 33  1  0  0  0  0
  4  5  1  0  0  0  0
  4 34  1  0  0  0  0
  4 35  1  0  0  0  0
  5 27  1  0  0  0  0
  5  6  1  0  0  0  0
  6  7  1  0  0  0  0
  6 36  1  0  0  0  0
  6 37  1  0  0  0  0
  7  8  1  0  0  0  0
  7 38  1  0  0  0  0
  7 39  1  0  0  0  0
  8  9  1  0  0  0  0
  8 26  1  0  0  0  0
  9 14  1  0  0  0  0
  9 10  2  0  0  0  0
 10 11  1  0  0  0  0
 11 12  2  0  0  0  0
 11 40  1  0  0  0  0
 12 13  1  0  0  0  0
 13 17  1  0  0  0  0
 13 14  2  0  0  0  0
 14 15  1  0  0  0  0
 15 16  2  0  0  0  0
 16 17  1  0  0  0  0
 16 41  1  0  0  0  0
 17 18  1  0  0  0  0
 18 25  1  0  0  0  0
 18 19  1  0  0  0  0
 18 42  1  0  0  0  0
 19 20  1  0  0  0  0
 19 43  1  0  0  0  0
 19 44  1  0  0  0  0
 20 21  1  0  0  0  0
 20 23  1  0  0  0  0
 20 25  1  0  0  0  0
 21 22  1  0  0  0  0
 21 45  1  0  0  0  0
 21 46  1  0  0  0  0
 22 47  1  0  0  0  0
 23 24  1  0  0  0  0
 23 48  1  0  0  0  0
 23 49  1  0  0  0  0
 24 50  1  0  0  0  0
 25 51  1  0  0  0  0
 25 52  1  0  0  0  0
 26 27  1  0  0  0  0
 26 53  1  0  0  0  0
 26 54  1  0  0  0  0
 27 28  1  0  0  0  0
 27 55  1  0  0  0  0
 28 56  1  0  0  0  0
 28 57  1  0  0  0  0
 28 58  1  0  0  0  0
M  END
> <s_m_source_file>
AV-unprocessed.smi

> <i_m_source_file_index>
82

> <i_lp_mmshare_version>
43012

> <i_f3d_flags>
0

> <s_epik_input>
W0NIM11PW0NIMl1bQ0gyXU4xW0NIMl1bQ0gyXU4oW0NIMl1bQ0BIXTFbQ0gzXSljKG5bY0hdbjIpYyhjMjMpbltjSF1uM1tDSF0oW0NIMl00KVtDSDJdQzQoW0NIMl1bT0hdKVtDSDJdW09IXQ==

> <s_epik_cmdline>
J2VwaWtfcHl0aG9uJywgJy1waCcsICc3LjAnLCAnLXRuJywgJzgnLCAnLW1hJywgJzIwMCcsICctbWV0YWxfYmluZGluZycsICctaW1hZScsICc8aW5maWxlLm1hZT4nLCAnLW9tYWUnLCAnPG91dGZpbGUubWFlPic=

> <r_lp_tautomer_probability>
1

> <r_epik_Ionization_Penalty>
0.549054

> <r_epik_Ionization_Penalty_Charging>
0

> <r_epik_Ionization_Penalty_Neutral>
0.549054

> <r_epik_State_Penalty>
0.552556

> <r_epik_Charging_Adjusted_Penalty>
0.552556

> <i_epik_Tot_Q>
0

> <i_epik_Tot_abs_Q>
0

> <r_epik_Metal_State_Penalty>
0.545162

> <b_epik_Metal_Only>
0

> <s_lp_Force_Field>
OPLS_2005

> <r_lp_Energy>
68.3354

> <b_lp_Chiralities_Consistent>
1

> <s_lp_Variant>
AV-unprocessed.smi:82-6

> <Gold.Version>
5.8.1

> <Gold.Id.Protein>
6NUR|6NUR_protein|mol2

> <Gold.PLP.Fitness>
44.1111

> <Gold.PLP.PLP>
-36.7729

> <Gold.PLP.part.hbond>
-3.2363

> <Gold.PLP.part.metal>
0.0000

> <Gold.PLP.part.buried>
-3.6273

> <Gold.PLP.part.nonpolar>
-31.8071

> <Gold.PLP.part.repulsive>
1.3515

> <Gold.PLP.ligand.clash>
0.0000

> <Gold.PLP.ligand.torsion>
1.2092

> <Gold.PLP.Chemscore.Hbond>
1.9833

> <Gold.PLP.Chemscore.CHOScore>
1.0000

> <Gold.PLP.Chemscore.Metal>
0.0000

> <Gold.Chemscore.Hbonds>
donor molecule, donor type, donor heavy atom, donor atom, acceptor molecule, acceptor atom, score
      L1  H    22    47       P1 10747  1.00
      P1  H 10785 10796       L1    24  1.00
      L1  C    16    41       P1 10171  0.92

> <Gold.PLP.Chemscore.Internal.Correction>
0.8069

> <Gold.Rescore>
     Score         DG    S(hbond)    S(metal)    S(lipo)     H(rot)  DE(clash)    DE(int)     intcor
      9.97     -12.74       1.95        0.00      90.45       3.84       0.53       2.23       ----

> <Gold.Chemscore.Fitness>
9.9746

> <Gold.Chemscore.DG>
-12.7352

> <Gold.Chemscore.ZeroCoef>
-5.4800

> <Gold.Chemscore.Hbond>
1.9498

> <Gold.Chemscore.Metal>
0.0000

> <Gold.Chemscore.Lipo>
90.4455

> <Gold.Chemscore.Internal_Hbond>
0.0000

> <Gold.Chemscore.DEClash>
0.5282

> <Gold.Chemscore.DEInternal>
2.2324

> <Gold.Chemscore.Rot>
3.8434

> <Gold.Chemscore.Internal.Correction>
   9.000000E+99

> <Gold.Chemscore.Hbonds>
donor molecule, donor type, donor heavy atom, donor atom, acceptor molecule, acceptor atom, score
      L1  H    22    47       P1 10747  0.96
      P1  H 10785 10796       L1    24  0.89

> <Gold.Chemscore.Hbond.Weighted>
-6.5122

> <Gold.Chemscore.Metal.Weighted>
-0.0000

> <Gold.Chemscore.Lipo.Weighted>
-10.5821

> <Gold.Chemscore.Internal_Hbond.Weighted>
0.0000

> <Gold.Chemscore.DEClash.Weighted>
0.5282

> <Gold.Chemscore.DEInternal.Weighted>
2.2324

> <Gold.Chemscore.Rot.Weighted>
9.8391

> <Gold.Chemscore.Internal.Correction.Weighted>
   9.000000E+99

> <Gold.Protein.RotatedTorsions>
[ 6907 6896 6895 6894 ] final -166.38 input  -60.11 | X-H torsion
[ 7974 7965 7964 7962 ] final  -97.06 input  175.53 | X-H torsion
[ 8008 7997 7996 7995 ] final  -10.20 input   59.86 | X-H torsion
[ 10167 10162 10161 10158 ] final  165.49 input  -65.29 | X-H torsion
[ 10718 10713 10712 10709 ] final -105.33 input   66.30 | X-H torsion
[ 10763 10752 10751 10750 ] final -169.18 input  -60.55 | X-H torsion
[ 11005 11000 10999 10996 ] final -122.95 input  -57.11 | X-H torsion

> <Gold.Protein.ActiveResidues>
 VAL166  LYS551  ARG553  GLY616  TRP617  ASP618  TYR619  PRO620  LYS621  CYS622 
 ASP623  PHE694  ASN695  SER759  ASP760  ASP761  ALA762  ILE779  LEU786  VAL792 
 PHE793  MET794  SER795  GLU796  ALA797  LYS798  CYS799  TRP800  GLU811  SER814 

> <Gold.Protein.RotatedAtoms>
  151.4426  133.3639  159.2783 H   0  0  0  0  0  0  0  0  0  0  0  0  # atno 6907 bound_to 6896
  150.9147  134.8566  159.7459 H   0  0  0  0  0  0  0  0  0  0  0  0  # atno 6908 bound_to 6896
  152.4951  134.4359  159.9579 H   0  0  0  0  0  0  0  0  0  0  0  0  # atno 6909 bound_to 6896
  145.3387  140.9455  143.2620 H   0  0  0  0  0  0  0  0  0  0  0  0  # atno 7974 bound_to 7965
  154.5576  140.2335  155.8385 H   0  0  0  0  0  0  0  0  0  0  0  0  # atno 8008 bound_to 7997
  156.2002  140.3054  155.9471 H   0  0  0  0  0  0  0  0  0  0  0  0  # atno 8009 bound_to 7997
  155.2949  140.0428  157.3016 H   0  0  0  0  0  0  0  0  0  0  0  0  # atno 8010 bound_to 7997
  139.4907  144.4126  151.9281 H   0  0  0  0  0  0  0  0  0  0  0  0  # atno 10167 bound_to 10162
  156.0342  130.5559  150.7524 H   0  0  0  0  0  0  0  0  0  0  0  0  # atno 10718 bound_to 10713
  154.6551  135.2917  154.9938 H   0  0  0  0  0  0  0  0  0  0  0  0  # atno 10763 bound_to 10752
  154.1018  135.6575  153.4873 H   0  0  0  0  0  0  0  0  0  0  0  0  # atno 10764 bound_to 10752
  153.0398  135.5244  154.7476 H   0  0  0  0  0  0  0  0  0  0  0  0  # atno 10765 bound_to 10752
  140.9956  134.0477  157.3601 H   0  0  0  0  0  0  0  0  0  0  0  0  # atno 11005 bound_to 11000
  144.8807  139.4908  143.6724 LP  0  0  0  0  0  0  0  0  0  0  0  0  # atno 17320 bound_to 7965
  146.3016  139.7446  142.9087 LP  0  0  0  0  0  0  0  0  0  0  0  0  # atno 17321 bound_to 7965
  140.3568  144.3022  150.5940 LP  0  0  0  0  0  0  0  0  0  0  0  0  # atno 17342 bound_to 10162
  140.5438  143.2218  151.8041 LP  0  0  0  0  0  0  0  0  0  0  0  0  # atno 17343 bound_to 10162
  157.5065  131.0922  151.0251 LP  0  0  0  0  0  0  0  0  0  0  0  0  # atno 17370 bound_to 10713
  157.0617  130.5828  149.5387 LP  0  0  0  0  0  0  0  0  0  0  0  0  # atno 17371 bound_to 10713
  139.9013  135.0165  156.7281 LP  0  0  0  0  0  0  0  0  0  0  0  0  # atno 17394 bound_to 11000
  140.6971  133.9339  155.8001 LP  0  0  0  0  0  0  0  0  0  0  0  0  # atno 17395 bound_to 11000

$$$$
