#       Name:                AV-unprocessed.smi:837
#       Creating user name   scv26
#       Creation time:       Fri Mar 27 01:35:15 2020


#       File generated by GOLD software.
#

@<TRIPOS>MOLECULE
AV-unprocessed.smi:837
    56    58     1
SMALL
NO_CHARGES


@<TRIPOS>ATOM
      1 ****        -0.5465   3.0375  -0.4678 C.3            1 S1                 0.0000
      2 ****        -2.0730   3.1771  -0.2860 C.3            1 S1                 0.0000
      3 ****        -2.4025   3.8269   1.0755 C.3            1 S1                 0.0000
      4 ****        -3.9118   4.0625   1.2428 C.3            1 S1                 0.0000
      5 ****        -4.7072   2.7616   1.0659 C.3            1 S1                 0.0000
      6 ****        -4.3952   2.0978  -0.2872 C.3            1 S1                 0.0000
      7 ****        -2.8807   1.8594  -0.5124 C.3            1 S1                 0.0000
      8 ****        -2.6627   1.3342  -1.8493 N.am           1 S1                 0.0000
      9 ****        -2.1318   0.1054  -1.8551 C.2            1 S1                 0.0000
     10 ****        -1.8457  -0.5385  -2.8633 O.2            1 S1                 0.0000
     11 ****        -1.9609  -0.2862  -0.5804 N.am           1 S1                 0.0000
     12 ****        -1.3512  -1.5612  -0.1801 C.3            1 S1                 0.0000
     13 ****         0.1719  -1.4780   0.0009 C.2            1 S1                 0.0000
     14 ****         0.8004  -0.4746  -0.3412 O.2            1 S1                 0.0000
     15 ****         0.7556  -2.5591   0.5390 N.am           1 S1                 0.0000
     16 ****         2.1846  -2.6991   0.7924 C.3            1 S1                 0.0000
     17 ****         2.9455  -3.1048  -0.4802 C.3            1 S1                 0.0000
     18 ****         4.4323  -3.2617  -0.2299 C.ar           1 S1                 0.0000
     19 ****         5.3156  -2.1796  -0.4222 C.ar           1 S1                 0.0000
     20 ****         6.6880  -2.3722  -0.1726 C.ar           1 S1                 0.0000
     21 ****         7.1192  -3.6419   0.2610 C.ar           1 S1                 0.0000
     22 ****         6.2823  -4.6850   0.4489 N.ar           1 S1                 0.0000
     23 ****         4.9678  -4.4922   0.2065 C.ar           1 S1                 0.0000
     24 ****        -2.3613   0.6587   0.2813 C.2            1 S1                 0.0000
     25 ****        -2.3142   0.5985   1.5102 O.2            1 S1                 0.0000
     26 ****        -0.1058   2.3862   0.2875 H              1 S1                 0.0000
     27 ****        -0.0563   4.0077  -0.3848 H              1 S1                 0.0000
     28 ****        -0.2916   2.6320  -1.4469 H              1 S1                 0.0000
     29 ****        -2.4021   3.8796  -1.0537 H              1 S1                 0.0000
     30 ****        -2.0345   3.2062   1.8926 H              1 S1                 0.0000
     31 ****        -1.8810   4.7805   1.1649 H              1 S1                 0.0000
     32 ****        -4.1140   4.4903   2.2251 H              1 S1                 0.0000
     33 ****        -4.2488   4.7979   0.5111 H              1 S1                 0.0000
     34 ****        -4.4809   2.0778   1.8840 H              1 S1                 0.0000
     35 ****        -5.7750   2.9713   1.1346 H              1 S1                 0.0000
     36 ****        -4.9455   1.1584  -0.3620 H              1 S1                 0.0000
     37 ****        -4.7812   2.7321  -1.0865 H              1 S1                 0.0000
     38 ****        -2.8827   1.8596  -2.6829 H              1 S1                 0.0000
     39 ****        -1.8005  -1.9097   0.7516 H              1 S1                 0.0000
     40 ****        -1.5717  -2.3312  -0.9213 H              1 S1                 0.0000
     41 ****         0.1681  -3.3410   0.7909 H              1 S1                 0.0000
     42 ****         2.5858  -1.7688   1.1986 H              1 S1                 0.0000
     43 ****         2.3184  -3.4577   1.5642 H              1 S1                 0.0000
     44 ****         2.5503  -4.0439  -0.8699 H              1 S1                 0.0000
     45 ****         2.7977  -2.3606  -1.2642 H              1 S1                 0.0000
     46 ****         4.9497  -1.2186  -0.7532 H              1 S1                 0.0000
     47 ****         7.3933  -1.5659  -0.3093 H              1 S1                 0.0000
     48 ****         8.1644  -3.8242   0.4627 H              1 S1                 0.0000
     49 ****         4.3246  -5.3446   0.3684 H              1 S1                 0.0000
     50 ****        -2.0076  -0.1471  -3.7692 LP             1 S1                 0.0000
     51 ****        -1.4511  -1.4533  -2.7770 LP             1 S1                 0.0000
     52 ****         0.3190   0.3036  -0.7444 LP             1 S1                 0.0000
     53 ****         1.7918  -0.4386  -0.2155 LP             1 S1                 0.0000
     54 ****         6.6251  -5.5721   0.7578 LP             1 S1                 0.0000
     55 ****        -2.6296   1.3712   2.0611 LP             1 S1                 0.0000
     56 ****        -1.9605  -0.2230   1.9574 LP             1 S1                 0.0000
@<TRIPOS>BOND
    1    1    2 1     
    2    1   26 1     
    3    1   27 1     
    4    1   28 1     
    5    2    7 1     
    6    2    3 1     
    7    2   29 1     
    8    3    4 1     
    9    3   30 1     
   10    3   31 1     
   11    4    5 1     
   12    4   32 1     
   13    4   33 1     
   14    5    6 1     
   15    5   34 1     
   16    5   35 1     
   17    6    7 1     
   18    6   36 1     
   19    6   37 1     
   20    7   24 1     
   21    7    8 1     
   22    8    9 am    
   23    8   38 1     
   24    9   10 2     
   25    9   11 am    
   26   11   12 1     
   27   11   24 am    
   28   12   13 1     
   29   12   39 1     
   30   12   40 1     
   31   13   14 2     
   32   13   15 am    
   33   15   16 1     
   34   15   41 1     
   35   16   17 1     
   36   16   42 1     
   37   16   43 1     
   38   17   18 1     
   39   17   44 1     
   40   17   45 1     
   41   18   23 ar    
   42   18   19 ar    
   43   19   20 ar    
   44   19   46 1     
   45   20   21 ar    
   46   20   47 1     
   47   21   22 ar    
   48   21   48 1     
   49   22   23 ar    
   50   23   49 1     
   51   24   25 2     
   52   10   50 1     
   53   10   51 1     
   54   14   52 1     
   55   14   53 1     
   56   22   54 1     
   57   25   55 1     
   58   25   56 1     
@<TRIPOS>SUBSTRUCTURE
      1 S1             1
@<TRIPOS>SET
LONE_PAIRS      STATIC     ATOMS    <user>   **** ""
7 50 51 52 53 54 55 56
DONOR_HYDROGENS      STATIC     ATOMS    <user>   **** ""
2 38 41
ATOM$BLUE        STATIC     ATOMS    COLORGROUP SYSTEM
7 50 51 52 53 54 55 56
ATOM$RED        STATIC     ATOMS    COLORGROUP SYSTEM
2 38 41
