AV-unprocessed.smi:3270|AV-procd|sdf|12515|dock7
  -GOLD-   2272018423D 1   1.00000     0.00000
 Structure written by MMmdl.
 39 40  0  0  0  0  0  0  0  0  2 V2000
  145.5882  135.9530  151.1007 C   0  0  0  0  0  0  0  0  0  0  0  0
  145.9728  134.5836  151.6971 C   0  0  1  0  0  0  0  0  0  0  0  0
  146.1029  134.6149  153.2290 C   0  0  0  0  0  0  0  0  0  0  0  0
  145.2741  134.0510  153.9448 O   0  0  0  0  0  0  0  0  0  0  0  0
  147.1554  135.2862  153.7237 N   0  0  0  0  0  0  0  0  0  0  0  0
  147.4697  135.4171  155.1414 C   0  0  0  0  0  0  0  0  0  0  0  0
  148.9842  135.5829  155.3731 C   0  0  0  0  0  0  0  0  0  0  0  0
  149.5564  136.7117  154.5976 N   0  3  0  0  0  0  0  0  0  0  0  0
  148.7908  137.9677  154.7826 C   0  0  0  0  0  0  0  0  0  0  0  0
  149.3899  139.0974  153.9277 C   0  0  0  0  0  0  0  0  0  0  0  0
  150.7594  139.2757  154.2654 O   0  0  0  0  0  0  0  0  0  0  0  0
  151.5262  138.1062  154.0075 C   0  0  0  0  0  0  0  0  0  0  0  0
  150.9989  136.9420  154.8636 C   0  0  0  0  0  0  0  0  0  0  0  0
  145.0532  133.5295  151.2843 N   0  0  0  0  0  0  0  0  0  0  0  0
  145.2101  132.1648  151.4207 C   0  0  0  0  0  0  0  0  0  0  0  0
  144.0861  131.5700  150.9236 C   0  0  0  0  0  0  0  0  0  0  0  0
  143.2800  132.6657  150.5078 C   0  0  0  0  0  0  0  0  0  0  0  0
  143.8564  133.8352  150.7308 N   0  0  0  0  0  0  0  0  0  0  0  0
  146.3168  136.7182  151.3713 H   0  0  0  0  0  0  0  0  0  0  0  0
  144.6103  136.2916  151.4458 H   0  0  0  0  0  0  0  0  0  0  0  0
  145.5546  135.9059  150.0119 H   0  0  0  0  0  0  0  0  0  0  0  0
  146.9554  134.3265  151.2977 H   0  0  0  0  0  0  0  0  0  0  0  0
  147.7918  135.7196  153.0704 H   0  0  0  0  0  0  0  0  0  0  0  0
  146.9069  136.2552  155.5538 H   0  0  0  0  0  0  0  0  0  0  0  0
  147.1119  134.5223  155.6513 H   0  0  0  0  0  0  0  0  0  0  0  0
  149.1451  135.7632  156.4372 H   0  0  0  0  0  0  0  0  0  0  0  0
  149.5237  134.6656  155.1319 H   0  0  0  0  0  0  0  0  0  0  0  0
  147.7484  137.8119  154.5019 H   0  0  0  0  0  0  0  0  0  0  0  0
  148.8009  138.2512  155.8365 H   0  0  0  0  0  0  0  0  0  0  0  0
  149.2897  138.8768  152.8636 H   0  0  0  0  0  0  0  0  0  0  0  0
  148.8565  140.0303  154.1110 H   0  0  0  0  0  0  0  0  0  0  0  0
  151.4887  137.8581  152.9454 H   0  0  0  0  0  0  0  0  0  0  0  0
  152.5700  138.3080  154.2500 H   0  0  0  0  0  0  0  0  0  0  0  0
  151.1457  137.1641  155.9220 H   0  0  0  0  0  0  0  0  0  0  0  0
  151.5777  136.0458  154.6432 H   0  0  0  0  0  0  0  0  0  0  0  0
  146.1002  131.7342  151.8554 H   0  0  0  0  0  0  0  0  0  0  0  0
  143.8706  130.5133  150.8683 H   0  0  0  0  0  0  0  0  0  0  0  0
  142.2984  132.6465  150.0576 H   0  0  0  0  0  0  0  0  0  0  0  0
  149.4689  136.4678  153.6212 H   0  0  0  0  0  0  0  0  0  0  0  0
  1  2  1  0  0  0  0
  1 19  1  0  0  0  0
  1 20  1  0  0  0  0
  1 21  1  0  0  0  0
  2  3  1  0  0  0  0
  2 14  1  0  0  0  0
  2 22  1  0  0  0  0
  3  4  2  0  0  0  0
  3  5  1  0  0  0  0
  5  6  1  0  0  0  0
  5 23  1  0  0  0  0
  6  7  1  0  0  0  0
  6 24  1  0  0  0  0
  6 25  1  0  0  0  0
  7  8  1  0  0  0  0
  7 26  1  0  0  0  0
  7 27  1  0  0  0  0
  8 13  1  0  0  0  0
  8  9  1  0  0  0  0
  8 39  1  0  0  0  0
  9 10  1  0  0  0  0
  9 28  1  0  0  0  0
  9 29  1  0  0  0  0
 10 11  1  0  0  0  0
 10 30  1  0  0  0  0
 10 31  1  0  0  0  0
 11 12  1  0  0  0  0
 12 13  1  0  0  0  0
 12 32  1  0  0  0  0
 12 33  1  0  0  0  0
 13 34  1  0  0  0  0
 13 35  1  0  0  0  0
 14 18  1  0  0  0  0
 14 15  1  0  0  0  0
 15 16  2  0  0  0  0
 15 36  1  0  0  0  0
 16 17  1  0  0  0  0
 16 37  1  0  0  0  0
 17 18  2  0  0  0  0
 17 38  1  0  0  0  0
M  CHG  1   8   1
M  END
> <s_m_source_file>
AV-unprocessed.smi

> <i_m_source_file_index>
3270

> <i_lp_mmshare_version>
43012

> <i_f3d_flags>
0

> <s_epik_input>
bjFbY0hdW2NIXVtjSF1uMVtDQEhdKFtDSDNdKUMoPU8pW05IXVtDSDJdW0NIMl1OMltDSDJdW0NIMl1PW0NIMl1bQ0gyXTI=

> <s_epik_cmdline>
J2VwaWtfcHl0aG9uJywgJy1waCcsICc3LjAnLCAnLXRuJywgJzgnLCAnLW1hJywgJzIwMCcsICctbWV0YWxfYmluZGluZycsICctaW1hZScsICc8aW5maWxlLm1hZT4nLCAnLW9tYWUnLCAnPG91dGZpbGUubWFlPic=

> <r_lp_tautomer_probability>
1

> <r_epik_Ionization_Penalty>
0.73255

> <r_epik_Ionization_Penalty_Charging>
0.732531

> <r_epik_Ionization_Penalty_Neutral>
1.96965e-05

> <r_epik_State_Penalty>
0.757939

> <r_epik_Charging_Adjusted_Penalty>
1.49047

> <i_epik_Tot_Q>
1

> <i_epik_Tot_abs_Q>
1

> <r_epik_Metal_State_Penalty>
0.757952

> <b_epik_Metal_Only>
0

> <s_lp_Force_Field>
OPLS_2005

> <r_lp_Energy>
19.4088

> <b_lp_Chiralities_Consistent>
1

> <s_lp_Variant>
AV-unprocessed.smi:3270-4

> <Gold.Version>
5.8.1

> <Gold.Id.Protein>
6NUR|6NUR_protein|mol2

> <Gold.PLP.Fitness>
44.2910

> <Gold.PLP.PLP>
-29.3306

> <Gold.PLP.part.hbond>
-3.0000

> <Gold.PLP.part.metal>
0.0000

> <Gold.PLP.part.buried>
-5.2365

> <Gold.PLP.part.nonpolar>
-22.4556

> <Gold.PLP.part.repulsive>
0.4280

> <Gold.PLP.ligand.clash>
0.0000

> <Gold.PLP.ligand.torsion>
0.7501

> <Gold.PLP.Chemscore.Hbond>
4.0000

> <Gold.PLP.Chemscore.CHOScore>
1.4493

> <Gold.PLP.Chemscore.Metal>
0.0000

> <Gold.Chemscore.Hbonds>
donor molecule, donor type, donor heavy atom, donor atom, acceptor molecule, acceptor atom, score
      L1  H     5    23       P1  7948  1.00
      L1  H     8    39       P1  7948  2.00
      P1  H  7989  7998       L1    11  1.00
      L1  C    17    38       P1 10186  0.95
      L1  C    17    38       P1 10952  0.38

> <Gold.PLP.Chemscore.Internal.Correction>
0.1127

> <Gold.Rescore>
     Score         DG    S(hbond)    S(metal)    S(lipo)     H(rot)  DE(clash)    DE(int)     intcor
     16.14     -17.06       2.45        0.00      70.80       1.91       0.16       0.76       ----

> <Gold.Chemscore.Fitness>
16.1413

> <Gold.Chemscore.DG>
-17.0550

> <Gold.Chemscore.ZeroCoef>
-5.4800

> <Gold.Chemscore.Hbond>
2.4500

> <Gold.Chemscore.Metal>
0.0000

> <Gold.Chemscore.Lipo>
70.8027

> <Gold.Chemscore.Internal_Hbond>
0.0000

> <Gold.Chemscore.DEClash>
0.1567

> <Gold.Chemscore.DEInternal>
0.7571

> <Gold.Chemscore.Rot>
1.9109

> <Gold.Chemscore.Internal.Correction>
   9.000000E+99

> <Gold.Chemscore.Hbonds>
donor molecule, donor type, donor heavy atom, donor atom, acceptor molecule, acceptor atom, score
      L1  H     5    23       P1  7948  1.00
      L1  H     8    39       P1  7948  0.78
      P1  H  7989  7998       L1    11  0.68

> <Gold.Chemscore.Hbond.Weighted>
-8.1830

> <Gold.Chemscore.Metal.Weighted>
-0.0000

> <Gold.Chemscore.Lipo.Weighted>
-8.2839

> <Gold.Chemscore.Internal_Hbond.Weighted>
0.0000

> <Gold.Chemscore.DEClash.Weighted>
0.1567

> <Gold.Chemscore.DEInternal.Weighted>
0.7571

> <Gold.Chemscore.Rot.Weighted>
4.8919

> <Gold.Chemscore.Internal.Correction.Weighted>
   9.000000E+99

> <Gold.Protein.RotatedTorsions>
[ 6907 6896 6895 6894 ] final   76.65 input  -60.11 | X-H torsion
[ 7974 7965 7964 7962 ] final  177.80 input  175.53 | X-H torsion
[ 8008 7997 7996 7995 ] final    7.23 input   59.86 | X-H torsion
[ 10167 10162 10161 10158 ] final  -67.11 input  -65.29 | X-H torsion
[ 10718 10713 10712 10709 ] final -159.53 input   66.30 | X-H torsion
[ 10763 10752 10751 10750 ] final  -88.12 input  -60.55 | X-H torsion
[ 11005 11000 10999 10996 ] final   -4.78 input  -57.11 | X-H torsion

> <Gold.Protein.ActiveResidues>
 VAL166  LYS551  ARG553  GLY616  TRP617  ASP618  TYR619  PRO620  LYS621  CYS622 
 ASP623  PHE694  ASN695  SER759  ASP760  ASP761  ALA762  ILE779  LEU786  VAL792 
 PHE793  MET794  SER795  GLU796  ALA797  LYS798  CYS799  TRP800  GLU811  SER814 

> <Gold.Protein.RotatedAtoms>
  152.5083  134.3936  159.9392 H   0  0  0  0  0  0  0  0  0  0  0  0  # atno 6907 bound_to 6896
  151.3897  133.3787  159.2727 H   0  0  0  0  0  0  0  0  0  0  0  0  # atno 6908 bound_to 6896
  150.9442  134.8869  159.7690 H   0  0  0  0  0  0  0  0  0  0  0  0  # atno 6909 bound_to 6896
  144.7164  140.0301  143.6439 H   0  0  0  0  0  0  0  0  0  0  0  0  # atno 7974 bound_to 7965
  154.7511  140.2767  155.6291 H   0  0  0  0  0  0  0  0  0  0  0  0  # atno 8008 bound_to 7997
  156.2896  140.2678  156.2192 H   0  0  0  0  0  0  0  0  0  0  0  0  # atno 8009 bound_to 7997
  155.0135  140.0372  157.2399 H   0  0  0  0  0  0  0  0  0  0  0  0  # atno 8010 bound_to 7997
  140.5607  143.2313  151.6734 H   0  0  0  0  0  0  0  0  0  0  0  0  # atno 10167 bound_to 10162
  156.5694  130.8682  151.2833 H   0  0  0  0  0  0  0  0  0  0  0  0  # atno 10718 bound_to 10713
  154.6411  135.5388  153.7790 H   0  0  0  0  0  0  0  0  0  0  0  0  # atno 10763 bound_to 10752
  153.0334  135.6459  154.1159 H   0  0  0  0  0  0  0  0  0  0  0  0  # atno 10764 bound_to 10752
  154.1083  135.2928  155.3216 H   0  0  0  0  0  0  0  0  0  0  0  0  # atno 10765 bound_to 10752
  140.6840  133.9128  155.8574 H   0  0  0  0  0  0  0  0  0  0  0  0  # atno 11005 bound_to 11000
  146.0109  139.3169  143.0871 LP  0  0  0  0  0  0  0  0  0  0  0  0  # atno 17320 bound_to 7965
  145.8683  140.9435  143.0664 LP  0  0  0  0  0  0  0  0  0  0  0  0  # atno 17321 bound_to 7965
  139.5069  144.3666  152.0510 LP  0  0  0  0  0  0  0  0  0  0  0  0  # atno 17342 bound_to 10162
  140.2793  144.3878  150.6124 LP  0  0  0  0  0  0  0  0  0  0  0  0  # atno 17343 bound_to 10162
  157.7351  130.9757  150.2066 LP  0  0  0  0  0  0  0  0  0  0  0  0  # atno 17370 bound_to 10713
  156.2728  130.3724  149.8014 LP  0  0  0  0  0  0  0  0  0  0  0  0  # atno 17371 bound_to 10713
  141.0294  134.0777  157.4031 LP  0  0  0  0  0  0  0  0  0  0  0  0  # atno 17394 bound_to 11000
  139.8943  135.0135  156.6944 LP  0  0  0  0  0  0  0  0  0  0  0  0  # atno 17395 bound_to 11000

$$$$
