AV-unprocessed.smi:2040|AV-procd|sdf|8289|dock9
  -GOLD-   2272010553D 1   1.00000     0.00000
 Structure written by MMmdl.
 38 39  0  0  0  0  0  0  0  0  1 V2000
  151.6047  131.0686  156.2935 C   0  0  0  0  0  0  0  0  0  0  0  0
  150.9163  132.2591  155.6939 C   0  0  0  0  0  0  0  0  0  0  0  0
  149.8787  132.2731  154.7168 C   0  0  0  0  0  0  0  0  0  0  0  0
  149.6420  133.6100  154.5485 C   0  0  0  0  0  0  0  0  0  0  0  0
  148.7516  134.2242  153.7248 N   0  0  0  0  0  0  0  0  0  0  0  0
  147.4794  133.8822  153.4574 C   0  0  0  0  0  0  0  0  0  0  0  0
  146.8756  132.9331  153.9574 O   0  0  0  0  0  0  0  0  0  0  0  0
  146.9355  134.7204  152.5633 N   0  0  0  0  0  0  0  0  0  0  0  0
  145.5743  134.6425  152.0362 C   0  0  1  0  0  0  0  0  0  0  0  0
  145.1785  136.0050  151.4468 C   0  0  0  0  0  0  0  0  0  0  0  0
  145.4811  133.5109  150.9944 C   0  0  1  0  0  0  0  0  0  0  0  0
  145.8912  132.1311  151.5163 C   0  0  0  0  0  0  0  0  0  0  0  0
  145.1285  131.2121  150.5907 C   0  0  0  0  0  0  0  0  0  0  0  0
  143.8121  131.9642  150.4298 C   0  0  0  0  0  0  0  0  0  0  0  0
  144.1353  133.3472  150.5497 O   0  0  0  0  0  0  0  0  0  0  0  0
  150.4885  134.3191  155.3710 N   0  0  0  0  0  0  0  0  0  0  0  0
  150.6152  135.7528  155.5457 C   0  0  0  0  0  0  0  0  0  0  0  0
  151.2735  133.4790  156.0797 N   0  0  0  0  0  0  0  0  0  0  0  0
  151.2674  130.1425  155.8276 H   0  0  0  0  0  0  0  0  0  0  0  0
  151.4017  130.9954  157.3620 H   0  0  0  0  0  0  0  0  0  0  0  0
  152.6852  131.1310  156.1615 H   0  0  0  0  0  0  0  0  0  0  0  0
  149.4047  131.4324  154.2331 H   0  0  0  0  0  0  0  0  0  0  0  0
  149.0996  135.0447  153.2515 H   0  0  0  0  0  0  0  0  0  0  0  0
  147.5099  135.4721  152.2113 H   0  0  0  0  0  0  0  0  0  0  0  0
  144.8779  134.4072  152.8430 H   0  0  0  0  0  0  0  0  0  0  0  0
  144.1562  135.9884  151.0683 H   0  0  0  0  0  0  0  0  0  0  0  0
  145.8335  136.2873  150.6221 H   0  0  0  0  0  0  0  0  0  0  0  0
  145.2346  136.7902  152.2015 H   0  0  0  0  0  0  0  0  0  0  0  0
  146.0892  133.7518  150.1205 H   0  0  0  0  0  0  0  0  0  0  0  0
  146.9688  131.9669  151.4884 H   0  0  0  0  0  0  0  0  0  0  0  0
  145.5507  131.9909  152.5436 H   0  0  0  0  0  0  0  0  0  0  0  0
  145.6408  131.1374  149.6306 H   0  0  0  0  0  0  0  0  0  0  0  0
  144.9998  130.2063  150.9914 H   0  0  0  0  0  0  0  0  0  0  0  0
  143.3233  131.7493  149.4794 H   0  0  0  0  0  0  0  0  0  0  0  0
  143.1227  131.7004  151.2327 H   0  0  0  0  0  0  0  0  0  0  0  0
  149.6904  136.1528  155.9617 H   0  0  0  0  0  0  0  0  0  0  0  0
  150.8063  136.2243  154.5814 H   0  0  0  0  0  0  0  0  0  0  0  0
  151.4384  135.9867  156.2221 H   0  0  0  0  0  0  0  0  0  0  0  0
  1  2  1  0  0  0  0
  1 19  1  0  0  0  0
  1 20  1  0  0  0  0
  1 21  1  0  0  0  0
  2 18  2  0  0  0  0
  2  3  1  0  0  0  0
  3  4  2  0  0  0  0
  3 22  1  0  0  0  0
  4  5  1  0  0  0  0
  4 16  1  0  0  0  0
  5  6  1  0  0  0  0
  5 23  1  0  0  0  0
  6  7  2  0  0  0  0
  6  8  1  0  0  0  0
  8  9  1  0  0  0  0
  8 24  1  0  0  0  0
  9 10  1  0  0  0  0
  9 11  1  0  0  0  0
  9 25  1  0  0  0  0
 10 26  1  0  0  0  0
 10 27  1  0  0  0  0
 10 28  1  0  0  0  0
 11 15  1  0  0  0  0
 11 12  1  0  0  0  0
 11 29  1  0  0  0  0
 12 13  1  0  0  0  0
 12 30  1  0  0  0  0
 12 31  1  0  0  0  0
 13 14  1  0  0  0  0
 13 32  1  0  0  0  0
 13 33  1  0  0  0  0
 14 15  1  0  0  0  0
 14 34  1  0  0  0  0
 14 35  1  0  0  0  0
 16 17  1  0  0  0  0
 16 18  1  0  0  0  0
 17 36  1  0  0  0  0
 17 37  1  0  0  0  0
 17 38  1  0  0  0  0
M  END
> <s_m_source_file>
AV-unprocessed.smi

> <i_m_source_file_index>
2040

> <i_lp_mmshare_version>
43012

> <i_f3d_flags>
0

> <s_epik_input>
W0NIM11jMVtjSF1jKG4objEpW0NIM10pW05IXUMoPU8pW05IXVtDQEhdKFtDSDNdKVtDQEBIXTJbQ0gyXVtDSDJdW0NIMl1PMg==

> <s_epik_cmdline>
J2VwaWtfcHl0aG9uJywgJy1waCcsICc3LjAnLCAnLXRuJywgJzgnLCAnLW1hJywgJzIwMCcsICctbWV0YWxfYmluZGluZycsICctaW1hZScsICc8aW5maWxlLm1hZT4nLCAnLW9tYWUnLCAnPG91dGZpbGUubWFlPic=

> <r_lp_tautomer_probability>
1

> <r_epik_Ionization_Penalty>
9.09088e-05

> <r_epik_Ionization_Penalty_Charging>
0

> <r_epik_Ionization_Penalty_Neutral>
9.09088e-05

> <r_epik_State_Penalty>
-0

> <r_epik_Charging_Adjusted_Penalty>
0

> <i_epik_Tot_Q>
0

> <i_epik_Tot_abs_Q>
0

> <r_epik_Metal_State_Penalty>
-0

> <b_epik_Metal_Only>
0

> <s_lp_Force_Field>
OPLS_2005

> <r_lp_Energy>
18.8774

> <b_lp_Chiralities_Consistent>
1

> <s_lp_Variant>
AV-unprocessed.smi:2040-4

> <Gold.Version>
5.8.1

> <Gold.Id.Protein>
6NUR|6NUR_protein|mol2

> <Gold.PLP.Fitness>
35.5303

> <Gold.PLP.PLP>
-30.7062

> <Gold.PLP.part.hbond>
-2.0000

> <Gold.PLP.part.metal>
0.0000

> <Gold.PLP.part.buried>
-4.4159

> <Gold.PLP.part.nonpolar>
-24.2612

> <Gold.PLP.part.repulsive>
0.2430

> <Gold.PLP.ligand.clash>
0.0000

> <Gold.PLP.ligand.torsion>
0.5812

> <Gold.PLP.Chemscore.Hbond>
1.9920

> <Gold.PLP.Chemscore.CHOScore>
0.0000

> <Gold.PLP.Chemscore.Metal>
0.0000

> <Gold.Chemscore.Hbonds>
donor molecule, donor type, donor heavy atom, donor atom, acceptor molecule, acceptor atom, score
      L1  H     5    23       P1  7948  0.83
      L1  H     8    24       P1  7948  1.00

> <Gold.PLP.Chemscore.Internal.Correction>
0.0105

> <Gold.Rescore>
     Score         DG    S(hbond)    S(metal)    S(lipo)     H(rot)  DE(clash)    DE(int)     intcor
     15.20     -15.85       1.62        0.00      69.27       1.23       0.06       0.59       ----

> <Gold.Chemscore.Fitness>
15.1980

> <Gold.Chemscore.DG>
-15.8481

> <Gold.Chemscore.ZeroCoef>
-5.4800

> <Gold.Chemscore.Hbond>
1.6232

> <Gold.Chemscore.Metal>
0.0000

> <Gold.Chemscore.Lipo>
69.2732

> <Gold.Chemscore.Internal_Hbond>
0.0000

> <Gold.Chemscore.DEClash>
0.0619

> <Gold.Chemscore.DEInternal>
0.5882

> <Gold.Chemscore.Rot>
1.2338

> <Gold.Chemscore.Internal.Correction>
   9.000000E+99

> <Gold.Chemscore.Hbonds>
donor molecule, donor type, donor heavy atom, donor atom, acceptor molecule, acceptor atom, score
      L1  H     5    23       P1  7948  0.14
      L1  H     8    24       P1  7948  0.97

> <Gold.Chemscore.Hbond.Weighted>
-5.4215

> <Gold.Chemscore.Metal.Weighted>
-0.0000

> <Gold.Chemscore.Lipo.Weighted>
-8.1050

> <Gold.Chemscore.Internal_Hbond.Weighted>
0.0000

> <Gold.Chemscore.DEClash.Weighted>
0.0619

> <Gold.Chemscore.DEInternal.Weighted>
0.5882

> <Gold.Chemscore.Rot.Weighted>
3.1584

> <Gold.Chemscore.Internal.Correction.Weighted>
   9.000000E+99

> <Gold.Protein.RotatedTorsions>
[ 6907 6896 6895 6894 ] final -151.06 input  -60.11 | X-H torsion
[ 7974 7965 7964 7962 ] final -134.92 input  175.53 | X-H torsion
[ 8008 7997 7996 7995 ] final  156.32 input   59.86 | X-H torsion
[ 10167 10162 10161 10158 ] final -165.02 input  -65.29 | X-H torsion
[ 10718 10713 10712 10709 ] final  167.70 input   66.30 | X-H torsion
[ 10763 10752 10751 10750 ] final -164.68 input  -60.55 | X-H torsion
[ 11005 11000 10999 10996 ] final -142.57 input  -57.11 | X-H torsion

> <Gold.Protein.ActiveResidues>
 VAL166  LYS551  ARG553  GLY616  TRP617  ASP618  TYR619  PRO620  LYS621  CYS622 
 ASP623  PHE694  ASN695  SER759  ASP760  ASP761  ALA762  ILE779  LEU786  VAL792 
 PHE793  MET794  SER795  GLU796  ALA797  LYS798  CYS799  TRP800  GLU811  SER814 

> <Gold.Protein.RotatedAtoms>
  151.2075  133.4575  159.2597 H   0  0  0  0  0  0  0  0  0  0  0  0  # atno 6907 bound_to 6896
  151.1008  134.9971  159.8458 H   0  0  0  0  0  0  0  0  0  0  0  0  # atno 6908 bound_to 6896
  152.5443  134.2002  159.8762 H   0  0  0  0  0  0  0  0  0  0  0  0  # atno 6909 bound_to 6896
  144.9059  140.6833  143.5055 H   0  0  0  0  0  0  0  0  0  0  0  0  # atno 7974 bound_to 7965
  156.2429  140.1915  156.6938 H   0  0  0  0  0  0  0  0  0  0  0  0  # atno 8008 bound_to 7997
  154.6232  140.0606  156.9667 H   0  0  0  0  0  0  0  0  0  0  0  0  # atno 8009 bound_to 7997
  155.1828  140.3278  155.4374 H   0  0  0  0  0  0  0  0  0  0  0  0  # atno 8010 bound_to 7997
  139.6211  144.0623  152.1933 H   0  0  0  0  0  0  0  0  0  0  0  0  # atno 10167 bound_to 10162
  157.0478  131.0305  151.2691 H   0  0  0  0  0  0  0  0  0  0  0  0  # atno 10718 bound_to 10713
  154.7005  135.2987  154.9348 H   0  0  0  0  0  0  0  0  0  0  0  0  # atno 10763 bound_to 10752
  154.0281  135.6673  153.4782 H   0  0  0  0  0  0  0  0  0  0  0  0  # atno 10764 bound_to 10752
  153.0678  135.5078  154.8147 H   0  0  0  0  0  0  0  0  0  0  0  0  # atno 10765 bound_to 10752
  140.8212  134.2629  157.4899 H   0  0  0  0  0  0  0  0  0  0  0  0  # atno 11005 bound_to 11000
  145.3536  139.1700  143.4421 LP  0  0  0  0  0  0  0  0  0  0  0  0  # atno 17320 bound_to 7965
  146.3133  140.3591  142.8663 LP  0  0  0  0  0  0  0  0  0  0  0  0  # atno 17321 bound_to 7965
  140.0265  144.6113  150.7523 LP  0  0  0  0  0  0  0  0  0  0  0  0  # atno 17342 bound_to 10162
  140.7382  143.2775  151.3697 LP  0  0  0  0  0  0  0  0  0  0  0  0  # atno 17343 bound_to 10162
  157.5054  130.7905  149.7648 LP  0  0  0  0  0  0  0  0  0  0  0  0  # atno 17370 bound_to 10713
  156.0017  130.3876  150.2580 LP  0  0  0  0  0  0  0  0  0  0  0  0  # atno 17371 bound_to 10713
  139.8708  134.9536  156.4151 LP  0  0  0  0  0  0  0  0  0  0  0  0  # atno 17394 bound_to 11000
  140.9097  133.7721  155.9776 LP  0  0  0  0  0  0  0  0  0  0  0  0  # atno 17395 bound_to 11000

$$$$
