AV-unprocessed.smi:19|AV-procd|sdf|109|dock3
  -GOLD-   2262015273D 1   1.00000     0.00000
 Structure written by MMmdl.
 57 60  0  0  0  0  0  0  0  0  1 V2000
  150.9541  145.2383  159.8473 C   0  0  0  0  0  0  0  0  0  0  0  0
  150.4501  144.0055  160.3366 O   0  0  0  0  0  0  0  0  0  0  0  0
  151.4315  143.1680  160.9340 C   0  0  0  0  0  0  0  0  0  0  0  0
  152.7573  143.1699  160.1388 C   0  0  2  0  0  0  0  0  0  0  0  0
  152.5956  142.7233  158.6734 C   0  0  0  0  0  0  0  0  0  0  0  0
  152.3824  141.2825  158.5955 N   0  0  0  0  0  0  0  0  0  0  0  0
  151.9185  140.8302  157.4036 C   0  0  0  0  0  0  0  0  0  0  0  0
  152.6589  139.9531  156.6744 N   0  0  0  0  0  0  0  0  0  0  0  0
  152.2120  139.5101  155.4957 C   0  0  0  0  0  0  0  0  0  0  0  0
  151.0699  139.8045  154.8727 N   0  0  0  0  0  0  0  0  0  0  0  0
  150.3153  140.6735  155.6040 C   0  0  0  0  0  0  0  0  0  0  0  0
  150.6640  141.2340  156.8655 C   0  0  0  0  0  0  0  0  0  0  0  0
  149.6490  142.0751  157.3052 N   0  0  0  0  0  0  0  0  0  0  0  0
  148.7591  142.0257  156.3527 C   0  0  0  0  0  0  0  0  0  0  0  0
  149.0679  141.1927  155.3002 N   0  0  0  0  0  0  0  0  0  0  0  0
  148.2564  140.9487  154.1150 C   0  0  0  0  0  0  0  0  0  0  0  0
  147.2401  139.7745  154.2439 C   0  0  0  0  0  0  0  0  0  0  0  0
  145.9877  140.2198  155.0522 C   0  0  0  0  0  0  0  0  0  0  0  0
  145.3899  141.3832  154.5163 O   0  0  0  0  0  0  0  0  0  0  0  0
  146.8022  139.2955  152.8358 C   0  0  0  0  0  0  0  0  0  0  0  0
  146.0657  137.9428  152.8568 C   0  0  0  0  0  0  0  0  0  0  0  0
  146.8652  136.9573  153.4966 O   0  0  0  0  0  0  0  0  0  0  0  0
  147.1484  137.2744  154.8531 C   0  0  0  0  0  0  0  0  0  0  0  0
  147.9582  138.5807  154.9235 C   0  0  0  0  0  0  0  0  0  0  0  0
  153.4216  140.5147  159.2732 C   0  0  0  0  0  0  0  0  0  0  0  0
  153.5434  140.9728  160.7374 C   0  0  1  0  0  0  0  0  0  0  0  0
  154.7088  140.2857  161.4562 C   0  0  0  0  0  0  0  0  0  0  0  0
  153.7645  142.3829  160.7805 O   0  0  0  0  0  0  0  0  0  0  0  0
  150.1337  145.8251  159.4343 H   0  0  0  0  0  0  0  0  0  0  0  0
  151.6888  145.0956  159.0553 H   0  0  0  0  0  0  0  0  0  0  0  0
  151.4107  145.8226  160.6472 H   0  0  0  0  0  0  0  0  0  0  0  0
  151.6025  143.4662  161.9696 H   0  0  0  0  0  0  0  0  0  0  0  0
  151.0164  142.1609  160.9715 H   0  0  0  0  0  0  0  0  0  0  0  0
  153.1506  144.1853  160.1351 H   0  0  0  0  0  0  0  0  0  0  0  0
  151.7875  143.2829  158.2036 H   0  0  0  0  0  0  0  0  0  0  0  0
  153.5025  142.9641  158.1170 H   0  0  0  0  0  0  0  0  0  0  0  0
  152.8627  138.8213  154.9776 H   0  0  0  0  0  0  0  0  0  0  0  0
  147.8408  142.5930  156.3978 H   0  0  0  0  0  0  0  0  0  0  0  0
  147.7290  141.8757  153.8860 H   0  0  0  0  0  0  0  0  0  0  0  0
  148.9271  140.7800  153.2717 H   0  0  0  0  0  0  0  0  0  0  0  0
  145.2397  139.4271  155.0767 H   0  0  0  0  0  0  0  0  0  0  0  0
  146.2322  140.4303  156.0918 H   0  0  0  0  0  0  0  0  0  0  0  0
  144.9565  141.1537  153.7083 H   0  0  0  0  0  0  0  0  0  0  0  0
  146.1659  140.0397  152.3562 H   0  0  0  0  0  0  0  0  0  0  0  0
  147.6820  139.1907  152.1996 H   0  0  0  0  0  0  0  0  0  0  0  0
  145.0962  138.0193  153.3498 H   0  0  0  0  0  0  0  0  0  0  0  0
  145.8669  137.6167  151.8357 H   0  0  0  0  0  0  0  0  0  0  0  0
  146.2253  137.3418  155.4296 H   0  0  0  0  0  0  0  0  0  0  0  0
  147.7266  136.4578  155.2856 H   0  0  0  0  0  0  0  0  0  0  0  0
  148.9155  138.4062  154.4300 H   0  0  0  0  0  0  0  0  0  0  0  0
  148.2003  138.8113  155.9615 H   0  0  0  0  0  0  0  0  0  0  0  0
  153.1855  139.4502  159.2406 H   0  0  0  0  0  0  0  0  0  0  0  0
  154.3704  140.6553  158.7532 H   0  0  0  0  0  0  0  0  0  0  0  0
  152.6257  140.7291  161.2733 H   0  0  0  0  0  0  0  0  0  0  0  0
  154.5828  139.2027  161.4604 H   0  0  0  0  0  0  0  0  0  0  0  0
  154.7766  140.6162  162.4930 H   0  0  0  0  0  0  0  0  0  0  0  0
  155.6592  140.5106  160.9713 H   0  0  0  0  0  0  0  0  0  0  0  0
  1  2  1  0  0  0  0
  1 29  1  0  0  0  0
  1 30  1  0  0  0  0
  1 31  1  0  0  0  0
  2  3  1  0  0  0  0
  3  4  1  0  0  0  0
  3 32  1  0  0  0  0
  3 33  1  0  0  0  0
  4 28  1  0  0  0  0
  4  5  1  0  0  0  0
  4 34  1  0  0  0  0
  5  6  1  0  0  0  0
  5 35  1  0  0  0  0
  5 36  1  0  0  0  0
  6  7  1  0  0  0  0
  6 25  1  0  0  0  0
  7 12  1  0  0  0  0
  7  8  2  0  0  0  0
  8  9  1  0  0  0  0
  9 10  2  0  0  0  0
  9 37  1  0  0  0  0
 10 11  1  0  0  0  0
 11 15  1  0  0  0  0
 11 12  2  0  0  0  0
 12 13  1  0  0  0  0
 13 14  2  0  0  0  0
 14 15  1  0  0  0  0
 14 38  1  0  0  0  0
 15 16  1  0  0  0  0
 16 17  1  0  0  0  0
 16 39  1  0  0  0  0
 16 40  1  0  0  0  0
 17 24  1  0  0  0  0
 17 18  1  0  0  0  0
 17 20  1  0  0  0  0
 18 19  1  0  0  0  0
 18 41  1  0  0  0  0
 18 42  1  0  0  0  0
 19 43  1  0  0  0  0
 20 21  1  0  0  0  0
 20 44  1  0  0  0  0
 20 45  1  0  0  0  0
 21 22  1  0  0  0  0
 21 46  1  0  0  0  0
 21 47  1  0  0  0  0
 22 23  1  0  0  0  0
 23 24  1  0  0  0  0
 23 48  1  0  0  0  0
 23 49  1  0  0  0  0
 24 50  1  0  0  0  0
 24 51  1  0  0  0  0
 25 26  1  0  0  0  0
 25 52  1  0  0  0  0
 25 53  1  0  0  0  0
 26 27  1  0  0  0  0
 26 28  1  0  0  0  0
 26 54  1  0  0  0  0
 27 55  1  0  0  0  0
 27 56  1  0  0  0  0
 27 57  1  0  0  0  0
M  END
> <s_m_source_file>
AV-unprocessed.smi

> <i_m_source_file_index>
19

> <i_lp_mmshare_version>
43012

> <i_f3d_flags>
0

> <s_epik_input>
W0NIM11PW0NIMl1bQ0BASF0xW0NIMl1OKFtDSDJdW0NASF0oTzEpW0NIM10pYyhuW2NIXW4yKWMoYzIzKW5bY0hdbjNbQ0gyXUM0KFtDSDJdW09IXSlbQ0gyXVtDSDJdT1tDSDJdW0NIMl00

> <s_epik_cmdline>
J2VwaWtfcHl0aG9uJywgJy1waCcsICc3LjAnLCAnLXRuJywgJzgnLCAnLW1hJywgJzIwMCcsICctbWV0YWxfYmluZGluZycsICctaW1hZScsICc8aW5maWxlLm1hZT4nLCAnLW9tYWUnLCAnPG91dGZpbGUubWFlPic=

> <r_lp_tautomer_probability>
1

> <r_epik_Ionization_Penalty>
6.20357e-05

> <r_epik_Ionization_Penalty_Charging>
0

> <r_epik_Ionization_Penalty_Neutral>
6.20357e-05

> <r_epik_State_Penalty>
-0

> <r_epik_Charging_Adjusted_Penalty>
0

> <i_epik_Tot_Q>
0

> <i_epik_Tot_abs_Q>
0

> <r_epik_Metal_State_Penalty>
-0

> <b_epik_Metal_Only>
0

> <s_lp_Force_Field>
OPLS_2005

> <r_lp_Energy>
39.3548

> <b_lp_Chiralities_Consistent>
1

> <s_lp_Variant>
AV-unprocessed.smi:19-1

> <Gold.Version>
5.8.1

> <Gold.Id.Protein>
6NUR|6NUR_protein|mol2

> <Gold.PLP.Fitness>
49.1505

> <Gold.PLP.PLP>
-40.6102

> <Gold.PLP.part.hbond>
-3.3610

> <Gold.PLP.part.metal>
0.0000

> <Gold.PLP.part.buried>
-1.3571

> <Gold.PLP.part.nonpolar>
-38.1972

> <Gold.PLP.part.repulsive>
2.0635

> <Gold.PLP.ligand.clash>
0.0000

> <Gold.PLP.ligand.torsion>
1.0049

> <Gold.PLP.Chemscore.Hbond>
3.0000

> <Gold.PLP.Chemscore.CHOScore>
0.3608

> <Gold.PLP.Chemscore.Metal>
0.0000

> <Gold.Chemscore.Hbonds>
donor molecule, donor type, donor heavy atom, donor atom, acceptor molecule, acceptor atom, score
      L1  H    19    43       P1 10175  1.00
      P1  H  7989  7998       L1    10  1.00
      P1  H  7997  8010       L1     8  1.00
      L1  C    14    38       P1  8028  0.31

> <Gold.PLP.Chemscore.Internal.Correction>
0.4676

> <Gold.Rescore>
     Score         DG    S(hbond)    S(metal)    S(lipo)     H(rot)  DE(clash)    DE(int)     intcor
     13.11     -16.04       1.79        0.00     102.02       2.87       2.05       0.88       ----

> <Gold.Chemscore.Fitness>
13.1120

> <Gold.Chemscore.DG>
-16.0379

> <Gold.Chemscore.ZeroCoef>
-5.4800

> <Gold.Chemscore.Hbond>
1.7891

> <Gold.Chemscore.Metal>
0.0000

> <Gold.Chemscore.Lipo>
102.0249

> <Gold.Chemscore.Internal_Hbond>
0.0000

> <Gold.Chemscore.DEClash>
2.0475

> <Gold.Chemscore.DEInternal>
0.8784

> <Gold.Chemscore.Rot>
2.8729

> <Gold.Chemscore.Internal.Correction>
   9.000000E+99

> <Gold.Chemscore.Hbonds>
donor molecule, donor type, donor heavy atom, donor atom, acceptor molecule, acceptor atom, score
      L1  H    19    43       P1 10175  0.55
      P1  H  7989  7998       L1    10  0.12
      P1  H  7997  8010       L1     8  0.25

> <Gold.Chemscore.Hbond.Weighted>
-5.9756

> <Gold.Chemscore.Metal.Weighted>
-0.0000

> <Gold.Chemscore.Lipo.Weighted>
-11.9369

> <Gold.Chemscore.Internal_Hbond.Weighted>
0.0000

> <Gold.Chemscore.DEClash.Weighted>
2.0475

> <Gold.Chemscore.DEInternal.Weighted>
0.8784

> <Gold.Chemscore.Rot.Weighted>
7.3546

> <Gold.Chemscore.Internal.Correction.Weighted>
   9.000000E+99

> <Gold.Protein.RotatedTorsions>
[ 6907 6896 6895 6894 ] final  128.31 input  -60.11 | X-H torsion
[ 7974 7965 7964 7962 ] final   54.00 input  175.53 | X-H torsion
[ 8008 7997 7996 7995 ] final   81.08 input   59.86 | X-H torsion
[ 10167 10162 10161 10158 ] final  123.72 input  -65.29 | X-H torsion
[ 10718 10713 10712 10709 ] final  -58.52 input   66.30 | X-H torsion
[ 10763 10752 10751 10750 ] final  -69.68 input  -60.55 | X-H torsion
[ 11005 11000 10999 10996 ] final   -9.56 input  -57.11 | X-H torsion

> <Gold.Protein.ActiveResidues>
 VAL166  LYS551  ARG553  GLY616  TRP617  ASP618  TYR619  PRO620  LYS621  CYS622 
 ASP623  PHE694  ASN695  SER759  ASP760  ASP761  ALA762  ILE779  LEU786  VAL792 
 PHE793  MET794  SER795  GLU796  ALA797  LYS798  CYS799  TRP800  GLU811  SER814 

> <Gold.Protein.RotatedAtoms>
  152.3732  133.6446  159.6102 H   0  0  0  0  0  0  0  0  0  0  0  0  # atno 6907 bound_to 6896
  150.7684  133.9237  159.3414 H   0  0  0  0  0  0  0  0  0  0  0  0  # atno 6908 bound_to 6896
  151.7056  135.0923  160.0310 H   0  0  0  0  0  0  0  0  0  0  0  0  # atno 6909 bound_to 6896
  145.9654  139.4098  143.0222 H   0  0  0  0  0  0  0  0  0  0  0  0  # atno 7974 bound_to 7965
  155.8923  140.3438  155.5965 H   0  0  0  0  0  0  0  0  0  0  0  0  # atno 8008 bound_to 7997
  155.7596  140.0831  157.2180 H   0  0  0  0  0  0  0  0  0  0  0  0  # atno 8009 bound_to 7997
  154.4034  140.1538  156.2805 H   0  0  0  0  0  0  0  0  0  0  0  0  # atno 8010 bound_to 7997
  139.5783  144.6974  151.3595 H   0  0  0  0  0  0  0  0  0  0  0  0  # atno 10167 bound_to 10162
  156.1129  130.4173  150.0588 H   0  0  0  0  0  0  0  0  0  0  0  0  # atno 10718 bound_to 10713
  154.4068  135.6018  153.5929 H   0  0  0  0  0  0  0  0  0  0  0  0  # atno 10763 bound_to 10752
  152.9789  135.5920  154.4118 H   0  0  0  0  0  0  0  0  0  0  0  0  # atno 10764 bound_to 10752
  154.3924  135.2842  155.2125 H   0  0  0  0  0  0  0  0  0  0  0  0  # atno 10765 bound_to 10752
  140.7355  133.8714  155.8926 H   0  0  0  0  0  0  0  0  0  0  0  0  # atno 11005 bound_to 11000
  145.7981  140.9783  143.1013 LP  0  0  0  0  0  0  0  0  0  0  0  0  # atno 17320 bound_to 7965
  144.6824  139.9767  143.7483 LP  0  0  0  0  0  0  0  0  0  0  0  0  # atno 17321 bound_to 7965
  140.7064  143.7504  150.7489 LP  0  0  0  0  0  0  0  0  0  0  0  0  # atno 17342 bound_to 10162
  140.1029  143.4770  152.2415 LP  0  0  0  0  0  0  0  0  0  0  0  0  # atno 17343 bound_to 10162
  156.8547  130.9471  151.3623 LP  0  0  0  0  0  0  0  0  0  0  0  0  # atno 17370 bound_to 10713
  157.6311  130.8730  149.9276 LP  0  0  0  0  0  0  0  0  0  0  0  0  # atno 17371 bound_to 10713
  140.9883  134.1312  157.4431 LP  0  0  0  0  0  0  0  0  0  0  0  0  # atno 17394 bound_to 11000
  139.8817  135.0032  156.6176 LP  0  0  0  0  0  0  0  0  0  0  0  0  # atno 17395 bound_to 11000

$$$$
