AV-unprocessed.smi:3350|AV-procd|sdf|12941|dock5
  -GOLD-   2272019373D 1   1.00000     0.00000
 Structure written by MMmdl.
 41 42  0  0  0  0  0  0  0  0  1 V2000
  144.8005  134.6044  153.4291 C   0  0  0  0  0  0  0  0  0  0  0  0
  145.0156  135.9303  152.6869 C   0  0  2  0  0  0  0  0  0  0  0  0
  144.7789  135.7714  151.1697 C   0  0  0  0  0  0  0  0  0  0  0  0
  144.9335  134.3986  150.7187 N   0  0  0  0  0  0  0  0  0  0  0  0
  143.9780  133.5571  150.1894 C   0  0  0  0  0  0  0  0  0  0  0  0
  144.5953  132.3753  149.8947 C   0  0  0  0  0  0  0  0  0  0  0  0
  145.9447  132.5917  150.2901 C   0  0  0  0  0  0  0  0  0  0  0  0
  146.1441  133.8024  150.7847 N   0  0  0  0  0  0  0  0  0  0  0  0
  146.3707  136.4128  152.9507 N   0  0  0  0  0  0  0  0  0  0  0  0
  146.6911  137.4045  153.7946 C   0  0  0  0  0  0  0  0  0  0  0  0
  145.8820  137.9845  154.5193 O   0  0  0  0  0  0  0  0  0  0  0  0
  147.9940  137.7109  153.7260 N   0  0  0  0  0  0  0  0  0  0  0  0
  148.6441  138.8048  154.4434 C   0  0  1  0  0  0  0  0  0  0  0  0
  150.1656  138.6170  154.3410 C   0  0  0  0  0  0  0  0  0  0  0  0
  148.1829  140.1621  153.8680 C   0  0  2  0  0  0  0  0  0  0  0  0
  148.7855  141.3891  154.5581 C   0  0  0  0  0  0  0  0  0  0  0  0
  147.7336  142.4749  154.3770 C   0  0  0  0  0  0  0  0  0  0  0  0
  146.5220  141.7310  153.8151 C   0  0  0  0  0  0  0  0  0  0  0  0
  146.7926  140.3634  154.0758 O   0  0  0  0  0  0  0  0  0  0  0  0
  143.7883  134.2295  153.2748 H   0  0  0  0  0  0  0  0  0  0  0  0
  144.9446  134.7269  154.5032 H   0  0  0  0  0  0  0  0  0  0  0  0
  145.4956  133.8380  153.0839 H   0  0  0  0  0  0  0  0  0  0  0  0
  144.2851  136.6401  153.0788 H   0  0  0  0  0  0  0  0  0  0  0  0
  143.7834  136.1279  150.8987 H   0  0  0  0  0  0  0  0  0  0  0  0
  145.4895  136.3851  150.6146 H   0  0  0  0  0  0  0  0  0  0  0  0
  142.9523  133.8695  150.0600 H   0  0  0  0  0  0  0  0  0  0  0  0
  144.1518  131.4921  149.4603 H   0  0  0  0  0  0  0  0  0  0  0  0
  146.7804  131.9101  150.2306 H   0  0  0  0  0  0  0  0  0  0  0  0
  147.1115  136.0030  152.4012 H   0  0  0  0  0  0  0  0  0  0  0  0
  148.5724  137.1776  153.0937 H   0  0  0  0  0  0  0  0  0  0  0  0
  148.3742  138.7564  155.5000 H   0  0  0  0  0  0  0  0  0  0  0  0
  150.6999  139.3765  154.9119 H   0  0  0  0  0  0  0  0  0  0  0  0
  150.5049  138.6785  153.3064 H   0  0  0  0  0  0  0  0  0  0  0  0
  150.4675  137.6456  154.7333 H   0  0  0  0  0  0  0  0  0  0  0  0
  148.3840  140.2068  152.7955 H   0  0  0  0  0  0  0  0  0  0  0  0
  148.9262  141.1956  155.6224 H   0  0  0  0  0  0  0  0  0  0  0  0
  149.7526  141.6675  154.1382 H   0  0  0  0  0  0  0  0  0  0  0  0
  147.5003  142.9418  155.3345 H   0  0  0  0  0  0  0  0  0  0  0  0
  148.0643  143.2572  153.6933 H   0  0  0  0  0  0  0  0  0  0  0  0
  145.5834  142.0452  154.2718 H   0  0  0  0  0  0  0  0  0  0  0  0
  146.4445  141.8808  152.7374 H   0  0  0  0  0  0  0  0  0  0  0  0
  1  2  1  0  0  0  0
  1 20  1  0  0  0  0
  1 21  1  0  0  0  0
  1 22  1  0  0  0  0
  2  3  1  0  0  0  0
  2  9  1  0  0  0  0
  2 23  1  0  0  0  0
  3  4  1  0  0  0  0
  3 24  1  0  0  0  0
  3 25  1  0  0  0  0
  4  8  1  0  0  0  0
  4  5  1  0  0  0  0
  5  6  2  0  0  0  0
  5 26  1  0  0  0  0
  6  7  1  0  0  0  0
  6 27  1  0  0  0  0
  7  8  2  0  0  0  0
  7 28  1  0  0  0  0
  9 10  1  0  0  0  0
  9 29  1  0  0  0  0
 10 11  2  0  0  0  0
 10 12  1  0  0  0  0
 12 13  1  0  0  0  0
 12 30  1  0  0  0  0
 13 14  1  0  0  0  0
 13 15  1  0  0  0  0
 13 31  1  0  0  0  0
 14 32  1  0  0  0  0
 14 33  1  0  0  0  0
 14 34  1  0  0  0  0
 15 19  1  0  0  0  0
 15 16  1  0  0  0  0
 15 35  1  0  0  0  0
 16 17  1  0  0  0  0
 16 36  1  0  0  0  0
 16 37  1  0  0  0  0
 17 18  1  0  0  0  0
 17 38  1  0  0  0  0
 17 39  1  0  0  0  0
 18 19  1  0  0  0  0
 18 40  1  0  0  0  0
 18 41  1  0  0  0  0
M  END
> <s_m_source_file>
AV-unprocessed.smi

> <i_m_source_file_index>
3350

> <i_lp_mmshare_version>
43012

> <i_f3d_flags>
0

> <s_epik_input>
bjFbY0hdW2NIXVtjSF1uMVtDSDJdW0NAQEhdKFtDSDNdKVtOSF1DKD1PKVtOSF1bQ0BIXShbQ0gzXSlbQ0BASF0yW0NIMl1bQ0gyXVtDSDJdTzI=

> <s_epik_cmdline>
J2VwaWtfcHl0aG9uJywgJy1waCcsICc3LjAnLCAnLXRuJywgJzgnLCAnLW1hJywgJzIwMCcsICctbWV0YWxfYmluZGluZycsICctaW1hZScsICc8aW5maWxlLm1hZT4nLCAnLW9tYWUnLCAnPG91dGZpbGUubWFlPic=

> <r_lp_tautomer_probability>
1

> <r_epik_Ionization_Penalty>
6.42349e-05

> <r_epik_Ionization_Penalty_Charging>
0

> <r_epik_Ionization_Penalty_Neutral>
6.42349e-05

> <r_epik_State_Penalty>
-0

> <r_epik_Charging_Adjusted_Penalty>
0

> <i_epik_Tot_Q>
0

> <i_epik_Tot_abs_Q>
0

> <r_epik_Metal_State_Penalty>
-0

> <b_epik_Metal_Only>
0

> <s_lp_Force_Field>
OPLS_2005

> <r_lp_Energy>
14.9436

> <b_lp_Chiralities_Consistent>
1

> <s_lp_Variant>
AV-unprocessed.smi:3350-3

> <Gold.Version>
5.8.1

> <Gold.Id.Protein>
6NUR|6NUR_protein|mol2

> <Gold.PLP.Fitness>
40.7537

> <Gold.PLP.PLP>
-30.6519

> <Gold.PLP.part.hbond>
-2.0000

> <Gold.PLP.part.metal>
0.0000

> <Gold.PLP.part.buried>
-0.6860

> <Gold.PLP.part.nonpolar>
-28.9494

> <Gold.PLP.part.repulsive>
0.4494

> <Gold.PLP.ligand.clash>
0.0000

> <Gold.PLP.ligand.torsion>
0.8694

> <Gold.PLP.Chemscore.Hbond>
1.9280

> <Gold.PLP.Chemscore.CHOScore>
2.0000

> <Gold.PLP.Chemscore.Metal>
0.0000

> <Gold.Chemscore.Hbonds>
donor molecule, donor type, donor heavy atom, donor atom, acceptor molecule, acceptor atom, score
      L1  H     9    29       P1  7948  0.90
      L1  H    12    30       P1  7948  1.00
      L1  C     5    26       P1 10186  1.00
      L1  C     7    28       P1 10747  1.00

> <Gold.PLP.Chemscore.Internal.Correction>
0.0566

> <Gold.Rescore>
     Score         DG    S(hbond)    S(metal)    S(lipo)     H(rot)  DE(clash)    DE(int)     intcor
     11.22     -16.44       1.91        0.00      79.10       1.82       0.70       4.52       ----

> <Gold.Chemscore.Fitness>
11.2207

> <Gold.Chemscore.DG>
-16.4429

> <Gold.Chemscore.ZeroCoef>
-5.4800

> <Gold.Chemscore.Hbond>
1.9061

> <Gold.Chemscore.Metal>
0.0000

> <Gold.Chemscore.Lipo>
79.1014

> <Gold.Chemscore.Internal_Hbond>
0.0000

> <Gold.Chemscore.DEClash>
0.7002

> <Gold.Chemscore.DEInternal>
4.5220

> <Gold.Chemscore.Rot>
1.8197

> <Gold.Chemscore.Internal.Correction>
   9.000000E+99

> <Gold.Chemscore.Hbonds>
donor molecule, donor type, donor heavy atom, donor atom, acceptor molecule, acceptor atom, score
      L1  H     9    29       P1  7948  0.88
      L1  H    12    30       P1  7948  0.98

> <Gold.Chemscore.Hbond.Weighted>
-6.3664

> <Gold.Chemscore.Metal.Weighted>
-0.0000

> <Gold.Chemscore.Lipo.Weighted>
-9.2549

> <Gold.Chemscore.Internal_Hbond.Weighted>
0.0000

> <Gold.Chemscore.DEClash.Weighted>
0.7002

> <Gold.Chemscore.DEInternal.Weighted>
4.5220

> <Gold.Chemscore.Rot.Weighted>
4.6583

> <Gold.Chemscore.Internal.Correction.Weighted>
   9.000000E+99

> <Gold.Protein.RotatedTorsions>
[ 6907 6896 6895 6894 ] final  -56.27 input  -60.11 | X-H torsion
[ 7974 7965 7964 7962 ] final  -99.08 input  175.53 | X-H torsion
[ 8008 7997 7996 7995 ] final  -12.55 input   59.86 | X-H torsion
[ 10167 10162 10161 10158 ] final   53.69 input  -65.29 | X-H torsion
[ 10718 10713 10712 10709 ] final -143.47 input   66.30 | X-H torsion
[ 10763 10752 10751 10750 ] final  -29.76 input  -60.55 | X-H torsion
[ 11005 11000 10999 10996 ] final -157.47 input  -57.11 | X-H torsion

> <Gold.Protein.ActiveResidues>
 VAL166  LYS551  ARG553  GLY616  TRP617  ASP618  TYR619  PRO620  LYS621  CYS622 
 ASP623  PHE694  ASN695  SER759  ASP760  ASP761  ALA762  ILE779  LEU786  VAL792 
 PHE793  MET794  SER795  GLU796  ALA797  LYS798  CYS799  TRP800  GLU811  SER814 

> <Gold.Protein.RotatedAtoms>
  150.8181  134.7374  159.6747 H   0  0  0  0  0  0  0  0  0  0  0  0  # atno 6907 bound_to 6896
  152.4299  134.5795  159.9953 H   0  0  0  0  0  0  0  0  0  0  0  0  # atno 6908 bound_to 6896
  151.5986  133.3321  159.3078 H   0  0  0  0  0  0  0  0  0  0  0  0  # atno 6909 bound_to 6896
  145.3122  140.9403  143.2763 H   0  0  0  0  0  0  0  0  0  0  0  0  # atno 7974 bound_to 7965
  154.5368  140.2273  155.8709 H   0  0  0  0  0  0  0  0  0  0  0  0  # atno 8008 bound_to 7997
  156.1819  140.3098  155.9127 H   0  0  0  0  0  0  0  0  0  0  0  0  # atno 8009 bound_to 7997
  155.3339  140.0447  157.3034 H   0  0  0  0  0  0  0  0  0  0  0  0  # atno 8010 bound_to 7997
  140.2381  144.3614  150.6390 H   0  0  0  0  0  0  0  0  0  0  0  0  # atno 10167 bound_to 10162
  156.3584  130.7725  151.1889 H   0  0  0  0  0  0  0  0  0  0  0  0  # atno 10718 bound_to 10713
  153.7699  135.6913  153.4908 H   0  0  0  0  0  0  0  0  0  0  0  0  # atno 10763 bound_to 10752
  153.1881  135.4481  155.0113 H   0  0  0  0  0  0  0  0  0  0  0  0  # atno 10764 bound_to 10752
  154.8121  135.3382  154.7209 H   0  0  0  0  0  0  0  0  0  0  0  0  # atno 10765 bound_to 10752
  140.6643  134.4315  157.5233 H   0  0  0  0  0  0  0  0  0  0  0  0  # atno 11005 bound_to 11000
  144.9006  139.4654  143.6634 LP  0  0  0  0  0  0  0  0  0  0  0  0  # atno 17320 bound_to 7965
  146.3113  139.7758  142.9017 LP  0  0  0  0  0  0  0  0  0  0  0  0  # atno 17321 bound_to 7965
  140.6135  143.2171  151.6839 LP  0  0  0  0  0  0  0  0  0  0  0  0  # atno 17342 bound_to 10162
  139.5087  144.3603  152.0568 LP  0  0  0  0  0  0  0  0  0  0  0  0  # atno 17343 bound_to 10162
  157.7470  131.0407  150.4612 LP  0  0  0  0  0  0  0  0  0  0  0  0  # atno 17370 bound_to 10713
  156.4818  130.4075  149.6457 LP  0  0  0  0  0  0  0  0  0  0  0  0  # atno 17371 bound_to 10713
  139.9002  134.8573  156.1927 LP  0  0  0  0  0  0  0  0  0  0  0  0  # atno 17394 bound_to 11000
  141.0441  133.6922  156.1651 LP  0  0  0  0  0  0  0  0  0  0  0  0  # atno 17395 bound_to 11000

$$$$
