AV-unprocessed.smi:227|AV-procd|sdf|1739|dock8
  -GOLD-   2262020243D 1   1.00000     0.00000
 Structure written by MMmdl.
 54 58  0  0  0  0  0  0  0  0  1 V2000
  148.7136  135.3424  159.3825 O   0  0  0  0  0  0  0  0  0  0  0  0
  147.8294  136.3666  159.7900 C   0  0  0  0  0  0  0  0  0  0  0  0
  146.3593  135.8753  159.8147 C   0  0  2  0  0  0  0  0  0  0  0  0
  145.5137  136.5761  158.7102 C   0  0  0  0  0  0  0  0  0  0  0  0
  145.4271  135.8313  157.4622 N   0  0  0  0  0  0  0  0  0  0  0  0
  145.6287  134.4802  157.2958 C   0  0  0  0  0  0  0  0  0  0  0  0
  145.5053  134.0457  156.0723 N   0  0  0  0  0  0  0  0  0  0  0  0
  145.1782  135.1785  155.3360 C   0  0  0  0  0  0  0  0  0  0  0  0
  144.9153  135.4313  153.9579 C   0  0  0  0  0  0  0  0  0  0  0  0
  144.9706  134.4762  152.9908 N   0  0  0  0  0  0  0  0  0  0  0  0
  143.8987  134.3214  152.0194 C   0  0  2  0  0  0  0  0  0  0  0  0
  144.2892  133.0122  151.3122 C   0  0  0  0  0  0  0  0  0  0  0  0
  145.8239  133.1121  151.3208 C   0  0  0  0  0  0  0  0  0  0  0  0
  146.0352  134.4791  151.9971 C   0  0  1  0  0  0  0  0  0  0  0  0
  145.6452  135.5891  150.9881 C   0  0  2  0  0  0  0  0  0  0  0  0
  146.2152  136.9805  151.3277 C   0  0  0  0  0  0  0  0  0  0  0  0
  146.3218  137.7614  150.1567 O   0  0  0  0  0  0  0  0  0  0  0  0
  144.1063  135.5032  151.0491 C   0  0  0  0  0  0  0  0  0  0  0  0
  144.5802  136.7027  153.6120 N   0  0  0  0  0  0  0  0  0  0  0  0
  144.5363  137.6674  154.5342 C   0  0  0  0  0  0  0  0  0  0  0  0
  144.7822  137.5811  155.8415 N   0  0  0  0  0  0  0  0  0  0  0  0
  145.1020  136.3063  156.2028 C   0  0  0  0  0  0  0  0  0  0  0  0
  145.7258  136.0151  161.2355 C   0  0  1  0  0  0  0  0  0  0  0  0
  146.4082  135.1670  162.3053 C   0  0  0  0  0  0  0  0  0  0  0  0
  147.5676  136.0421  162.7828 C   0  0  0  0  0  0  0  0  0  0  0  0
  147.2192  137.3769  162.4336 O   0  0  0  0  0  0  0  0  0  0  0  0
  145.9036  137.3884  161.8998 C   0  0  0  0  0  0  0  0  0  0  0  0
  148.2335  134.7239  158.8529 H   0  0  0  0  0  0  0  0  0  0  0  0
  148.1648  136.6703  160.7788 H   0  0  0  0  0  0  0  0  0  0  0  0
  147.9480  137.2314  159.1374 H   0  0  0  0  0  0  0  0  0  0  0  0
  146.3796  134.8130  159.5673 H   0  0  0  0  0  0  0  0  0  0  0  0
  144.4980  136.7517  159.0648 H   0  0  0  0  0  0  0  0  0  0  0  0
  145.8984  137.5704  158.4902 H   0  0  0  0  0  0  0  0  0  0  0  0
  145.8817  133.8236  158.1154 H   0  0  0  0  0  0  0  0  0  0  0  0
  142.8955  134.2809  152.4454 H   0  0  0  0  0  0  0  0  0  0  0  0
  143.9592  132.1443  151.8846 H   0  0  0  0  0  0  0  0  0  0  0  0
  143.8728  132.9367  150.3072 H   0  0  0  0  0  0  0  0  0  0  0  0
  146.2546  132.3119  151.9241 H   0  0  0  0  0  0  0  0  0  0  0  0
  146.2612  133.0542  150.3233 H   0  0  0  0  0  0  0  0  0  0  0  0
  147.0472  134.5829  152.3847 H   0  0  0  0  0  0  0  0  0  0  0  0
  146.0012  135.3159  149.9934 H   0  0  0  0  0  0  0  0  0  0  0  0
  145.5920  137.5119  152.0463 H   0  0  0  0  0  0  0  0  0  0  0  0
  147.2069  136.8850  151.7705 H   0  0  0  0  0  0  0  0  0  0  0  0
  145.4600  138.0697  149.9211 H   0  0  0  0  0  0  0  0  0  0  0  0
  143.6552  135.3288  150.0718 H   0  0  0  0  0  0  0  0  0  0  0  0
  143.6722  136.4178  151.4553 H   0  0  0  0  0  0  0  0  0  0  0  0
  144.2698  138.6493  154.1718 H   0  0  0  0  0  0  0  0  0  0  0  0
  144.6634  135.7762  161.1756 H   0  0  0  0  0  0  0  0  0  0  0  0
  145.7132  135.0086  163.1315 H   0  0  0  0  0  0  0  0  0  0  0  0
  146.7391  134.1827  161.9817 H   0  0  0  0  0  0  0  0  0  0  0  0
  147.7321  135.9456  163.8562 H   0  0  0  0  0  0  0  0  0  0  0  0
  148.4937  135.7774  162.2717 H   0  0  0  0  0  0  0  0  0  0  0  0
  145.7383  138.2482  161.2550 H   0  0  0  0  0  0  0  0  0  0  0  0
  145.2035  137.4864  162.7313 H   0  0  0  0  0  0  0  0  0  0  0  0
  1  2  1  0  0  0  0
  1 28  1  0  0  0  0
  2  3  1  0  0  0  0
  2 29  1  0  0  0  0
  2 30  1  0  0  0  0
  3  4  1  0  0  0  0
  3 23  1  0  0  0  0
  3 31  1  0  0  0  0
  4  5  1  0  0  0  0
  4 32  1  0  0  0  0
  4 33  1  0  0  0  0
  5 22  1  0  0  0  0
  5  6  1  0  0  0  0
  6  7  2  0  0  0  0
  6 34  1  0  0  0  0
  7  8  1  0  0  0  0
  8 22  2  0  0  0  0
  8  9  1  0  0  0  0
  9 10  1  0  0  0  0
  9 19  2  0  0  0  0
 10 14  1  0  0  0  0
 10 11  1  0  0  0  0
 11 18  1  0  0  0  0
 11 12  1  0  0  0  0
 11 35  1  0  0  0  0
 12 13  1  0  0  0  0
 12 36  1  0  0  0  0
 12 37  1  0  0  0  0
 13 14  1  0  0  0  0
 13 38  1  0  0  0  0
 13 39  1  0  0  0  0
 14 15  1  0  0  0  0
 14 40  1  0  0  0  0
 15 16  1  0  0  0  0
 15 18  1  0  0  0  0
 15 41  1  0  0  0  0
 16 17  1  0  0  0  0
 16 42  1  0  0  0  0
 16 43  1  0  0  0  0
 17 44  1  0  0  0  0
 18 45  1  0  0  0  0
 18 46  1  0  0  0  0
 19 20  1  0  0  0  0
 20 21  2  0  0  0  0
 20 47  1  0  0  0  0
 21 22  1  0  0  0  0
 23 27  1  0  0  0  0
 23 24  1  0  0  0  0
 23 48  1  0  0  0  0
 24 25  1  0  0  0  0
 24 49  1  0  0  0  0
 24 50  1  0  0  0  0
 25 26  1  0  0  0  0
 25 51  1  0  0  0  0
 25 52  1  0  0  0  0
 26 27  1  0  0  0  0
 27 53  1  0  0  0  0
 27 54  1  0  0  0  0
M  END
> <s_m_source_file>
AV-unprocessed.smi

> <i_m_source_file_index>
227

> <i_lp_mmshare_version>
43012

> <i_f3d_flags>
0

> <s_epik_input>
W0NIMl0xT1tDSDJdW0NIMl1bQ0BIXTFbQ0BIXShbQ0gyXVtPSF0pW0NIMl1uKFtjSF1uMiljKGMyMyluW2NIXW5jM04oW0NASF00NSlbQ0BASF0oW0NIMl1bQ0gyXTQpW0NASF0oW0NIMl01KVtDSDJdW09IXQ==

> <s_epik_cmdline>
J2VwaWtfcHl0aG9uJywgJy1waCcsICc3LjAnLCAnLXRuJywgJzgnLCAnLW1hJywgJzIwMCcsICctbWV0YWxfYmluZGluZycsICctaW1hZScsICc8aW5maWxlLm1hZT4nLCAnLW9tYWUnLCAnPG91dGZpbGUubWFlPic=

> <r_lp_tautomer_probability>
1

> <r_epik_Ionization_Penalty>
0.0055791

> <r_epik_Ionization_Penalty_Charging>
0

> <r_epik_Ionization_Penalty_Neutral>
0.0055791

> <r_epik_State_Penalty>
0.00401299

> <r_epik_Charging_Adjusted_Penalty>
0.00401299

> <i_epik_Tot_Q>
0

> <i_epik_Tot_abs_Q>
0

> <r_epik_Metal_State_Penalty>
-0

> <b_epik_Metal_Only>
0

> <s_lp_Force_Field>
OPLS_2005

> <r_lp_Energy>
89.9209

> <b_lp_Chiralities_Consistent>
1

> <s_lp_Variant>
AV-unprocessed.smi:227-13

> <Gold.Version>
5.8.1

> <Gold.Id.Protein>
6NUR|6NUR_protein|mol2

> <Gold.PLP.Fitness>
43.8192

> <Gold.PLP.PLP>
-35.0469

> <Gold.PLP.part.hbond>
-4.9046

> <Gold.PLP.part.metal>
0.0000

> <Gold.PLP.part.buried>
-3.9448

> <Gold.PLP.part.nonpolar>
-26.7681

> <Gold.PLP.part.repulsive>
0.2492

> <Gold.PLP.ligand.clash>
0.0000

> <Gold.PLP.ligand.torsion>
2.2133

> <Gold.PLP.Chemscore.Hbond>
3.4880

> <Gold.PLP.Chemscore.CHOScore>
0.8420

> <Gold.PLP.Chemscore.Metal>
0.0000

> <Gold.Chemscore.Hbonds>
donor molecule, donor type, donor heavy atom, donor atom, acceptor molecule, acceptor atom, score
      L1  H    17    44       P1 10171  1.00
      P1  H  6896  6909       L1     1  0.81
      P1  H  6931  6943       L1    26  0.63
      P1  H  7954  7966       L1    17  0.72
      L1  C    20    47       P1 10175  0.96

> <Gold.PLP.Chemscore.Internal.Correction>
0.2090

> <Gold.Rescore>
     Score         DG    S(hbond)    S(metal)    S(lipo)     H(rot)  DE(clash)    DE(int)     intcor
      8.10     -16.98       3.39        0.00      80.39       3.61       1.44       7.43       ----

> <Gold.Chemscore.Fitness>
8.1013

> <Gold.Chemscore.DG>
-16.9806

> <Gold.Chemscore.ZeroCoef>
-5.4800

> <Gold.Chemscore.Hbond>
3.3921

> <Gold.Chemscore.Metal>
0.0000

> <Gold.Chemscore.Lipo>
80.3862

> <Gold.Chemscore.Internal_Hbond>
0.0000

> <Gold.Chemscore.DEClash>
1.4448

> <Gold.Chemscore.DEInternal>
7.4344

> <Gold.Chemscore.Rot>
3.6071

> <Gold.Chemscore.Internal.Correction>
   9.000000E+99

> <Gold.Chemscore.Hbonds>
donor molecule, donor type, donor heavy atom, donor atom, acceptor molecule, acceptor atom, score
      L1  H    17    44       P1 10171  1.00
      P1  H  6896  6909       L1     1  0.56
      P1  H  6931  6943       L1    26  0.31
      P1  H  7954  7966       L1    17  0.32

> <Gold.Chemscore.Hbond.Weighted>
-11.3296

> <Gold.Chemscore.Metal.Weighted>
-0.0000

> <Gold.Chemscore.Lipo.Weighted>
-9.4052

> <Gold.Chemscore.Internal_Hbond.Weighted>
0.0000

> <Gold.Chemscore.DEClash.Weighted>
1.4448

> <Gold.Chemscore.DEInternal.Weighted>
7.4344

> <Gold.Chemscore.Rot.Weighted>
9.2342

> <Gold.Chemscore.Internal.Correction.Weighted>
   9.000000E+99

> <Gold.Protein.RotatedTorsions>
[ 6907 6896 6895 6894 ] final   54.68 input  -60.11 | X-H torsion
[ 7974 7965 7964 7962 ] final  -96.62 input  175.53 | X-H torsion
[ 8008 7997 7996 7995 ] final   50.16 input   59.86 | X-H torsion
[ 10167 10162 10161 10158 ] final -172.92 input  -65.29 | X-H torsion
[ 10718 10713 10712 10709 ] final   47.26 input   66.30 | X-H torsion
[ 10763 10752 10751 10750 ] final   -7.42 input  -60.55 | X-H torsion
[ 11005 11000 10999 10996 ] final  116.28 input  -57.11 | X-H torsion

> <Gold.Protein.ActiveResidues>
 VAL166  LYS551  ARG553  GLY616  TRP617  ASP618  TYR619  PRO620  LYS621  CYS622 
 ASP623  PHE694  ASN695  SER759  ASP760  ASP761  ALA762  ILE779  LEU786  VAL792 
 PHE793  MET794  SER795  GLU796  ALA797  LYS798  CYS799  TRP800  GLU811  SER814 

> <Gold.Protein.RotatedAtoms>
  152.3463  134.7066  160.0249 H   0  0  0  0  0  0  0  0  0  0  0  0  # atno 6907 bound_to 6896
  151.7434  133.3318  159.3380 H   0  0  0  0  0  0  0  0  0  0  0  0  # atno 6908 bound_to 6896
  150.7511  134.6190  159.6170 H   0  0  0  0  0  0  0  0  0  0  0  0  # atno 6909 bound_to 6896
  145.3445  140.9466  143.2589 H   0  0  0  0  0  0  0  0  0  0  0  0  # atno 7974 bound_to 7965
  155.4142  140.3443  155.4266 H   0  0  0  0  0  0  0  0  0  0  0  0  # atno 8008 bound_to 7997
  156.1431  140.1548  156.8921 H   0  0  0  0  0  0  0  0  0  0  0  0  # atno 8009 bound_to 7997
  154.4987  140.0820  156.7733 H   0  0  0  0  0  0  0  0  0  0  0  0  # atno 8010 bound_to 7997
  139.5717  144.1625  152.1394 H   0  0  0  0  0  0  0  0  0  0  0  0  # atno 10167 bound_to 10162
  157.4567  130.8171  149.7843 H   0  0  0  0  0  0  0  0  0  0  0  0  # atno 10718 bound_to 10713
  153.4261  135.7011  153.6262 H   0  0  0  0  0  0  0  0  0  0  0  0  # atno 10763 bound_to 10752
  153.4696  135.3718  155.2384 H   0  0  0  0  0  0  0  0  0  0  0  0  # atno 10764 bound_to 10752
  154.8724  135.4040  154.3637 H   0  0  0  0  0  0  0  0  0  0  0  0  # atno 10765 bound_to 10752
  139.9036  134.9596  156.7174 H   0  0  0  0  0  0  0  0  0  0  0  0  # atno 11005 bound_to 11000
  144.8764  139.4965  143.6743 LP  0  0  0  0  0  0  0  0  0  0  0  0  # atno 17320 bound_to 7965
  146.2993  139.7377  142.9103 LP  0  0  0  0  0  0  0  0  0  0  0  0  # atno 17321 bound_to 7965
  140.1160  144.5416  150.6894 LP  0  0  0  0  0  0  0  0  0  0  0  0  # atno 17342 bound_to 10162
  140.7001  143.2429  151.4887 LP  0  0  0  0  0  0  0  0  0  0  0  0  # atno 17343 bound_to 10162
  156.0010  130.3880  150.2606 LP  0  0  0  0  0  0  0  0  0  0  0  0  # atno 17370 bound_to 10713
  157.0781  131.0135  151.3166 LP  0  0  0  0  0  0  0  0  0  0  0  0  # atno 17371 bound_to 10713
  140.7028  133.9291  155.8035 LP  0  0  0  0  0  0  0  0  0  0  0  0  # atno 17394 bound_to 11000
  141.0359  134.0690  157.3960 LP  0  0  0  0  0  0  0  0  0  0  0  0  # atno 17395 bound_to 11000

$$$$
