#       Name:                AV-unprocessed.smi:53
#       Creating user name   scv26
#       Creation time:       Thu Mar 26 16:39:52 2020


#       File generated by GOLD software.
#

@<TRIPOS>MOLECULE
AV-unprocessed.smi:53
    41    42     1
SMALL
NO_CHARGES


@<TRIPOS>ATOM
      1 ****        -4.9666  -0.5841  -0.2593 N.pl3          1 S1                 0.0000
      2 ****        -3.6312  -0.6983  -0.2619 C.2            1 S1                 0.0000
      3 ****        -2.7973   0.4812  -0.3146 C.2            1 S1                 0.0000
      4 ****        -1.4610   0.2829  -0.3159 C.2            1 S1                 0.0000
      5 ****        -0.9006  -0.9858  -0.2731 N.am           1 S1                 0.0000
      6 ****         0.6034  -1.1684  -0.2718 C.3            1 S1                 0.0000
      7 ****         1.1688  -0.1956  -1.0989 O.3            1 S1                 0.0000
      8 ****         2.3395   0.3268  -0.4831 C.3            1 S1                 0.0000
      9 ****         2.7096   1.6969  -1.0784 C.3            1 S1                 0.0000
     10 ****         3.9199   2.1632  -0.5208 O.3            1 S1                 0.0000
     11 ****         2.0235   0.2783   1.0190 C.3            1 S1                 0.0000
     12 ****         1.2778   1.4151   1.4224 O.3            1 S1                 0.0000
     13 ****         1.2284  -1.0193   1.1337 C.3            1 S1                 0.0000
     14 ****         0.3181  -1.0234   2.2203 O.3            1 S1                 0.0000
     15 ****        -1.7434  -2.1223  -0.2108 C.2            1 S1                 0.0000
     16 ****        -1.2937  -3.2658  -0.1456 O.2            1 S1                 0.0000
     17 ****        -3.0949  -1.9024  -0.2136 N.2            1 S1                 0.0000
     18 ****         0.8096  -2.1410  -0.7212 H              1 S1                 0.0000
     19 ****         3.1453  -0.3801  -0.6905 H              1 S1                 0.0000
     20 ****         2.9330   0.2432   1.6197 H              1 S1                 0.0000
     21 ****         1.9229  -1.8501   1.2652 H              1 S1                 0.0000
     22 ****        -5.5471  -1.4094  -0.2209 H              1 S1                 0.0000
     23 ****        -5.3904   0.3318  -0.2970 H              1 S1                 0.0000
     24 ****        -3.1903   1.4871  -0.3524 H              1 S1                 0.0000
     25 ****        -0.8221   1.1528  -0.3522 H              1 S1                 0.0000
     26 ****         2.8414   1.6076  -2.1569 H              1 S1                 0.0000
     27 ****         1.9212   2.4323  -0.9168 H              1 S1                 0.0000
     28 ****         4.1454   2.9828  -0.9340 H              1 S1                 0.0000
     29 ****         1.8195   2.1814   1.3092 H              1 S1                 0.0000
     30 ****        -0.2886  -0.3088   2.0981 H              1 S1                 0.0000
     31 ****         0.5103   0.5429  -1.2436 LP             1 S1                 0.0000
     32 ****         1.4093  -0.6049  -1.9790 LP             1 S1                 0.0000
     33 ****         4.6452   1.4938  -0.6818 LP             1 S1                 0.0000
     34 ****         3.8065   2.3017   0.4630 LP             1 S1                 0.0000
     35 ****         1.0169   1.3246   2.3835 LP             1 S1                 0.0000
     36 ****         0.4551   1.4967   0.8599 LP             1 S1                 0.0000
     37 ****         0.8154  -0.9026   3.0794 LP             1 S1                 0.0000
     38 ****        -0.1795  -1.8905   2.2422 LP             1 S1                 0.0000
     39 ****        -0.3048  -3.4143  -0.1353 LP             1 S1                 0.0000
     40 ****        -1.9171  -4.0465  -0.1029 LP             1 S1                 0.0000
     41 ****        -3.7053  -2.6936  -0.1773 LP             1 S1                 0.0000
@<TRIPOS>BOND
    1    1    2 1     
    2    1   22 1     
    3    1   23 1     
    4    2   17 2     
    5    2    3 1     
    6    3    4 2     
    7    3   24 1     
    8    4    5 1     
    9    4   25 1     
   10    5    6 1     
   11    5   15 am    
   12    6   18 1     
   13    6   13 1     
   14    6    7 1     
   15    7    8 1     
   16    8   19 1     
   17    8    9 1     
   18    8   11 1     
   19    9   10 1     
   20    9   26 1     
   21    9   27 1     
   22   10   28 1     
   23   11   20 1     
   24   11   12 1     
   25   11   13 1     
   26   12   29 1     
   27   13   21 1     
   28   13   14 1     
   29   14   30 1     
   30   15   16 2     
   31   15   17 1     
   32    7   31 1     
   33    7   32 1     
   34   10   33 1     
   35   10   34 1     
   36   12   35 1     
   37   12   36 1     
   38   14   37 1     
   39   14   38 1     
   40   16   39 1     
   41   16   40 1     
   42   17   41 1     
@<TRIPOS>SUBSTRUCTURE
      1 S1             1
@<TRIPOS>SET
LONE_PAIRS      STATIC     ATOMS    <user>   **** ""
11 31 32 33 34 35 36 37 38 39 40 41
DONOR_HYDROGENS      STATIC     ATOMS    <user>   **** ""
5 22 23 28 29 30
ATOM$BLUE        STATIC     ATOMS    COLORGROUP SYSTEM
11 31 32 33 34 35 36 37 38 39 40 41
ATOM$RED        STATIC     ATOMS    COLORGROUP SYSTEM
5 22 23 28 29 30
