AV-unprocessed.smi:1538|AV-procd|sdf|6195|dock9
  -GOLD-   22720 6363D 1   1.00000     0.00000
 Structure written by MMmdl.
 36 37  0  0  0  0  0  0  0  0  1 V2000
  151.8516  145.4319  160.2608 C   0  0  0  0  0  0  0  0  0  0  0  0
  152.0720  144.0167  159.9576 N   0  0  0  0  0  0  0  0  0  0  0  0
  152.5327  143.2030  161.0916 C   0  0  0  0  0  0  0  0  0  0  0  0
  153.1555  141.8649  160.6736 C   0  0  0  0  0  0  0  0  0  0  0  0
  152.2473  141.1566  159.6602 C   0  0  2  0  0  0  0  0  0  0  0  0
  152.8222  139.7856  159.2783 C   0  0  0  0  0  0  0  0  0  0  0  0
  153.8863  139.3994  159.7634 O   0  0  0  0  0  0  0  0  0  0  0  0
  152.1075  139.0597  158.4048 N   0  0  0  0  0  0  0  0  0  0  0  0
  152.4827  137.7416  157.9075 C   0  0  0  0  0  0  0  0  0  0  0  0
  153.0641  137.8189  156.4863 C   0  0  0  0  0  0  0  0  0  0  0  0
  152.0715  138.2662  155.5311 N   0  0  0  0  0  0  0  0  0  0  0  0
  151.5109  137.5267  154.4982 C   0  0  0  0  0  0  0  0  0  0  0  0
  150.6197  138.3585  153.8586 C   0  0  0  0  0  0  0  0  0  0  0  0
  150.6152  139.6061  154.4781 N   0  0  0  0  0  0  0  0  0  0  0  0
  151.4987  139.4754  155.4593 C   0  0  0  0  0  0  0  0  0  0  0  0
  152.0689  142.0472  158.4140 C   0  0  0  0  0  0  0  0  0  0  0  0
  151.7895  143.5272  158.7259 C   0  0  0  0  0  0  0  0  0  0  0  0
  151.3406  144.2329  157.8221 O   0  0  0  0  0  0  0  0  0  0  0  0
  150.8272  145.7255  160.0264 H   0  0  0  0  0  0  0  0  0  0  0  0
  152.5285  146.0562  159.6761 H   0  0  0  0  0  0  0  0  0  0  0  0
  152.0187  145.6585  161.3144 H   0  0  0  0  0  0  0  0  0  0  0  0
  153.2592  143.7615  161.6835 H   0  0  0  0  0  0  0  0  0  0  0  0
  151.6764  143.0189  161.7415 H   0  0  0  0  0  0  0  0  0  0  0  0
  154.1393  142.0455  160.2368 H   0  0  0  0  0  0  0  0  0  0  0  0
  153.3155  141.2414  161.5544 H   0  0  0  0  0  0  0  0  0  0  0  0
  151.2690  141.0064  160.1213 H   0  0  0  0  0  0  0  0  0  0  0  0
  151.2436  139.4503  158.0569 H   0  0  0  0  0  0  0  0  0  0  0  0
  153.1950  137.2734  158.5892 H   0  0  0  0  0  0  0  0  0  0  0  0
  151.5914  137.1133  157.9110 H   0  0  0  0  0  0  0  0  0  0  0  0
  153.9115  138.5054  156.4564 H   0  0  0  0  0  0  0  0  0  0  0  0
  153.4336  136.8442  156.1652 H   0  0  0  0  0  0  0  0  0  0  0  0
  151.7841  136.4987  154.3098 H   0  0  0  0  0  0  0  0  0  0  0  0
  149.9861  138.1565  153.0076 H   0  0  0  0  0  0  0  0  0  0  0  0
  151.7343  140.2784  156.1425 H   0  0  0  0  0  0  0  0  0  0  0  0
  152.9658  142.0191  157.7934 H   0  0  0  0  0  0  0  0  0  0  0  0
  151.2567  141.6590  157.7978 H   0  0  0  0  0  0  0  0  0  0  0  0
  1  2  1  0  0  0  0
  1 19  1  0  0  0  0
  1 20  1  0  0  0  0
  1 21  1  0  0  0  0
  2 17  1  0  0  0  0
  2  3  1  0  0  0  0
  3  4  1  0  0  0  0
  3 22  1  0  0  0  0
  3 23  1  0  0  0  0
  4  5  1  0  0  0  0
  4 24  1  0  0  0  0
  4 25  1  0  0  0  0
  5  6  1  0  0  0  0
  5 16  1  0  0  0  0
  5 26  1  0  0  0  0
  6  7  2  0  0  0  0
  6  8  1  0  0  0  0
  8  9  1  0  0  0  0
  8 27  1  0  0  0  0
  9 10  1  0  0  0  0
  9 28  1  0  0  0  0
  9 29  1  0  0  0  0
 10 11  1  0  0  0  0
 10 30  1  0  0  0  0
 10 31  1  0  0  0  0
 11 15  1  0  0  0  0
 11 12  1  0  0  0  0
 12 13  2  0  0  0  0
 12 32  1  0  0  0  0
 13 14  1  0  0  0  0
 13 33  1  0  0  0  0
 14 15  2  0  0  0  0
 15 34  1  0  0  0  0
 16 17  1  0  0  0  0
 16 35  1  0  0  0  0
 16 36  1  0  0  0  0
 17 18  2  0  0  0  0
M  END
> <s_m_source_file>
AV-unprocessed.smi

> <i_m_source_file_index>
1538

> <i_lp_mmshare_version>
43012

> <i_f3d_flags>
0

> <s_epik_input>
W0NIM11OMVtDSDJdW0NIMl1bQ0BIXShbQ0gyXUMxPU8pQyg9TylbTkhdW0NIMl1bQ0gyXW4yW2NIXVtjSF1uW2NIXTI=

> <s_epik_cmdline>
J2VwaWtfcHl0aG9uJywgJy1waCcsICc3LjAnLCAnLXRuJywgJzgnLCAnLW1hJywgJzIwMCcsICctbWV0YWxfYmluZGluZycsICctaW1hZScsICc8aW5maWxlLm1hZT4nLCAnLW9tYWUnLCAnPG91dGZpbGUubWFlPic=

> <r_lp_tautomer_probability>
1

> <r_epik_Ionization_Penalty>
0.590576

> <r_epik_Ionization_Penalty_Charging>
0.590576

> <r_epik_Ionization_Penalty_Neutral>
2.97775e-08

> <r_epik_State_Penalty>
0.604111

> <r_epik_Charging_Adjusted_Penalty>
1.19469

> <i_epik_Tot_Q>
0

> <i_epik_Tot_abs_Q>
0

> <r_epik_Metal_State_Penalty>
0.298544

> <b_epik_Metal_Only>
0

> <s_lp_Force_Field>
OPLS_2005

> <r_lp_Energy>
14.6501

> <b_lp_Chiralities_Consistent>
1

> <s_lp_Variant>
AV-unprocessed.smi:1538-4

> <Gold.Version>
5.8.1

> <Gold.Id.Protein>
6NUR|6NUR_protein|mol2

> <Gold.PLP.Fitness>
47.7551

> <Gold.PLP.PLP>
-39.4661

> <Gold.PLP.part.hbond>
-1.0000

> <Gold.PLP.part.metal>
0.0000

> <Gold.PLP.part.buried>
-6.3570

> <Gold.PLP.part.nonpolar>
-33.2546

> <Gold.PLP.part.repulsive>
0.3435

> <Gold.PLP.ligand.clash>
0.0000

> <Gold.PLP.ligand.torsion>
0.1777

> <Gold.PLP.Chemscore.Hbond>
0.9500

> <Gold.PLP.Chemscore.CHOScore>
1.9285

> <Gold.PLP.Chemscore.Metal>
0.0000

> <Gold.Chemscore.Hbonds>
donor molecule, donor type, donor heavy atom, donor atom, acceptor molecule, acceptor atom, score
      P1  H  7989  7998       L1    14  0.80
      L1  C    12    32       P1  7949  0.01
      L1  C    13    33       P1  7948  1.00
      L1  C    13    33       P1  7957  0.58

> <Gold.PLP.Chemscore.Internal.Correction>
0.0089

> <Gold.Rescore>
     Score         DG    S(hbond)    S(metal)    S(lipo)     H(rot)  DE(clash)    DE(int)     intcor
     12.09     -12.34       0.79        0.00      79.30       1.98       0.01       0.24       ----

> <Gold.Chemscore.Fitness>
12.0915

> <Gold.Chemscore.DG>
-12.3355

> <Gold.Chemscore.ZeroCoef>
-5.4800

> <Gold.Chemscore.Hbond>
0.7910

> <Gold.Chemscore.Metal>
0.0000

> <Gold.Chemscore.Lipo>
79.2968

> <Gold.Chemscore.Internal_Hbond>
0.0000

> <Gold.Chemscore.DEClash>
0.0067

> <Gold.Chemscore.DEInternal>
0.2374

> <Gold.Chemscore.Rot>
1.9782

> <Gold.Chemscore.Internal.Correction>
   9.000000E+99

> <Gold.Chemscore.Hbonds>
donor molecule, donor type, donor heavy atom, donor atom, acceptor molecule, acceptor atom, score
      P1  H  7989  7998       L1    14  0.09

> <Gold.Chemscore.Hbond.Weighted>
-2.6421

> <Gold.Chemscore.Metal.Weighted>
-0.0000

> <Gold.Chemscore.Lipo.Weighted>
-9.2777

> <Gold.Chemscore.Internal_Hbond.Weighted>
0.0000

> <Gold.Chemscore.DEClash.Weighted>
0.0067

> <Gold.Chemscore.DEInternal.Weighted>
0.2374

> <Gold.Chemscore.Rot.Weighted>
5.0643

> <Gold.Chemscore.Internal.Correction.Weighted>
   9.000000E+99

> <Gold.Protein.RotatedTorsions>
[ 6907 6896 6895 6894 ] final  -89.82 input  -60.11 | X-H torsion
[ 7974 7965 7964 7962 ] final  168.10 input  175.53 | X-H torsion
[ 8008 7997 7996 7995 ] final   52.75 input   59.86 | X-H torsion
[ 10167 10162 10161 10158 ] final  162.61 input  -65.29 | X-H torsion
[ 10718 10713 10712 10709 ] final   49.65 input   66.30 | X-H torsion
[ 10763 10752 10751 10750 ] final  109.29 input  -60.55 | X-H torsion
[ 11005 11000 10999 10996 ] final -124.91 input  -57.11 | X-H torsion

> <Gold.Protein.ActiveResidues>
 VAL166  LYS551  ARG553  GLY616  TRP617  ASP618  TYR619  PRO620  LYS621  CYS622 
 ASP623  PHE694  ASN695  SER759  ASP760  ASP761  ALA762  ILE779  LEU786  VAL792 
 PHE793  MET794  SER795  GLU796  ALA797  LYS798  CYS799  TRP800  GLU811  SER814 

> <Gold.Protein.RotatedAtoms>
  150.6876  134.2528  159.4517 H   0  0  0  0  0  0  0  0  0  0  0  0  # atno 6907 bound_to 6896
  152.0464  134.9678  160.0583 H   0  0  0  0  0  0  0  0  0  0  0  0  # atno 6908 bound_to 6896
  152.1159  133.4292  159.4690 H   0  0  0  0  0  0  0  0  0  0  0  0  # atno 6909 bound_to 6896
  144.7400  139.8858  143.6399 H   0  0  0  0  0  0  0  0  0  0  0  0  # atno 7974 bound_to 7965
  155.4570  140.3460  155.4308 H   0  0  0  0  0  0  0  0  0  0  0  0  # atno 8008 bound_to 7997
  156.1185  140.1480  156.9268 H   0  0  0  0  0  0  0  0  0  0  0  0  # atno 8009 bound_to 7997
  154.4806  140.0871  156.7347 H   0  0  0  0  0  0  0  0  0  0  0  0  # atno 8010 bound_to 7997
  139.4863  144.4420  151.8939 H   0  0  0  0  0  0  0  0  0  0  0  0  # atno 10167 bound_to 10162
  157.4808  130.8314  149.8091 H   0  0  0  0  0  0  0  0  0  0  0  0  # atno 10718 bound_to 10713
  153.4326  135.3785  155.2180 H   0  0  0  0  0  0  0  0  0  0  0  0  # atno 10763 bound_to 10752
  154.8750  135.3844  154.4249 H   0  0  0  0  0  0  0  0  0  0  0  0  # atno 10764 bound_to 10752
  153.4784  135.7088  153.6015 H   0  0  0  0  0  0  0  0  0  0  0  0  # atno 10765 bound_to 10752
  140.9804  134.0682  157.3772 H   0  0  0  0  0  0  0  0  0  0  0  0  # atno 11005 bound_to 11000
  146.1178  139.4191  143.0247 LP  0  0  0  0  0  0  0  0  0  0  0  0  # atno 17320 bound_to 7965
  145.7349  141.0029  143.1332 LP  0  0  0  0  0  0  0  0  0  0  0  0  # atno 17321 bound_to 7965
  140.3872  144.2661  150.5903 LP  0  0  0  0  0  0  0  0  0  0  0  0  # atno 17342 bound_to 10162
  140.5179  143.2273  151.8435 LP  0  0  0  0  0  0  0  0  0  0  0  0  # atno 17343 bound_to 10162
  156.0120  130.3829  150.2232 LP  0  0  0  0  0  0  0  0  0  0  0  0  # atno 17370 bound_to 10713
  157.0418  131.0037  151.3281 LP  0  0  0  0  0  0  0  0  0  0  0  0  # atno 17371 bound_to 10713
  139.8948  135.0137  156.6967 LP  0  0  0  0  0  0  0  0  0  0  0  0  # atno 17394 bound_to 11000
  140.7196  133.9153  155.8138 LP  0  0  0  0  0  0  0  0  0  0  0  0  # atno 17395 bound_to 11000

$$$$
