AV-unprocessed.smi:2031|AV-procd|sdf|8229|dock2
  -GOLD-   2272010503D 1   1.00000     0.00000
 Structure written by MMmdl.
 41 42  0  0  0  0  0  0  0  0  3 V2000
  152.4073  140.9500  155.0634 C   0  0  0  0  0  0  0  0  0  0  0  0
  152.0869  139.5028  155.2233 C   0  0  0  0  0  0  0  0  0  0  0  0
  150.9115  138.8069  155.2089 C   0  0  0  0  0  0  0  0  0  0  0  0
  151.3269  137.4634  155.4176 C   0  0  0  0  0  0  0  0  0  0  0  0
  150.5199  136.3943  155.4980 N   0  5  0  0  0  0  0  0  0  0  0  0
  149.2176  136.5471  155.8286 C   0  0  0  0  0  0  0  0  0  0  0  0
  148.7786  137.0600  156.8607 O   0  0  0  0  0  0  0  0  0  0  0  0
  148.3683  136.0688  154.9078 N   0  0  0  0  0  0  0  0  0  0  0  0
  146.9135  136.0866  155.0000 C   0  0  0  0  0  0  0  0  0  0  0  0
  146.2702  136.5165  153.6666 C   0  0  0  0  0  0  0  0  0  0  0  0
  146.4223  135.4952  152.5960 N   0  3  0  0  0  0  0  0  0  0  0  0
  145.9106  135.9728  151.2808 C   0  0  0  0  0  0  0  0  0  0  0  0
  144.4008  135.7562  151.0635 C   0  0  0  0  0  0  0  0  0  0  0  0
  144.0876  134.4093  150.3930 C   0  0  0  0  0  0  0  0  0  0  0  0
  144.3334  133.1898  151.2910 C   0  0  0  0  0  0  0  0  0  0  0  0
  145.7487  133.1208  151.8895 C   0  0  0  0  0  0  0  0  0  0  0  0
  145.9708  134.1397  153.0246 C   0  0  0  0  0  0  0  0  0  0  0  0
  152.6372  137.3555  155.5616 N   0  0  0  0  0  0  0  0  0  0  0  0
  153.1329  138.6583  155.4307 O   0  0  0  0  0  0  0  0  0  0  0  0
  151.8702  141.5468  155.8006 H   0  0  0  0  0  0  0  0  0  0  0  0
  152.1219  141.3003  154.0715 H   0  0  0  0  0  0  0  0  0  0  0  0
  153.4742  141.1346  155.1927 H   0  0  0  0  0  0  0  0  0  0  0  0
  149.9139  139.1956  155.0697 H   0  0  0  0  0  0  0  0  0  0  0  0
  148.7704  135.6608  154.0764 H   0  0  0  0  0  0  0  0  0  0  0  0
  146.5468  135.1059  155.3076 H   0  0  0  0  0  0  0  0  0  0  0  0
  146.6549  136.7821  155.7979 H   0  0  0  0  0  0  0  0  0  0  0  0
  145.2132  136.7457  153.8098 H   0  0  0  0  0  0  0  0  0  0  0  0
  146.7441  137.4440  153.3436 H   0  0  0  0  0  0  0  0  0  0  0  0
  146.1417  137.0324  151.1659 H   0  0  0  0  0  0  0  0  0  0  0  0
  146.4757  135.4859  150.4854 H   0  0  0  0  0  0  0  0  0  0  0  0
  143.8404  135.8772  151.9915 H   0  0  0  0  0  0  0  0  0  0  0  0
  144.0415  136.5423  150.3985 H   0  0  0  0  0  0  0  0  0  0  0  0
  143.0429  134.4038  150.0797 H   0  0  0  0  0  0  0  0  0  0  0  0
  144.6713  134.3122  149.4769 H   0  0  0  0  0  0  0  0  0  0  0  0
  143.5938  133.1691  152.0925 H   0  0  0  0  0  0  0  0  0  0  0  0
  144.1546  132.2892  150.7024 H   0  0  0  0  0  0  0  0  0  0  0  0
  145.8674  132.1241  152.3160 H   0  0  0  0  0  0  0  0  0  0  0  0
  146.5166  133.1994  151.1191 H   0  0  0  0  0  0  0  0  0  0  0  0
  146.7366  133.7403  153.6897 H   0  0  0  0  0  0  0  0  0  0  0  0
  145.0636  134.2196  153.6257 H   0  0  0  0  0  0  0  0  0  0  0  0
  147.4193  135.4163  152.4545 H   0  0  0  0  0  0  0  0  0  0  0  0
  1  2  1  0  0  0  0
  1 20  1  0  0  0  0
  1 21  1  0  0  0  0
  1 22  1  0  0  0  0
  2 19  1  0  0  0  0
  2  3  2  0  0  0  0
  3  4  1  0  0  0  0
  3 23  1  0  0  0  0
  4  5  1  0  0  0  0
  4 18  2  0  0  0  0
  5  6  1  0  0  0  0
  6  7  2  0  0  0  0
  6  8  1  0  0  0  0
  8  9  1  0  0  0  0
  8 24  1  0  0  0  0
  9 10  1  0  0  0  0
  9 25  1  0  0  0  0
  9 26  1  0  0  0  0
 10 11  1  0  0  0  0
 10 27  1  0  0  0  0
 10 28  1  0  0  0  0
 11 17  1  0  0  0  0
 11 12  1  0  0  0  0
 11 41  1  0  0  0  0
 12 13  1  0  0  0  0
 12 29  1  0  0  0  0
 12 30  1  0  0  0  0
 13 14  1  0  0  0  0
 13 31  1  0  0  0  0
 13 32  1  0  0  0  0
 14 15  1  0  0  0  0
 14 33  1  0  0  0  0
 14 34  1  0  0  0  0
 15 16  1  0  0  0  0
 15 35  1  0  0  0  0
 15 36  1  0  0  0  0
 16 17  1  0  0  0  0
 16 37  1  0  0  0  0
 16 38  1  0  0  0  0
 17 39  1  0  0  0  0
 17 40  1  0  0  0  0
 18 19  1  0  0  0  0
M  CHG  1   5  -1
M  CHG  1  11   1
M  END
> <s_m_source_file>
AV-unprocessed.smi

> <i_m_source_file_index>
2031

> <i_lp_mmshare_version>
43012

> <i_f3d_flags>
0

> <s_epik_input>
W0NIM11jMVtjSF1jKG5vMSlbTkhdQyg9TylbTkhdW0NIMl1bQ0gyXU4yW0NIMl1bQ0gyXVtDSDJdW0NIMl1bQ0gyXVtDSDJdMg==

> <s_epik_cmdline>
J2VwaWtfcHl0aG9uJywgJy1waCcsICc3LjAnLCAnLXRuJywgJzgnLCAnLW1hJywgJzIwMCcsICctbWV0YWxfYmluZGluZycsICctaW1hZScsICc8aW5maWxlLm1hZT4nLCAnLW9tYWUnLCAnPG91dGZpbGUubWFlPic=

> <r_epik_Ionization_Penalty>
6.22371

> <r_epik_Ionization_Penalty_Charging>
6.22362

> <r_epik_Ionization_Penalty_Neutral>
9.36972e-05

> <r_epik_State_Penalty>
6.22363

> <r_epik_Charging_Adjusted_Penalty>
12.4472

> <i_epik_Tot_Q>
0

> <i_epik_Tot_abs_Q>
2

> <r_epik_Metal_State_Penalty>
2.16675

> <b_epik_Metal_Only>
1

> <s_lp_Force_Field>
OPLS_2005

> <r_lp_Energy>
10.3007

> <b_lp_Chiralities_Consistent>
1

> <s_lp_Variant>
AV-unprocessed.smi:2031-2

> <Gold.Version>
5.8.1

> <Gold.Id.Protein>
6NUR|6NUR_protein|mol2

> <Gold.PLP.Fitness>
48.9257

> <Gold.PLP.PLP>
-32.4336

> <Gold.PLP.part.hbond>
-5.4843

> <Gold.PLP.part.metal>
0.0000

> <Gold.PLP.part.buried>
-5.3099

> <Gold.PLP.part.nonpolar>
-22.4527

> <Gold.PLP.part.repulsive>
1.0035

> <Gold.PLP.ligand.clash>
0.0000

> <Gold.PLP.ligand.torsion>
0.8073

> <Gold.PLP.Chemscore.Hbond>
6.0000

> <Gold.PLP.Chemscore.CHOScore>
0.0000

> <Gold.PLP.Chemscore.Metal>
0.0000

> <Gold.Chemscore.Hbonds>
donor molecule, donor type, donor heavy atom, donor atom, acceptor molecule, acceptor atom, score
      L1  H     8    24       P1  7948  0.29
      L1  H    11    41       P1  7948  1.89
      P1  H  7997  8010       L1    19  0.64
      P1  H 10752 10765       L1    18  0.56

> <Gold.PLP.Chemscore.Internal.Correction>
0.1067

> <Gold.Rescore>
     Score         DG    S(hbond)    S(metal)    S(lipo)     H(rot)  DE(clash)    DE(int)     intcor
     17.14     -18.28       3.01        0.00      57.31       1.54       0.17       0.98       ----

> <Gold.Chemscore.Fitness>
17.1386

> <Gold.Chemscore.DG>
-18.2839

> <Gold.Chemscore.ZeroCoef>
-5.4800

> <Gold.Chemscore.Hbond>
3.0070

> <Gold.Chemscore.Metal>
0.0000

> <Gold.Chemscore.Lipo>
57.3088

> <Gold.Chemscore.Internal_Hbond>
0.0000

> <Gold.Chemscore.DEClash>
0.1699

> <Gold.Chemscore.DEInternal>
0.9753

> <Gold.Chemscore.Rot>
1.5409

> <Gold.Chemscore.Internal.Correction>
   9.000000E+99

> <Gold.Chemscore.Hbonds>
donor molecule, donor type, donor heavy atom, donor atom, acceptor molecule, acceptor atom, score
      L1  H     8    24       P1  7948  0.29
      L1  H    11    41       P1  7948  0.91
      P1  H  7997  8010       L1    19  0.06
      P1  H 10752 10765       L1    18  0.16

> <Gold.Chemscore.Hbond.Weighted>
-10.0434

> <Gold.Chemscore.Metal.Weighted>
-0.0000

> <Gold.Chemscore.Lipo.Weighted>
-6.7051

> <Gold.Chemscore.Internal_Hbond.Weighted>
0.0000

> <Gold.Chemscore.DEClash.Weighted>
0.1699

> <Gold.Chemscore.DEInternal.Weighted>
0.9753

> <Gold.Chemscore.Rot.Weighted>
3.9446

> <Gold.Chemscore.Internal.Correction.Weighted>
   9.000000E+99

> <Gold.Protein.RotatedTorsions>
[ 6907 6896 6895 6894 ] final   70.18 input  -60.11 | X-H torsion
[ 7974 7965 7964 7962 ] final   71.32 input  175.53 | X-H torsion
[ 8008 7997 7996 7995 ] final  103.38 input   59.86 | X-H torsion
[ 10167 10162 10161 10158 ] final  -23.07 input  -65.29 | X-H torsion
[ 10718 10713 10712 10709 ] final -130.61 input   66.30 | X-H torsion
[ 10763 10752 10751 10750 ] final -178.10 input  -60.55 | X-H torsion
[ 11005 11000 10999 10996 ] final -130.09 input  -57.11 | X-H torsion

> <Gold.Protein.ActiveResidues>
 VAL166  LYS551  ARG553  GLY616  TRP617  ASP618  TYR619  PRO620  LYS621  CYS622 
 ASP623  PHE694  ASN695  SER759  ASP760  ASP761  ALA762  ILE779  LEU786  VAL792 
 PHE793  MET794  SER795  GLU796  ALA797  LYS798  CYS799  TRP800  GLU811  SER814 

> <Gold.Protein.RotatedAtoms>
  152.4733  134.4907  159.9694 H   0  0  0  0  0  0  0  0  0  0  0  0  # atno 6907 bound_to 6896
  151.4928  133.3515  159.2864 H   0  0  0  0  0  0  0  0  0  0  0  0  # atno 6908 bound_to 6896
  150.8756  134.8165  159.7248 H   0  0  0  0  0  0  0  0  0  0  0  0  # atno 6909 bound_to 6896
  145.7673  139.2827  143.1341 H   0  0  0  0  0  0  0  0  0  0  0  0  # atno 7974 bound_to 7965
  156.1478  140.3166  155.8599 H   0  0  0  0  0  0  0  0  0  0  0  0  # atno 8008 bound_to 7997
  155.4029  140.0501  157.3053 H   0  0  0  0  0  0  0  0  0  0  0  0  # atno 8009 bound_to 7997
  154.5032  140.2137  155.9316 H   0  0  0  0  0  0  0  0  0  0  0  0  # atno 8010 bound_to 7997
  140.7287  143.4476  151.0563 H   0  0  0  0  0  0  0  0  0  0  0  0  # atno 10167 bound_to 10162
  156.2161  130.6949  151.0704 H   0  0  0  0  0  0  0  0  0  0  0  0  # atno 10718 bound_to 10713
  154.5519  135.2813  155.1001 H   0  0  0  0  0  0  0  0  0  0  0  0  # atno 10763 bound_to 10752
  154.2443  135.6351  153.5221 H   0  0  0  0  0  0  0  0  0  0  0  0  # atno 10764 bound_to 10752
  153.0005  135.5567  154.6088 H   0  0  0  0  0  0  0  0  0  0  0  0  # atno 10765 bound_to 10752
  140.9375  134.1237  157.4180 H   0  0  0  0  0  0  0  0  0  0  0  0  # atno 11005 bound_to 11000
  146.0205  140.8353  142.9926 LP  0  0  0  0  0  0  0  0  0  0  0  0  # atno 17320 bound_to 7965
  144.6819  140.2621  143.7317 LP  0  0  0  0  0  0  0  0  0  0  0  0  # atno 17321 bound_to 7965
  139.8150  143.7899  152.3174 LP  0  0  0  0  0  0  0  0  0  0  0  0  # atno 17342 bound_to 10162
  139.7961  144.7392  150.9888 LP  0  0  0  0  0  0  0  0  0  0  0  0  # atno 17343 bound_to 10162
  157.7064  131.0754  150.6653 LP  0  0  0  0  0  0  0  0  0  0  0  0  # atno 17370 bound_to 10713
  156.6714  130.4540  149.5656 LP  0  0  0  0  0  0  0  0  0  0  0  0  # atno 17371 bound_to 10713
  139.8812  135.0026  156.6135 LP  0  0  0  0  0  0  0  0  0  0  0  0  # atno 17394 bound_to 11000
  140.7779  133.8684  155.8544 LP  0  0  0  0  0  0  0  0  0  0  0  0  # atno 17395 bound_to 11000

$$$$
