AV-unprocessed.smi:1158|AV-procd|sdf|4912|dock3
  -GOLD-   22720 3493D 1   1.00000     0.00000
 Structure written by MMmdl.
 43 44  0  0  0  0  0  0  0  0  2 V2000
  146.1807  132.5414  151.8721 C   0  0  0  0  0  0  0  0  0  0  0  0
  147.1625  133.1550  152.7002 O   0  0  0  0  0  0  0  0  0  0  0  0
  147.9605  132.3469  153.4877 C   0  0  0  0  0  0  0  0  0  0  0  0
  147.7610  131.0054  153.4445 N   0  0  0  0  0  0  0  0  0  0  0  0
  148.5349  130.2152  154.2162 C   0  0  0  0  0  0  0  0  0  0  0  0
  149.5347  130.7146  155.0704 C   0  0  0  0  0  0  0  0  0  0  0  0
  149.7440  132.1053  155.1169 C   0  0  0  0  0  0  0  0  0  0  0  0
  148.9504  132.9479  154.3007 C   0  0  0  0  0  0  0  0  0  0  0  0
  149.0655  134.3661  154.2783 N   0  0  0  0  0  0  0  0  0  0  0  0
  149.5998  135.1827  155.2023 C   0  0  0  0  0  0  0  0  0  0  0  0
  150.0913  134.8269  156.2728 O   0  0  0  0  0  0  0  0  0  0  0  0
  149.5474  136.4623  154.8050 N   0  0  0  0  0  0  0  0  0  0  0  0
  150.0651  137.5986  155.5620 C   0  0  2  0  0  0  0  0  0  0  0  0
  148.9397  138.5884  155.9094 C   0  0  0  0  0  0  0  0  0  0  0  0
  149.4968  139.8306  156.6235 C   0  0  0  0  0  0  0  0  0  0  0  0
  150.5406  140.5048  155.8071 N   0  3  1  0  0  0  0  0  0  0  0  0
  150.9923  141.7781  156.4275 C   0  0  0  0  0  0  0  0  0  0  0  0
  151.1599  141.6847  157.9542 C   0  0  0  0  0  0  0  0  0  0  0  0
  152.0030  140.6954  158.2466 F   0  0  0  0  0  0  0  0  0  0  0  0
  151.6393  142.8139  158.4736 F   0  0  0  0  0  0  0  0  0  0  0  0
  151.6556  139.5764  155.4787 C   0  0  0  0  0  0  0  0  0  0  0  0
  151.1458  138.3236  154.7454 C   0  0  0  0  0  0  0  0  0  0  0  0
  145.6370  133.3127  151.3269 H   0  0  0  0  0  0  0  0  0  0  0  0
  145.4550  131.9794  152.4618 H   0  0  0  0  0  0  0  0  0  0  0  0
  146.6369  131.8768  151.1372 H   0  0  0  0  0  0  0  0  0  0  0  0
  148.3476  129.1533  154.1554 H   0  0  0  0  0  0  0  0  0  0  0  0
  150.1252  130.0463  155.6796 H   0  0  0  0  0  0  0  0  0  0  0  0
  150.4958  132.4932  155.7858 H   0  0  0  0  0  0  0  0  0  0  0  0
  148.7680  134.8042  153.4187 H   0  0  0  0  0  0  0  0  0  0  0  0
  149.1297  136.6628  153.9078 H   0  0  0  0  0  0  0  0  0  0  0  0
  150.5201  137.2349  156.4856 H   0  0  0  0  0  0  0  0  0  0  0  0
  148.4190  138.8944  155.0006 H   0  0  0  0  0  0  0  0  0  0  0  0
  148.1951  138.1068  156.5445 H   0  0  0  0  0  0  0  0  0  0  0  0
  148.6766  140.5218  156.8207 H   0  0  0  0  0  0  0  0  0  0  0  0
  149.9152  139.5517  157.5921 H   0  0  0  0  0  0  0  0  0  0  0  0
  151.9692  142.0330  156.0136 H   0  0  0  0  0  0  0  0  0  0  0  0
  150.3251  142.5971  156.1545 H   0  0  0  0  0  0  0  0  0  0  0  0
  150.2179  141.4575  158.4546 H   0  0  0  0  0  0  0  0  0  0  0  0
  152.3875  140.0698  154.8423 H   0  0  0  0  0  0  0  0  0  0  0  0
  152.1744  139.2899  156.3949 H   0  0  0  0  0  0  0  0  0  0  0  0
  151.9799  137.6490  154.5479 H   0  0  0  0  0  0  0  0  0  0  0  0
  150.7451  138.6126  153.7725 H   0  0  0  0  0  0  0  0  0  0  0  0
  150.0965  140.7536  154.9347 H   0  0  0  0  0  0  0  0  0  0  0  0
  1  2  1  0  0  0  0
  1 23  1  0  0  0  0
  1 24  1  0  0  0  0
  1 25  1  0  0  0  0
  2  3  1  0  0  0  0
  3  8  1  0  0  0  0
  3  4  2  0  0  0  0
  4  5  1  0  0  0  0
  5  6  2  0  0  0  0
  5 26  1  0  0  0  0
  6  7  1  0  0  0  0
  6 27  1  0  0  0  0
  7  8  2  0  0  0  0
  7 28  1  0  0  0  0
  8  9  1  0  0  0  0
  9 10  1  0  0  0  0
  9 29  1  0  0  0  0
 10 11  2  0  0  0  0
 10 12  1  0  0  0  0
 12 13  1  0  0  0  0
 12 30  1  0  0  0  0
 13 22  1  0  0  0  0
 13 14  1  0  0  0  0
 13 31  1  0  0  0  0
 14 15  1  0  0  0  0
 14 32  1  0  0  0  0
 14 33  1  0  0  0  0
 15 16  1  0  0  0  0
 15 34  1  0  0  0  0
 15 35  1  0  0  0  0
 16 17  1  0  0  0  0
 16 21  1  0  0  0  0
 16 43  1  0  0  0  0
 17 18  1  0  0  0  0
 17 36  1  0  0  0  0
 17 37  1  0  0  0  0
 18 19  1  0  0  0  0
 18 20  1  0  0  0  0
 18 38  1  0  0  0  0
 21 22  1  0  0  0  0
 21 39  1  0  0  0  0
 21 40  1  0  0  0  0
 22 41  1  0  0  0  0
 22 42  1  0  0  0  0
M  CHG  1  16   1
M  END
> <s_m_source_file>
AV-unprocessed.smi

> <i_m_source_file_index>
1158

> <i_lp_mmshare_version>
43012

> <i_f3d_flags>
0

> <s_epik_input>
W0NIM11PYzFuW2NIXVtjSF1bY0hdYzFbTkhdQyg9TylbTkhdW0NIXTJbQ0gyXVtDSDJdTihbQ0gyXVtDSF0oRilGKVtDSDJdW0NIMl0y

> <s_epik_cmdline>
J2VwaWtfcHl0aG9uJywgJy1waCcsICc3LjAnLCAnLXRuJywgJzgnLCAnLW1hJywgJzIwMCcsICctbWV0YWxfYmluZGluZycsICctaW1hZScsICc8aW5maWxlLm1hZT4nLCAnLW9tYWUnLCAnPG91dGZpbGUubWFlPic=

> <r_lp_tautomer_probability>
1

> <r_epik_Ionization_Penalty>
0.802109

> <r_epik_Ionization_Penalty_Charging>
0.802031

> <r_epik_Ionization_Penalty_Neutral>
7.83352e-05

> <r_epik_State_Penalty>
0.833408

> <r_epik_Charging_Adjusted_Penalty>
1.63544

> <i_epik_Tot_Q>
1

> <i_epik_Tot_abs_Q>
1

> <r_epik_Metal_State_Penalty>
0.833416

> <b_epik_Metal_Only>
0

> <s_lp_Force_Field>
OPLS_2005

> <r_lp_Energy>
21.1994

> <b_lp_Chiralities_Consistent>
1

> <s_lp_Variant>
AV-unprocessed.smi:1158-2

> <Gold.Version>
5.8.1

> <Gold.Id.Protein>
6NUR|6NUR_protein|mol2

> <Gold.PLP.Fitness>
41.4696

> <Gold.PLP.PLP>
-36.4269

> <Gold.PLP.part.hbond>
-2.0000

> <Gold.PLP.part.metal>
0.0000

> <Gold.PLP.part.buried>
-5.3478

> <Gold.PLP.part.nonpolar>
-29.5320

> <Gold.PLP.part.repulsive>
0.8864

> <Gold.PLP.ligand.clash>
0.0000

> <Gold.PLP.ligand.torsion>
0.3424

> <Gold.PLP.Chemscore.Hbond>
1.8760

> <Gold.PLP.Chemscore.CHOScore>
0.0000

> <Gold.PLP.Chemscore.Metal>
0.0000

> <Gold.Chemscore.Hbonds>
donor molecule, donor type, donor heavy atom, donor atom, acceptor molecule, acceptor atom, score
      L1  H     9    29       P1  7948  0.86
      L1  H    12    30       P1  7948  0.86

> <Gold.PLP.Chemscore.Internal.Correction>
0.0994

> <Gold.Rescore>
     Score         DG    S(hbond)    S(metal)    S(lipo)     H(rot)  DE(clash)    DE(int)     intcor
     11.37     -14.01       1.61        0.00      61.55       1.58       0.01       2.63       ----

> <Gold.Chemscore.Fitness>
11.3716

> <Gold.Chemscore.DG>
-14.0074

> <Gold.Chemscore.ZeroCoef>
-5.4800

> <Gold.Chemscore.Hbond>
1.6056

> <Gold.Chemscore.Metal>
0.0000

> <Gold.Chemscore.Lipo>
61.5533

> <Gold.Chemscore.Internal_Hbond>
0.0000

> <Gold.Chemscore.DEClash>
0.0074

> <Gold.Chemscore.DEInternal>
2.6284

> <Gold.Chemscore.Rot>
1.5770

> <Gold.Chemscore.Internal.Correction>
   9.000000E+99

> <Gold.Chemscore.Hbonds>
donor molecule, donor type, donor heavy atom, donor atom, acceptor molecule, acceptor atom, score
      L1  H     9    29       P1  7948  0.32
      L1  H    12    30       P1  7948  0.78

> <Gold.Chemscore.Hbond.Weighted>
-5.3628

> <Gold.Chemscore.Metal.Weighted>
-0.0000

> <Gold.Chemscore.Lipo.Weighted>
-7.2017

> <Gold.Chemscore.Internal_Hbond.Weighted>
0.0000

> <Gold.Chemscore.DEClash.Weighted>
0.0074

> <Gold.Chemscore.DEInternal.Weighted>
2.6284

> <Gold.Chemscore.Rot.Weighted>
4.0371

> <Gold.Chemscore.Internal.Correction.Weighted>
   9.000000E+99

> <Gold.Protein.RotatedTorsions>
[ 6907 6896 6895 6894 ] final   96.58 input  -60.11 | X-H torsion
[ 7974 7965 7964 7962 ] final  160.48 input  175.53 | X-H torsion
[ 8008 7997 7996 7995 ] final -100.69 input   59.86 | X-H torsion
[ 10167 10162 10161 10158 ] final -118.11 input  -65.29 | X-H torsion
[ 10718 10713 10712 10709 ] final  157.29 input   66.30 | X-H torsion
[ 10763 10752 10751 10750 ] final  -90.32 input  -60.55 | X-H torsion
[ 11005 11000 10999 10996 ] final   59.37 input  -57.11 | X-H torsion

> <Gold.Protein.ActiveResidues>
 VAL166  LYS551  ARG553  GLY616  TRP617  ASP618  TYR619  PRO620  LYS621  CYS622 
 ASP623  PHE694  ASN695  SER759  ASP760  ASP761  ALA762  ILE779  LEU786  VAL792 
 PHE793  MET794  SER795  GLU796  ALA797  LYS798  CYS799  TRP800  GLU811  SER814 

> <Gold.Protein.RotatedAtoms>
  152.5433  134.0865  159.8257 H   0  0  0  0  0  0  0  0  0  0  0  0  # atno 6907 bound_to 6896
  151.0960  133.5272  159.2620 H   0  0  0  0  0  0  0  0  0  0  0  0  # atno 6908 bound_to 6896
  151.2046  135.0465  159.8940 H   0  0  0  0  0  0  0  0  0  0  0  0  # atno 6909 bound_to 6896
  144.7734  139.7764  143.6288 H   0  0  0  0  0  0  0  0  0  0  0  0  # atno 7974 bound_to 7965
  154.8322  140.0439  157.1484 H   0  0  0  0  0  0  0  0  0  0  0  0  # atno 8008 bound_to 7997
  154.9140  140.3017  155.5231 H   0  0  0  0  0  0  0  0  0  0  0  0  # atno 8009 bound_to 7997
  156.2987  140.2353  156.4183 H   0  0  0  0  0  0  0  0  0  0  0  0  # atno 8010 bound_to 7997
  140.0610  143.4968  152.2031 H   0  0  0  0  0  0  0  0  0  0  0  0  # atno 10167 bound_to 10162
  157.1935  131.0660  151.2066 H   0  0  0  0  0  0  0  0  0  0  0  0  # atno 10718 bound_to 10713
  154.6645  135.5309  153.8060 H   0  0  0  0  0  0  0  0  0  0  0  0  # atno 10763 bound_to 10752
  153.0462  135.6514  154.0820 H   0  0  0  0  0  0  0  0  0  0  0  0  # atno 10764 bound_to 10752
  154.0725  135.2953  155.3285 H   0  0  0  0  0  0  0  0  0  0  0  0  # atno 10765 bound_to 10752
  140.0309  134.6014  155.9509 H   0  0  0  0  0  0  0  0  0  0  0  0  # atno 11005 bound_to 11000
  146.1898  139.5132  142.9813 LP  0  0  0  0  0  0  0  0  0  0  0  0  # atno 17320 bound_to 7965
  145.6255  141.0314  143.1891 LP  0  0  0  0  0  0  0  0  0  0  0  0  # atno 17321 bound_to 7965
  139.5894  144.7544  151.3439 LP  0  0  0  0  0  0  0  0  0  0  0  0  # atno 17342 bound_to 10162
  140.7172  143.7235  150.7678 LP  0  0  0  0  0  0  0  0  0  0  0  0  # atno 17343 bound_to 10162
  157.3837  130.7245  149.6648 LP  0  0  0  0  0  0  0  0  0  0  0  0  # atno 17370 bound_to 10713
  155.9709  130.4165  150.4235 LP  0  0  0  0  0  0  0  0  0  0  0  0  # atno 17371 bound_to 10713
  141.1830  133.6550  156.5099 LP  0  0  0  0  0  0  0  0  0  0  0  0  # atno 17394 bound_to 11000
  140.4228  134.7172  157.4899 LP  0  0  0  0  0  0  0  0  0  0  0  0  # atno 17395 bound_to 11000

$$$$
