AV-unprocessed.smi:1707|AV-procd|sdf|6888|dock10
  -GOLD-   22720 8 93D 1   1.00000     0.00000
 Structure written by MMmdl.
 40 41  0  0  0  0  0  0  0  0  2 V2000
  150.4195  138.0460  157.7339 O   0  0  0  0  0  0  0  0  0  0  0  0
  150.0214  138.3243  156.6029 C   0  0  0  0  0  0  0  0  0  0  0  0
  149.7369  139.5755  156.2140 N   0  0  0  0  0  0  0  0  0  0  0  0
  149.8570  140.7606  157.0551 C   0  0  0  0  0  0  0  0  0  0  0  0
  150.9946  141.6792  156.5758 C   0  0  0  0  0  0  0  0  0  0  0  0
  151.4926  142.6166  157.6631 C   0  0  0  0  0  0  0  0  0  0  0  0
  151.8954  142.1639  158.8665 C   0  0  0  0  0  0  0  0  0  0  0  0
  152.3914  143.0555  159.9914 C   0  0  0  0  0  0  0  0  0  0  0  0
  152.0682  144.5393  159.7489 C   0  0  0  0  0  0  0  0  0  0  0  0
  152.3513  144.9373  158.2950 C   0  0  0  0  0  0  0  0  0  0  0  0
  151.5134  144.1004  157.3120 C   0  0  0  0  0  0  0  0  0  0  0  0
  149.7966  137.4516  155.6036 N   0  0  0  0  0  0  0  0  0  0  0  0
  149.9768  136.0578  155.5695 C   0  0  0  0  0  0  0  0  0  0  0  0
  149.0921  135.1671  155.0410 C   0  0  0  0  0  0  0  0  0  0  0  0
  149.3326  133.7296  155.0487 C   0  0  0  0  0  0  0  0  0  0  0  0
  148.4157  132.7185  154.3832 C   0  0  0  0  0  0  0  0  0  0  0  0
  147.1866  132.7737  154.8969 F   0  0  0  0  0  0  0  0  0  0  0  0
  148.3322  132.9725  153.0781 F   0  0  0  0  0  0  0  0  0  0  0  0
  148.8802  131.4786  154.5364 F   0  0  0  0  0  0  0  0  0  0  0  0
  150.5409  133.4035  155.6331 C   0  0  0  0  0  0  0  0  0  0  0  0
  151.4582  134.2166  156.2008 N   0  5  0  0  0  0  0  0  0  0  0  0
  151.2221  135.5589  156.1896 C   0  0  0  0  0  0  0  0  0  0  0  0
  152.0197  136.3565  156.6841 O   0  0  0  0  0  0  0  0  0  0  0  0
  149.4143  139.7175  155.2680 H   0  0  0  0  0  0  0  0  0  0  0  0
  148.9051  141.2936  157.0763 H   0  0  0  0  0  0  0  0  0  0  0  0
  150.0519  140.4317  158.0761 H   0  0  0  0  0  0  0  0  0  0  0  0
  151.8244  141.0700  156.2141 H   0  0  0  0  0  0  0  0  0  0  0  0
  150.6656  142.2813  155.7280 H   0  0  0  0  0  0  0  0  0  0  0  0
  151.8864  141.1036  159.0725 H   0  0  0  0  0  0  0  0  0  0  0  0
  151.9485  142.7287  160.9325 H   0  0  0  0  0  0  0  0  0  0  0  0
  153.4687  142.9141  160.0819 H   0  0  0  0  0  0  0  0  0  0  0  0
  151.0164  144.7240  159.9712 H   0  0  0  0  0  0  0  0  0  0  0  0
  152.6430  145.1634  160.4338 H   0  0  0  0  0  0  0  0  0  0  0  0
  152.1494  145.9983  158.1456 H   0  0  0  0  0  0  0  0  0  0  0  0
  153.4116  144.7926  158.0840 H   0  0  0  0  0  0  0  0  0  0  0  0
  151.9008  144.2315  156.3012 H   0  0  0  0  0  0  0  0  0  0  0  0
  150.4855  144.4642  157.3057 H   0  0  0  0  0  0  0  0  0  0  0  0
  149.4162  137.8373  154.7517 H   0  0  0  0  0  0  0  0  0  0  0  0
  148.1624  135.4964  154.6087 H   0  0  0  0  0  0  0  0  0  0  0  0
  150.8140  132.3268  155.6417 H   0  0  0  0  0  0  0  0  0  0  0  0
  1  2  2  0  0  0  0
  2  3  1  0  0  0  0
  2 12  1  0  0  0  0
  3  4  1  0  0  0  0
  3 24  1  0  0  0  0
  4  5  1  0  0  0  0
  4 25  1  0  0  0  0
  4 26  1  0  0  0  0
  5  6  1  0  0  0  0
  5 27  1  0  0  0  0
  5 28  1  0  0  0  0
  6 11  1  0  0  0  0
  6  7  2  0  0  0  0
  7  8  1  0  0  0  0
  7 29  1  0  0  0  0
  8  9  1  0  0  0  0
  8 30  1  0  0  0  0
  8 31  1  0  0  0  0
  9 10  1  0  0  0  0
  9 32  1  0  0  0  0
  9 33  1  0  0  0  0
 10 11  1  0  0  0  0
 10 34  1  0  0  0  0
 10 35  1  0  0  0  0
 11 36  1  0  0  0  0
 11 37  1  0  0  0  0
 12 13  1  0  0  0  0
 12 38  1  0  0  0  0
 13 22  1  0  0  0  0
 13 14  2  0  0  0  0
 14 15  1  0  0  0  0
 14 39  1  0  0  0  0
 15 16  1  0  0  0  0
 15 20  2  0  0  0  0
 16 17  1  0  0  0  0
 16 18  1  0  0  0  0
 16 19  1  0  0  0  0
 20 21  1  0  0  0  0
 20 40  1  0  0  0  0
 21 22  1  0  0  0  0
 22 23  2  0  0  0  0
M  CHG  1  21  -1
M  END
> <s_m_source_file>
AV-unprocessed.smi

> <i_m_source_file_index>
1707

> <i_lp_mmshare_version>
43012

> <i_f3d_flags>
0

> <s_epik_input>
Tz1jMVtuSF1bY0hdYyhDKEYpKEYpRilbY0hdYzFbTkhdQyg9TylbTkhdW0NIMl1bQ0gyXUMyPVtDSF1bQ0gyXVtDSDJdW0NIMl1bQ0gyXTI=

> <s_epik_cmdline>
J2VwaWtfcHl0aG9uJywgJy1waCcsICc3LjAnLCAnLXRuJywgJzgnLCAnLW1hJywgJzIwMCcsICctbWV0YWxfYmluZGluZycsICctaW1hZScsICc8aW5maWxlLm1hZT4nLCAnLW9tYWUnLCAnPG91dGZpbGUubWFlPic=

> <r_lp_tautomer_probability>
1

> <r_epik_Ionization_Penalty>
3.1649

> <r_epik_Ionization_Penalty_Charging>
0.171543

> <r_epik_Ionization_Penalty_Neutral>
2.99336

> <r_epik_State_Penalty>
2.98952

> <r_epik_Charging_Adjusted_Penalty>
3.16106

> <i_epik_Tot_Q>
-1

> <i_epik_Tot_abs_Q>
1

> <r_epik_Metal_State_Penalty>
0.452963

> <b_epik_Metal_Only>
1

> <s_lp_Force_Field>
OPLS_2005

> <r_lp_Energy>
21.1574

> <b_lp_Chiralities_Consistent>
1

> <s_lp_Variant>
AV-unprocessed.smi:1707-2

> <Gold.Version>
5.8.1

> <Gold.Id.Protein>
6NUR|6NUR_protein|mol2

> <Gold.PLP.Fitness>
39.6252

> <Gold.PLP.PLP>
-39.5422

> <Gold.PLP.part.hbond>
-1.6261

> <Gold.PLP.part.metal>
0.0000

> <Gold.PLP.part.buried>
-0.9972

> <Gold.PLP.part.nonpolar>
-36.5000

> <Gold.PLP.part.repulsive>
0.0385

> <Gold.PLP.ligand.clash>
0.0000

> <Gold.PLP.ligand.torsion>
0.5763

> <Gold.PLP.Chemscore.Hbond>
0.3900

> <Gold.PLP.Chemscore.CHOScore>
0.0000

> <Gold.PLP.Chemscore.Metal>
0.0000

> <Gold.Chemscore.Hbonds>
donor molecule, donor type, donor heavy atom, donor atom, acceptor molecule, acceptor atom, score
      P1  H 10752 10764       L1    23  0.06

> <Gold.PLP.Chemscore.Internal.Correction>
0.0656

> <Gold.Rescore>
     Score         DG    S(hbond)    S(metal)    S(lipo)     H(rot)  DE(clash)    DE(int)     intcor
     11.53     -15.70       0.83        0.00      97.51       1.55       0.00       4.16       ----

> <Gold.Chemscore.Fitness>
11.5331

> <Gold.Chemscore.DG>
-15.6952

> <Gold.Chemscore.ZeroCoef>
-5.4800

> <Gold.Chemscore.Hbond>
0.8324

> <Gold.Chemscore.Metal>
0.0000

> <Gold.Chemscore.Lipo>
97.5113

> <Gold.Chemscore.Internal_Hbond>
0.0000

> <Gold.Chemscore.DEClash>
0.0004

> <Gold.Chemscore.DEInternal>
4.1617

> <Gold.Chemscore.Rot>
1.5523

> <Gold.Chemscore.Internal.Correction>
   9.000000E+99

> <Gold.Chemscore.Hbond.Weighted>
-2.7804

> <Gold.Chemscore.Metal.Weighted>
-0.0000

> <Gold.Chemscore.Lipo.Weighted>
-11.4088

> <Gold.Chemscore.Internal_Hbond.Weighted>
0.0000

> <Gold.Chemscore.DEClash.Weighted>
0.0004

> <Gold.Chemscore.DEInternal.Weighted>
4.1617

> <Gold.Chemscore.Rot.Weighted>
3.9740

> <Gold.Chemscore.Internal.Correction.Weighted>
   9.000000E+99

> <Gold.Protein.RotatedTorsions>
[ 6907 6896 6895 6894 ] final  -37.23 input  -60.11 | X-H torsion
[ 7974 7965 7964 7962 ] final  108.16 input  175.53 | X-H torsion
[ 8008 7997 7996 7995 ] final   36.36 input   59.86 | X-H torsion
[ 10167 10162 10161 10158 ] final  -81.20 input  -65.29 | X-H torsion
[ 10718 10713 10712 10709 ] final -167.93 input   66.30 | X-H torsion
[ 10763 10752 10751 10750 ] final   -9.06 input  -60.55 | X-H torsion
[ 11005 11000 10999 10996 ] final  128.69 input  -57.11 | X-H torsion

> <Gold.Protein.ActiveResidues>
 VAL166  LYS551  ARG553  GLY616  TRP617  ASP618  TYR619  PRO620  LYS621  CYS622 
 ASP623  PHE694  ASN695  SER759  ASP760  ASP761  ALA762  ILE779  LEU786  VAL792 
 PHE793  MET794  SER795  GLU796  ALA797  LYS798  CYS799  TRP800  GLU811  SER814 

> <Gold.Protein.RotatedAtoms>
  151.0173  134.9442  159.8039 H   0  0  0  0  0  0  0  0  0  0  0  0  # atno 6907 bound_to 6896
  152.5317  134.2950  159.9067 H   0  0  0  0  0  0  0  0  0  0  0  0  # atno 6908 bound_to 6896
  151.2956  133.4103  159.2670 H   0  0  0  0  0  0  0  0  0  0  0  0  # atno 6909 bound_to 6896
  145.2842  139.2622  143.3899 H   0  0  0  0  0  0  0  0  0  0  0  0  # atno 7974 bound_to 7965
  155.1862  140.3304  155.4366 H   0  0  0  0  0  0  0  0  0  0  0  0  # atno 8008 bound_to 7997
  156.2459  140.1918  156.6908 H   0  0  0  0  0  0  0  0  0  0  0  0  # atno 8009 bound_to 7997
  154.6237  140.0592  156.9633 H   0  0  0  0  0  0  0  0  0  0  0  0  # atno 8010 bound_to 7997
  140.4433  143.2507  151.8594 H   0  0  0  0  0  0  0  0  0  0  0  0  # atno 10167 bound_to 10162
  156.6895  130.9154  151.3067 H   0  0  0  0  0  0  0  0  0  0  0  0  # atno 10718 bound_to 10713
  153.4493  135.7015  153.6119 H   0  0  0  0  0  0  0  0  0  0  0  0  # atno 10763 bound_to 10752
  153.4460  135.3769  155.2256 H   0  0  0  0  0  0  0  0  0  0  0  0  # atno 10764 bound_to 10752
  154.8728  135.3985  154.3903 H   0  0  0  0  0  0  0  0  0  0  0  0  # atno 10765 bound_to 10752
  139.9574  134.9610  156.9038 H   0  0  0  0  0  0  0  0  0  0  0  0  # atno 11005 bound_to 11000
  146.3206  140.3317  142.8641 LP  0  0  0  0  0  0  0  0  0  0  0  0  # atno 17320 bound_to 7965
  144.9227  140.7886  143.5738 LP  0  0  0  0  0  0  0  0  0  0  0  0  # atno 17321 bound_to 7965
  139.4791  144.5203  151.8810 LP  0  0  0  0  0  0  0  0  0  0  0  0  # atno 17342 bound_to 10162
  140.4292  144.2138  150.5887 LP  0  0  0  0  0  0  0  0  0  0  0  0  # atno 17343 bound_to 10162
  157.7014  130.9337  150.0797 LP  0  0  0  0  0  0  0  0  0  0  0  0  # atno 17370 bound_to 10713
  156.1808  130.3650  149.9038 LP  0  0  0  0  0  0  0  0  0  0  0  0  # atno 17371 bound_to 10713
  140.5577  134.0565  155.7389 LP  0  0  0  0  0  0  0  0  0  0  0  0  # atno 17394 bound_to 11000
  141.1247  133.9402  157.2658 LP  0  0  0  0  0  0  0  0  0  0  0  0  # atno 17395 bound_to 11000

$$$$
