AV-unprocessed.smi:1607|AV-procd|sdf|6464|dock7
  -GOLD-   22720 7123D 1   1.00000     0.00000
 Structure written by MMmdl.
 39 40  0  0  0  0  0  0  0  0  2 V2000
  145.9774  132.9979  153.8781 C   0  0  0  0  0  0  0  0  0  0  0  0
  145.7027  133.8236  152.6090 C   0  0  1  0  0  0  0  0  0  0  0  0
  145.7457  132.9761  151.3238 C   0  0  0  0  0  0  0  0  0  0  0  0
  144.4950  132.0951  151.1943 C   0  0  0  0  0  0  0  0  0  0  0  0
  143.2129  132.9337  151.3188 C   0  0  0  0  0  0  0  0  0  0  0  0
  143.1964  133.7011  152.5908 N   0  3  2  0  0  0  0  0  0  0  0  0
  141.9026  134.3945  152.8136 C   0  0  0  0  0  0  0  0  0  0  0  0
  142.0022  135.4880  153.8953 C   0  0  0  0  0  0  0  0  0  0  0  0
  140.7301  135.6839  154.5810 N   0  0  0  0  0  0  0  0  0  0  0  0
  139.9182  136.7382  154.4057 C   0  0  0  0  0  0  0  0  0  0  0  0
  140.1792  137.6699  153.6447 O   0  0  0  0  0  0  0  0  0  0  0  0
  138.6161  136.7436  155.2096 C   0  0  0  0  0  0  0  0  0  0  0  0
  137.7923  137.8887  154.8686 N   0  0  0  0  0  0  0  0  0  0  0  0
  136.5232  137.9671  154.4632 C   0  0  0  0  0  0  0  0  0  0  0  0
  136.1528  139.2212  154.2542 N   0  0  0  0  0  0  0  0  0  0  0  0
  137.2951  139.9416  154.5610 N   0  0  0  0  0  0  0  0  0  0  0  0
  138.2709  139.1565  154.9267 N   0  0  0  0  0  0  0  0  0  0  0  0
  144.3749  134.6038  152.6983 C   0  0  0  0  0  0  0  0  0  0  0  0
  145.2086  132.2445  154.0494 H   0  0  0  0  0  0  0  0  0  0  0  0
  146.0119  133.6377  154.7604 H   0  0  0  0  0  0  0  0  0  0  0  0
  146.9366  132.4838  153.8108 H   0  0  0  0  0  0  0  0  0  0  0  0
  146.5081  134.5561  152.5405 H   0  0  0  0  0  0  0  0  0  0  0  0
  145.8039  133.6391  150.4595 H   0  0  0  0  0  0  0  0  0  0  0  0
  146.6469  132.3622  151.2983 H   0  0  0  0  0  0  0  0  0  0  0  0
  144.5061  131.5757  150.2356 H   0  0  0  0  0  0  0  0  0  0  0  0
  144.5040  131.3196  151.9606 H   0  0  0  0  0  0  0  0  0  0  0  0
  143.1270  133.6216  150.4761 H   0  0  0  0  0  0  0  0  0  0  0  0
  142.3498  132.2683  151.2747 H   0  0  0  0  0  0  0  0  0  0  0  0
  141.5366  134.8089  151.8730 H   0  0  0  0  0  0  0  0  0  0  0  0
  141.1610  133.6619  153.1350 H   0  0  0  0  0  0  0  0  0  0  0  0
  142.7805  135.2399  154.6193 H   0  0  0  0  0  0  0  0  0  0  0  0
  142.2815  136.4454  153.4572 H   0  0  0  0  0  0  0  0  0  0  0  0
  140.4402  134.9618  155.2251 H   0  0  0  0  0  0  0  0  0  0  0  0
  138.0407  135.8348  155.0256 H   0  0  0  0  0  0  0  0  0  0  0  0
  138.8477  136.7680  156.2754 H   0  0  0  0  0  0  0  0  0  0  0  0
  135.8773  137.1133  154.3204 H   0  0  0  0  0  0  0  0  0  0  0  0
  144.3501  135.1610  153.6342 H   0  0  0  0  0  0  0  0  0  0  0  0
  144.3289  135.3444  151.8980 H   0  0  0  0  0  0  0  0  0  0  0  0
  143.2815  133.0169  153.3291 H   0  0  0  0  0  0  0  0  0  0  0  0
  1  2  1  0  0  0  0
  1 19  1  0  0  0  0
  1 20  1  0  0  0  0
  1 21  1  0  0  0  0
  2 18  1  0  0  0  0
  2  3  1  0  0  0  0
  2 22  1  0  0  0  0
  3  4  1  0  0  0  0
  3 23  1  0  0  0  0
  3 24  1  0  0  0  0
  4  5  1  0  0  0  0
  4 25  1  0  0  0  0
  4 26  1  0  0  0  0
  5  6  1  0  0  0  0
  5 27  1  0  0  0  0
  5 28  1  0  0  0  0
  6  7  1  0  0  0  0
  6 18  1  0  0  0  0
  6 39  1  0  0  0  0
  7  8  1  0  0  0  0
  7 29  1  0  0  0  0
  7 30  1  0  0  0  0
  8  9  1  0  0  0  0
  8 31  1  0  0  0  0
  8 32  1  0  0  0  0
  9 10  1  0  0  0  0
  9 33  1  0  0  0  0
 10 11  2  0  0  0  0
 10 12  1  0  0  0  0
 12 13  1  0  0  0  0
 12 34  1  0  0  0  0
 12 35  1  0  0  0  0
 13 17  1  0  0  0  0
 13 14  1  0  0  0  0
 14 15  2  0  0  0  0
 14 36  1  0  0  0  0
 15 16  1  0  0  0  0
 16 17  2  0  0  0  0
 18 37  1  0  0  0  0
 18 38  1  0  0  0  0
M  CHG  1   6   1
M  END
> <s_m_source_file>
AV-unprocessed.smi

> <i_m_source_file_index>
1607

> <i_lp_mmshare_version>
43012

> <i_f3d_flags>
0

> <s_epik_input>
W0NIM11bQ0BASF0xW0NIMl1bQ0gyXVtDSDJdTihbQ0gyXTEpW0NIMl1bQ0gyXVtOSF1DKD1PKVtDSDJdbjJbY0hdbm5uMg==

> <s_epik_cmdline>
J2VwaWtfcHl0aG9uJywgJy1waCcsICc3LjAnLCAnLXRuJywgJzgnLCAnLW1hJywgJzIwMCcsICctbWV0YWxfYmluZGluZycsICctaW1hZScsICc8aW5maWxlLm1hZT4nLCAnLW9tYWUnLCAnPG91dGZpbGUubWFlPic=

> <r_lp_tautomer_probability>
1

> <r_epik_Ionization_Penalty>
0.00268321

> <r_epik_Ionization_Penalty_Charging>
0.00267875

> <r_epik_Ionization_Penalty_Neutral>
4.46125e-06

> <r_epik_State_Penalty>
0.00186642

> <r_epik_Charging_Adjusted_Penalty>
0.00454517

> <i_epik_Tot_Q>
1

> <i_epik_Tot_abs_Q>
1

> <r_epik_Metal_State_Penalty>
-0

> <b_epik_Metal_Only>
0

> <s_lp_Force_Field>
OPLS_2005

> <r_lp_Energy>
22.4706

> <b_lp_Chiralities_Consistent>
1

> <s_lp_Variant>
AV-unprocessed.smi:1607-2

> <Gold.Version>
5.8.1

> <Gold.Id.Protein>
6NUR|6NUR_protein|mol2

> <Gold.PLP.Fitness>
36.6386

> <Gold.PLP.PLP>
-28.5713

> <Gold.PLP.part.hbond>
-2.0000

> <Gold.PLP.part.metal>
0.0000

> <Gold.PLP.part.buried>
-6.4366

> <Gold.PLP.part.nonpolar>
-20.9402

> <Gold.PLP.part.repulsive>
0.2682

> <Gold.PLP.ligand.clash>
0.0000

> <Gold.PLP.ligand.torsion>
0.4901

> <Gold.PLP.Chemscore.Hbond>
3.0000

> <Gold.PLP.Chemscore.CHOScore>
0.0000

> <Gold.PLP.Chemscore.Metal>
0.0000

> <Gold.Chemscore.Hbonds>
donor molecule, donor type, donor heavy atom, donor atom, acceptor molecule, acceptor atom, score
      L1  H     6    39       P1 10957  2.00
      L1  H     9    33       P1 11000  1.00

> <Gold.PLP.Chemscore.Internal.Correction>
0.0475

> <Gold.Rescore>
     Score         DG    S(hbond)    S(metal)    S(lipo)     H(rot)  DE(clash)    DE(int)     intcor
     10.10     -10.67       1.90        0.00      49.17       2.69       0.00       0.57       ----

> <Gold.Chemscore.Fitness>
10.0992

> <Gold.Chemscore.DG>
-10.6730

> <Gold.Chemscore.ZeroCoef>
-5.4800

> <Gold.Chemscore.Hbond>
1.8964

> <Gold.Chemscore.Metal>
0.0000

> <Gold.Chemscore.Lipo>
49.1744

> <Gold.Chemscore.Internal_Hbond>
0.0000

> <Gold.Chemscore.DEClash>
0.0000

> <Gold.Chemscore.DEInternal>
0.5738

> <Gold.Chemscore.Rot>
2.6932

> <Gold.Chemscore.Internal.Correction>
   9.000000E+99

> <Gold.Chemscore.Hbonds>
donor molecule, donor type, donor heavy atom, donor atom, acceptor molecule, acceptor atom, score
      L1  H     6    39       P1 10957  0.74
      L1  H     9    33       P1 11000  0.69

> <Gold.Chemscore.Hbond.Weighted>
-6.3341

> <Gold.Chemscore.Metal.Weighted>
-0.0000

> <Gold.Chemscore.Lipo.Weighted>
-5.7534

> <Gold.Chemscore.Internal_Hbond.Weighted>
0.0000

> <Gold.Chemscore.DEClash.Weighted>
0.0000

> <Gold.Chemscore.DEInternal.Weighted>
0.5738

> <Gold.Chemscore.Rot.Weighted>
6.8945

> <Gold.Chemscore.Internal.Correction.Weighted>
   9.000000E+99

> <Gold.Protein.RotatedTorsions>
[ 6907 6896 6895 6894 ] final -168.97 input  -60.11 | X-H torsion
[ 7974 7965 7964 7962 ] final -152.69 input  175.53 | X-H torsion
[ 8008 7997 7996 7995 ] final  -86.51 input   59.86 | X-H torsion
[ 10167 10162 10161 10158 ] final    7.76 input  -65.29 | X-H torsion
[ 10718 10713 10712 10709 ] final   61.50 input   66.30 | X-H torsion
[ 10763 10752 10751 10750 ] final -142.77 input  -60.55 | X-H torsion
[ 11005 11000 10999 10996 ] final  -87.67 input  -57.11 | X-H torsion

> <Gold.Protein.ActiveResidues>
 VAL166  LYS551  ARG553  GLY616  TRP617  ASP618  TYR619  PRO620  LYS621  CYS622 
 ASP623  PHE694  ASN695  SER759  ASP760  ASP761  ALA762  ILE779  LEU786  VAL792 
 PHE793  MET794  SER795  GLU796  ALA797  LYS798  CYS799  TRP800  GLU811  SER814 

> <Gold.Protein.RotatedAtoms>
  151.4841  133.3540  159.2842 H   0  0  0  0  0  0  0  0  0  0  0  0  # atno 6907 bound_to 6896
  150.8878  134.8280  159.7282 H   0  0  0  0  0  0  0  0  0  0  0  0  # atno 6908 bound_to 6896
  152.4804  134.4746  159.9698 H   0  0  0  0  0  0  0  0  0  0  0  0  # atno 6909 bound_to 6896
  144.7780  140.4627  143.5859 H   0  0  0  0  0  0  0  0  0  0  0  0  # atno 7974 bound_to 7965
  154.6527  140.0577  156.9974 H   0  0  0  0  0  0  0  0  0  0  0  0  # atno 8008 bound_to 7997
  155.1346  140.3260  155.4447 H   0  0  0  0  0  0  0  0  0  0  0  0  # atno 8009 bound_to 7997
  156.2583  140.1975  156.6464 H   0  0  0  0  0  0  0  0  0  0  0  0  # atno 8010 bound_to 7997
  140.6353  143.7900  150.7351 H   0  0  0  0  0  0  0  0  0  0  0  0  # atno 10167 bound_to 10162
  157.5832  130.8998  149.9469 H   0  0  0  0  0  0  0  0  0  0  0  0  # atno 10718 bound_to 10713
  154.8496  135.3486  154.6081 H   0  0  0  0  0  0  0  0  0  0  0  0  # atno 10763 bound_to 10752
  153.6689  135.6986  153.5158 H   0  0  0  0  0  0  0  0  0  0  0  0  # atno 10764 bound_to 10752
  153.2758  135.4279  155.0988 H   0  0  0  0  0  0  0  0  0  0  0  0  # atno 10765 bound_to 10752
  141.1613  133.7525  156.9340 H   0  0  0  0  0  0  0  0  0  0  0  0  # atno 11005 bound_to 11000
  145.6130  139.1515  143.3065 LP  0  0  0  0  0  0  0  0  0  0  0  0  # atno 17320 bound_to 7965
  146.1972  140.6245  142.9119 LP  0  0  0  0  0  0  0  0  0  0  0  0  # atno 17321 bound_to 7965
  140.1520  143.4349  152.2125 LP  0  0  0  0  0  0  0  0  0  0  0  0  # atno 17342 bound_to 10162
  139.5564  144.7375  151.4282 LP  0  0  0  0  0  0  0  0  0  0  0  0  # atno 17343 bound_to 10162
  156.0879  130.3666  150.0451 LP  0  0  0  0  0  0  0  0  0  0  0  0  # atno 17370 bound_to 10713
  156.8586  130.9484  151.3620 LP  0  0  0  0  0  0  0  0  0  0  0  0  # atno 17371 bound_to 10713
  140.1367  134.9321  157.2411 LP  0  0  0  0  0  0  0  0  0  0  0  0  # atno 17394 bound_to 11000
  140.2887  134.3266  155.7321 LP  0  0  0  0  0  0  0  0  0  0  0  0  # atno 17395 bound_to 11000

$$$$
