AV-unprocessed.smi:470|AV-procd|sdf|2654|dock6
  -GOLD-   2262023 63D 1   1.00000     0.00000
 Structure written by MMmdl.
 33 34  0  0  0  0  0  0  0  0  1 V2000
  149.8270  138.5247  153.3925 N   0  0  0  0  0  0  0  0  0  0  0  0
  150.3437  138.8985  154.5663 C   0  0  0  0  0  0  0  0  0  0  0  0
  150.6360  140.0666  154.8139 O   0  0  0  0  0  0  0  0  0  0  0  0
  150.5617  137.8058  155.6143 C   0  0  0  0  0  0  0  0  0  0  0  0
  149.2546  137.1605  155.9722 C   0  0  0  0  0  0  0  0  0  0  0  0
  148.4318  136.4434  155.1376 C   0  0  0  0  0  0  0  0  0  0  0  0
  146.9987  135.8816  155.9558 S   0  0  0  0  0  0  0  0  0  0  0  0
  147.5990  136.6193  157.4328 C   0  0  0  0  0  0  0  0  0  0  0  0
  146.8509  136.5987  158.6385 N   0  0  0  0  0  0  0  0  0  0  0  0
  147.2190  136.8834  159.9046 C   0  0  0  0  0  0  0  0  0  0  0  0
  148.3702  137.2569  160.1251 O   0  0  0  0  0  0  0  0  0  0  0  0
  146.2157  136.7908  161.0809 C   0  0  2  0  0  0  0  0  0  0  0  0
  146.8558  137.1805  162.4394 C   0  0  0  0  0  0  0  0  0  0  0  0
  147.6184  136.0446  163.1026 C   0  0  0  0  0  0  0  0  0  0  0  0
  147.4936  134.7569  162.7401 C   0  0  0  0  0  0  0  0  0  0  0  0
  146.5805  134.2894  161.6217 C   0  0  0  0  0  0  0  0  0  0  0  0
  145.5832  135.3823  161.1836 C   0  0  0  0  0  0  0  0  0  0  0  0
  148.7616  137.2600  157.2775 N   0  0  0  0  0  0  0  0  0  0  0  0
  149.6737  139.2134  152.6703 H   0  0  0  0  0  0  0  0  0  0  0  0
  149.5982  137.5548  153.2285 H   0  0  0  0  0  0  0  0  0  0  0  0
  151.2578  137.0646  155.2193 H   0  0  0  0  0  0  0  0  0  0  0  0
  151.0402  138.2368  156.4951 H   0  0  0  0  0  0  0  0  0  0  0  0
  148.5776  136.2229  154.0905 H   0  0  0  0  0  0  0  0  0  0  0  0
  145.8873  136.3171  158.5305 H   0  0  0  0  0  0  0  0  0  0  0  0
  145.4295  137.5253  160.9168 H   0  0  0  0  0  0  0  0  0  0  0  0
  147.5308  138.0284  162.3134 H   0  0  0  0  0  0  0  0  0  0  0  0
  146.0818  137.5101  163.1332 H   0  0  0  0  0  0  0  0  0  0  0  0
  148.2771  136.3113  163.9160 H   0  0  0  0  0  0  0  0  0  0  0  0
  148.0728  133.9981  163.2455 H   0  0  0  0  0  0  0  0  0  0  0  0
  147.2039  133.9832  160.7811 H   0  0  0  0  0  0  0  0  0  0  0  0
  146.0368  133.4031  161.9491 H   0  0  0  0  0  0  0  0  0  0  0  0
  144.7697  135.4249  161.9088 H   0  0  0  0  0  0  0  0  0  0  0  0
  145.1204  135.0919  160.2403 H   0  0  0  0  0  0  0  0  0  0  0  0
  1  2  1  0  0  0  0
  1 19  1  0  0  0  0
  1 20  1  0  0  0  0
  2  3  2  0  0  0  0
  2  4  1  0  0  0  0
  4  5  1  0  0  0  0
  4 21  1  0  0  0  0
  4 22  1  0  0  0  0
  5 18  1  0  0  0  0
  5  6  2  0  0  0  0
  6  7  1  0  0  0  0
  6 23  1  0  0  0  0
  7  8  1  0  0  0  0
  8  9  1  0  0  0  0
  8 18  2  0  0  0  0
  9 10  1  0  0  0  0
  9 24  1  0  0  0  0
 10 11  2  0  0  0  0
 10 12  1  0  0  0  0
 12 17  1  0  0  0  0
 12 13  1  0  0  0  0
 12 25  1  0  0  0  0
 13 14  1  0  0  0  0
 13 26  1  0  0  0  0
 13 27  1  0  0  0  0
 14 15  2  0  0  0  0
 14 28  1  0  0  0  0
 15 16  1  0  0  0  0
 15 29  1  0  0  0  0
 16 17  1  0  0  0  0
 16 30  1  0  0  0  0
 16 31  1  0  0  0  0
 17 32  1  0  0  0  0
 17 33  1  0  0  0  0
M  END
> <s_m_source_file>
AV-unprocessed.smi

> <i_m_source_file_index>
470

> <i_lp_mmshare_version>
43012

> <i_f3d_flags>
0

> <s_epik_input>
W05IMl1DKD1PKVtDSDJdYzFbY0hdc2MobjEpW05IXUMoPU8pW0NAQEhdMltDSDJdW0NIXT1bQ0hdW0NIMl1bQ0gyXTI=

> <s_epik_cmdline>
J2VwaWtfcHl0aG9uJywgJy1waCcsICc3LjAnLCAnLXRuJywgJzgnLCAnLW1hJywgJzIwMCcsICctbWV0YWxfYmluZGluZycsICctaW1hZScsICc8aW5maWxlLm1hZT4nLCAnLW9tYWUnLCAnPG91dGZpbGUubWFlPic=

> <r_lp_tautomer_probability>
1

> <r_epik_Ionization_Penalty>
0.00025496

> <r_epik_Ionization_Penalty_Charging>
0

> <r_epik_Ionization_Penalty_Neutral>
0.00025496

> <r_epik_State_Penalty>
-0

> <r_epik_Charging_Adjusted_Penalty>
0

> <i_epik_Tot_Q>
0

> <i_epik_Tot_abs_Q>
0

> <r_epik_Metal_State_Penalty>
0.149391

> <b_epik_Metal_Only>
0

> <s_lp_Force_Field>
OPLS_2005

> <r_lp_Energy>
11.789

> <b_lp_Chiralities_Consistent>
1

> <s_lp_Variant>
AV-unprocessed.smi:470-1

> <Gold.Version>
5.8.1

> <Gold.Id.Protein>
6NUR|6NUR_protein|mol2

> <Gold.PLP.Fitness>
40.8653

> <Gold.PLP.PLP>
-27.6705

> <Gold.PLP.part.hbond>
-4.9035

> <Gold.PLP.part.metal>
0.0000

> <Gold.PLP.part.buried>
-3.4029

> <Gold.PLP.part.nonpolar>
-19.1347

> <Gold.PLP.part.repulsive>
0.1994

> <Gold.PLP.ligand.clash>
0.0000

> <Gold.PLP.ligand.torsion>
0.0876

> <Gold.PLP.Chemscore.Hbond>
3.4467

> <Gold.PLP.Chemscore.CHOScore>
1.0000

> <Gold.PLP.Chemscore.Metal>
0.0000

> <Gold.Chemscore.Hbonds>
donor molecule, donor type, donor heavy atom, donor atom, acceptor molecule, acceptor atom, score
      L1  H     1    19       P1  7957  1.00
      L1  H     1    20       P1  7948  0.88
      P1  H  6931  6943       L1    11  0.44
      P1  H  7989  7998       L1     3  1.00
      L1  C     6    23       P1  7948  1.00

> <Gold.PLP.Chemscore.Internal.Correction>
0.0298

> <Gold.Rescore>
     Score         DG    S(hbond)    S(metal)    S(lipo)     H(rot)  DE(clash)    DE(int)     intcor
     16.50     -17.99       3.22        0.00      56.41       1.90       0.08       1.41       ----

> <Gold.Chemscore.Fitness>
16.4999

> <Gold.Chemscore.DG>
-17.9875

> <Gold.Chemscore.ZeroCoef>
-5.4800

> <Gold.Chemscore.Hbond>
3.2224

> <Gold.Chemscore.Metal>
0.0000

> <Gold.Chemscore.Lipo>
56.4134

> <Gold.Chemscore.Internal_Hbond>
0.0000

> <Gold.Chemscore.DEClash>
0.0786

> <Gold.Chemscore.DEInternal>
1.4091

> <Gold.Chemscore.Rot>
1.8968

> <Gold.Chemscore.Internal.Correction>
   9.000000E+99

> <Gold.Chemscore.Hbonds>
donor molecule, donor type, donor heavy atom, donor atom, acceptor molecule, acceptor atom, score
      L1  H     1    19       P1  7957  0.97
      L1  H     1    20       P1  7948  0.70
      P1  H  6931  6943       L1    11  0.43
      P1  H  7989  7998       L1     3  0.88

> <Gold.Chemscore.Hbond.Weighted>
-10.7630

> <Gold.Chemscore.Metal.Weighted>
-0.0000

> <Gold.Chemscore.Lipo.Weighted>
-6.6004

> <Gold.Chemscore.Internal_Hbond.Weighted>
0.0000

> <Gold.Chemscore.DEClash.Weighted>
0.0786

> <Gold.Chemscore.DEInternal.Weighted>
1.4091

> <Gold.Chemscore.Rot.Weighted>
4.8558

> <Gold.Chemscore.Internal.Correction.Weighted>
   9.000000E+99

> <Gold.Protein.RotatedTorsions>
[ 6907 6896 6895 6894 ] final   42.48 input  -60.11 | X-H torsion
[ 7974 7965 7964 7962 ] final  -56.95 input  175.53 | X-H torsion
[ 8008 7997 7996 7995 ] final -129.51 input   59.86 | X-H torsion
[ 10167 10162 10161 10158 ] final  122.73 input  -65.29 | X-H torsion
[ 10718 10713 10712 10709 ] final   96.57 input   66.30 | X-H torsion
[ 10763 10752 10751 10750 ] final  -95.13 input  -60.55 | X-H torsion
[ 11005 11000 10999 10996 ] final -131.13 input  -57.11 | X-H torsion

> <Gold.Protein.ActiveResidues>
 VAL166  LYS551  ARG553  GLY616  TRP617  ASP618  TYR619  PRO620  LYS621  CYS622 
 ASP623  PHE694  ASN695  SER759  ASP760  ASP761  ALA762  ILE779  LEU786  VAL792 
 PHE793  MET794  SER795  GLU796  ALA797  LYS798  CYS799  TRP800  GLU811  SER814 

> <Gold.Protein.RotatedAtoms>
  152.2084  134.8524  160.0499 H   0  0  0  0  0  0  0  0  0  0  0  0  # atno 6907 bound_to 6896
  151.9351  133.3617  159.3953 H   0  0  0  0  0  0  0  0  0  0  0  0  # atno 6908 bound_to 6896
  150.6970  134.4421  159.5341 H   0  0  0  0  0  0  0  0  0  0  0  0  # atno 6909 bound_to 6896
  145.8568  140.8314  142.9957 H   0  0  0  0  0  0  0  0  0  0  0  0  # atno 7974 bound_to 7965
  155.2804  140.0444  157.3015 H   0  0  0  0  0  0  0  0  0  0  0  0  # atno 8008 bound_to 7997
  154.5600  140.2343  155.8318 H   0  0  0  0  0  0  0  0  0  0  0  0  # atno 8009 bound_to 7997
  156.2039  140.3018  155.9593 H   0  0  0  0  0  0  0  0  0  0  0  0  # atno 8010 bound_to 7997
  139.5841  144.6999  151.3453 H   0  0  0  0  0  0  0  0  0  0  0  0  # atno 10167 bound_to 10162
  157.6925  131.0582  150.4512 H   0  0  0  0  0  0  0  0  0  0  0  0  # atno 10718 bound_to 10713
  154.7119  135.5132  153.8680 H   0  0  0  0  0  0  0  0  0  0  0  0  # atno 10763 bound_to 10752
  153.0788  135.6625  154.0098 H   0  0  0  0  0  0  0  0  0  0  0  0  # atno 10764 bound_to 10752
  153.9938  135.3017  155.3389 H   0  0  0  0  0  0  0  0  0  0  0  0  # atno 10765 bound_to 10752
  140.9285  134.1351  157.4255 H   0  0  0  0  0  0  0  0  0  0  0  0  # atno 11005 bound_to 11000
  144.6727  140.1035  143.7459 LP  0  0  0  0  0  0  0  0  0  0  0  0  # atno 17320 bound_to 7965
  145.9295  139.2597  143.1334 LP  0  0  0  0  0  0  0  0  0  0  0  0  # atno 17321 bound_to 7965
  140.7115  143.7377  150.7576 LP  0  0  0  0  0  0  0  0  0  0  0  0  # atno 17342 bound_to 10162
  140.0917  143.4871  152.2475 LP  0  0  0  0  0  0  0  0  0  0  0  0  # atno 17343 bound_to 10162
  156.4863  130.4085  149.6432 LP  0  0  0  0  0  0  0  0  0  0  0  0  # atno 17370 bound_to 10713
  156.3459  130.7407  151.2359 LP  0  0  0  0  0  0  0  0  0  0  0  0  # atno 17371 bound_to 10713
  139.8791  134.9997  156.5967 LP  0  0  0  0  0  0  0  0  0  0  0  0  # atno 17394 bound_to 11000
  140.7894  133.8595  155.8633 LP  0  0  0  0  0  0  0  0  0  0  0  0  # atno 17395 bound_to 11000

$$$$
