AV-unprocessed.smi:72|AV-procd|sdf|687|dock5
  -GOLD-   2262017 03D 1   1.00000     0.00000
 Structure written by MMmdl.
 29 30  0  0  0  0  0  0  0  0  1 V2000
  152.5359  136.8346  159.5891 N   0  0  0  0  0  0  0  0  0  0  0  0
  152.0420  137.3982  158.5457 C   0  0  0  0  0  0  0  0  0  0  0  0
  150.6773  137.6333  158.3192 N   0  0  0  0  0  0  0  0  0  0  0  0
  150.3240  138.2207  157.2176 C   0  0  0  0  0  0  0  0  0  0  0  0
  151.2939  138.6461  156.2197 N   0  0  0  0  0  0  0  0  0  0  0  0
  150.8442  139.3364  154.9489 C   0  0  2  0  0  0  0  0  0  0  0  0
  150.0727  140.4427  155.3019 O   0  0  0  0  0  0  0  0  0  0  0  0
  148.9978  140.5783  154.3858 C   0  0  2  0  0  0  0  0  0  0  0  0
  147.8669  141.3796  155.0503 C   0  0  0  0  0  0  0  0  0  0  0  0
  147.7603  142.6629  154.4722 O   0  0  0  0  0  0  0  0  0  0  0  0
  148.6415  139.1307  154.0267 C   0  0  1  0  0  0  0  0  0  0  0  0
  148.0479  139.0661  152.7451 O   0  0  0  0  0  0  0  0  0  0  0  0
  149.9973  138.4329  154.0224 C   0  0  2  0  0  0  0  0  0  0  0  0
  149.8749  137.0899  154.4563 O   0  0  0  0  0  0  0  0  0  0  0  0
  152.6731  138.3987  156.4243 C   0  0  0  0  0  0  0  0  0  0  0  0
  153.5321  138.7072  155.5986 O   0  0  0  0  0  0  0  0  0  0  0  0
  152.9870  137.7880  157.5873 N   0  0  0  0  0  0  0  0  0  0  0  0
  151.7434  139.7073  154.4548 H   0  0  0  0  0  0  0  0  0  0  0  0
  149.3838  141.1079  153.5120 H   0  0  0  0  0  0  0  0  0  0  0  0
  147.9822  138.7005  154.7825 H   0  0  0  0  0  0  0  0  0  0  0  0
  150.4525  138.4579  153.0310 H   0  0  0  0  0  0  0  0  0  0  0  0
  153.5416  136.7815  159.5110 H   0  0  0  0  0  0  0  0  0  0  0  0
  149.2832  138.4288  156.9648 H   0  0  0  0  0  0  0  0  0  0  0  0
  146.9138  140.8560  154.9687 H   0  0  0  0  0  0  0  0  0  0  0  0
  148.0743  141.5051  156.1134 H   0  0  0  0  0  0  0  0  0  0  0  0
  148.3513  143.2464  154.9232 H   0  0  0  0  0  0  0  0  0  0  0  0
  148.7254  139.1680  152.0946 H   0  0  0  0  0  0  0  0  0  0  0  0
  149.4849  136.5844  153.7595 H   0  0  0  0  0  0  0  0  0  0  0  0
  153.9618  137.5976  157.7690 H   0  0  0  0  0  0  0  0  0  0  0  0
  1  2  2  0  0  0  0
  1 22  1  0  0  0  0
  2 17  1  0  0  0  0
  2  3  1  0  0  0  0
  3  4  2  0  0  0  0
  4  5  1  0  0  0  0
  4 23  1  0  0  0  0
  5  6  1  0  0  0  0
  5 15  1  0  0  0  0
  6 18  1  0  0  0  0
  6 13  1  0  0  0  0
  6  7  1  0  0  0  0
  7  8  1  0  0  0  0
  8 19  1  0  0  0  0
  8  9  1  0  0  0  0
  8 11  1  0  0  0  0
  9 10  1  0  0  0  0
  9 24  1  0  0  0  0
  9 25  1  0  0  0  0
 10 26  1  0  0  0  0
 11 20  1  0  0  0  0
 11 12  1  0  0  0  0
 11 13  1  0  0  0  0
 12 27  1  0  0  0  0
 13 21  1  0  0  0  0
 13 14  1  0  0  0  0
 14 28  1  0  0  0  0
 15 16  2  0  0  0  0
 15 17  1  0  0  0  0
 17 29  1  0  0  0  0
M  END
> <s_m_source_file>
AV-unprocessed.smi

> <i_m_source_file_index>
72

> <i_lp_mmshare_version>
43012

> <i_f3d_flags>
0

> <s_epik_input>
W05IMl1jMW5bY0hdbihjKD1PKW4xKVtDQEBIXTJPW0NASF0oW0NIMl1bT0hdKVtDQEBIXShbT0hdKVtDQEhdMltPSF0=

> <s_epik_cmdline>
J2VwaWtfcHl0aG9uJywgJy1waCcsICc3LjAnLCAnLXRuJywgJzgnLCAnLW1hJywgJzIwMCcsICctbWV0YWxfYmluZGluZycsICctaW1hZScsICc8aW5maWxlLm1hZT4nLCAnLW9tYWUnLCAnPG91dGZpbGUubWFlPic=

> <r_lp_tautomer_probability>
7.17554e-07

> <r_epik_Ionization_Penalty>
0.0066451

> <r_epik_Ionization_Penalty_Charging>
0.00663793

> <r_epik_Ionization_Penalty_Neutral>
7.17052e-06

> <r_epik_State_Penalty>
0.419231

> <r_epik_Charging_Adjusted_Penalty>
0.425868

> <i_epik_Tot_Q>
0

> <i_epik_Tot_abs_Q>
0

> <r_epik_Metal_State_Penalty>
1.44144

> <b_epik_Metal_Only>
0

> <s_epik_Chemistry_Notes>
This compound contains an acetal/aminal-like group ( X-CH(R)-Y where X, Y are N, S, or O) that may be acid/base labile, releasing an aldehyde.

> <s_lp_Force_Field>
OPLS_2005

> <r_lp_Energy>
41.3964

> <b_lp_Chiralities_Consistent>
1

> <s_lp_Variant>
AV-unprocessed.smi:72-25

> <Gold.Version>
5.8.1

> <Gold.Id.Protein>
6NUR|6NUR_protein|mol2

> <Gold.PLP.Fitness>
37.0448

> <Gold.PLP.PLP>
-23.8433

> <Gold.PLP.part.hbond>
-5.9741

> <Gold.PLP.part.metal>
0.0000

> <Gold.PLP.part.buried>
-3.1561

> <Gold.PLP.part.nonpolar>
-15.5514

> <Gold.PLP.part.repulsive>
0.2056

> <Gold.PLP.ligand.clash>
0.0000

> <Gold.PLP.ligand.torsion>
0.7340

> <Gold.PLP.Chemscore.Hbond>
4.8480

> <Gold.PLP.Chemscore.CHOScore>
0.0000

> <Gold.PLP.Chemscore.Metal>
0.0000

> <Gold.Chemscore.Hbonds>
donor molecule, donor type, donor heavy atom, donor atom, acceptor molecule, acceptor atom, score
      L1  H    10    26       P1  8028  1.00
      L1  H    12    27       P1  7957  1.00
      L1  H    14    28       P1  7948  1.00
      P1  H  6896  6907       L1     1  1.00
      P1  H  7997  8010       L1    16  0.88

> <Gold.PLP.Chemscore.Internal.Correction>
0.1254

> <Gold.Rescore>
     Score         DG    S(hbond)    S(metal)    S(lipo)     H(rot)  DE(clash)    DE(int)     intcor
     11.41     -13.31       4.60        0.00      24.57       4.06       0.01       1.89       ----

> <Gold.Chemscore.Fitness>
11.4122

> <Gold.Chemscore.DG>
-13.3118

> <Gold.Chemscore.ZeroCoef>
-5.4800

> <Gold.Chemscore.Hbond>
4.5959

> <Gold.Chemscore.Metal>
0.0000

> <Gold.Chemscore.Lipo>
24.5742

> <Gold.Chemscore.Internal_Hbond>
0.0000

> <Gold.Chemscore.DEClash>
0.0060

> <Gold.Chemscore.DEInternal>
1.8936

> <Gold.Chemscore.Rot>
4.0600

> <Gold.Chemscore.Internal.Correction>
   9.000000E+99

> <Gold.Chemscore.Hbonds>
donor molecule, donor type, donor heavy atom, donor atom, acceptor molecule, acceptor atom, score
      L1  H    10    26       P1  8028  0.97
      L1  H    12    27       P1  7957  0.90
      L1  H    14    28       P1  7948  0.78
      P1  H  6896  6907       L1     1  0.48
      P1  H  7997  8010       L1    16  0.74

> <Gold.Chemscore.Hbond.Weighted>
-15.3502

> <Gold.Chemscore.Metal.Weighted>
-0.0000

> <Gold.Chemscore.Lipo.Weighted>
-2.8752

> <Gold.Chemscore.Internal_Hbond.Weighted>
0.0000

> <Gold.Chemscore.DEClash.Weighted>
0.0060

> <Gold.Chemscore.DEInternal.Weighted>
1.8936

> <Gold.Chemscore.Rot.Weighted>
10.3936

> <Gold.Chemscore.Internal.Correction.Weighted>
   9.000000E+99

> <Gold.Protein.RotatedTorsions>
[ 6907 6896 6895 6894 ] final   25.66 input  -60.11 | X-H torsion
[ 7974 7965 7964 7962 ] final  -40.43 input  175.53 | X-H torsion
[ 8008 7997 7996 7995 ] final   95.04 input   59.86 | X-H torsion
[ 10167 10162 10161 10158 ] final   43.23 input  -65.29 | X-H torsion
[ 10718 10713 10712 10709 ] final  -16.39 input   66.30 | X-H torsion
[ 10763 10752 10751 10750 ] final  -76.00 input  -60.55 | X-H torsion
[ 11005 11000 10999 10996 ] final -134.94 input  -57.11 | X-H torsion

> <Gold.Protein.ActiveResidues>
 VAL166  LYS551  ARG553  GLY616  TRP617  ASP618  TYR619  PRO620  LYS621  CYS622 
 ASP623  PHE694  ASN695  SER759  ASP760  ASP761  ALA762  ILE779  LEU786  VAL792 
 PHE793  MET794  SER795  GLU796  ALA797  LYS798  CYS799  TRP800  GLU811  SER814 

> <Gold.Protein.RotatedAtoms>
  151.9758  135.0054  160.0554 H   0  0  0  0  0  0  0  0  0  0  0  0  # atno 6907 bound_to 6896
  152.1742  133.4659  159.4933 H   0  0  0  0  0  0  0  0  0  0  0  0  # atno 6908 bound_to 6896
  150.6906  134.1833  159.4300 H   0  0  0  0  0  0  0  0  0  0  0  0  # atno 6909 bound_to 6896
  146.0305  140.6737  142.9135 H   0  0  0  0  0  0  0  0  0  0  0  0  # atno 7974 bound_to 7965
  156.0646  140.3292  155.7502 H   0  0  0  0  0  0  0  0  0  0  0  0  # atno 8008 bound_to 7997
  155.5402  140.0601  157.2889 H   0  0  0  0  0  0  0  0  0  0  0  0  # atno 8009 bound_to 7997
  154.4498  140.1912  156.0571 H   0  0  0  0  0  0  0  0  0  0  0  0  # atno 8010 bound_to 7997
  140.3465  144.2405  150.6150 H   0  0  0  0  0  0  0  0  0  0  0  0  # atno 10167 bound_to 10162
  156.5882  130.4792  149.6290 H   0  0  0  0  0  0  0  0  0  0  0  0  # atno 10718 bound_to 10713
  154.4940  135.5812  153.6481 H   0  0  0  0  0  0  0  0  0  0  0  0  # atno 10763 bound_to 10752
  152.9867  135.6119  154.3088 H   0  0  0  0  0  0  0  0  0  0  0  0  # atno 10764 bound_to 10752
  154.2990  135.2847  155.2599 H   0  0  0  0  0  0  0  0  0  0  0  0  # atno 10765 bound_to 10752
  140.8944  134.1771  157.4505 H   0  0  0  0  0  0  0  0  0  0  0  0  # atno 11005 bound_to 11000
  144.7028  140.3728  143.7142 LP  0  0  0  0  0  0  0  0  0  0  0  0  # atno 17320 bound_to 7965
  145.7047  139.1670  143.2572 LP  0  0  0  0  0  0  0  0  0  0  0  0  # atno 17321 bound_to 7965
  140.5260  143.2254  151.8314 LP  0  0  0  0  0  0  0  0  0  0  0  0  # atno 17342 bound_to 10162
  139.4832  144.4779  151.9344 LP  0  0  0  0  0  0  0  0  0  0  0  0  # atno 17343 bound_to 10162
  156.2572  130.6941  151.1698 LP  0  0  0  0  0  0  0  0  0  0  0  0  # atno 17370 bound_to 10713
  157.7310  131.0612  150.5699 LP  0  0  0  0  0  0  0  0  0  0  0  0  # atno 17371 bound_to 10713
  139.8733  134.9872  156.5357 LP  0  0  0  0  0  0  0  0  0  0  0  0  # atno 17394 bound_to 11000
  140.8308  133.8281  155.8982 LP  0  0  0  0  0  0  0  0  0  0  0  0  # atno 17395 bound_to 11000

$$$$
