AV-unprocessed.smi:3110|AV-procd|sdf|11830|dock10
  -GOLD-   2272017203D 1   1.00000     0.00000
 Structure written by MMmdl.
 33 34  0  0  0  0  0  0  0  0  1 V2000
  153.1227  139.6478  157.8536 O   0  0  0  0  0  0  0  0  0  0  0  0
  152.8322  140.1771  158.9261 C   0  0  0  0  0  0  0  0  0  0  0  0
  151.9591  141.4345  158.9532 C   0  0  0  0  0  0  0  0  0  0  0  0
  152.6795  142.6423  159.5881 C   0  0  2  0  0  0  0  0  0  0  0  0
  152.5465  142.6665  161.0891 C   0  0  0  0  0  0  0  0  0  0  0  0
  152.1671  143.8551  161.5535 C   0  0  0  0  0  0  0  0  0  0  0  0
  151.9683  144.8630  160.4562 C   0  0  0  0  0  0  0  0  0  0  0  0
  152.1359  144.0338  159.1645 C   0  0  0  0  0  0  0  0  0  0  0  0
  153.2501  139.7145  160.1148 N   0  0  0  0  0  0  0  0  0  0  0  0
  154.1560  138.5859  160.3085 C   0  0  0  0  0  0  0  0  0  0  0  0
  153.5174  137.4792  161.1688 C   0  0  0  0  0  0  0  0  0  0  0  0
  153.9696  137.5103  162.5477 N   0  0  0  0  0  0  0  0  0  0  0  0
  153.5176  136.7196  163.5966 C   0  0  0  0  0  0  0  0  0  0  0  0
  154.2219  137.1084  164.7136 C   0  0  0  0  0  0  0  0  0  0  0  0
  155.1120  138.1251  164.3761 N   0  0  0  0  0  0  0  0  0  0  0  0
  154.9062  138.3085  163.0782 C   0  0  0  0  0  0  0  0  0  0  0  0
  151.6554  141.6713  157.9324 H   0  0  0  0  0  0  0  0  0  0  0  0
  151.0400  141.2229  159.5024 H   0  0  0  0  0  0  0  0  0  0  0  0
  153.7468  142.5857  159.3678 H   0  0  0  0  0  0  0  0  0  0  0  0
  152.7621  141.8022  161.6998 H   0  0  0  0  0  0  0  0  0  0  0  0
  152.0277  144.1021  162.5955 H   0  0  0  0  0  0  0  0  0  0  0  0
  150.9814  145.3220  160.5204 H   0  0  0  0  0  0  0  0  0  0  0  0
  152.7244  145.6446  160.5349 H   0  0  0  0  0  0  0  0  0  0  0  0
  152.7956  144.5249  158.4484 H   0  0  0  0  0  0  0  0  0  0  0  0
  151.1613  143.9343  158.6849 H   0  0  0  0  0  0  0  0  0  0  0  0
  152.9530  140.2072  160.9446 H   0  0  0  0  0  0  0  0  0  0  0  0
  154.3922  138.1826  159.3237 H   0  0  0  0  0  0  0  0  0  0  0  0
  155.1059  138.9088  160.7381 H   0  0  0  0  0  0  0  0  0  0  0  0
  152.4299  137.5611  161.1523 H   0  0  0  0  0  0  0  0  0  0  0  0
  153.7632  136.5009  160.7545 H   0  0  0  0  0  0  0  0  0  0  0  0
  152.7479  135.9732  163.4672 H   0  0  0  0  0  0  0  0  0  0  0  0
  154.1563  136.7377  165.7258 H   0  0  0  0  0  0  0  0  0  0  0  0
  155.4458  139.0446  162.5002 H   0  0  0  0  0  0  0  0  0  0  0  0
  1  2  2  0  0  0  0
  2  3  1  0  0  0  0
  2  9  1  0  0  0  0
  3  4  1  0  0  0  0
  3 17  1  0  0  0  0
  3 18  1  0  0  0  0
  4  8  1  0  0  0  0
  4  5  1  0  0  0  0
  4 19  1  0  0  0  0
  5  6  2  0  0  0  0
  5 20  1  0  0  0  0
  6  7  1  0  0  0  0
  6 21  1  0  0  0  0
  7  8  1  0  0  0  0
  7 22  1  0  0  0  0
  7 23  1  0  0  0  0
  8 24  1  0  0  0  0
  8 25  1  0  0  0  0
  9 10  1  0  0  0  0
  9 26  1  0  0  0  0
 10 11  1  0  0  0  0
 10 27  1  0  0  0  0
 10 28  1  0  0  0  0
 11 12  1  0  0  0  0
 11 29  1  0  0  0  0
 11 30  1  0  0  0  0
 12 16  1  0  0  0  0
 12 13  1  0  0  0  0
 13 14  2  0  0  0  0
 13 31  1  0  0  0  0
 14 15  1  0  0  0  0
 14 32  1  0  0  0  0
 15 16  2  0  0  0  0
 16 33  1  0  0  0  0
M  END
> <s_m_source_file>
AV-unprocessed.smi

> <i_m_source_file_index>
3110

> <i_lp_mmshare_version>
43012

> <i_f3d_flags>
0

> <s_epik_input>
W0NIMl0xW0NIMl1bQ0hdPVtDSF1bQ0BIXTFbQ0gyXUMoPU8pW05IXVtDSDJdW0NIMl1uMltjSF1bY0hdbltjSF0y

> <s_epik_cmdline>
J2VwaWtfcHl0aG9uJywgJy1waCcsICc3LjAnLCAnLXRuJywgJzgnLCAnLW1hJywgJzIwMCcsICctbWV0YWxfYmluZGluZycsICctaW1hZScsICc8aW5maWxlLm1hZT4nLCAnLW9tYWUnLCAnPG91dGZpbGUubWFlPic=

> <r_lp_tautomer_probability>
1

> <r_epik_Ionization_Penalty>
0.593629

> <r_epik_Ionization_Penalty_Charging>
0.593629

> <r_epik_Ionization_Penalty_Neutral>
1.57355e-08

> <r_epik_State_Penalty>
0.607413

> <r_epik_Charging_Adjusted_Penalty>
1.20104

> <i_epik_Tot_Q>
0

> <i_epik_Tot_abs_Q>
0

> <r_epik_Metal_State_Penalty>
0.299385

> <b_epik_Metal_Only>
0

> <s_lp_Force_Field>
OPLS_2005

> <r_lp_Energy>
17.6057

> <b_lp_Chiralities_Consistent>
1

> <s_lp_Variant>
AV-unprocessed.smi:3110-3

> <Gold.Version>
5.8.1

> <Gold.Id.Protein>
6NUR|6NUR_protein|mol2

> <Gold.PLP.Fitness>
43.2578

> <Gold.PLP.PLP>
-41.4082

> <Gold.PLP.part.hbond>
-1.0000

> <Gold.PLP.part.metal>
0.0000

> <Gold.PLP.part.buried>
-4.7956

> <Gold.PLP.part.nonpolar>
-36.4149

> <Gold.PLP.part.repulsive>
0.1218

> <Gold.PLP.ligand.clash>
0.0000

> <Gold.PLP.ligand.torsion>
0.5833

> <Gold.PLP.Chemscore.Hbond>
1.0000

> <Gold.PLP.Chemscore.CHOScore>
0.0000

> <Gold.PLP.Chemscore.Metal>
0.0000

> <Gold.Chemscore.Hbonds>
donor molecule, donor type, donor heavy atom, donor atom, acceptor molecule, acceptor atom, score
      P1  H  7997  8010       L1     1  1.00

> <Gold.PLP.Chemscore.Internal.Correction>
0.0163

> <Gold.Rescore>
     Score         DG    S(hbond)    S(metal)    S(lipo)     H(rot)  DE(clash)    DE(int)     intcor
     14.93     -15.42       1.00        0.00     100.50       2.01       0.01       0.48       ----

> <Gold.Chemscore.Fitness>
14.9309

> <Gold.Chemscore.DG>
-15.4194

> <Gold.Chemscore.ZeroCoef>
-5.4800

> <Gold.Chemscore.Hbond>
0.9965

> <Gold.Chemscore.Metal>
0.0000

> <Gold.Chemscore.Lipo>
100.5019

> <Gold.Chemscore.Internal_Hbond>
0.0000

> <Gold.Chemscore.DEClash>
0.0089

> <Gold.Chemscore.DEInternal>
0.4795

> <Gold.Chemscore.Rot>
2.0108

> <Gold.Chemscore.Internal.Correction>
   9.000000E+99

> <Gold.Chemscore.Hbonds>
donor molecule, donor type, donor heavy atom, donor atom, acceptor molecule, acceptor atom, score
      P1  H  7997  8010       L1     1  1.00

> <Gold.Chemscore.Hbond.Weighted>
-3.3284

> <Gold.Chemscore.Metal.Weighted>
-0.0000

> <Gold.Chemscore.Lipo.Weighted>
-11.7587

> <Gold.Chemscore.Internal_Hbond.Weighted>
0.0000

> <Gold.Chemscore.DEClash.Weighted>
0.0089

> <Gold.Chemscore.DEInternal.Weighted>
0.4795

> <Gold.Chemscore.Rot.Weighted>
5.1477

> <Gold.Chemscore.Internal.Correction.Weighted>
   9.000000E+99

> <Gold.Protein.RotatedTorsions>
[ 6907 6896 6895 6894 ] final  -81.99 input  -60.11 | X-H torsion
[ 7974 7965 7964 7962 ] final -127.66 input  175.53 | X-H torsion
[ 8008 7997 7996 7995 ] final   45.17 input   59.86 | X-H torsion
[ 10167 10162 10161 10158 ] final  -98.02 input  -65.29 | X-H torsion
[ 10718 10713 10712 10709 ] final  157.14 input   66.30 | X-H torsion
[ 10763 10752 10751 10750 ] final  -44.50 input  -60.55 | X-H torsion
[ 11005 11000 10999 10996 ] final   -0.24 input  -57.11 | X-H torsion

> <Gold.Protein.ActiveResidues>
 VAL166  LYS551  ARG553  GLY616  TRP617  ASP618  TYR619  PRO620  LYS621  CYS622 
 ASP623  PHE694  ASN695  SER759  ASP760  ASP761  ALA762  ILE779  LEU786  VAL792 
 PHE793  MET794  SER795  GLU796  ALA797  LYS798  CYS799  TRP800  GLU811  SER814 

> <Gold.Protein.RotatedAtoms>
  150.6903  134.3733  159.5001 H   0  0  0  0  0  0  0  0  0  0  0  0  # atno 6907 bound_to 6896
  152.1545  134.8959  160.0555 H   0  0  0  0  0  0  0  0  0  0  0  0  # atno 6908 bound_to 6896
  152.0044  133.3802  159.4231 H   0  0  0  0  0  0  0  0  0  0  0  0  # atno 6909 bound_to 6896
  144.9749  140.7582  143.4648 H   0  0  0  0  0  0  0  0  0  0  0  0  # atno 7974 bound_to 7965
  155.3315  140.3403  155.4239 H   0  0  0  0  0  0  0  0  0  0  0  0  # atno 8008 bound_to 7997
  156.1859  140.1680  156.8222 H   0  0  0  0  0  0  0  0  0  0  0  0  # atno 8009 bound_to 7997
  154.5386  140.0730  156.8453 H   0  0  0  0  0  0  0  0  0  0  0  0  # atno 8010 bound_to 7997
  140.2773  143.3305  152.0476 H   0  0  0  0  0  0  0  0  0  0  0  0  # atno 10167 bound_to 10162
  157.1955  131.0664  151.2055 H   0  0  0  0  0  0  0  0  0  0  0  0  # atno 10718 bound_to 10713
  154.0132  135.6679  153.4767 H   0  0  0  0  0  0  0  0  0  0  0  0  # atno 10763 bound_to 10752
  153.0612  135.5027  154.8093 H   0  0  0  0  0  0  0  0  0  0  0  0  # atno 10764 bound_to 10752
  154.6983  135.3074  154.9343 H   0  0  0  0  0  0  0  0  0  0  0  0  # atno 10765 bound_to 10752
  140.6340  133.9549  155.8290 H   0  0  0  0  0  0  0  0  0  0  0  0  # atno 11005 bound_to 11000
  145.2505  139.2033  143.4945 LP  0  0  0  0  0  0  0  0  0  0  0  0  # atno 17320 bound_to 7965
  146.3392  140.2417  142.8596 LP  0  0  0  0  0  0  0  0  0  0  0  0  # atno 17321 bound_to 7965
  139.4972  144.6616  151.6452 LP  0  0  0  0  0  0  0  0  0  0  0  0  # atno 17342 bound_to 10162
  140.5841  143.9895  150.6285 LP  0  0  0  0  0  0  0  0  0  0  0  0  # atno 17343 bound_to 10162
  157.3819  130.7236  149.6636 LP  0  0  0  0  0  0  0  0  0  0  0  0  # atno 17370 bound_to 10713
  155.9706  130.4170  150.4258 LP  0  0  0  0  0  0  0  0  0  0  0  0  # atno 17371 bound_to 10713
  141.0655  134.0284  157.3600 LP  0  0  0  0  0  0  0  0  0  0  0  0  # atno 17394 bound_to 11000
  139.9105  135.0189  156.7671 LP  0  0  0  0  0  0  0  0  0  0  0  0  # atno 17395 bound_to 11000

$$$$
