AV-unprocessed.smi:1978|AV-procd|sdf|8007|dock9
  -GOLD-   2272010193D 1   1.00000     0.00000
 Structure written by MMmdl.
 44 45  0  0  0  0  0  0  0  0  3 V2000
  151.0791  141.2739  155.7303 C   0  0  0  0  0  0  0  0  0  0  0  0
  151.3933  139.8383  155.4810 C   0  0  0  0  0  0  0  0  0  0  0  0
  150.6910  138.8240  154.8944 C   0  0  0  0  0  0  0  0  0  0  0  0
  151.5760  137.7157  154.9942 C   0  0  0  0  0  0  0  0  0  0  0  0
  151.3432  136.4741  154.5411 N   0  5  0  0  0  0  0  0  0  0  0  0
  150.2478  135.7939  154.9492 C   0  0  0  0  0  0  0  0  0  0  0  0
  149.5134  136.0846  155.8960 O   0  0  0  0  0  0  0  0  0  0  0  0
  149.9867  134.7055  154.2135 N   0  0  0  0  0  0  0  0  0  0  0  0
  148.8828  133.7798  154.4405 C   0  0  0  0  0  0  0  0  0  0  0  0
  149.0761  132.4345  153.6888 C   0  0  1  0  0  0  0  0  0  0  0  0
  149.3111  131.2939  154.7117 C   0  0  0  0  0  0  0  0  0  0  0  0
  147.9286  132.1155  152.7686 N   0  3  2  0  0  0  0  0  0  0  0  0
  147.4397  133.2898  151.9821 C   0  0  0  0  0  0  0  0  0  0  0  0
  146.4226  132.8799  150.9040 C   0  0  0  0  0  0  0  0  0  0  0  0
  145.2406  132.1206  151.5079 C   0  0  0  0  0  0  0  0  0  0  0  0
  145.7631  130.9278  152.3138 C   0  0  0  0  0  0  0  0  0  0  0  0
  146.7914  131.3511  153.3840 C   0  0  2  0  0  0  0  0  0  0  0  0
  146.1259  132.0886  154.5675 C   0  0  0  0  0  0  0  0  0  0  0  0
  152.7205  138.0336  155.5754 N   0  0  0  0  0  0  0  0  0  0  0  0
  152.6091  139.3918  155.8962 O   0  0  0  0  0  0  0  0  0  0  0  0
  150.8485  141.7855  154.7958 H   0  0  0  0  0  0  0  0  0  0  0  0
  151.9206  141.7865  156.1970 H   0  0  0  0  0  0  0  0  0  0  0  0
  150.2174  141.3701  156.3906 H   0  0  0  0  0  0  0  0  0  0  0  0
  149.7009  138.8659  154.4662 H   0  0  0  0  0  0  0  0  0  0  0  0
  150.6099  134.5031  153.4456 H   0  0  0  0  0  0  0  0  0  0  0  0
  148.7692  133.5918  155.5097 H   0  0  0  0  0  0  0  0  0  0  0  0
  147.9903  134.3066  154.1056 H   0  0  0  0  0  0  0  0  0  0  0  0
  149.9777  132.5208  153.0807 H   0  0  0  0  0  0  0  0  0  0  0  0
  150.0650  131.5511  155.4549 H   0  0  0  0  0  0  0  0  0  0  0  0
  149.6811  130.3830  154.2445 H   0  0  0  0  0  0  0  0  0  0  0  0
  148.3948  131.0530  155.2516 H   0  0  0  0  0  0  0  0  0  0  0  0
  147.0088  134.0352  152.6510 H   0  0  0  0  0  0  0  0  0  0  0  0
  148.2551  133.7828  151.4589 H   0  0  0  0  0  0  0  0  0  0  0  0
  146.0640  133.7638  150.3756 H   0  0  0  0  0  0  0  0  0  0  0  0
  146.9151  132.2543  150.1584 H   0  0  0  0  0  0  0  0  0  0  0  0
  144.6541  132.7833  152.1448 H   0  0  0  0  0  0  0  0  0  0  0  0
  144.5714  131.7770  150.7185 H   0  0  0  0  0  0  0  0  0  0  0  0
  144.9304  130.3980  152.7777 H   0  0  0  0  0  0  0  0  0  0  0  0
  146.2295  130.2155  151.6315 H   0  0  0  0  0  0  0  0  0  0  0  0
  147.1777  130.4069  153.7640 H   0  0  0  0  0  0  0  0  0  0  0  0
  145.3151  131.4914  154.9850 H   0  0  0  0  0  0  0  0  0  0  0  0
  145.7009  133.0477  154.2736 H   0  0  0  0  0  0  0  0  0  0  0  0
  146.8277  132.2764  155.3793 H   0  0  0  0  0  0  0  0  0  0  0  0
  148.3194  131.4839  152.0842 H   0  0  0  0  0  0  0  0  0  0  0  0
  1  2  1  0  0  0  0
  1 21  1  0  0  0  0
  1 22  1  0  0  0  0
  1 23  1  0  0  0  0
  2 20  1  0  0  0  0
  2  3  2  0  0  0  0
  3  4  1  0  0  0  0
  3 24  1  0  0  0  0
  4  5  1  0  0  0  0
  4 19  2  0  0  0  0
  5  6  1  0  0  0  0
  6  7  2  0  0  0  0
  6  8  1  0  0  0  0
  8  9  1  0  0  0  0
  8 25  1  0  0  0  0
  9 10  1  0  0  0  0
  9 26  1  0  0  0  0
  9 27  1  0  0  0  0
 10 11  1  0  0  0  0
 10 12  1  0  0  0  0
 10 28  1  0  0  0  0
 11 29  1  0  0  0  0
 11 30  1  0  0  0  0
 11 31  1  0  0  0  0
 12 17  1  0  0  0  0
 12 13  1  0  0  0  0
 12 44  1  0  0  0  0
 13 14  1  0  0  0  0
 13 32  1  0  0  0  0
 13 33  1  0  0  0  0
 14 15  1  0  0  0  0
 14 34  1  0  0  0  0
 14 35  1  0  0  0  0
 15 16  1  0  0  0  0
 15 36  1  0  0  0  0
 15 37  1  0  0  0  0
 16 17  1  0  0  0  0
 16 38  1  0  0  0  0
 16 39  1  0  0  0  0
 17 18  1  0  0  0  0
 17 40  1  0  0  0  0
 18 41  1  0  0  0  0
 18 42  1  0  0  0  0
 18 43  1  0  0  0  0
 19 20  1  0  0  0  0
M  CHG  1   5  -1
M  CHG  1  12   1
M  END
> <s_m_source_file>
AV-unprocessed.smi

> <i_m_source_file_index>
1978

> <i_lp_mmshare_version>
43012

> <i_f3d_flags>
0

> <s_epik_input>
W0NIM11jMVtjSF1jKG5vMSlbTkhdQyg9TylbTkhdW0NIMl1bQ0BIXShbQ0gzXSlOMltDSDJdW0NIMl1bQ0gyXVtDSDJdW0NASF0yW0NIM10=

> <s_epik_cmdline>
J2VwaWtfcHl0aG9uJywgJy1waCcsICc3LjAnLCAnLXRuJywgJzgnLCAnLW1hJywgJzIwMCcsICctbWV0YWxfYmluZGluZycsICctaW1hZScsICc8aW5maWxlLm1hZT4nLCAnLW9tYWUnLCAnPG91dGZpbGUubWFlPic=

> <r_epik_Ionization_Penalty>
6.22372

> <r_epik_Ionization_Penalty_Charging>
6.22362

> <r_epik_Ionization_Penalty_Neutral>
9.65074e-05

> <r_epik_State_Penalty>
6.22363

> <r_epik_Charging_Adjusted_Penalty>
12.4472

> <i_epik_Tot_Q>
0

> <i_epik_Tot_abs_Q>
2

> <r_epik_Metal_State_Penalty>
2.16675

> <b_epik_Metal_Only>
1

> <s_lp_Force_Field>
OPLS_2005

> <r_lp_Energy>
15.9266

> <b_lp_Chiralities_Consistent>
1

> <s_lp_Variant>
AV-unprocessed.smi:1978-16

> <Gold.Version>
5.8.1

> <Gold.Id.Protein>
6NUR|6NUR_protein|mol2

> <Gold.PLP.Fitness>
44.8977

> <Gold.PLP.PLP>
-36.3294

> <Gold.PLP.part.hbond>
-5.1270

> <Gold.PLP.part.metal>
0.0000

> <Gold.PLP.part.buried>
-3.6385

> <Gold.PLP.part.nonpolar>
-27.5077

> <Gold.PLP.part.repulsive>
1.1993

> <Gold.PLP.ligand.clash>
0.0000

> <Gold.PLP.ligand.torsion>
1.8184

> <Gold.PLP.Chemscore.Hbond>
4.0207

> <Gold.PLP.Chemscore.CHOScore>
0.0000

> <Gold.PLP.Chemscore.Metal>
0.0000

> <Gold.Chemscore.Hbonds>
donor molecule, donor type, donor heavy atom, donor atom, acceptor molecule, acceptor atom, score
      L1  H    12    44       P1 10747  1.00
      P1  H  7997  8008       L1    20  1.00
      P1  H 10752 10764       L1     5  2.00

> <Gold.PLP.Chemscore.Internal.Correction>
0.1429

> <Gold.Rescore>
     Score         DG    S(hbond)    S(metal)    S(lipo)     H(rot)  DE(clash)    DE(int)     intcor
     16.80     -18.77       2.64        0.00      71.36       1.52       0.27       1.71       ----

> <Gold.Chemscore.Fitness>
16.7969

> <Gold.Chemscore.DG>
-18.7693

> <Gold.Chemscore.ZeroCoef>
-5.4800

> <Gold.Chemscore.Hbond>
2.6433

> <Gold.Chemscore.Metal>
0.0000

> <Gold.Chemscore.Lipo>
71.3626

> <Gold.Chemscore.Internal_Hbond>
0.0000

> <Gold.Chemscore.DEClash>
0.2658

> <Gold.Chemscore.DEInternal>
1.7065

> <Gold.Chemscore.Rot>
1.5190

> <Gold.Chemscore.Internal.Correction>
   9.000000E+99

> <Gold.Chemscore.Hbonds>
donor molecule, donor type, donor heavy atom, donor atom, acceptor molecule, acceptor atom, score
      L1  H    12    44       P1 10747  0.94
      P1  H  7997  8008       L1    20  0.74
      P1  H 10752 10764       L1     5  0.57

> <Gold.Chemscore.Hbond.Weighted>
-8.8285

> <Gold.Chemscore.Metal.Weighted>
-0.0000

> <Gold.Chemscore.Lipo.Weighted>
-8.3494

> <Gold.Chemscore.Internal_Hbond.Weighted>
0.0000

> <Gold.Chemscore.DEClash.Weighted>
0.2658

> <Gold.Chemscore.DEInternal.Weighted>
1.7065

> <Gold.Chemscore.Rot.Weighted>
3.8886

> <Gold.Chemscore.Internal.Correction.Weighted>
   9.000000E+99

> <Gold.Protein.RotatedTorsions>
[ 6907 6896 6895 6894 ] final  162.65 input  -60.11 | X-H torsion
[ 7974 7965 7964 7962 ] final  -67.31 input  175.53 | X-H torsion
[ 8008 7997 7996 7995 ] final  -43.75 input   59.86 | X-H torsion
[ 10167 10162 10161 10158 ] final  -96.02 input  -65.29 | X-H torsion
[ 10718 10713 10712 10709 ] final -169.09 input   66.30 | X-H torsion
[ 10763 10752 10751 10750 ] final  -56.55 input  -60.55 | X-H torsion
[ 11005 11000 10999 10996 ] final -141.77 input  -57.11 | X-H torsion

> <Gold.Protein.ActiveResidues>
 VAL166  LYS551  ARG553  GLY616  TRP617  ASP618  TYR619  PRO620  LYS621  CYS622 
 ASP623  PHE694  ASN695  SER759  ASP760  ASP761  ALA762  ILE779  LEU786  VAL792 
 PHE793  MET794  SER795  GLU796  ALA797  LYS798  CYS799  TRP800  GLU811  SER814 

> <Gold.Protein.RotatedAtoms>
  151.9372  133.3627  159.3951 H   0  0  0  0  0  0  0  0  0  0  0  0  # atno 6907 bound_to 6896
  150.7005  134.4476  159.5330 H   0  0  0  0  0  0  0  0  0  0  0  0  # atno 6908 bound_to 6896
  152.2127  134.8486  160.0546 H   0  0  0  0  0  0  0  0  0  0  0  0  # atno 6909 bound_to 6896
  145.7308  140.8997  143.0581 H   0  0  0  0  0  0  0  0  0  0  0  0  # atno 7974 bound_to 7965
  154.3997  140.1439  156.3571 H   0  0  0  0  0  0  0  0  0  0  0  0  # atno 8008 bound_to 7997
  155.8215  140.3469  155.5496 H   0  0  0  0  0  0  0  0  0  0  0  0  # atno 8009 bound_to 7997
  155.8282  140.0908  157.1799 H   0  0  0  0  0  0  0  0  0  0  0  0  # atno 8010 bound_to 7997
  140.2982  143.3179  152.0276 H   0  0  0  0  0  0  0  0  0  0  0  0  # atno 10167 bound_to 10162
  156.7065  130.9217  151.3085 H   0  0  0  0  0  0  0  0  0  0  0  0  # atno 10718 bound_to 10713
  154.2085  135.6399  153.5108 H   0  0  0  0  0  0  0  0  0  0  0  0  # atno 10763 bound_to 10752
  152.9995  135.5468  154.6241 H   0  0  0  0  0  0  0  0  0  0  0  0  # atno 10764 bound_to 10752
  154.5671  135.2913  155.0836 H   0  0  0  0  0  0  0  0  0  0  0  0  # atno 10765 bound_to 10752
  140.8291  134.2539  157.4865 H   0  0  0  0  0  0  0  0  0  0  0  0  # atno 11005 bound_to 11000
  144.6893  139.9329  143.7472 LP  0  0  0  0  0  0  0  0  0  0  0  0  # atno 17320 bound_to 7965
  146.0539  139.3537  143.0622 LP  0  0  0  0  0  0  0  0  0  0  0  0  # atno 17321 bound_to 7965
  139.4921  144.6475  151.6746 LP  0  0  0  0  0  0  0  0  0  0  0  0  # atno 17342 bound_to 10162
  140.5674  144.0167  150.6199 LP  0  0  0  0  0  0  0  0  0  0  0  0  # atno 17343 bound_to 10162
  157.6953  130.9275  150.0627 LP  0  0  0  0  0  0  0  0  0  0  0  0  # atno 17370 bound_to 10713
  156.1692  130.3646  149.9190 LP  0  0  0  0  0  0  0  0  0  0  0  0  # atno 17371 bound_to 10713
  139.8705  134.9576  156.4275 LP  0  0  0  0  0  0  0  0  0  0  0  0  # atno 17394 bound_to 11000
  140.9017  133.7774  155.9688 LP  0  0  0  0  0  0  0  0  0  0  0  0  # atno 17395 bound_to 11000

$$$$
