#       Name:                AV-unprocessed.smi:314
#       Creating user name   scv26
#       Creation time:       Thu Mar 26 22:21:47 2020


#       File generated by GOLD software.
#

@<TRIPOS>MOLECULE
AV-unprocessed.smi:314
    57    58     1
SMALL
NO_CHARGES


@<TRIPOS>ATOM
      1 ****        -8.3124   2.3474  -1.1996 C.3            1 S1                 0.0000
      2 ****        -7.0831   2.8931  -1.6656 O.3            1 S1                 0.0000
      3 ****        -5.9843   2.0618  -1.7409 C.ar           1 S1                 0.0000
      4 ****        -4.7604   2.6010  -2.1848 C.ar           1 S1                 0.0000
      5 ****        -3.6327   1.7613  -2.2580 C.ar           1 S1                 0.0000
      6 ****        -3.7650   0.4051  -1.8771 C.ar           1 S1                 0.0000
      7 ****        -2.7064  -0.5403  -1.9263 N.am           1 S1                 0.0000
      8 ****        -1.3853  -0.3096  -1.8436 C.2            1 S1                 0.0000
      9 ****        -0.8656   0.7942  -1.6789 O.2            1 S1                 0.0000
     10 ****        -0.6866  -1.4500  -1.9359 N.am           1 S1                 0.0000
     11 ****         0.7658  -1.5481  -1.8465 C.3            1 S1                 0.0000
     12 ****         1.2383  -1.5367  -0.3787 C.3            1 S1                 0.0000
     13 ****         2.7664  -1.5989  -0.2149 C.2            1 S1                 0.0000
     14 ****         3.4732  -1.6829  -1.2205 O.2            1 S1                 0.0000
     15 ****         3.2913  -1.5514   1.0331 N.am           1 S1                 0.0000
     16 ****         2.5400  -1.4109   2.2842 C.3            1 S1                 0.0000
     17 ****         2.8840  -0.0534   2.9327 C.3            1 S1                 0.0000
     18 ****         2.2996   1.1601   2.1873 C.3            1 S1                 0.0000
     19 ****         4.3017   0.0620   3.0920 O.3            1 S1                 0.0000
     20 ****         5.0774  -0.1454   1.9088 C.3            1 S1                 0.0000
     21 ****         6.5583  -0.0397   2.2893 C.3            1 S1                 0.0000
     22 ****         4.7304  -1.5180   1.3000 C.3            1 S1                 0.0000
     23 ****        -5.0377  -0.0412  -1.4656 C.ar           1 S1                 0.0000
     24 ****        -6.1217   0.7591  -1.3899 N.ar           1 S1                 0.0000
     25 ****        -9.0734   3.1276  -1.1909 H              1 S1                 0.0000
     26 ****        -8.2188   1.9658  -0.1818 H              1 S1                 0.0000
     27 ****        -8.6665   1.5473  -1.8512 H              1 S1                 0.0000
     28 ****        -4.6880   3.6409  -2.4676 H              1 S1                 0.0000
     29 ****        -2.6986   2.1666  -2.6151 H              1 S1                 0.0000
     30 ****        -2.9896  -1.5085  -1.9625 H              1 S1                 0.0000
     31 ****        -1.1945  -2.3123  -2.0686 H              1 S1                 0.0000
     32 ****         1.0691  -2.4764  -2.3319 H              1 S1                 0.0000
     33 ****         1.2261  -0.7350  -2.4113 H              1 S1                 0.0000
     34 ****         0.8791  -0.6280   0.1059 H              1 S1                 0.0000
     35 ****         0.7933  -2.3824   0.1470 H              1 S1                 0.0000
     36 ****         1.4614  -1.5042   2.1677 H              1 S1                 0.0000
     37 ****         2.8281  -2.2206   2.9562 H              1 S1                 0.0000
     38 ****         2.4616  -0.0457   3.9378 H              1 S1                 0.0000
     39 ****         1.2109   1.1091   2.1603 H              1 S1                 0.0000
     40 ****         2.6462   1.2217   1.1562 H              1 S1                 0.0000
     41 ****         2.5732   2.0897   2.6866 H              1 S1                 0.0000
     42 ****         4.8565   0.6409   1.1863 H              1 S1                 0.0000
     43 ****         7.1984  -0.1745   1.4171 H              1 S1                 0.0000
     44 ****         6.8318  -0.7954   3.0262 H              1 S1                 0.0000
     45 ****         6.7813   0.9383   2.7163 H              1 S1                 0.0000
     46 ****         4.9884  -2.3196   1.9938 H              1 S1                 0.0000
     47 ****         5.3299  -1.6902   0.4052 H              1 S1                 0.0000
     48 ****        -5.1918  -1.0716  -1.1800 H              1 S1                 0.0000
     49 ****        -6.8428   3.6464  -1.0535 LP             1 S1                 0.0000
     50 ****        -7.2475   3.2502  -2.5851 LP             1 S1                 0.0000
     51 ****        -1.4388   1.6093  -1.5954 LP             1 S1                 0.0000
     52 ****         0.1298   0.8757  -1.6287 LP             1 S1                 0.0000
     53 ****         3.0519  -1.7098  -2.1270 LP             1 S1                 0.0000
     54 ****         4.4683  -1.7243  -1.1303 LP             1 S1                 0.0000
     55 ****         4.5906  -0.6130   3.7710 LP             1 S1                 0.0000
     56 ****         4.4989   0.9817   3.4314 LP             1 S1                 0.0000
     57 ****        -7.0034   0.4008  -1.0830 LP             1 S1                 0.0000
@<TRIPOS>BOND
    1    1    2 1     
    2    1   25 1     
    3    1   26 1     
    4    1   27 1     
    5    2    3 1     
    6    3   24 ar    
    7    3    4 ar    
    8    4    5 ar    
    9    4   28 1     
   10    5    6 ar    
   11    5   29 1     
   12    6    7 1     
   13    6   23 ar    
   14    7    8 am    
   15    7   30 1     
   16    8    9 2     
   17    8   10 am    
   18   10   11 1     
   19   10   31 1     
   20   11   12 1     
   21   11   32 1     
   22   11   33 1     
   23   12   13 1     
   24   12   34 1     
   25   12   35 1     
   26   13   14 2     
   27   13   15 am    
   28   15   22 1     
   29   15   16 1     
   30   16   17 1     
   31   16   36 1     
   32   16   37 1     
   33   17   18 1     
   34   17   19 1     
   35   17   38 1     
   36   18   39 1     
   37   18   40 1     
   38   18   41 1     
   39   19   20 1     
   40   20   21 1     
   41   20   22 1     
   42   20   42 1     
   43   21   43 1     
   44   21   44 1     
   45   21   45 1     
   46   22   46 1     
   47   22   47 1     
   48   23   24 ar    
   49   23   48 1     
   50    2   49 1     
   51    2   50 1     
   52    9   51 1     
   53    9   52 1     
   54   14   53 1     
   55   14   54 1     
   56   19   55 1     
   57   19   56 1     
   58   24   57 1     
@<TRIPOS>SUBSTRUCTURE
      1 S1             1
@<TRIPOS>SET
LONE_PAIRS      STATIC     ATOMS    <user>   **** ""
9 49 50 51 52 53 54 55 56 57
DONOR_HYDROGENS      STATIC     ATOMS    <user>   **** ""
2 30 31
ATOM$BLUE        STATIC     ATOMS    COLORGROUP SYSTEM
9 49 50 51 52 53 54 55 56 57
ATOM$RED        STATIC     ATOMS    COLORGROUP SYSTEM
2 30 31
