AV-unprocessed.smi:69|AV-procd|sdf|651|dock2
  -GOLD-   2262016543D 1   1.00000     0.00000
 Structure written by MMmdl.
 32 34  0  0  0  0  0  0  0  0  1 V2000
  154.2004  137.6794  156.6575 N   0  0  0  0  0  0  0  0  0  0  0  0
  153.0723  138.4020  156.6250 C   0  0  0  0  0  0  0  0  0  0  0  0
  153.0120  139.5340  157.3654 N   0  0  0  0  0  0  0  0  0  0  0  0
  151.8985  140.2749  157.3481 C   0  0  0  0  0  0  0  0  0  0  0  0
  150.7635  140.0633  156.6757 N   0  0  0  0  0  0  0  0  0  0  0  0
  150.8294  138.9200  155.9327 C   0  0  0  0  0  0  0  0  0  0  0  0
  151.9415  138.0384  155.8513 C   0  0  0  0  0  0  0  0  0  0  0  0
  151.6474  136.9849  154.9950 N   0  0  0  0  0  0  0  0  0  0  0  0
  150.4290  137.2358  154.5945 C   0  0  0  0  0  0  0  0  0  0  0  0
  149.8638  138.3823  155.1119 N   0  0  0  0  0  0  0  0  0  0  0  0
  148.5105  138.9636  154.8581 C   0  0  2  0  0  0  0  0  0  0  0  0
  147.8370  138.1288  153.9769 O   0  0  0  0  0  0  0  0  0  0  0  0
  146.8246  138.8970  153.3472 C   0  0  2  0  0  0  0  0  0  0  0  0
  146.3360  138.1823  152.0784 C   0  0  0  0  0  0  0  0  0  0  0  0
  146.2413  136.7934  152.3113 O   0  0  0  0  0  0  0  0  0  0  0  0
  147.5351  140.2292  153.0662 C   0  0  1  0  0  0  0  0  0  0  0  0
  146.6072  141.2942  153.1184 O   0  0  0  0  0  0  0  0  0  0  0  0
  148.5623  140.3548  154.1930 C   0  0  2  0  0  0  0  0  0  0  0  0
  149.8353  140.7025  153.6762 O   0  0  0  0  0  0  0  0  0  0  0  0
  148.0067  138.9673  155.8265 H   0  0  0  0  0  0  0  0  0  0  0  0
  146.0058  139.0503  154.0544 H   0  0  0  0  0  0  0  0  0  0  0  0
  148.0245  140.2025  152.0909 H   0  0  0  0  0  0  0  0  0  0  0  0
  148.2716  141.0959  154.9393 H   0  0  0  0  0  0  0  0  0  0  0  0
  154.2703  136.8320  156.1126 H   0  0  0  0  0  0  0  0  0  0  0  0
  154.9780  137.9844  157.2248 H   0  0  0  0  0  0  0  0  0  0  0  0
  151.9202  141.1646  157.9600 H   0  0  0  0  0  0  0  0  0  0  0  0
  149.9089  136.5888  153.9030 H   0  0  0  0  0  0  0  0  0  0  0  0
  145.3407  138.5367  151.8093 H   0  0  0  0  0  0  0  0  0  0  0  0
  146.9926  138.3829  151.2313 H   0  0  0  0  0  0  0  0  0  0  0  0
  147.1026  136.4634  152.5172 H   0  0  0  0  0  0  0  0  0  0  0  0
  145.7414  140.9440  152.9723 H   0  0  0  0  0  0  0  0  0  0  0  0
  149.7863  140.6959  152.7325 H   0  0  0  0  0  0  0  0  0  0  0  0
  1  2  1  0  0  0  0
  1 24  1  0  0  0  0
  1 25  1  0  0  0  0
  2  7  1  0  0  0  0
  2  3  2  0  0  0  0
  3  4  1  0  0  0  0
  4  5  2  0  0  0  0
  4 26  1  0  0  0  0
  5  6  1  0  0  0  0
  6 10  1  0  0  0  0
  6  7  2  0  0  0  0
  7  8  1  0  0  0  0
  8  9  2  0  0  0  0
  9 10  1  0  0  0  0
  9 27  1  0  0  0  0
 10 11  1  0  0  0  0
 11 20  1  0  0  0  0
 11 18  1  0  0  0  0
 11 12  1  0  0  0  0
 12 13  1  0  0  0  0
 13 21  1  0  0  0  0
 13 14  1  0  0  0  0
 13 16  1  0  0  0  0
 14 15  1  0  0  0  0
 14 28  1  0  0  0  0
 14 29  1  0  0  0  0
 15 30  1  0  0  0  0
 16 22  1  0  0  0  0
 16 17  1  0  0  0  0
 16 18  1  0  0  0  0
 17 31  1  0  0  0  0
 18 23  1  0  0  0  0
 18 19  1  0  0  0  0
 19 32  1  0  0  0  0
M  END
> <s_m_source_file>
AV-unprocessed.smi

> <i_m_source_file_index>
69

> <i_lp_mmshare_version>
43012

> <i_f3d_flags>
0

> <s_epik_input>
bjFbY0hdbmMoW05IMl0pYyhjMTIpbltjSF1uMltDQEBIXTNPW0NASF0oW0NIMl1bT0hdKVtDQEBIXShbT0hdKVtDQEhdM1tPSF0=

> <s_epik_cmdline>
J2VwaWtfcHl0aG9uJywgJy1waCcsICc3LjAnLCAnLXRuJywgJzgnLCAnLW1hJywgJzIwMCcsICctbWV0YWxfYmluZGluZycsICctaW1hZScsICc8aW5maWxlLm1hZT4nLCAnLW9tYWUnLCAnPG91dGZpbGUubWFlPic=

> <r_lp_tautomer_probability>
1

> <r_epik_Ionization_Penalty>
0.000428445

> <r_epik_Ionization_Penalty_Charging>
0

> <r_epik_Ionization_Penalty_Neutral>
0.000428445

> <r_epik_State_Penalty>
-0

> <r_epik_Charging_Adjusted_Penalty>
0

> <i_epik_Tot_Q>
0

> <i_epik_Tot_abs_Q>
0

> <r_epik_Metal_State_Penalty>
-0

> <b_epik_Metal_Only>
0

> <s_epik_Chemistry_Notes>
This compound contains an acetal/aminal-like group ( X-CH(R)-Y where X, Y are N, S, or O) that may be acid/base labile, releasing an aldehyde.

> <s_lp_Force_Field>
OPLS_2005

> <r_lp_Energy>
36.244

> <b_lp_Chiralities_Consistent>
1

> <s_lp_Variant>
AV-unprocessed.smi:69-9

> <Gold.Version>
5.8.1

> <Gold.Id.Protein>
6NUR|6NUR_protein|mol2

> <Gold.PLP.Fitness>
40.6552

> <Gold.PLP.PLP>
-22.4971

> <Gold.PLP.part.hbond>
-6.8580

> <Gold.PLP.part.metal>
0.0000

> <Gold.PLP.part.buried>
2.4679

> <Gold.PLP.part.nonpolar>
-20.4493

> <Gold.PLP.part.repulsive>
2.6119

> <Gold.PLP.ligand.clash>
0.0000

> <Gold.PLP.ligand.torsion>
0.2444

> <Gold.PLP.Chemscore.Hbond>
5.2112

> <Gold.PLP.Chemscore.CHOScore>
1.0000

> <Gold.PLP.Chemscore.Metal>
0.0000

> <Gold.Chemscore.Hbonds>
donor molecule, donor type, donor heavy atom, donor atom, acceptor molecule, acceptor atom, score
      L1  H    15    30       P1  7948  0.90
      L1  H    17    31       P1 10175  0.68
      L1  H    19    32       P1  7957  1.00
      P1  H  7989  7998       L1    19  0.14
      P1  H  7997  8008       L1     3  0.75
      P1  H 10752 10765       L1     8  1.00
      L1  C     9    27       P1  7948  1.00

> <Gold.PLP.Chemscore.Internal.Correction>
0.0132

> <Gold.Rescore>
     Score         DG    S(hbond)    S(metal)    S(lipo)     H(rot)  DE(clash)    DE(int)     intcor
      6.86     -10.04       3.14        0.00      37.50       4.03       1.98       1.19       ----

> <Gold.Chemscore.Fitness>
6.8607

> <Gold.Chemscore.DG>
-10.0366

> <Gold.Chemscore.ZeroCoef>
-5.4800

> <Gold.Chemscore.Hbond>
3.1378

> <Gold.Chemscore.Metal>
0.0000

> <Gold.Chemscore.Lipo>
37.4997

> <Gold.Chemscore.Internal_Hbond>
0.0000

> <Gold.Chemscore.DEClash>
1.9848

> <Gold.Chemscore.DEInternal>
1.1910

> <Gold.Chemscore.Rot>
4.0277

> <Gold.Chemscore.Internal.Correction>
   9.000000E+99

> <Gold.Chemscore.Hbonds>
donor molecule, donor type, donor heavy atom, donor atom, acceptor molecule, acceptor atom, score
      L1  H    15    30       P1  7948  0.85
      L1  H    17    31       P1 10175  0.24
      L1  H    19    32       P1  7957  0.99
      P1  H  7997  8008       L1     3  0.09
      P1  H 10752 10765       L1     8  0.93

> <Gold.Chemscore.Hbond.Weighted>
-10.4801

> <Gold.Chemscore.Metal.Weighted>
-0.0000

> <Gold.Chemscore.Lipo.Weighted>
-4.3875

> <Gold.Chemscore.Internal_Hbond.Weighted>
0.0000

> <Gold.Chemscore.DEClash.Weighted>
1.9848

> <Gold.Chemscore.DEInternal.Weighted>
1.1910

> <Gold.Chemscore.Rot.Weighted>
10.3110

> <Gold.Chemscore.Internal.Correction.Weighted>
   9.000000E+99

> <Gold.Protein.RotatedTorsions>
[ 6907 6896 6895 6894 ] final   90.62 input  -60.11 | X-H torsion
[ 7974 7965 7964 7962 ] final -104.56 input  175.53 | X-H torsion
[ 8008 7997 7996 7995 ] final  -82.62 input   59.86 | X-H torsion
[ 10167 10162 10161 10158 ] final  -11.05 input  -65.29 | X-H torsion
[ 10718 10713 10712 10709 ] final  -97.21 input   66.30 | X-H torsion
[ 10763 10752 10751 10750 ] final  162.30 input  -60.55 | X-H torsion
[ 11005 11000 10999 10996 ] final -158.64 input  -57.11 | X-H torsion

> <Gold.Protein.ActiveResidues>
 VAL166  LYS551  ARG553  GLY616  TRP617  ASP618  TYR619  PRO620  LYS621  CYS622 
 ASP623  PHE694  ASN695  SER759  ASP760  ASP761  ALA762  ILE779  LEU786  VAL792 
 PHE793  MET794  SER795  GLU796  ALA797  LYS798  CYS799  TRP800  GLU811  SER814 

> <Gold.Protein.RotatedAtoms>
  152.5445  134.1783  159.8624 H   0  0  0  0  0  0  0  0  0  0  0  0  # atno 6907 bound_to 6896
  151.1787  133.4731  159.2601 H   0  0  0  0  0  0  0  0  0  0  0  0  # atno 6908 bound_to 6896
  151.1200  135.0086  159.8589 H   0  0  0  0  0  0  0  0  0  0  0  0  # atno 6909 bound_to 6896
  145.2416  140.9207  143.3147 H   0  0  0  0  0  0  0  0  0  0  0  0  # atno 7974 bound_to 7965
  154.6105  140.0630  156.9488 H   0  0  0  0  0  0  0  0  0  0  0  0  # atno 8008 bound_to 7997
  155.1981  140.3312  155.4329 H   0  0  0  0  0  0  0  0  0  0  0  0  # atno 8009 bound_to 7997
  156.2374  140.1869  156.7066 H   0  0  0  0  0  0  0  0  0  0  0  0  # atno 8010 bound_to 7997
  140.7129  143.5682  150.9121 H   0  0  0  0  0  0  0  0  0  0  0  0  # atno 10167 bound_to 10162
  156.0078  130.5184  150.6340 H   0  0  0  0  0  0  0  0  0  0  0  0  # atno 10718 bound_to 10713
  154.2763  135.2764  155.2716 H   0  0  0  0  0  0  0  0  0  0  0  0  # atno 10763 bound_to 10752
  154.5258  135.5743  153.6721 H   0  0  0  0  0  0  0  0  0  0  0  0  # atno 10764 bound_to 10752
  152.9936  135.6215  154.2920 H   0  0  0  0  0  0  0  0  0  0  0  0  # atno 10765 bound_to 10752
  140.6514  134.4446  157.5235 H   0  0  0  0  0  0  0  0  0  0  0  0  # atno 11005 bound_to 11000
  144.9584  139.4006  143.6368 LP  0  0  0  0  0  0  0  0  0  0  0  0  # atno 17320 bound_to 7965
  146.3327  139.8625  142.8854 LP  0  0  0  0  0  0  0  0  0  0  0  0  # atno 17321 bound_to 7965
  139.9407  143.6385  152.3054 LP  0  0  0  0  0  0  0  0  0  0  0  0  # atno 17342 bound_to 10162
  139.6868  144.7651  151.1509 LP  0  0  0  0  0  0  0  0  0  0  0  0  # atno 17343 bound_to 10162
  157.4133  131.0826  151.1201 LP  0  0  0  0  0  0  0  0  0  0  0  0  # atno 17370 bound_to 10713
  157.1825  130.6316  149.5677 LP  0  0  0  0  0  0  0  0  0  0  0  0  # atno 17371 bound_to 10713
  139.9044  134.8481  156.1763 LP  0  0  0  0  0  0  0  0  0  0  0  0  # atno 17394 bound_to 11000
  141.0534  133.6877  156.1814 LP  0  0  0  0  0  0  0  0  0  0  0  0  # atno 17395 bound_to 11000

$$$$
