AV-unprocessed.smi:1800|AV-procd|sdf|7263|dock8
  -GOLD-   22720 8513D 1   1.00000     0.00000
 Structure written by MMmdl.
 36 37  0  0  0  0  0  0  0  0  1 V2000
  153.0001  142.0180  161.2947 C   0  0  0  0  0  0  0  0  0  0  0  0
  153.4092  141.3706  159.9657 C   0  0  2  0  0  0  0  0  0  0  0  0
  152.4200  141.6921  158.8291 C   0  0  0  0  0  0  0  0  0  0  0  0
  151.9946  143.0812  158.8419 N   0  0  0  0  0  0  0  0  0  0  0  0
  152.7770  144.2161  158.7995 C   0  0  0  0  0  0  0  0  0  0  0  0
  151.9357  145.2912  158.8205 C   0  0  0  0  0  0  0  0  0  0  0  0
  150.6408  144.7052  158.8822 C   0  0  0  0  0  0  0  0  0  0  0  0
  150.6791  143.3826  158.8980 N   0  0  0  0  0  0  0  0  0  0  0  0
  153.5138  139.9197  160.1485 N   0  0  0  0  0  0  0  0  0  0  0  0
  154.2010  138.9665  158.8862 S   0  0  0  0  0  0  0  0  0  0  0  0
  153.3913  139.1873  157.6776 O   0  0  0  0  0  0  0  0  0  0  0  0
  155.6433  139.2546  158.8648 O   0  0  0  0  0  0  0  0  0  0  0  0
  153.9203  137.2400  159.5088 C   0  0  0  0  0  0  0  0  0  0  0  0
  153.2719  137.2524  160.8958 C   0  0  0  0  0  0  0  0  0  0  0  0
  154.4351  137.4854  161.8627 C   0  0  0  0  0  0  0  0  0  0  0  0
  155.6656  136.8565  161.1912 C   0  0  0  0  0  0  0  0  0  0  0  0
  155.2448  136.5077  159.7552 C   0  0  0  0  0  0  0  0  0  0  0  0
  152.9439  143.1027  161.2004 H   0  0  0  0  0  0  0  0  0  0  0  0
  153.7231  141.7936  162.0798 H   0  0  0  0  0  0  0  0  0  0  0  0
  152.0241  141.6623  161.6266 H   0  0  0  0  0  0  0  0  0  0  0  0
  154.3893  141.7654  159.6943 H   0  0  0  0  0  0  0  0  0  0  0  0
  152.8596  141.4578  157.8579 H   0  0  0  0  0  0  0  0  0  0  0  0
  151.5285  141.0711  158.9241 H   0  0  0  0  0  0  0  0  0  0  0  0
  153.8547  144.1638  158.7509 H   0  0  0  0  0  0  0  0  0  0  0  0
  152.2045  146.3366  158.7941 H   0  0  0  0  0  0  0  0  0  0  0  0
  149.6803  145.1981  158.9146 H   0  0  0  0  0  0  0  0  0  0  0  0
  153.9210  139.6872  161.0539 H   0  0  0  0  0  0  0  0  0  0  0  0
  153.2891  136.7222  158.7860 H   0  0  0  0  0  0  0  0  0  0  0  0
  152.4799  137.9937  161.0017 H   0  0  0  0  0  0  0  0  0  0  0  0
  152.8282  136.2757  161.0939 H   0  0  0  0  0  0  0  0  0  0  0  0
  154.5964  138.5566  161.9908 H   0  0  0  0  0  0  0  0  0  0  0  0
  154.2390  137.0640  162.8491 H   0  0  0  0  0  0  0  0  0  0  0  0
  156.5006  137.5582  161.1950 H   0  0  0  0  0  0  0  0  0  0  0  0
  155.9917  135.9611  161.7214 H   0  0  0  0  0  0  0  0  0  0  0  0
  155.0769  135.4325  159.6825 H   0  0  0  0  0  0  0  0  0  0  0  0
  156.0097  136.7598  159.0212 H   0  0  0  0  0  0  0  0  0  0  0  0
  1  2  1  0  0  0  0
  1 18  1  0  0  0  0
  1 19  1  0  0  0  0
  1 20  1  0  0  0  0
  2  3  1  0  0  0  0
  2  9  1  0  0  0  0
  2 21  1  0  0  0  0
  3  4  1  0  0  0  0
  3 22  1  0  0  0  0
  3 23  1  0  0  0  0
  4  8  1  0  0  0  0
  4  5  1  0  0  0  0
  5  6  2  0  0  0  0
  5 24  1  0  0  0  0
  6  7  1  0  0  0  0
  6 25  1  0  0  0  0
  7  8  2  0  0  0  0
  7 26  1  0  0  0  0
  9 10  1  0  0  0  0
  9 27  1  0  0  0  0
 10 11  2  0  0  0  0
 10 12  2  0  0  0  0
 10 13  1  0  0  0  0
 13 17  1  0  0  0  0
 13 14  1  0  0  0  0
 13 28  1  0  0  0  0
 14 15  1  0  0  0  0
 14 29  1  0  0  0  0
 14 30  1  0  0  0  0
 15 16  1  0  0  0  0
 15 31  1  0  0  0  0
 15 32  1  0  0  0  0
 16 17  1  0  0  0  0
 16 33  1  0  0  0  0
 16 34  1  0  0  0  0
 17 35  1  0  0  0  0
 17 36  1  0  0  0  0
M  END
> <s_m_source_file>
AV-unprocessed.smi

> <i_m_source_file_index>
1800

> <i_lp_mmshare_version>
43012

> <i_f3d_flags>
0

> <s_epik_input>
bjFbY0hdW2NIXVtjSF1uMVtDSDJdW0NAQEhdKFtDSDNdKVtOSF1TKD1PKSg9TylbQ0hdMltDSDJdW0NIMl1bQ0gyXVtDSDJdMg==

> <s_epik_cmdline>
J2VwaWtfcHl0aG9uJywgJy1waCcsICc3LjAnLCAnLXRuJywgJzgnLCAnLW1hJywgJzIwMCcsICctbWV0YWxfYmluZGluZycsICctaW1hZScsICc8aW5maWxlLm1hZT4nLCAnLW9tYWUnLCAnPG91dGZpbGUubWFlPic=

> <r_lp_tautomer_probability>
1

> <r_epik_Ionization_Penalty>
1.44925e-05

> <r_epik_Ionization_Penalty_Charging>
0

> <r_epik_Ionization_Penalty_Neutral>
1.44925e-05

> <r_epik_State_Penalty>
-0

> <r_epik_Charging_Adjusted_Penalty>
0

> <i_epik_Tot_Q>
0

> <i_epik_Tot_abs_Q>
0

> <r_epik_Metal_State_Penalty>
0.00862991

> <b_epik_Metal_Only>
0

> <s_lp_Force_Field>
OPLS_2005

> <r_lp_Energy>
14.2601

> <b_lp_Chiralities_Consistent>
1

> <s_lp_Variant>
AV-unprocessed.smi:1800-1

> <Gold.Version>
5.8.1

> <Gold.Id.Protein>
6NUR|6NUR_protein|mol2

> <Gold.PLP.Fitness>
40.5351

> <Gold.PLP.PLP>
-33.5865

> <Gold.PLP.part.hbond>
-2.0000

> <Gold.PLP.part.metal>
0.0000

> <Gold.PLP.part.buried>
-3.2293

> <Gold.PLP.part.nonpolar>
-28.3936

> <Gold.PLP.part.repulsive>
0.1126

> <Gold.PLP.ligand.clash>
0.0000

> <Gold.PLP.ligand.torsion>
0.3779

> <Gold.PLP.Chemscore.Hbond>
1.4720

> <Gold.PLP.Chemscore.CHOScore>
1.0000

> <Gold.PLP.Chemscore.Metal>
0.0000

> <Gold.Chemscore.Hbonds>
donor molecule, donor type, donor heavy atom, donor atom, acceptor molecule, acceptor atom, score
      P1  H  7997  8008       L1    11  0.62
      P1  H  7997  8010       L1    12  0.86
      L1  C     7    26       P1  8029  1.00

> <Gold.PLP.Chemscore.Internal.Correction>
0.2884

> <Gold.Rescore>
     Score         DG    S(hbond)    S(metal)    S(lipo)     H(rot)  DE(clash)    DE(int)     intcor
     13.43     -14.97       0.88        0.00      94.48       1.76       0.07       1.47       ----

> <Gold.Chemscore.Fitness>
13.4272

> <Gold.Chemscore.DG>
-14.9702

> <Gold.Chemscore.ZeroCoef>
-5.4800

> <Gold.Chemscore.Hbond>
0.8797

> <Gold.Chemscore.Metal>
0.0000

> <Gold.Chemscore.Lipo>
94.4794

> <Gold.Chemscore.Internal_Hbond>
0.0000

> <Gold.Chemscore.DEClash>
0.0710

> <Gold.Chemscore.DEInternal>
1.4720

> <Gold.Chemscore.Rot>
1.7585

> <Gold.Chemscore.Internal.Correction>
   9.000000E+99

> <Gold.Chemscore.Hbonds>
donor molecule, donor type, donor heavy atom, donor atom, acceptor molecule, acceptor atom, score
      P1  H  7997  8008       L1    11  0.46
      P1  H  7997  8010       L1    12  0.29

> <Gold.Chemscore.Hbond.Weighted>
-2.9380

> <Gold.Chemscore.Metal.Weighted>
-0.0000

> <Gold.Chemscore.Lipo.Weighted>
-11.0541

> <Gold.Chemscore.Internal_Hbond.Weighted>
0.0000

> <Gold.Chemscore.DEClash.Weighted>
0.0710

> <Gold.Chemscore.DEInternal.Weighted>
1.4720

> <Gold.Chemscore.Rot.Weighted>
4.5019

> <Gold.Chemscore.Internal.Correction.Weighted>
   9.000000E+99

> <Gold.Protein.RotatedTorsions>
[ 6907 6896 6895 6894 ] final  -35.41 input  -60.11 | X-H torsion
[ 7974 7965 7964 7962 ] final -109.92 input  175.53 | X-H torsion
[ 8008 7997 7996 7995 ] final  -45.13 input   59.86 | X-H torsion
[ 10167 10162 10161 10158 ] final  -39.87 input  -65.29 | X-H torsion
[ 10718 10713 10712 10709 ] final -105.77 input   66.30 | X-H torsion
[ 10763 10752 10751 10750 ] final  -92.80 input  -60.55 | X-H torsion
[ 11005 11000 10999 10996 ] final   43.75 input  -57.11 | X-H torsion

> <Gold.Protein.ActiveResidues>
 VAL166  LYS551  ARG553  GLY616  TRP617  ASP618  TYR619  PRO620  LYS621  CYS622 
 ASP623  PHE694  ASN695  SER759  ASP760  ASP761  ALA762  ILE779  LEU786  VAL792 
 PHE793  MET794  SER795  GLU796  ALA797  LYS798  CYS799  TRP800  GLU811  SER814 

> <Gold.Protein.RotatedAtoms>
  151.0402  134.9602  159.8157 H   0  0  0  0  0  0  0  0  0  0  0  0  # atno 6907 bound_to 6896
  152.5362  134.2668  159.8966 H   0  0  0  0  0  0  0  0  0  0  0  0  # atno 6908 bound_to 6896
  151.2680  133.4227  159.2653 H   0  0  0  0  0  0  0  0  0  0  0  0  # atno 6909 bound_to 6896
  145.1746  140.8942  143.3515 H   0  0  0  0  0  0  0  0  0  0  0  0  # atno 7974 bound_to 7965
  154.3999  140.1404  156.3797 H   0  0  0  0  0  0  0  0  0  0  0  0  # atno 8008 bound_to 7997
  155.8015  140.3476  155.5385 H   0  0  0  0  0  0  0  0  0  0  0  0  # atno 8009 bound_to 7997
  155.8479  140.0937  157.1684 H   0  0  0  0  0  0  0  0  0  0  0  0  # atno 8010 bound_to 7997
  140.7051  143.3188  151.2844 H   0  0  0  0  0  0  0  0  0  0  0  0  # atno 10167 bound_to 10162
  156.0360  130.5580  150.7586 H   0  0  0  0  0  0  0  0  0  0  0  0  # atno 10718 bound_to 10713
  154.6897  135.5218  153.8375 H   0  0  0  0  0  0  0  0  0  0  0  0  # atno 10763 bound_to 10752
  153.0623  135.6572  154.0444 H   0  0  0  0  0  0  0  0  0  0  0  0  # atno 10764 bound_to 10752
  154.0319  135.2984  155.3347 H   0  0  0  0  0  0  0  0  0  0  0  0  # atno 10765 bound_to 10752
  140.1616  134.4334  155.8314 H   0  0  0  0  0  0  0  0  0  0  0  0  # atno 11005 bound_to 11000
  145.0197  139.3435  143.6078 LP  0  0  0  0  0  0  0  0  0  0  0  0  # atno 17320 bound_to 7965
  146.3463  139.9493  142.8731 LP  0  0  0  0  0  0  0  0  0  0  0  0  # atno 17321 bound_to 7965
  139.6635  144.0147  152.2708 LP  0  0  0  0  0  0  0  0  0  0  0  0  # atno 17342 bound_to 10162
  139.9722  144.6486  150.7978 LP  0  0  0  0  0  0  0  0  0  0  0  0  # atno 17343 bound_to 10162
  157.5111  131.0925  151.0197 LP  0  0  0  0  0  0  0  0  0  0  0  0  # atno 17370 bound_to 10713
  157.0552  130.5803  149.5376 LP  0  0  0  0  0  0  0  0  0  0  0  0  # atno 17371 bound_to 10713
  141.2210  133.6916  156.7603 LP  0  0  0  0  0  0  0  0  0  0  0  0  # atno 17394 bound_to 11000
  140.2483  134.8560  157.3642 LP  0  0  0  0  0  0  0  0  0  0  0  0  # atno 17395 bound_to 11000

$$$$
