#       Name:                AV-unprocessed.smi:52
#       Creating user name   scv26
#       Creation time:       Thu Mar 26 16:38:17 2020


#       File generated by GOLD software.
#

@<TRIPOS>MOLECULE
AV-unprocessed.smi:52
    36    37     1
SMALL
NO_CHARGES


@<TRIPOS>ATOM
      1 ****        -5.5591   0.1107  -1.2771 O.co2          1 S1                 0.0000
      2 ****        -4.5424  -0.6097  -1.3846 C.2            1 S1                 0.0000
      3 ****        -4.6211  -1.8521  -1.5044 O.co2          1 S1                -1.0000
      4 ****        -3.2016   0.0292  -1.3640 C.2            1 S1                 0.0000
      5 ****        -2.9304   1.3680  -1.2351 C.2            1 S1                 0.0000
      6 ****        -1.5748   1.5563  -1.2500 O.3            1 S1                 0.0000
      7 ****        -1.0654   0.3027  -1.3927 C.2            1 S1                 0.0000
      8 ****         0.4160   0.1205  -1.4192 C.3            1 S1                 0.0000
      9 ****         0.8321   0.3381  -0.0135 N.4            1 S1                 1.0000
     10 ****         0.4323  -0.7227   0.9475 C.3            1 S1                 0.0000
     11 ****         1.6641  -1.0304   1.8085 C.3            1 S1                 0.0000
     12 ****         2.5732   0.1770   1.6006 C.3            1 S1                 0.0000
     13 ****         3.9338  -0.1394   1.8039 O.3            1 S1                 0.0000
     14 ****         2.2810   0.5678   0.1543 C.3            1 S1                 0.0000
     15 ****        -1.9932  -0.6478  -1.4679 N.2            1 S1                 0.0000
     16 ****         2.2789   0.9853   2.2718 H              1 S1                 0.0000
     17 ****        -3.5464   2.2487  -1.1265 H              1 S1                 0.0000
     18 ****         0.6850  -0.8739  -1.7780 H              1 S1                 0.0000
     19 ****         0.8592   0.8668  -2.0795 H              1 S1                 0.0000
     20 ****        -0.3869  -0.3442   1.5596 H              1 S1                 0.0000
     21 ****         0.0795  -1.6267   0.4486 H              1 S1                 0.0000
     22 ****         1.4172  -1.1999   2.8569 H              1 S1                 0.0000
     23 ****         2.1477  -1.9329   1.4307 H              1 S1                 0.0000
     24 ****         4.0554  -0.3909   2.7071 H              1 S1                 0.0000
     25 ****         2.8307  -0.0844  -0.5275 H              1 S1                 0.0000
     26 ****         2.5564   1.5991  -0.0689 H              1 S1                 0.0000
     27 ****         0.3779   1.1848   0.2983 H              1 S1                 0.0000
     28 ****        -6.4689  -0.3041  -1.2854 LP             1 S1                 0.0000
     29 ****        -5.4621   1.1015  -1.1827 LP             1 S1                 0.0000
     30 ****        -5.5163  -2.2976  -1.5163 LP             1 S1                 0.0000
     31 ****        -3.7888  -2.4001  -1.5882 LP             1 S1                 0.0000
     32 ****        -1.2647   1.9698  -0.3939 LP             1 S1                 0.0000
     33 ****        -1.3059   2.1379  -2.0177 LP             1 S1                 0.0000
     34 ****         4.4993   0.6593   1.5981 LP             1 S1                 0.0000
     35 ****         4.1961  -0.8966   1.2057 LP             1 S1                 0.0000
     36 ****        -1.8519  -1.6319  -1.5754 LP             1 S1                 0.0000
@<TRIPOS>BOND
    1    1    2 ar    
    2    2    3 ar    
    3    2    4 1     
    4    4   15 1     
    5    4    5 2     
    6    5    6 1     
    7    5   17 1     
    8    6    7 1     
    9    7    8 1     
   10    7   15 2     
   11    8    9 1     
   12    8   18 1     
   13    8   19 1     
   14    9   14 1     
   15    9   10 1     
   16    9   27 1     
   17   10   11 1     
   18   10   20 1     
   19   10   21 1     
   20   11   12 1     
   21   11   22 1     
   22   11   23 1     
   23   12   16 1     
   24   12   13 1     
   25   12   14 1     
   26   13   24 1     
   27   14   25 1     
   28   14   26 1     
   29    1   28 1     
   30    1   29 1     
   31    3   30 1     
   32    3   31 1     
   33    6   32 1     
   34    6   33 1     
   35   13   34 1     
   36   13   35 1     
   37   15   36 1     
@<TRIPOS>SUBSTRUCTURE
      1 S1             1
@<TRIPOS>SET
LONE_PAIRS      STATIC     ATOMS    <user>   **** ""
9 28 29 30 31 32 33 34 35 36
DONOR_HYDROGENS      STATIC     ATOMS    <user>   **** ""
2 27 24
ATOM$BLUE        STATIC     ATOMS    COLORGROUP SYSTEM
9 28 29 30 31 32 33 34 35 36
ATOM$RED        STATIC     ATOMS    COLORGROUP SYSTEM
2 27 24
