AV-unprocessed.smi:2855|AV-procd|sdf|10990|dock10
  -GOLD-   2272015443D 1   1.00000     0.00000
 Structure written by MMmdl.
 46 47  0  0  0  0  0  0  0  0  2 V2000
  143.6520  132.2476  151.0136 C   0  0  0  0  0  0  0  0  0  0  0  0
  144.7686  132.9177  150.1932 C   0  0  1  0  0  0  0  0  0  0  0  0
  144.4053  134.3448  149.7477 C   0  0  0  0  0  0  0  0  0  0  0  0
  144.4387  135.3459  150.9130 C   0  0  0  0  0  0  0  0  0  0  0  0
  145.8092  135.3591  151.6319 C   0  0  1  0  0  0  0  0  0  0  0  0
  145.8939  136.4286  152.7626 C   0  0  0  0  0  0  0  0  0  0  0  0
  144.7897  136.3052  153.8293 C   0  0  0  0  0  0  0  0  0  0  0  0
  145.9550  137.8636  152.2107 C   0  0  0  0  0  0  0  0  0  0  0  0
  146.1939  133.9228  152.0895 C   0  0  2  0  0  0  0  0  0  0  0  0
  147.5518  133.8910  152.6321 N   0  0  0  0  0  0  0  0  0  0  0  0
  148.0389  132.9926  153.5021 C   0  0  0  0  0  0  0  0  0  0  0  0
  147.3678  132.0783  153.9821 O   0  0  0  0  0  0  0  0  0  0  0  0
  149.5066  133.1891  153.9063 C   0  0  0  0  0  0  0  0  0  0  0  0
  149.6749  133.9886  155.1307 N   0  0  0  0  0  0  0  0  0  0  0  0
  149.7740  135.3842  154.9914 C   0  0  0  0  0  0  0  0  0  0  0  0
  149.9320  136.1950  156.0549 C   0  0  0  0  0  0  0  0  0  0  0  0
  149.9990  135.5906  157.3797 C   0  0  0  0  0  0  0  0  0  0  0  0
  150.1459  136.3155  158.3618 O   0  0  0  0  0  0  0  0  0  0  0  0
  149.8939  134.2321  157.4634 N   0  5  0  0  0  0  0  0  0  0  0  0
  149.7327  133.4199  156.3729 C   0  0  0  0  0  0  0  0  0  0  0  0
  149.6401  132.1957  156.4707 O   0  0  0  0  0  0  0  0  0  0  0  0
  146.1257  132.9167  150.9209 C   0  0  0  0  0  0  0  0  0  0  0  0
  143.4547  132.7728  151.9478 H   0  0  0  0  0  0  0  0  0  0  0  0
  143.9158  131.2199  151.2646 H   0  0  0  0  0  0  0  0  0  0  0  0
  142.7191  132.2169  150.4499 H   0  0  0  0  0  0  0  0  0  0  0  0
  144.8852  132.3167  149.2904 H   0  0  0  0  0  0  0  0  0  0  0  0
  145.1099  134.6704  148.9813 H   0  0  0  0  0  0  0  0  0  0  0  0
  143.4220  134.3530  149.2763 H   0  0  0  0  0  0  0  0  0  0  0  0
  144.2040  136.3348  150.5213 H   0  0  0  0  0  0  0  0  0  0  0  0
  143.6440  135.1029  151.6177 H   0  0  0  0  0  0  0  0  0  0  0  0
  146.5482  135.6473  150.8819 H   0  0  0  0  0  0  0  0  0  0  0  0
  146.8421  136.2855  153.2801 H   0  0  0  0  0  0  0  0  0  0  0  0
  143.8019  136.5063  153.4153 H   0  0  0  0  0  0  0  0  0  0  0  0
  144.9524  137.0190  154.6372 H   0  0  0  0  0  0  0  0  0  0  0  0
  144.7685  135.3142  154.2810 H   0  0  0  0  0  0  0  0  0  0  0  0
  145.0168  138.1608  151.7429 H   0  0  0  0  0  0  0  0  0  0  0  0
  146.7484  137.9694  151.4704 H   0  0  0  0  0  0  0  0  0  0  0  0
  146.1583  138.5779  153.0090 H   0  0  0  0  0  0  0  0  0  0  0  0
  145.4825  133.5932  152.8467 H   0  0  0  0  0  0  0  0  0  0  0  0
  148.1827  134.6073  152.3040 H   0  0  0  0  0  0  0  0  0  0  0  0
  149.9839  132.2150  154.0315 H   0  0  0  0  0  0  0  0  0  0  0  0
  150.0273  133.6574  153.0701 H   0  0  0  0  0  0  0  0  0  0  0  0
  149.7098  135.7514  153.9777 H   0  0  0  0  0  0  0  0  0  0  0  0
  150.0053  137.2654  155.9309 H   0  0  0  0  0  0  0  0  0  0  0  0
  146.3518  131.9114  151.2798 H   0  0  0  0  0  0  0  0  0  0  0  0
  146.9063  133.1583  150.1975 H   0  0  0  0  0  0  0  0  0  0  0  0
  1  2  1  0  0  0  0
  1 23  1  0  0  0  0
  1 24  1  0  0  0  0
  1 25  1  0  0  0  0
  2 22  1  0  0  0  0
  2  3  1  0  0  0  0
  2 26  1  0  0  0  0
  3  4  1  0  0  0  0
  3 27  1  0  0  0  0
  3 28  1  0  0  0  0
  4  5  1  0  0  0  0
  4 29  1  0  0  0  0
  4 30  1  0  0  0  0
  5  6  1  0  0  0  0
  5  9  1  0  0  0  0
  5 31  1  0  0  0  0
  6  7  1  0  0  0  0
  6  8  1  0  0  0  0
  6 32  1  0  0  0  0
  7 33  1  0  0  0  0
  7 34  1  0  0  0  0
  7 35  1  0  0  0  0
  8 36  1  0  0  0  0
  8 37  1  0  0  0  0
  8 38  1  0  0  0  0
  9 10  1  0  0  0  0
  9 22  1  0  0  0  0
  9 39  1  0  0  0  0
 10 11  1  0  0  0  0
 10 40  1  0  0  0  0
 11 12  2  0  0  0  0
 11 13  1  0  0  0  0
 13 14  1  0  0  0  0
 13 41  1  0  0  0  0
 13 42  1  0  0  0  0
 14 20  1  0  0  0  0
 14 15  1  0  0  0  0
 15 16  2  0  0  0  0
 15 43  1  0  0  0  0
 16 17  1  0  0  0  0
 16 44  1  0  0  0  0
 17 18  2  0  0  0  0
 17 19  1  0  0  0  0
 19 20  1  0  0  0  0
 20 21  2  0  0  0  0
 22 45  1  0  0  0  0
 22 46  1  0  0  0  0
M  CHG  1  19  -1
M  END
> <s_m_source_file>
AV-unprocessed.smi

> <i_m_source_file_index>
2855

> <i_lp_mmshare_version>
43012

> <i_f3d_flags>
0

> <s_epik_input>
W0NIM11bQ0BASF0xW0NIMl1bQ0gyXVtDQEBIXShbQ0hdKFtDSDNdKVtDSDNdKVtDQEhdKFtDSDJdMSlbTkhdQyg9TylbQ0gyXW4yW2NIXVtjSF1jKD1PKVtuSF1jMj1P

> <s_epik_cmdline>
J2VwaWtfcHl0aG9uJywgJy1waCcsICc3LjAnLCAnLXRuJywgJzgnLCAnLW1hJywgJzIwMCcsICctbWV0YWxfYmluZGluZycsICctaW1hZScsICc8aW5maWxlLm1hZT4nLCAnLW9tYWUnLCAnPG91dGZpbGUubWFlPic=

> <r_lp_tautomer_probability>
0.999537

> <r_epik_Ionization_Penalty>
3.12102

> <r_epik_Ionization_Penalty_Charging>
2.9581e-08

> <r_epik_Ionization_Penalty_Neutral>
3.12102

> <r_epik_State_Penalty>
3.12011

> <r_epik_Charging_Adjusted_Penalty>
3.12011

> <i_epik_Tot_Q>
-1

> <i_epik_Tot_abs_Q>
1

> <r_epik_Metal_State_Penalty>
0.463583

> <b_epik_Metal_Only>
1

> <s_lp_Force_Field>
OPLS_2005

> <r_lp_Energy>
25.2964

> <b_lp_Chiralities_Consistent>
1

> <s_lp_Variant>
AV-unprocessed.smi:2855-14

> <Gold.Version>
5.8.1

> <Gold.Id.Protein>
6NUR|6NUR_protein|mol2

> <Gold.PLP.Fitness>
43.6029

> <Gold.PLP.PLP>
-34.1041

> <Gold.PLP.part.hbond>
-3.0000

> <Gold.PLP.part.metal>
0.0000

> <Gold.PLP.part.buried>
-1.8791

> <Gold.PLP.part.nonpolar>
-29.8298

> <Gold.PLP.part.repulsive>
0.0639

> <Gold.PLP.ligand.clash>
0.0000

> <Gold.PLP.ligand.torsion>
1.2096

> <Gold.PLP.Chemscore.Hbond>
2.9520

> <Gold.PLP.Chemscore.CHOScore>
1.0000

> <Gold.PLP.Chemscore.Metal>
0.0000

> <Gold.Chemscore.Hbonds>
donor molecule, donor type, donor heavy atom, donor atom, acceptor molecule, acceptor atom, score
      L1  H    10    40       P1  7948  0.95
      P1  H  6896  6907       L1    19  1.85
      L1  C    15    43       P1  7948  1.00

> <Gold.PLP.Chemscore.Internal.Correction>
0.0619

> <Gold.Rescore>
     Score         DG    S(hbond)    S(metal)    S(lipo)     H(rot)  DE(clash)    DE(int)     intcor
     12.40     -13.77       1.54        0.00      66.41       1.81       0.15       1.22       ----

> <Gold.Chemscore.Fitness>
12.4040

> <Gold.Chemscore.DG>
-13.7729

> <Gold.Chemscore.ZeroCoef>
-5.4800

> <Gold.Chemscore.Hbond>
1.5439

> <Gold.Chemscore.Metal>
0.0000

> <Gold.Chemscore.Lipo>
66.4083

> <Gold.Chemscore.Internal_Hbond>
0.0000

> <Gold.Chemscore.DEClash>
0.1476

> <Gold.Chemscore.DEInternal>
1.2213

> <Gold.Chemscore.Rot>
1.8100

> <Gold.Chemscore.Internal.Correction>
   9.000000E+99

> <Gold.Chemscore.Hbonds>
donor molecule, donor type, donor heavy atom, donor atom, acceptor molecule, acceptor atom, score
      L1  H    10    40       P1  7948  0.22
      P1  H  6896  6907       L1    19  0.19

> <Gold.Chemscore.Hbond.Weighted>
-5.1566

> <Gold.Chemscore.Metal.Weighted>
-0.0000

> <Gold.Chemscore.Lipo.Weighted>
-7.7698

> <Gold.Chemscore.Internal_Hbond.Weighted>
0.0000

> <Gold.Chemscore.DEClash.Weighted>
0.1476

> <Gold.Chemscore.DEInternal.Weighted>
1.2213

> <Gold.Chemscore.Rot.Weighted>
4.6335

> <Gold.Chemscore.Internal.Correction.Weighted>
   9.000000E+99

> <Gold.Protein.RotatedTorsions>
[ 6907 6896 6895 6894 ] final -109.86 input  -60.11 | X-H torsion
[ 7974 7965 7964 7962 ] final -162.97 input  175.53 | X-H torsion
[ 8008 7997 7996 7995 ] final  -22.64 input   59.86 | X-H torsion
[ 10167 10162 10161 10158 ] final  111.98 input  -65.29 | X-H torsion
[ 10718 10713 10712 10709 ] final   37.45 input   66.30 | X-H torsion
[ 10763 10752 10751 10750 ] final   64.71 input  -60.55 | X-H torsion
[ 11005 11000 10999 10996 ] final   88.85 input  -57.11 | X-H torsion

> <Gold.Protein.ActiveResidues>
 VAL166  LYS551  ARG553  GLY616  TRP617  ASP618  TYR619  PRO620  LYS621  CYS622 
 ASP623  PHE694  ASN695  SER759  ASP760  ASP761  ALA762  ILE779  LEU786  VAL792 
 PHE793  MET794  SER795  GLU796  ALA797  LYS798  CYS799  TRP800  GLU811  SER814 

> <Gold.Protein.RotatedAtoms>
  150.7588  133.9467  159.3472 H   0  0  0  0  0  0  0  0  0  0  0  0  # atno 6907 bound_to 6896
  151.7381  135.0858  160.0320 H   0  0  0  0  0  0  0  0  0  0  0  0  # atno 6908 bound_to 6896
  152.3546  133.6184  159.6006 H   0  0  0  0  0  0  0  0  0  0  0  0  # atno 6909 bound_to 6896
  144.7340  140.3175  143.6177 H   0  0  0  0  0  0  0  0  0  0  0  0  # atno 7974 bound_to 7965
  154.4632  140.2002  156.0189 H   0  0  0  0  0  0  0  0  0  0  0  0  # atno 8008 bound_to 7997
  156.0878  140.3262  155.7748 H   0  0  0  0  0  0  0  0  0  0  0  0  # atno 8009 bound_to 7997
  155.5006  140.0553  157.2930 H   0  0  0  0  0  0  0  0  0  0  0  0  # atno 8010 bound_to 7997
  139.6570  144.7129  151.1937 H   0  0  0  0  0  0  0  0  0  0  0  0  # atno 10167 bound_to 10162
  157.3471  130.7579  149.6952 H   0  0  0  0  0  0  0  0  0  0  0  0  # atno 10718 bound_to 10713
  153.0067  135.5383  154.6553 H   0  0  0  0  0  0  0  0  0  0  0  0  # atno 10763 bound_to 10752
  154.5775  135.2847  155.0768 H   0  0  0  0  0  0  0  0  0  0  0  0  # atno 10764 bound_to 10752
  154.1910  135.6500  153.5112 H   0  0  0  0  0  0  0  0  0  0  0  0  # atno 10765 bound_to 10752
  139.8887  134.8514  156.3058 H   0  0  0  0  0  0  0  0  0  0  0  0  # atno 11005 bound_to 11000
  145.7602  139.1822  143.2271 LP  0  0  0  0  0  0  0  0  0  0  0  0  # atno 17320 bound_to 7965
  146.0992  140.7564  142.9557 LP  0  0  0  0  0  0  0  0  0  0  0  0  # atno 17321 bound_to 7965
  140.7563  143.6056  150.8656 LP  0  0  0  0  0  0  0  0  0  0  0  0  # atno 17342 bound_to 10162
  139.9709  143.6057  152.2973 LP  0  0  0  0  0  0  0  0  0  0  0  0  # atno 17343 bound_to 10162
  155.9716  130.4151  150.4165 LP  0  0  0  0  0  0  0  0  0  0  0  0  # atno 17370 bound_to 10713
  157.2222  131.0485  151.2540 LP  0  0  0  0  0  0  0  0  0  0  0  0  # atno 17371 bound_to 10713
  140.9883  133.7224  156.0775 LP  0  0  0  0  0  0  0  0  0  0  0  0  # atno 17394 bound_to 11000
  140.7659  134.3887  157.5517 LP  0  0  0  0  0  0  0  0  0  0  0  0  # atno 17395 bound_to 11000

$$$$
