AV-unprocessed.smi:1634|AV-procd|sdf|6538|dock4
  -GOLD-   22720 7223D 1   1.00000     0.00000
 Structure written by MMmdl.
 37 37  0  0  0  0  0  0  0  0  2 V2000
  155.8883  142.8817  166.2105 C   0  0  0  0  0  0  0  0  0  0  0  0
  155.7586  141.5162  166.9014 C   0  0  0  0  0  0  0  0  0  0  0  0
  155.8459  141.6666  168.4284 C   0  0  0  0  0  0  0  0  0  0  0  0
  156.8112  140.5294  166.3716 C   0  0  0  0  0  0  0  0  0  0  0  0
  156.7773  140.5261  164.9482 O   0  0  0  0  0  0  0  0  0  0  0  0
  155.8069  139.6643  164.3592 C   0  0  2  0  0  0  0  0  0  0  0  0
  156.3008  138.2208  164.5368 C   0  0  0  0  0  0  0  0  0  0  0  0
  155.6161  140.0118  162.8738 C   0  0  0  0  0  0  0  0  0  0  0  0
  156.5610  139.8771  162.0967 O   0  0  0  0  0  0  0  0  0  0  0  0
  154.3952  140.4796  162.5473 N   0  0  0  0  0  0  0  0  0  0  0  0
  153.8896  140.8990  161.3046 C   0  0  0  0  0  0  0  0  0  0  0  0
  153.2003  142.0538  161.0878 C   0  0  0  0  0  0  0  0  0  0  0  0
  152.7075  142.4301  159.7682 C   0  0  0  0  0  0  0  0  0  0  0  0
  151.9108  143.6889  159.4782 C   0  0  0  0  0  0  0  0  0  0  0  0
  151.8139  144.4347  160.5782 F   0  0  0  0  0  0  0  0  0  0  0  0
  152.5189  144.4149  158.5404 F   0  0  0  0  0  0  0  0  0  0  0  0
  150.6796  143.4009  159.0556 F   0  0  0  0  0  0  0  0  0  0  0  0
  153.0277  141.4983  158.8015 C   0  0  0  0  0  0  0  0  0  0  0  0
  153.7148  140.3424  158.9286 N   0  5  0  0  0  0  0  0  0  0  0  0
  154.1671  139.9969  160.1670 C   0  0  0  0  0  0  0  0  0  0  0  0
  154.7982  138.9560  160.3540 O   0  0  0  0  0  0  0  0  0  0  0  0
  156.8589  143.3364  166.4119 H   0  0  0  0  0  0  0  0  0  0  0  0
  155.1185  143.5727  166.5558 H   0  0  0  0  0  0  0  0  0  0  0  0
  155.7832  142.7877  165.1292 H   0  0  0  0  0  0  0  0  0  0  0  0
  154.7728  141.1177  166.6582 H   0  0  0  0  0  0  0  0  0  0  0  0
  156.8171  142.0577  168.7327 H   0  0  0  0  0  0  0  0  0  0  0  0
  155.7022  140.7094  168.9305 H   0  0  0  0  0  0  0  0  0  0  0  0
  155.0808  142.3482  168.8009 H   0  0  0  0  0  0  0  0  0  0  0  0
  157.8051  140.8320  166.7045 H   0  0  0  0  0  0  0  0  0  0  0  0
  156.6215  139.5352  166.7785 H   0  0  0  0  0  0  0  0  0  0  0  0
  154.8593  139.7681  164.8919 H   0  0  0  0  0  0  0  0  0  0  0  0
  155.6109  137.5076  164.0845 H   0  0  0  0  0  0  0  0  0  0  0  0
  156.3861  137.9702  165.5943 H   0  0  0  0  0  0  0  0  0  0  0  0
  157.2820  138.0731  164.0837 H   0  0  0  0  0  0  0  0  0  0  0  0
  153.7423  140.5815  163.3110 H   0  0  0  0  0  0  0  0  0  0  0  0
  153.0047  142.7422  161.8922 H   0  0  0  0  0  0  0  0  0  0  0  0
  152.6754  141.7163  157.7705 H   0  0  0  0  0  0  0  0  0  0  0  0
  1  2  1  0  0  0  0
  1 22  1  0  0  0  0
  1 23  1  0  0  0  0
  1 24  1  0  0  0  0
  2  3  1  0  0  0  0
  2  4  1  0  0  0  0
  2 25  1  0  0  0  0
  3 26  1  0  0  0  0
  3 27  1  0  0  0  0
  3 28  1  0  0  0  0
  4  5  1  0  0  0  0
  4 29  1  0  0  0  0
  4 30  1  0  0  0  0
  5  6  1  0  0  0  0
  6  7  1  0  0  0  0
  6  8  1  0  0  0  0
  6 31  1  0  0  0  0
  7 32  1  0  0  0  0
  7 33  1  0  0  0  0
  7 34  1  0  0  0  0
  8  9  2  0  0  0  0
  8 10  1  0  0  0  0
 10 11  1  0  0  0  0
 10 35  1  0  0  0  0
 11 20  1  0  0  0  0
 11 12  2  0  0  0  0
 12 13  1  0  0  0  0
 12 36  1  0  0  0  0
 13 14  1  0  0  0  0
 13 18  2  0  0  0  0
 14 15  1  0  0  0  0
 14 16  1  0  0  0  0
 14 17  1  0  0  0  0
 18 19  1  0  0  0  0
 18 37  1  0  0  0  0
 19 20  1  0  0  0  0
 20 21  2  0  0  0  0
M  CHG  1  19  -1
M  END
> <s_m_source_file>
AV-unprocessed.smi

> <i_m_source_file_index>
1634

> <i_lp_mmshare_version>
43012

> <i_f3d_flags>
0

> <s_epik_input>
W0NIM11bQ0hdKFtDSDNdKVtDSDJdT1tDQEhdKFtDSDNdKUMoPU8pW05IXWMxW2NIXWMoQyhGKShGKUYpW2NIXVtuSF1jMT1P

> <s_epik_cmdline>
J2VwaWtfcHl0aG9uJywgJy1waCcsICc3LjAnLCAnLXRuJywgJzgnLCAnLW1hJywgJzIwMCcsICctbWV0YWxfYmluZGluZycsICctaW1hZScsICc8aW5maWxlLm1hZT4nLCAnLW9tYWUnLCAnPG91dGZpbGUubWFlPic=

> <r_epik_Ionization_Penalty>
2.55349

> <r_epik_Ionization_Penalty_Charging>
0.0582825

> <r_epik_Ionization_Penalty_Neutral>
2.49521

> <r_epik_State_Penalty>
2.65983

> <r_epik_Charging_Adjusted_Penalty>
2.71812

> <i_epik_Tot_Q>
-1

> <i_epik_Tot_abs_Q>
1

> <r_epik_Metal_State_Penalty>
0.516727

> <b_epik_Metal_Only>
0

> <s_lp_Force_Field>
OPLS_2005

> <r_lp_Energy>
22.0513

> <b_lp_Chiralities_Consistent>
1

> <s_lp_Variant>
AV-unprocessed.smi:1634-3

> <Gold.Version>
5.8.1

> <Gold.Id.Protein>
6NUR|6NUR_protein|mol2

> <Gold.PLP.Fitness>
45.1293

> <Gold.PLP.PLP>
-41.8942

> <Gold.PLP.part.hbond>
-2.0000

> <Gold.PLP.part.metal>
0.0000

> <Gold.PLP.part.buried>
-2.0193

> <Gold.PLP.part.nonpolar>
-36.8158

> <Gold.PLP.part.repulsive>
0.0043

> <Gold.PLP.ligand.clash>
0.0000

> <Gold.PLP.ligand.torsion>
0.7448

> <Gold.PLP.Chemscore.Hbond>
1.5382

> <Gold.PLP.Chemscore.CHOScore>
0.0000

> <Gold.PLP.Chemscore.Metal>
0.0000

> <Gold.Chemscore.Hbonds>
donor molecule, donor type, donor heavy atom, donor atom, acceptor molecule, acceptor atom, score
      P1  H  7997  8010       L1    19  1.51

> <Gold.PLP.Chemscore.Internal.Correction>
0.1102

> <Gold.Rescore>
     Score         DG    S(hbond)    S(metal)    S(lipo)     H(rot)  DE(clash)    DE(int)     intcor
      7.15     -11.74       0.34        0.00      82.32       1.75       1.08       3.51       ----

> <Gold.Chemscore.Fitness>
7.1491

> <Gold.Chemscore.DG>
-11.7434

> <Gold.Chemscore.ZeroCoef>
-5.4800

> <Gold.Chemscore.Hbond>
0.3358

> <Gold.Chemscore.Metal>
0.0000

> <Gold.Chemscore.Lipo>
82.3221

> <Gold.Chemscore.Internal_Hbond>
0.0000

> <Gold.Chemscore.DEClash>
1.0825

> <Gold.Chemscore.DEInternal>
3.5118

> <Gold.Chemscore.Rot>
1.7538

> <Gold.Chemscore.Internal.Correction>
   9.000000E+99

> <Gold.Chemscore.Hbonds>
donor molecule, donor type, donor heavy atom, donor atom, acceptor molecule, acceptor atom, score
      P1  H  7997  8010       L1    19  0.53

> <Gold.Chemscore.Hbond.Weighted>
-1.1215

> <Gold.Chemscore.Metal.Weighted>
-0.0000

> <Gold.Chemscore.Lipo.Weighted>
-9.6317

> <Gold.Chemscore.Internal_Hbond.Weighted>
0.0000

> <Gold.Chemscore.DEClash.Weighted>
1.0825

> <Gold.Chemscore.DEInternal.Weighted>
3.5118

> <Gold.Chemscore.Rot.Weighted>
4.4898

> <Gold.Chemscore.Internal.Correction.Weighted>
   9.000000E+99

> <Gold.Protein.RotatedTorsions>
[ 6907 6896 6895 6894 ] final   49.16 input  -60.11 | X-H torsion
[ 7974 7965 7964 7962 ] final  -70.59 input  175.53 | X-H torsion
[ 8008 7997 7996 7995 ] final   11.67 input   59.86 | X-H torsion
[ 10167 10162 10161 10158 ] final -144.56 input  -65.29 | X-H torsion
[ 10718 10713 10712 10709 ] final   98.31 input   66.30 | X-H torsion
[ 10763 10752 10751 10750 ] final   -5.25 input  -60.55 | X-H torsion
[ 11005 11000 10999 10996 ] final  -53.62 input  -57.11 | X-H torsion

> <Gold.Protein.ActiveResidues>
 VAL166  LYS551  ARG553  GLY616  TRP617  ASP618  TYR619  PRO620  LYS621  CYS622 
 ASP623  PHE694  ASN695  SER759  ASP760  ASP761  ALA762  ILE779  LEU786  VAL792 
 PHE793  MET794  SER795  GLU796  ALA797  LYS798  CYS799  TRP800  GLU811  SER814 

> <Gold.Protein.RotatedAtoms>
  152.2876  134.7758  160.0384 H   0  0  0  0  0  0  0  0  0  0  0  0  # atno 6907 bound_to 6896
  151.8315  133.3404  159.3623 H   0  0  0  0  0  0  0  0  0  0  0  0  # atno 6908 bound_to 6896
  150.7216  134.5407  159.5790 H   0  0  0  0  0  0  0  0  0  0  0  0  # atno 6909 bound_to 6896
  145.6889  140.9160  143.0792 H   0  0  0  0  0  0  0  0  0  0  0  0  # atno 7974 bound_to 7965
  154.8101  140.2866  155.5859 H   0  0  0  0  0  0  0  0  0  0  0  0  # atno 8008 bound_to 7997
  156.2987  140.2570  156.2917 H   0  0  0  0  0  0  0  0  0  0  0  0  # atno 8009 bound_to 7997
  154.9457  140.0380  157.2108 H   0  0  0  0  0  0  0  0  0  0  0  0  # atno 8010 bound_to 7997
  139.7887  143.7997  152.2647 H   0  0  0  0  0  0  0  0  0  0  0  0  # atno 10167 bound_to 10162
  157.6898  131.0636  150.4777 H   0  0  0  0  0  0  0  0  0  0  0  0  # atno 10718 bound_to 10713
  153.3959  135.7003  153.6461 H   0  0  0  0  0  0  0  0  0  0  0  0  # atno 10763 bound_to 10752
  153.5014  135.3651  155.2542 H   0  0  0  0  0  0  0  0  0  0  0  0  # atno 10764 bound_to 10752
  154.8706  135.4113  154.3285 H   0  0  0  0  0  0  0  0  0  0  0  0  # atno 10765 bound_to 10752
  141.0985  133.6621  156.4199 H   0  0  0  0  0  0  0  0  0  0  0  0  # atno 11005 bound_to 11000
  144.7002  139.8796  143.7446 LP  0  0  0  0  0  0  0  0  0  0  0  0  # atno 17320 bound_to 7965
  146.0899  139.3888  143.0412 LP  0  0  0  0  0  0  0  0  0  0  0  0  # atno 17321 bound_to 7965
  139.8081  144.7347  150.9734 LP  0  0  0  0  0  0  0  0  0  0  0  0  # atno 17342 bound_to 10162
  140.7820  143.4277  151.0742 LP  0  0  0  0  0  0  0  0  0  0  0  0  # atno 17343 bound_to 10162
  156.5110  130.4139  149.6301 LP  0  0  0  0  0  0  0  0  0  0  0  0  # atno 17370 bound_to 10713
  156.3240  130.7296  151.2213 LP  0  0  0  0  0  0  0  0  0  0  0  0  # atno 17371 bound_to 10713
  140.5080  134.6422  157.5274 LP  0  0  0  0  0  0  0  0  0  0  0  0  # atno 17394 bound_to 11000
  139.9829  134.7108  155.9826 LP  0  0  0  0  0  0  0  0  0  0  0  0  # atno 17395 bound_to 11000

$$$$
