AV-unprocessed.smi:240|AV-procd|sdf|1839|dock3
  -GOLD-   2262020453D 1   1.00000     0.00000
 Structure written by MMmdl.
 55 59  0  0  0  0  0  0  0  0  1 V2000
  150.1473  139.8616  153.8324 O   0  0  0  0  0  0  0  0  0  0  0  0
  149.6570  140.6116  154.9243 C   0  0  1  0  0  0  0  0  0  0  0  0
  148.2787  141.1984  154.6239 C   0  0  0  0  0  0  0  0  0  0  0  0
  147.6934  141.5043  156.0051 C   0  0  0  0  0  0  0  0  0  0  0  0
  148.3576  140.5179  156.9797 C   0  0  0  0  0  0  0  0  0  0  0  0
  149.4095  139.7394  156.1642 C   0  0  2  0  0  0  0  0  0  0  0  0
  150.6808  139.2828  156.9440 C   0  0  1  0  0  0  0  0  0  0  0  0
  151.6841  140.4312  157.2253 C   0  0  0  0  0  0  0  0  0  0  0  0
  152.8215  139.9352  157.9215 O   0  0  0  0  0  0  0  0  0  0  0  0
  152.4726  139.3881  159.1856 C   0  0  0  0  0  0  0  0  0  0  0  0
  151.5352  138.1937  158.9678 C   0  0  0  0  0  0  0  0  0  0  0  0
  150.3600  138.6027  158.2072 N   0  0  0  0  0  0  0  0  0  0  0  0
  149.4552  137.5993  158.1527 C   0  0  0  0  0  0  0  0  0  0  0  0
  149.1553  137.1088  156.9252 N   0  0  0  0  0  0  0  0  0  0  0  0
  148.2808  136.1056  156.8026 C   0  0  0  0  0  0  0  0  0  0  0  0
  147.6028  135.4672  157.7588 N   0  0  0  0  0  0  0  0  0  0  0  0
  147.8901  135.9707  158.9936 C   0  0  0  0  0  0  0  0  0  0  0  0
  148.7983  137.0284  159.2801 C   0  0  0  0  0  0  0  0  0  0  0  0
  148.8362  137.2621  160.6492 N   0  0  0  0  0  0  0  0  0  0  0  0
  148.0059  136.3856  161.1446 C   0  0  0  0  0  0  0  0  0  0  0  0
  147.3838  135.5765  160.2205 N   0  0  0  0  0  0  0  0  0  0  0  0
  146.4248  134.5156  160.4931 C   0  0  0  0  0  0  0  0  0  0  0  0
  146.0214  134.3834  161.9842 C   0  0  2  0  0  0  0  0  0  0  0  0
  147.1578  134.0237  162.7482 O   0  0  0  0  0  0  0  0  0  0  0  0
  144.9024  133.3719  162.2451 C   0  0  0  0  0  0  0  0  0  0  0  0
  143.6670  134.2503  162.3816 C   0  0  0  0  0  0  0  0  0  0  0  0
  144.1687  135.3711  163.0861 O   0  0  0  0  0  0  0  0  0  0  0  0
  145.4339  135.7019  162.5282 C   0  0  0  0  0  0  0  0  0  0  0  0
  149.6104  140.0454  153.0766 H   0  0  0  0  0  0  0  0  0  0  0  0
  150.3435  141.4292  155.1396 H   0  0  0  0  0  0  0  0  0  0  0  0
  148.3252  142.0784  153.9816 H   0  0  0  0  0  0  0  0  0  0  0  0
  147.6549  140.4550  154.1247 H   0  0  0  0  0  0  0  0  0  0  0  0
  147.9453  142.5259  156.2930 H   0  0  0  0  0  0  0  0  0  0  0  0
  146.6061  141.4222  156.0111 H   0  0  0  0  0  0  0  0  0  0  0  0
  148.8002  141.0668  157.8096 H   0  0  0  0  0  0  0  0  0  0  0  0
  147.6252  139.8341  157.4102 H   0  0  0  0  0  0  0  0  0  0  0  0
  148.9007  138.8494  155.7897 H   0  0  0  0  0  0  0  0  0  0  0  0
  151.2058  138.5639  156.3151 H   0  0  0  0  0  0  0  0  0  0  0  0
  152.0452  140.8716  156.2974 H   0  0  0  0  0  0  0  0  0  0  0  0
  151.2322  141.2367  157.8041 H   0  0  0  0  0  0  0  0  0  0  0  0
  153.3797  139.0664  159.6971 H   0  0  0  0  0  0  0  0  0  0  0  0
  152.0026  140.1480  159.8121 H   0  0  0  0  0  0  0  0  0  0  0  0
  152.0626  137.4033  158.4314 H   0  0  0  0  0  0  0  0  0  0  0  0
  151.2334  137.7821  159.9323 H   0  0  0  0  0  0  0  0  0  0  0  0
  148.1003  135.7635  155.7943 H   0  0  0  0  0  0  0  0  0  0  0  0
  147.8225  136.3070  162.2063 H   0  0  0  0  0  0  0  0  0  0  0  0
  145.5391  134.6983  159.8830 H   0  0  0  0  0  0  0  0  0  0  0  0
  146.8494  133.5763  160.1362 H   0  0  0  0  0  0  0  0  0  0  0  0
  146.9111  133.3350  163.3466 H   0  0  0  0  0  0  0  0  0  0  0  0
  144.7899  132.6125  161.4733 H   0  0  0  0  0  0  0  0  0  0  0  0
  145.0643  132.8509  163.1901 H   0  0  0  0  0  0  0  0  0  0  0  0
  143.2937  134.5609  161.4044 H   0  0  0  0  0  0  0  0  0  0  0  0
  142.8582  133.7611  162.9246 H   0  0  0  0  0  0  0  0  0  0  0  0
  146.0661  136.1816  163.2765 H   0  0  0  0  0  0  0  0  0  0  0  0
  145.2750  136.4241  161.7259 H   0  0  0  0  0  0  0  0  0  0  0  0
  1  2  1  0  0  0  0
  1 29  1  0  0  0  0
  2  6  1  0  0  0  0
  2  3  1  0  0  0  0
  2 30  1  0  0  0  0
  3  4  1  0  0  0  0
  3 31  1  0  0  0  0
  3 32  1  0  0  0  0
  4  5  1  0  0  0  0
  4 33  1  0  0  0  0
  4 34  1  0  0  0  0
  5  6  1  0  0  0  0
  5 35  1  0  0  0  0
  5 36  1  0  0  0  0
  6  7  1  0  0  0  0
  6 37  1  0  0  0  0
  7 12  1  0  0  0  0
  7  8  1  0  0  0  0
  7 38  1  0  0  0  0
  8  9  1  0  0  0  0
  8 39  1  0  0  0  0
  8 40  1  0  0  0  0
  9 10  1  0  0  0  0
 10 11  1  0  0  0  0
 10 41  1  0  0  0  0
 10 42  1  0  0  0  0
 11 12  1  0  0  0  0
 11 43  1  0  0  0  0
 11 44  1  0  0  0  0
 12 13  1  0  0  0  0
 13 18  1  0  0  0  0
 13 14  2  0  0  0  0
 14 15  1  0  0  0  0
 15 16  2  0  0  0  0
 15 45  1  0  0  0  0
 16 17  1  0  0  0  0
 17 21  1  0  0  0  0
 17 18  2  0  0  0  0
 18 19  1  0  0  0  0
 19 20  2  0  0  0  0
 20 21  1  0  0  0  0
 20 46  1  0  0  0  0
 21 22  1  0  0  0  0
 22 23  1  0  0  0  0
 22 47  1  0  0  0  0
 22 48  1  0  0  0  0
 23 28  1  0  0  0  0
 23 24  1  0  0  0  0
 23 25  1  0  0  0  0
 24 49  1  0  0  0  0
 25 26  1  0  0  0  0
 25 50  1  0  0  0  0
 25 51  1  0  0  0  0
 26 27  1  0  0  0  0
 26 52  1  0  0  0  0
 26 53  1  0  0  0  0
 27 28  1  0  0  0  0
 28 54  1  0  0  0  0
 28 55  1  0  0  0  0
M  END
> <s_m_source_file>
AV-unprocessed.smi

> <i_m_source_file_index>
240

> <i_lp_mmshare_version>
43012

> <i_f3d_flags>
0

> <s_epik_input>
W09IXVtDQEBIXTFbQ0gyXVtDSDJdW0NIMl1bQ0BIXTFbQ0BASF0yW0NIMl1PW0NIMl1bQ0gyXU4yYyhuW2NIXW4zKWMoYzM0KW5bY0hdbjRbQ0gyXVtDQEBdNShbT0hdKVtDSDJdW0NIMl1PW0NIMl01

> <s_epik_cmdline>
J2VwaWtfcHl0aG9uJywgJy1waCcsICc3LjAnLCAnLXRuJywgJzgnLCAnLW1hJywgJzIwMCcsICctbWV0YWxfYmluZGluZycsICctaW1hZScsICc8aW5maWxlLm1hZT4nLCAnLW9tYWUnLCAnPG91dGZpbGUubWFlPic=

> <r_lp_tautomer_probability>
1

> <r_epik_Ionization_Penalty>
0.000130618

> <r_epik_Ionization_Penalty_Charging>
0

> <r_epik_Ionization_Penalty_Neutral>
0.000130618

> <r_epik_State_Penalty>
-0

> <r_epik_Charging_Adjusted_Penalty>
0

> <i_epik_Tot_Q>
0

> <i_epik_Tot_abs_Q>
0

> <r_epik_Metal_State_Penalty>
-0

> <b_epik_Metal_Only>
0

> <s_lp_Force_Field>
OPLS_2005

> <r_lp_Energy>
62.6221

> <b_lp_Chiralities_Consistent>
1

> <s_lp_Variant>
AV-unprocessed.smi:240-16

> <Gold.Version>
5.8.1

> <Gold.Id.Protein>
6NUR|6NUR_protein|mol2

> <Gold.PLP.Fitness>
44.1441

> <Gold.PLP.PLP>
-35.7736

> <Gold.PLP.part.hbond>
-4.4476

> <Gold.PLP.part.metal>
0.0000

> <Gold.PLP.part.buried>
-5.9870

> <Gold.PLP.part.nonpolar>
-26.0236

> <Gold.PLP.part.repulsive>
0.0695

> <Gold.PLP.ligand.clash>
0.7385

> <Gold.PLP.ligand.torsion>
0.3545

> <Gold.PLP.Chemscore.Hbond>
3.2029

> <Gold.PLP.Chemscore.CHOScore>
0.0000

> <Gold.PLP.Chemscore.Metal>
0.0000

> <Gold.Chemscore.Hbonds>
donor molecule, donor type, donor heavy atom, donor atom, acceptor molecule, acceptor atom, score
      L1  H     1    29       P1  7957  0.85
      P1  H  6931  6943       L1    19  0.69
      P1  H  6934  6947       L1    19  0.01
      P1  H  7989  7998       L1     1  0.82
      P1  H  7997  8010       L1     9  0.69

> <Gold.PLP.Chemscore.Internal.Correction>
0.2092

> <Gold.Rescore>
     Score         DG    S(hbond)    S(metal)    S(lipo)     H(rot)  DE(clash)    DE(int)     intcor
     10.41     -13.55       2.10        0.00      74.92       3.00       0.05       3.10       ----

> <Gold.Chemscore.Fitness>
10.4055

> <Gold.Chemscore.DG>
-13.5541

> <Gold.Chemscore.ZeroCoef>
-5.4800

> <Gold.Chemscore.Hbond>
2.0952

> <Gold.Chemscore.Metal>
0.0000

> <Gold.Chemscore.Lipo>
74.9229

> <Gold.Chemscore.Internal_Hbond>
0.0000

> <Gold.Chemscore.DEClash>
0.0477

> <Gold.Chemscore.DEInternal>
3.1009

> <Gold.Chemscore.Rot>
3.0039

> <Gold.Chemscore.Internal.Correction>
   9.000000E+99

> <Gold.Chemscore.Hbonds>
donor molecule, donor type, donor heavy atom, donor atom, acceptor molecule, acceptor atom, score
      L1  H     1    29       P1  7957  0.85
      P1  H  6931  6943       L1    19  0.27
      P1  H  7989  7998       L1     1  0.05
      P1  H  7997  8010       L1     9  0.66

> <Gold.Chemscore.Hbond.Weighted>
-6.9981

> <Gold.Chemscore.Metal.Weighted>
-0.0000

> <Gold.Chemscore.Lipo.Weighted>
-8.7660

> <Gold.Chemscore.Internal_Hbond.Weighted>
0.0000

> <Gold.Chemscore.DEClash.Weighted>
0.0477

> <Gold.Chemscore.DEInternal.Weighted>
3.1009

> <Gold.Chemscore.Rot.Weighted>
7.6899

> <Gold.Chemscore.Internal.Correction.Weighted>
   9.000000E+99

> <Gold.Protein.RotatedTorsions>
[ 6907 6896 6895 6894 ] final  -82.42 input  -60.11 | X-H torsion
[ 7974 7965 7964 7962 ] final  -92.48 input  175.53 | X-H torsion
[ 8008 7997 7996 7995 ] final   20.37 input   59.86 | X-H torsion
[ 10167 10162 10161 10158 ] final  154.70 input  -65.29 | X-H torsion
[ 10718 10713 10712 10709 ] final  124.91 input   66.30 | X-H torsion
[ 10763 10752 10751 10750 ] final  -85.87 input  -60.55 | X-H torsion
[ 11005 11000 10999 10996 ] final  -12.82 input  -57.11 | X-H torsion

> <Gold.Protein.ActiveResidues>
 VAL166  LYS551  ARG553  GLY616  TRP617  ASP618  TYR619  PRO620  LYS621  CYS622 
 ASP623  PHE694  ASN695  SER759  ASP760  ASP761  ALA762  ILE779  LEU786  VAL792 
 PHE793  MET794  SER795  GLU796  ALA797  LYS798  CYS799  TRP800  GLU811  SER814 

> <Gold.Protein.RotatedAtoms>
  150.6898  134.3668  159.4974 H   0  0  0  0  0  0  0  0  0  0  0  0  # atno 6907 bound_to 6896
  152.1489  134.9001  160.0558 H   0  0  0  0  0  0  0  0  0  0  0  0  # atno 6908 bound_to 6896
  152.0106  133.3825  159.4255 H   0  0  0  0  0  0  0  0  0  0  0  0  # atno 6909 bound_to 6896
  145.3993  140.9536  143.2296 H   0  0  0  0  0  0  0  0  0  0  0  0  # atno 7974 bound_to 7965
  154.9346  140.3045  155.5151 H   0  0  0  0  0  0  0  0  0  0  0  0  # atno 8008 bound_to 7997
  156.3001  140.2347  156.4346 H   0  0  0  0  0  0  0  0  0  0  0  0  # atno 8009 bound_to 7997
  154.8204  140.0423  157.1395 H   0  0  0  0  0  0  0  0  0  0  0  0  # atno 8010 bound_to 7997
  139.4822  144.5163  151.7946 H   0  0  0  0  0  0  0  0  0  0  0  0  # atno 10167 bound_to 10162
  157.5546  131.1092  150.8643 H   0  0  0  0  0  0  0  0  0  0  0  0  # atno 10718 bound_to 10713
  154.6160  135.5469  153.7524 H   0  0  0  0  0  0  0  0  0  0  0  0  # atno 10763 bound_to 10752
  153.0216  135.6401  154.1509 H   0  0  0  0  0  0  0  0  0  0  0  0  # atno 10764 bound_to 10752
  154.1445  135.2906  155.3132 H   0  0  0  0  0  0  0  0  0  0  0  0  # atno 10765 bound_to 10752
  140.7697  133.8449  155.9196 H   0  0  0  0  0  0  0  0  0  0  0  0  # atno 11005 bound_to 11000
  144.8385  139.5510  143.6911 LP  0  0  0  0  0  0  0  0  0  0  0  0  # atno 17320 bound_to 7965
  146.2760  139.6753  142.9263 LP  0  0  0  0  0  0  0  0  0  0  0  0  # atno 17321 bound_to 7965
  140.4672  144.1638  150.5913 LP  0  0  0  0  0  0  0  0  0  0  0  0  # atno 17342 bound_to 10162
  140.4421  143.2522  151.9459 LP  0  0  0  0  0  0  0  0  0  0  0  0  # atno 17343 bound_to 10162
  156.9158  130.5297  149.5279 LP  0  0  0  0  0  0  0  0  0  0  0  0  # atno 17370 bound_to 10713
  156.0607  130.5660  150.9186 LP  0  0  0  0  0  0  0  0  0  0  0  0  # atno 17371 bound_to 10713
  140.9586  134.1686  157.4672 LP  0  0  0  0  0  0  0  0  0  0  0  0  # atno 17394 bound_to 11000
  139.8758  134.9936  156.5653 LP  0  0  0  0  0  0  0  0  0  0  0  0  # atno 17395 bound_to 11000

$$$$
