AV-unprocessed.smi:552|AV-procd|sdf|2902|dock1
  -GOLD-   2262023393D 1   1.00000     0.00000
 Structure written by MMmdl.
 42 43  0  0  0  0  0  0  0  0  1 V2000
  150.1089  131.1199  154.9624 C   0  0  0  0  0  0  0  0  0  0  0  0
  150.2331  132.6504  154.9769 C   0  0  0  0  0  0  0  0  0  0  0  0
  148.9708  133.3784  154.4774 C   0  0  2  0  0  0  0  0  0  0  0  0
  148.4134  132.7320  153.1994 C   0  0  0  0  0  0  0  0  0  0  0  0
  149.2641  134.7896  154.2344 N   0  0  0  0  0  0  0  0  0  0  0  0
  149.7132  135.6600  155.1501 C   0  0  0  0  0  0  0  0  0  0  0  0
  149.9280  135.3623  156.3250 O   0  0  0  0  0  0  0  0  0  0  0  0
  149.8703  136.8847  154.6190 N   0  0  0  0  0  0  0  0  0  0  0  0
  150.3340  138.0664  155.2566 C   0  0  0  0  0  0  0  0  0  0  0  0
  150.4139  139.3295  154.6265 C   0  0  0  0  0  0  0  0  0  0  0  0
  150.8731  140.4341  155.3689 C   0  0  0  0  0  0  0  0  0  0  0  0
  151.2386  140.2561  156.7245 C   0  0  0  0  0  0  0  0  0  0  0  0
  151.7087  141.3492  157.4857 N   0  0  0  0  0  0  0  0  0  0  0  0
  150.9905  142.6186  157.3791 C   0  0  0  0  0  0  0  0  0  0  0  0
  151.7986  143.7508  158.0352 C   0  0  0  0  0  0  0  0  0  0  0  0
  152.1036  143.4042  159.3816 O   0  0  0  0  0  0  0  0  0  0  0  0
  152.9002  142.2268  159.4563 C   0  0  0  0  0  0  0  0  0  0  0  0
  152.1345  141.0387  158.8486 C   0  0  0  0  0  0  0  0  0  0  0  0
  151.1388  139.0469  157.3299 N   0  0  0  0  0  0  0  0  0  0  0  0
  150.6968  137.9910  156.6155 C   0  0  0  0  0  0  0  0  0  0  0  0
  151.0409  130.6540  155.2828 H   0  0  0  0  0  0  0  0  0  0  0  0
  149.8835  130.7543  153.9601 H   0  0  0  0  0  0  0  0  0  0  0  0
  149.3208  130.7733  155.6311 H   0  0  0  0  0  0  0  0  0  0  0  0
  150.4777  132.9833  155.9864 H   0  0  0  0  0  0  0  0  0  0  0  0
  151.0805  132.9343  154.3517 H   0  0  0  0  0  0  0  0  0  0  0  0
  148.2113  133.2982  155.2574 H   0  0  0  0  0  0  0  0  0  0  0  0
  148.1706  131.6820  153.3651 H   0  0  0  0  0  0  0  0  0  0  0  0
  149.1334  132.7819  152.3821 H   0  0  0  0  0  0  0  0  0  0  0  0
  147.5006  133.2297  152.8699 H   0  0  0  0  0  0  0  0  0  0  0  0
  149.1131  135.1268  153.2950 H   0  0  0  0  0  0  0  0  0  0  0  0
  149.5646  136.9985  153.6637 H   0  0  0  0  0  0  0  0  0  0  0  0
  150.1172  139.4763  153.5996 H   0  0  0  0  0  0  0  0  0  0  0  0
  150.9206  141.4029  154.8950 H   0  0  0  0  0  0  0  0  0  0  0  0
  150.8109  142.8657  156.3320 H   0  0  0  0  0  0  0  0  0  0  0  0
  150.0180  142.5244  157.8643 H   0  0  0  0  0  0  0  0  0  0  0  0
  152.7181  143.9449  157.4804 H   0  0  0  0  0  0  0  0  0  0  0  0
  151.2218  144.6758  158.0285 H   0  0  0  0  0  0  0  0  0  0  0  0
  153.8488  142.3829  158.9397 H   0  0  0  0  0  0  0  0  0  0  0  0
  153.1370  142.0252  160.5011 H   0  0  0  0  0  0  0  0  0  0  0  0
  151.2517  140.8176  159.4499 H   0  0  0  0  0  0  0  0  0  0  0  0
  152.7705  140.1557  158.8845 H   0  0  0  0  0  0  0  0  0  0  0  0
  150.6374  137.0531  157.1482 H   0  0  0  0  0  0  0  0  0  0  0  0
  1  2  1  0  0  0  0
  1 21  1  0  0  0  0
  1 22  1  0  0  0  0
  1 23  1  0  0  0  0
  2  3  1  0  0  0  0
  2 24  1  0  0  0  0
  2 25  1  0  0  0  0
  3  4  1  0  0  0  0
  3  5  1  0  0  0  0
  3 26  1  0  0  0  0
  4 27  1  0  0  0  0
  4 28  1  0  0  0  0
  4 29  1  0  0  0  0
  5  6  1  0  0  0  0
  5 30  1  0  0  0  0
  6  7  2  0  0  0  0
  6  8  1  0  0  0  0
  8  9  1  0  0  0  0
  8 31  1  0  0  0  0
  9 20  1  0  0  0  0
  9 10  2  0  0  0  0
 10 11  1  0  0  0  0
 10 32  1  0  0  0  0
 11 12  2  0  0  0  0
 11 33  1  0  0  0  0
 12 13  1  0  0  0  0
 12 19  1  0  0  0  0
 13 18  1  0  0  0  0
 13 14  1  0  0  0  0
 14 15  1  0  0  0  0
 14 34  1  0  0  0  0
 14 35  1  0  0  0  0
 15 16  1  0  0  0  0
 15 36  1  0  0  0  0
 15 37  1  0  0  0  0
 16 17  1  0  0  0  0
 17 18  1  0  0  0  0
 17 38  1  0  0  0  0
 17 39  1  0  0  0  0
 18 40  1  0  0  0  0
 18 41  1  0  0  0  0
 19 20  2  0  0  0  0
 20 42  1  0  0  0  0
M  END
> <s_m_source_file>
AV-unprocessed.smi

> <i_m_source_file_index>
552

> <i_lp_mmshare_version>
43012

> <i_f3d_flags>
0

> <s_epik_input>
W0NIM11bQ0gyXVtDQEhdKFtDSDNdKVtOSF1DKD1PKVtOSF1jMVtjSF1bY0hdYyhuW2NIXTEpTjJbQ0gyXVtDSDJdT1tDSDJdW0NIMl0y

> <s_epik_cmdline>
J2VwaWtfcHl0aG9uJywgJy1waCcsICc3LjAnLCAnLXRuJywgJzgnLCAnLW1hJywgJzIwMCcsICctbWV0YWxfYmluZGluZycsICctaW1hZScsICc8aW5maWxlLm1hZT4nLCAnLW9tYWUnLCAnPG91dGZpbGUubWFlPic=

> <r_lp_tautomer_probability>
1

> <r_epik_Ionization_Penalty>
0.00215965

> <r_epik_Ionization_Penalty_Charging>
0

> <r_epik_Ionization_Penalty_Neutral>
0.00215965

> <r_epik_State_Penalty>
0.00145276

> <r_epik_Charging_Adjusted_Penalty>
0.00145276

> <i_epik_Tot_Q>
0

> <i_epik_Tot_abs_Q>
0

> <r_epik_Metal_State_Penalty>
-0

> <b_epik_Metal_Only>
0

> <s_lp_Force_Field>
OPLS_2005

> <r_lp_Energy>
20.9108

> <b_lp_Chiralities_Consistent>
1

> <s_lp_Variant>
AV-unprocessed.smi:552-1

> <Gold.Version>
5.8.1

> <Gold.Id.Protein>
6NUR|6NUR_protein|mol2

> <Gold.PLP.Fitness>
40.5607

> <Gold.PLP.PLP>
-34.8073

> <Gold.PLP.part.hbond>
-2.0000

> <Gold.PLP.part.metal>
0.0000

> <Gold.PLP.part.buried>
-2.8925

> <Gold.PLP.part.nonpolar>
-30.1908

> <Gold.PLP.part.repulsive>
0.0782

> <Gold.PLP.ligand.clash>
0.0000

> <Gold.PLP.ligand.torsion>
0.3067

> <Gold.PLP.Chemscore.Hbond>
2.0000

> <Gold.PLP.Chemscore.CHOScore>
0.0000

> <Gold.PLP.Chemscore.Metal>
0.0000

> <Gold.Chemscore.Hbonds>
donor molecule, donor type, donor heavy atom, donor atom, acceptor molecule, acceptor atom, score
      L1  H     5    30       P1  7948  0.95
      L1  H     8    31       P1  7948  1.00

> <Gold.PLP.Chemscore.Internal.Correction>
0.3667

> <Gold.Rescore>
     Score         DG    S(hbond)    S(metal)    S(lipo)     H(rot)  DE(clash)    DE(int)     intcor
     15.50     -17.32       1.75        0.00      80.86       1.35       0.09       1.73       ----

> <Gold.Chemscore.Fitness>
15.5004

> <Gold.Chemscore.DG>
-17.3214

> <Gold.Chemscore.ZeroCoef>
-5.4800

> <Gold.Chemscore.Hbond>
1.7498

> <Gold.Chemscore.Metal>
0.0000

> <Gold.Chemscore.Lipo>
80.8621

> <Gold.Chemscore.Internal_Hbond>
0.0000

> <Gold.Chemscore.DEClash>
0.0875

> <Gold.Chemscore.DEInternal>
1.7336

> <Gold.Chemscore.Rot>
1.3530

> <Gold.Chemscore.Internal.Correction>
   9.000000E+99

> <Gold.Chemscore.Hbonds>
donor molecule, donor type, donor heavy atom, donor atom, acceptor molecule, acceptor atom, score
      L1  H     5    30       P1  7948  0.22
      L1  H     8    31       P1  7948  0.78

> <Gold.Chemscore.Hbond.Weighted>
-5.8443

> <Gold.Chemscore.Metal.Weighted>
-0.0000

> <Gold.Chemscore.Lipo.Weighted>
-9.4609

> <Gold.Chemscore.Internal_Hbond.Weighted>
0.0000

> <Gold.Chemscore.DEClash.Weighted>
0.0875

> <Gold.Chemscore.DEInternal.Weighted>
1.7336

> <Gold.Chemscore.Rot.Weighted>
3.4638

> <Gold.Chemscore.Internal.Correction.Weighted>
   9.000000E+99

> <Gold.Protein.RotatedTorsions>
[ 6907 6896 6895 6894 ] final  105.06 input  -60.11 | X-H torsion
[ 7974 7965 7964 7962 ] final   29.61 input  175.53 | X-H torsion
[ 8008 7997 7996 7995 ] final  -20.28 input   59.86 | X-H torsion
[ 10167 10162 10161 10158 ] final  -85.28 input  -65.29 | X-H torsion
[ 10718 10713 10712 10709 ] final  -71.15 input   66.30 | X-H torsion
[ 10763 10752 10751 10750 ] final  128.67 input  -60.55 | X-H torsion
[ 11005 11000 10999 10996 ] final -154.80 input  -57.11 | X-H torsion

> <Gold.Protein.ActiveResidues>
 VAL166  LYS551  ARG553  GLY616  TRP617  ASP618  TYR619  PRO620  LYS621  CYS622 
 ASP623  PHE694  ASN695  SER759  ASP760  ASP761  ALA762  ILE779  LEU786  VAL792 
 PHE793  MET794  SER795  GLU796  ALA797  LYS798  CYS799  TRP800  GLU811  SER814 

> <Gold.Protein.RotatedAtoms>
  152.5243  133.9585  159.7705 H   0  0  0  0  0  0  0  0  0  0  0  0  # atno 6907 bound_to 6896
  150.9880  133.6170  159.2719 H   0  0  0  0  0  0  0  0  0  0  0  0  # atno 6908 bound_to 6896
  151.3323  135.0850  159.9396 H   0  0  0  0  0  0  0  0  0  0  0  0  # atno 6909 bound_to 6896
  146.1661  139.6898  142.9000 H   0  0  0  0  0  0  0  0  0  0  0  0  # atno 7974 bound_to 7965
  154.4780  140.2066  155.9832 H   0  0  0  0  0  0  0  0  0  0  0  0  # atno 8008 bound_to 7997
  156.1120  140.3227  155.8055 H   0  0  0  0  0  0  0  0  0  0  0  0  # atno 8009 bound_to 7997
  155.4619  140.0524  157.2980 H   0  0  0  0  0  0  0  0  0  0  0  0  # atno 8010 bound_to 7997
  140.4052  143.2645  151.9090 H   0  0  0  0  0  0  0  0  0  0  0  0  # atno 10167 bound_to 10162
  156.0376  130.4345  150.2401 H   0  0  0  0  0  0  0  0  0  0  0  0  # atno 10718 bound_to 10713
  153.7293  135.3241  155.3282 H   0  0  0  0  0  0  0  0  0  0  0  0  # atno 10763 bound_to 10752
  154.8331  135.4518  154.1138 H   0  0  0  0  0  0  0  0  0  0  0  0  # atno 10764 bound_to 10752
  153.2281  135.6956  153.8003 H   0  0  0  0  0  0  0  0  0  0  0  0  # atno 10765 bound_to 10752
  140.6934  134.4017  157.5217 H   0  0  0  0  0  0  0  0  0  0  0  0  # atno 11005 bound_to 11000
  145.4464  141.0425  143.2829 LP  0  0  0  0  0  0  0  0  0  0  0  0  # atno 17320 bound_to 7965
  144.8094  139.5989  143.7036 LP  0  0  0  0  0  0  0  0  0  0  0  0  # atno 17321 bound_to 7965
  139.4783  144.5593  151.8264 LP  0  0  0  0  0  0  0  0  0  0  0  0  # atno 17342 bound_to 10162
  140.4697  144.1605  150.5916 LP  0  0  0  0  0  0  0  0  0  0  0  0  # atno 17343 bound_to 10162
  157.0499  131.0059  151.3257 LP  0  0  0  0  0  0  0  0  0  0  0  0  # atno 17370 bound_to 10713
  157.5148  130.7961  149.7744 LP  0  0  0  0  0  0  0  0  0  0  0  0  # atno 17371 bound_to 10713
  139.8917  134.8773  156.2307 LP  0  0  0  0  0  0  0  0  0  0  0  0  # atno 17394 bound_to 11000
  141.0223  133.7034  156.1289 LP  0  0  0  0  0  0  0  0  0  0  0  0  # atno 17395 bound_to 11000

$$$$
