AV-unprocessed.smi:2032|AV-procd|sdf|8254|dock9
  -GOLD-   2272010523D 1   1.00000     0.00000
 Structure written by MMmdl.
 42 43  0  0  0  0  0  0  0  0  3 V2000
  148.8283  141.5651  154.3622 C   0  0  0  0  0  0  0  0  0  0  0  0
  149.3053  140.1686  154.7758 C   0  0  1  0  0  0  0  0  0  0  0  0
  148.7332  139.0667  153.8573 C   0  0  0  0  0  0  0  0  0  0  0  0
  149.2606  137.7259  154.2321 N   0  3  2  0  0  0  0  0  0  0  0  0
  148.6887  137.1354  155.4913 C   0  0  1  0  0  0  0  0  0  0  0  0
  147.2489  136.6090  155.2744 C   0  0  0  0  0  0  0  0  0  0  0  0
  149.5848  136.0008  156.0635 C   0  0  0  0  0  0  0  0  0  0  0  0
  149.8214  136.1313  157.4986 N   0  0  0  0  0  0  0  0  0  0  0  0
  148.8763  136.1096  158.4495 C   0  0  0  0  0  0  0  0  0  0  0  0
  147.6898  135.9923  158.1332 O   0  0  0  0  0  0  0  0  0  0  0  0
  149.3652  136.2161  159.7048 N   0  5  0  0  0  0  0  0  0  0  0  0
  148.5543  136.0277  160.7585 C   0  0  0  0  0  0  0  0  0  0  0  0
  148.4407  136.9084  161.7591 N   0  0  0  0  0  0  0  0  0  0  0  0
  147.5447  136.5077  162.7519 C   0  0  0  0  0  0  0  0  0  0  0  0
  146.9690  135.2895  162.5054 C   0  0  0  0  0  0  0  0  0  0  0  0
  147.5390  134.6047  161.0103 S   0  0  0  0  0  0  0  0  0  0  0  0
  150.7468  137.7912  154.1676 C   0  0  0  0  0  0  0  0  0  0  0  0
  151.2992  138.9030  155.0852 C   0  0  1  0  0  0  0  0  0  0  0  0
  152.8232  139.0282  154.9798 C   0  0  0  0  0  0  0  0  0  0  0  0
  150.7277  140.1482  154.6936 O   0  0  0  0  0  0  0  0  0  0  0  0
  147.7425  141.6428  154.4237 H   0  0  0  0  0  0  0  0  0  0  0  0
  149.1233  141.7977  153.3385 H   0  0  0  0  0  0  0  0  0  0  0  0
  149.2526  142.3303  155.0127 H   0  0  0  0  0  0  0  0  0  0  0  0
  149.0019  139.9980  155.8097 H   0  0  0  0  0  0  0  0  0  0  0  0
  147.6460  139.0954  153.8314 H   0  0  0  0  0  0  0  0  0  0  0  0
  149.0373  139.2707  152.8294 H   0  0  0  0  0  0  0  0  0  0  0  0
  148.6296  137.9228  156.2413 H   0  0  0  0  0  0  0  0  0  0  0  0
  146.8628  136.0944  156.1540 H   0  0  0  0  0  0  0  0  0  0  0  0
  147.2050  135.9071  154.4413 H   0  0  0  0  0  0  0  0  0  0  0  0
  146.5392  137.4128  155.0836 H   0  0  0  0  0  0  0  0  0  0  0  0
  149.1203  135.0312  155.8824 H   0  0  0  0  0  0  0  0  0  0  0  0
  150.5656  135.9674  155.5930 H   0  0  0  0  0  0  0  0  0  0  0  0
  150.7797  136.2347  157.7992 H   0  0  0  0  0  0  0  0  0  0  0  0
  147.3784  137.1525  163.6020 H   0  0  0  0  0  0  0  0  0  0  0  0
  146.2503  134.7551  163.1081 H   0  0  0  0  0  0  0  0  0  0  0  0
  151.2213  136.8354  154.3743 H   0  0  0  0  0  0  0  0  0  0  0  0
  151.0264  138.0154  153.1370 H   0  0  0  0  0  0  0  0  0  0  0  0
  151.0472  138.6997  156.1267 H   0  0  0  0  0  0  0  0  0  0  0  0
  153.3141  138.1012  155.2769 H   0  0  0  0  0  0  0  0  0  0  0  0
  153.1949  139.8222  155.6278 H   0  0  0  0  0  0  0  0  0  0  0  0
  153.1319  139.2586  153.9596 H   0  0  0  0  0  0  0  0  0  0  0  0
  148.9750  137.0963  153.4958 H   0  0  0  0  0  0  0  0  0  0  0  0
  1  2  1  0  0  0  0
  1 21  1  0  0  0  0
  1 22  1  0  0  0  0
  1 23  1  0  0  0  0
  2 20  1  0  0  0  0
  2  3  1  0  0  0  0
  2 24  1  0  0  0  0
  3  4  1  0  0  0  0
  3 25  1  0  0  0  0
  3 26  1  0  0  0  0
  4  5  1  0  0  0  0
  4 17  1  0  0  0  0
  4 42  1  0  0  0  0
  5  6  1  0  0  0  0
  5  7  1  0  0  0  0
  5 27  1  0  0  0  0
  6 28  1  0  0  0  0
  6 29  1  0  0  0  0
  6 30  1  0  0  0  0
  7  8  1  0  0  0  0
  7 31  1  0  0  0  0
  7 32  1  0  0  0  0
  8  9  1  0  0  0  0
  8 33  1  0  0  0  0
  9 10  2  0  0  0  0
  9 11  1  0  0  0  0
 11 12  1  0  0  0  0
 12 16  1  0  0  0  0
 12 13  2  0  0  0  0
 13 14  1  0  0  0  0
 14 15  2  0  0  0  0
 14 34  1  0  0  0  0
 15 16  1  0  0  0  0
 15 35  1  0  0  0  0
 17 18  1  0  0  0  0
 17 36  1  0  0  0  0
 17 37  1  0  0  0  0
 18 19  1  0  0  0  0
 18 20  1  0  0  0  0
 18 38  1  0  0  0  0
 19 39  1  0  0  0  0
 19 40  1  0  0  0  0
 19 41  1  0  0  0  0
M  CHG  1   4   1
M  CHG  1  11  -1
M  END
> <s_m_source_file>
AV-unprocessed.smi

> <i_m_source_file_index>
2032

> <i_lp_mmshare_version>
43012

> <i_f3d_flags>
0

> <s_epik_input>
W0NIM11bQ0BASF0xW0NIMl1OKFtDSDJdW0NASF0oTzEpW0NIM10pW0NASF0oW0NIM10pW0NIMl1bTkhdQyg9TylbTkhdYzJuW2NIXVtjSF1zMg==

> <s_epik_cmdline>
J2VwaWtfcHl0aG9uJywgJy1waCcsICc3LjAnLCAnLXRuJywgJzgnLCAnLW1hJywgJzIwMCcsICctbWV0YWxfYmluZGluZycsICctaW1hZScsICc8aW5maWxlLm1hZT4nLCAnLW9tYWUnLCAnPG91dGZpbGUubWFlPic=

> <r_lp_tautomer_probability>
0.999

> <r_epik_Ionization_Penalty>
6.71699

> <r_epik_Ionization_Penalty_Charging>
5.88592

> <r_epik_Ionization_Penalty_Neutral>
0.831074

> <r_epik_State_Penalty>
6.08365

> <r_epik_Charging_Adjusted_Penalty>
11.9696

> <i_epik_Tot_Q>
0

> <i_epik_Tot_abs_Q>
2

> <r_epik_Metal_State_Penalty>
2.0947

> <b_epik_Metal_Only>
1

> <s_lp_Force_Field>
OPLS_2005

> <r_lp_Energy>
10.9106

> <b_lp_Chiralities_Consistent>
1

> <s_lp_Variant>
AV-unprocessed.smi:2032-24

> <Gold.Version>
5.8.1

> <Gold.Id.Protein>
6NUR|6NUR_protein|mol2

> <Gold.PLP.Fitness>
49.5265

> <Gold.PLP.PLP>
-34.5195

> <Gold.PLP.part.hbond>
-4.2029

> <Gold.PLP.part.metal>
0.0000

> <Gold.PLP.part.buried>
-2.0674

> <Gold.PLP.part.nonpolar>
-29.1260

> <Gold.PLP.part.repulsive>
0.1525

> <Gold.PLP.ligand.clash>
0.0000

> <Gold.PLP.ligand.torsion>
1.5266

> <Gold.PLP.Chemscore.Hbond>
6.0000

> <Gold.PLP.Chemscore.CHOScore>
0.0000

> <Gold.PLP.Chemscore.Metal>
0.0000

> <Gold.Chemscore.Hbonds>
donor molecule, donor type, donor heavy atom, donor atom, acceptor molecule, acceptor atom, score
      L1  H     4    42       P1  7948  2.00
      P1  H  6896  6908       L1    11  2.00
      P1  H  6931  6943       L1    13  0.84
      P1  H  7989  7998       L1    20  1.00

> <Gold.PLP.Chemscore.Internal.Correction>
0.0602

> <Gold.Rescore>
     Score         DG    S(hbond)    S(metal)    S(lipo)     H(rot)  DE(clash)    DE(int)     intcor
     16.73     -21.32       3.23        0.00      77.78       1.58       1.41       3.18       ----

> <Gold.Chemscore.Fitness>
16.7349

> <Gold.Chemscore.DG>
-21.3170

> <Gold.Chemscore.ZeroCoef>
-5.4800

> <Gold.Chemscore.Hbond>
3.2274

> <Gold.Chemscore.Metal>
0.0000

> <Gold.Chemscore.Lipo>
77.7792

> <Gold.Chemscore.Internal_Hbond>
0.0000

> <Gold.Chemscore.DEClash>
1.4071

> <Gold.Chemscore.DEInternal>
3.1750

> <Gold.Chemscore.Rot>
1.5791

> <Gold.Chemscore.Internal.Correction>
   9.000000E+99

> <Gold.Chemscore.Hbonds>
donor molecule, donor type, donor heavy atom, donor atom, acceptor molecule, acceptor atom, score
      L1  H     4    42       P1  7948  0.99
      P1  H  6896  6908       L1    11  0.21
      P1  H  6931  6943       L1    13  0.76
      P1  H  7989  7998       L1    20  0.78

> <Gold.Chemscore.Hbond.Weighted>
-10.7793

> <Gold.Chemscore.Metal.Weighted>
-0.0000

> <Gold.Chemscore.Lipo.Weighted>
-9.1002

> <Gold.Chemscore.Internal_Hbond.Weighted>
0.0000

> <Gold.Chemscore.DEClash.Weighted>
1.4071

> <Gold.Chemscore.DEInternal.Weighted>
3.1750

> <Gold.Chemscore.Rot.Weighted>
4.0425

> <Gold.Chemscore.Internal.Correction.Weighted>
   9.000000E+99

> <Gold.Protein.RotatedTorsions>
[ 6907 6896 6895 6894 ] final -175.95 input  -60.11 | X-H torsion
[ 7974 7965 7964 7962 ] final   45.04 input  175.53 | X-H torsion
[ 8008 7997 7996 7995 ] final   44.87 input   59.86 | X-H torsion
[ 10167 10162 10161 10158 ] final   -7.13 input  -65.29 | X-H torsion
[ 10718 10713 10712 10709 ] final   22.27 input   66.30 | X-H torsion
[ 10763 10752 10751 10750 ] final  -23.91 input  -60.55 | X-H torsion
[ 11005 11000 10999 10996 ] final  -38.09 input  -57.11 | X-H torsion

> <Gold.Protein.ActiveResidues>
 VAL166  LYS551  ARG553  GLY616  TRP617  ASP618  TYR619  PRO620  LYS621  CYS622 
 ASP623  PHE694  ASN695  SER759  ASP760  ASP761  ALA762  ILE779  LEU786  VAL792 
 PHE793  MET794  SER795  GLU796  ALA797  LYS798  CYS799  TRP800  GLU811  SER814 

> <Gold.Protein.RotatedAtoms>
  151.5969  133.3360  159.3039 H   0  0  0  0  0  0  0  0  0  0  0  0  # atno 6907 bound_to 6896
  150.8229  134.7449  159.6799 H   0  0  0  0  0  0  0  0  0  0  0  0  # atno 6908 bound_to 6896
  152.4321  134.5763  159.9987 H   0  0  0  0  0  0  0  0  0  0  0  0  # atno 6909 bound_to 6896
  146.0515  139.5008  142.9715 H   0  0  0  0  0  0  0  0  0  0  0  0  # atno 7974 bound_to 7965
  155.3265  140.3400  155.4240 H   0  0  0  0  0  0  0  0  0  0  0  0  # atno 8008 bound_to 7997
  156.1883  140.1688  156.8179 H   0  0  0  0  0  0  0  0  0  0  0  0  # atno 8009 bound_to 7997
  154.5412  140.0724  156.8496 H   0  0  0  0  0  0  0  0  0  0  0  0  # atno 8010 bound_to 7997
  140.7019  143.6116  150.8698 H   0  0  0  0  0  0  0  0  0  0  0  0  # atno 10167 bound_to 10162
  157.1500  130.6670  149.6009 H   0  0  0  0  0  0  0  0  0  0  0  0  # atno 10718 bound_to 10713
  153.6754  135.6969  153.5134 H   0  0  0  0  0  0  0  0  0  0  0  0  # atno 10763 bound_to 10752
  153.2526  135.4270  155.0812 H   0  0  0  0  0  0  0  0  0  0  0  0  # atno 10764 bound_to 10752
  154.8415  135.3535  154.6298 H   0  0  0  0  0  0  0  0  0  0  0  0  # atno 10765 bound_to 10752
  141.0001  133.6959  156.2007 H   0  0  0  0  0  0  0  0  0  0  0  0  # atno 11005 bound_to 11000
  145.6716  141.0215  143.1654 LP  0  0  0  0  0  0  0  0  0  0  0  0  # atno 17320 bound_to 7965
  144.7125  139.8317  143.7410 LP  0  0  0  0  0  0  0  0  0  0  0  0  # atno 17321 bound_to 7965
  139.9839  143.5921  152.2933 LP  0  0  0  0  0  0  0  0  0  0  0  0  # atno 17342 bound_to 10162
  139.6552  144.7662  151.2070 LP  0  0  0  0  0  0  0  0  0  0  0  0  # atno 17343 bound_to 10162
  155.9772  130.4748  150.6579 LP  0  0  0  0  0  0  0  0  0  0  0  0  # atno 17370 bound_to 10713
  157.4229  131.0839  151.1114 LP  0  0  0  0  0  0  0  0  0  0  0  0  # atno 17371 bound_to 10713
  140.6902  134.4674  157.5588 LP  0  0  0  0  0  0  0  0  0  0  0  0  # atno 17394 bound_to 11000
  139.9034  134.8503  156.1801 LP  0  0  0  0  0  0  0  0  0  0  0  0  # atno 17395 bound_to 11000

$$$$
