AV-unprocessed.smi:1756|AV-procd|sdf|7071|dock7
  -GOLD-   22720 8293D 1   1.00000     0.00000
 Structure written by MMmdl.
 38 39  0  0  0  0  0  0  0  0  1 V2000
  152.0023  141.5151  157.5868 O   0  0  0  0  0  0  0  0  0  0  0  0
  151.3543  142.2609  156.8530 C   0  0  0  0  0  0  0  0  0  0  0  0
  151.2984  143.5899  157.0198 N   0  0  0  0  0  0  0  0  0  0  0  0
  151.9637  144.3409  158.0806 C   0  0  0  0  0  0  0  0  0  0  0  0
  151.8941  143.6185  159.4387 C   0  0  2  0  0  0  0  0  0  0  0  0
  151.9102  144.5771  160.6492 C   0  0  0  0  0  0  0  0  0  0  0  0
  151.9524  143.7907  161.9643 C   0  0  0  0  0  0  0  0  0  0  0  0
  153.1147  142.7936  161.9350 C   0  0  0  0  0  0  0  0  0  0  0  0
  153.0341  141.9229  160.6721 C   0  0  0  0  0  0  0  0  0  0  0  0
  153.0242  142.7517  159.5138 O   0  0  0  0  0  0  0  0  0  0  0  0
  150.6329  141.8827  155.7816 N   0  0  0  0  0  0  0  0  0  0  0  0
  150.4118  140.5959  155.2607 C   0  0  0  0  0  0  0  0  0  0  0  0
  150.9118  139.4453  155.7835 C   0  0  0  0  0  0  0  0  0  0  0  0
  150.6367  138.1458  155.1933 C   0  0  0  0  0  0  0  0  0  0  0  0
  151.1548  136.8603  155.8197 C   0  0  0  0  0  0  0  0  0  0  0  0
  151.8440  137.1084  156.9342 F   0  0  0  0  0  0  0  0  0  0  0  0
  150.1324  136.0653  156.1321 F   0  0  0  0  0  0  0  0  0  0  0  0
  151.9489  136.2023  154.9748 F   0  0  0  0  0  0  0  0  0  0  0  0
  149.8339  138.1348  154.1133 C   0  0  0  0  0  0  0  0  0  0  0  0
  149.3174  139.3123  153.5683 N   0  0  0  0  0  0  0  0  0  0  0  0
  149.5475  140.5466  154.0694 C   0  0  0  0  0  0  0  0  0  0  0  0
  149.0486  141.5362  153.5343 O   0  0  0  0  0  0  0  0  0  0  0  0
  148.7316  139.2212  152.7508 H   0  0  0  0  0  0  0  0  0  0  0  0
  150.7493  144.1267  156.3644 H   0  0  0  0  0  0  0  0  0  0  0  0
  153.0077  144.4560  157.7880 H   0  0  0  0  0  0  0  0  0  0  0  0
  151.5613  145.3519  158.1641 H   0  0  0  0  0  0  0  0  0  0  0  0
  150.9874  143.0112  159.4653 H   0  0  0  0  0  0  0  0  0  0  0  0
  152.7804  145.2317  160.5872 H   0  0  0  0  0  0  0  0  0  0  0  0
  151.0323  145.2227  160.6414 H   0  0  0  0  0  0  0  0  0  0  0  0
  152.0539  144.4696  162.8112 H   0  0  0  0  0  0  0  0  0  0  0  0
  151.0123  143.2549  162.1017 H   0  0  0  0  0  0  0  0  0  0  0  0
  154.0623  143.3334  161.9451 H   0  0  0  0  0  0  0  0  0  0  0  0
  153.0999  142.1683  162.8279 H   0  0  0  0  0  0  0  0  0  0  0  0
  153.8951  141.2565  160.6213 H   0  0  0  0  0  0  0  0  0  0  0  0
  152.1443  141.2920  160.6896 H   0  0  0  0  0  0  0  0  0  0  0  0
  150.2070  142.6263  155.2474 H   0  0  0  0  0  0  0  0  0  0  0  0
  151.5262  139.4565  156.6682 H   0  0  0  0  0  0  0  0  0  0  0  0
  149.5257  137.2396  153.5935 H   0  0  0  0  0  0  0  0  0  0  0  0
  1  2  2  0  0  0  0
  2  3  1  0  0  0  0
  2 11  1  0  0  0  0
  3  4  1  0  0  0  0
  3 24  1  0  0  0  0
  4  5  1  0  0  0  0
  4 25  1  0  0  0  0
  4 26  1  0  0  0  0
  5 10  1  0  0  0  0
  5  6  1  0  0  0  0
  5 27  1  0  0  0  0
  6  7  1  0  0  0  0
  6 28  1  0  0  0  0
  6 29  1  0  0  0  0
  7  8  1  0  0  0  0
  7 30  1  0  0  0  0
  7 31  1  0  0  0  0
  8  9  1  0  0  0  0
  8 32  1  0  0  0  0
  8 33  1  0  0  0  0
  9 10  1  0  0  0  0
  9 34  1  0  0  0  0
  9 35  1  0  0  0  0
 11 12  1  0  0  0  0
 11 36  1  0  0  0  0
 12 21  1  0  0  0  0
 12 13  2  0  0  0  0
 13 14  1  0  0  0  0
 13 37  1  0  0  0  0
 14 15  1  0  0  0  0
 14 19  2  0  0  0  0
 15 16  1  0  0  0  0
 15 17  1  0  0  0  0
 15 18  1  0  0  0  0
 19 20  1  0  0  0  0
 19 38  1  0  0  0  0
 20 23  1  0  0  0  0
 20 21  1  0  0  0  0
 21 22  2  0  0  0  0
M  END
> <s_m_source_file>
AV-unprocessed.smi

> <i_m_source_file_index>
1756

> <i_lp_mmshare_version>
43012

> <i_f3d_flags>
0

> <s_epik_input>
Tz1jMVtuSF1bY0hdYyhDKEYpKEYpRilbY0hdYzFbTkhdQyg9TylbTkhdW0NIMl1bQ0BASF0yW0NIMl1bQ0gyXVtDSDJdW0NIMl1PMg==

> <s_epik_cmdline>
J2VwaWtfcHl0aG9uJywgJy1waCcsICc3LjAnLCAnLXRuJywgJzgnLCAnLW1hJywgJzIwMCcsICctbWV0YWxfYmluZGluZycsICctaW1hZScsICc8aW5maWxlLm1hZT4nLCAnLW9tYWUnLCAnPG91dGZpbGUubWFlPic=

> <r_lp_tautomer_probability>
1

> <r_epik_Ionization_Penalty>
0.00380944

> <r_epik_Ionization_Penalty_Charging>
0.00379057

> <r_epik_Ionization_Penalty_Neutral>
1.88732e-05

> <r_epik_State_Penalty>
-0

> <r_epik_Charging_Adjusted_Penalty>
0.00379057

> <i_epik_Tot_Q>
0

> <i_epik_Tot_abs_Q>
0

> <r_epik_Metal_State_Penalty>
0.371099

> <b_epik_Metal_Only>
0

> <s_lp_Force_Field>
OPLS_2005

> <r_lp_Energy>
19.4174

> <b_lp_Chiralities_Consistent>
1

> <s_lp_Variant>
AV-unprocessed.smi:1756-1

> <Gold.Version>
5.8.1

> <Gold.Id.Protein>
6NUR|6NUR_protein|mol2

> <Gold.PLP.Fitness>
52.6686

> <Gold.PLP.PLP>
-43.9649

> <Gold.PLP.part.hbond>
-4.0000

> <Gold.PLP.part.metal>
0.0000

> <Gold.PLP.part.buried>
-6.3205

> <Gold.PLP.part.nonpolar>
-35.1557

> <Gold.PLP.part.repulsive>
0.4329

> <Gold.PLP.ligand.clash>
0.0000

> <Gold.PLP.ligand.torsion>
0.5145

> <Gold.PLP.Chemscore.Hbond>
2.2285

> <Gold.PLP.Chemscore.CHOScore>
1.0000

> <Gold.PLP.Chemscore.Metal>
0.0000

> <Gold.Chemscore.Hbonds>
donor molecule, donor type, donor heavy atom, donor atom, acceptor molecule, acceptor atom, score
      L1  H     3    24       P1  8028  0.94
      L1  H    20    23       P1  7957  0.22
      P1  H  8011  8017       L1    22  0.80
      L1  C    19    38       P1  7948  1.00

> <Gold.PLP.Chemscore.Internal.Correction>
0.0474

> <Gold.Rescore>
     Score         DG    S(hbond)    S(metal)    S(lipo)     H(rot)  DE(clash)    DE(int)     intcor
     14.86     -19.65       1.89        0.00      96.37       1.33       0.47       4.33       ----

> <Gold.Chemscore.Fitness>
14.8579

> <Gold.Chemscore.DG>
-19.6508

> <Gold.Chemscore.ZeroCoef>
-5.4800

> <Gold.Chemscore.Hbond>
1.8897

> <Gold.Chemscore.Metal>
0.0000

> <Gold.Chemscore.Lipo>
96.3697

> <Gold.Chemscore.Internal_Hbond>
0.0000

> <Gold.Chemscore.DEClash>
0.4667

> <Gold.Chemscore.DEInternal>
4.3263

> <Gold.Chemscore.Rot>
1.3344

> <Gold.Chemscore.Internal.Correction>
   9.000000E+99

> <Gold.Chemscore.Hbonds>
donor molecule, donor type, donor heavy atom, donor atom, acceptor molecule, acceptor atom, score
      L1  H     3    24       P1  8028  0.85
      L1  H    11    36       P1  8028  0.01
      L1  H    20    23       P1  7957  0.22
      P1  H  8011  8017       L1    22  0.79

> <Gold.Chemscore.Hbond.Weighted>
-6.3115

> <Gold.Chemscore.Metal.Weighted>
-0.0000

> <Gold.Chemscore.Lipo.Weighted>
-11.2753

> <Gold.Chemscore.Internal_Hbond.Weighted>
0.0000

> <Gold.Chemscore.DEClash.Weighted>
0.4667

> <Gold.Chemscore.DEInternal.Weighted>
4.3263

> <Gold.Chemscore.Rot.Weighted>
3.4160

> <Gold.Chemscore.Internal.Correction.Weighted>
   9.000000E+99

> <Gold.Protein.RotatedTorsions>
[ 6907 6896 6895 6894 ] final   55.95 input  -60.11 | X-H torsion
[ 7974 7965 7964 7962 ] final  166.11 input  175.53 | X-H torsion
[ 8008 7997 7996 7995 ] final  -99.47 input   59.86 | X-H torsion
[ 10167 10162 10161 10158 ] final  -46.38 input  -65.29 | X-H torsion
[ 10718 10713 10712 10709 ] final  -76.08 input   66.30 | X-H torsion
[ 10763 10752 10751 10750 ] final  -68.56 input  -60.55 | X-H torsion
[ 11005 11000 10999 10996 ] final   82.61 input  -57.11 | X-H torsion

> <Gold.Protein.ActiveResidues>
 VAL166  LYS551  ARG553  GLY616  TRP617  ASP618  TYR619  PRO620  LYS621  CYS622 
 ASP623  PHE694  ASN695  SER759  ASP760  ASP761  ALA762  ILE779  LEU786  VAL792 
 PHE793  MET794  SER795  GLU796  ALA797  LYS798  CYS799  TRP800  GLU811  SER814 

> <Gold.Protein.RotatedAtoms>
  152.3589  134.6900  160.0213 H   0  0  0  0  0  0  0  0  0  0  0  0  # atno 6907 bound_to 6896
  151.7230  133.3309  159.3328 H   0  0  0  0  0  0  0  0  0  0  0  0  # atno 6908 bound_to 6896
  150.7591  134.6365  159.6259 H   0  0  0  0  0  0  0  0  0  0  0  0  # atno 6909 bound_to 6896
  144.7475  139.8568  143.6377 H   0  0  0  0  0  0  0  0  0  0  0  0  # atno 7974 bound_to 7965
  154.8153  140.0447  157.1372 H   0  0  0  0  0  0  0  0  0  0  0  0  # atno 8008 bound_to 7997
  154.9321  140.3041  155.5142 H   0  0  0  0  0  0  0  0  0  0  0  0  # atno 8009 bound_to 7997
  156.2975  140.2321  156.4382 H   0  0  0  0  0  0  0  0  0  0  0  0  # atno 8010 bound_to 7997
  140.6820  143.2834  151.3774 H   0  0  0  0  0  0  0  0  0  0  0  0  # atno 10167 bound_to 10162
  156.0186  130.4457  150.3140 H   0  0  0  0  0  0  0  0  0  0  0  0  # atno 10718 bound_to 10713
  154.3907  135.6053  153.5842 H   0  0  0  0  0  0  0  0  0  0  0  0  # atno 10763 bound_to 10752
  152.9787  135.5883  154.4300 H   0  0  0  0  0  0  0  0  0  0  0  0  # atno 10764 bound_to 10752
  154.4084  135.2844  155.2030 H   0  0  0  0  0  0  0  0  0  0  0  0  # atno 10765 bound_to 10752
  139.9058  134.8084  156.2198 H   0  0  0  0  0  0  0  0  0  0  0  0  # atno 11005 bound_to 11000
  146.1377  139.4426  143.0128 LP  0  0  0  0  0  0  0  0  0  0  0  0  # atno 17320 bound_to 7965
  145.7066  141.0119  143.1475 LP  0  0  0  0  0  0  0  0  0  0  0  0  # atno 17321 bound_to 7965
  139.6149  144.1023  152.2335 LP  0  0  0  0  0  0  0  0  0  0  0  0  # atno 17342 bound_to 10162
  140.0449  144.5978  150.7381 LP  0  0  0  0  0  0  0  0  0  0  0  0  # atno 17343 bound_to 10162
  157.1241  131.0254  151.2997 LP  0  0  0  0  0  0  0  0  0  0  0  0  # atno 17370 bound_to 10713
  157.4604  130.7650  149.7230 LP  0  0  0  0  0  0  0  0  0  0  0  0  # atno 17371 bound_to 10713
  141.0413  133.6936  156.1603 LP  0  0  0  0  0  0  0  0  0  0  0  0  # atno 17394 bound_to 11000
  140.6951  134.4624  157.5588 LP  0  0  0  0  0  0  0  0  0  0  0  0  # atno 17395 bound_to 11000

$$$$
