AV-unprocessed.smi:2448|AV-procd|sdf|9653|dock3
  -GOLD-   2272013283D 1   1.00000     0.00000
 Structure written by MMmdl.
 37 38  0  0  0  0  0  0  0  0  1 V2000
  146.6342  131.7284  150.2647 O   0  0  0  0  0  0  0  0  0  0  0  0
  146.2874  132.5793  151.3427 C   0  0  1  0  0  0  0  0  0  0  0  0
  147.4303  132.5237  152.3767 C   0  0  0  0  0  0  0  0  0  0  0  0
  147.5887  131.1853  152.9482 N   0  0  0  0  0  0  0  0  0  0  0  0
  148.6622  131.0199  153.9400 C   0  0  1  0  0  0  0  0  0  0  0  0
  148.5494  132.0095  155.1300 C   0  0  0  0  0  0  0  0  0  0  0  0
  149.7611  132.0604  156.0476 C   0  0  0  0  0  0  0  0  0  0  0  0
  150.9890  132.5851  155.5912 C   0  0  0  0  0  0  0  0  0  0  0  0
  152.0814  132.6149  156.4810 C   0  0  0  0  0  0  0  0  0  0  0  0
  152.0128  132.1724  157.7547 N   0  0  0  0  0  0  0  0  0  0  0  0
  150.8324  131.6822  158.1895 C   0  0  0  0  0  0  0  0  0  0  0  0
  149.6805  131.6066  157.3812 C   0  0  0  0  0  0  0  0  0  0  0  0
  148.6835  129.5573  154.4327 C   0  0  0  0  0  0  0  0  0  0  0  0
  149.8818  129.2672  154.9419 F   0  0  0  0  0  0  0  0  0  0  0  0
  147.7741  129.3777  155.3908 F   0  0  0  0  0  0  0  0  0  0  0  0
  148.4275  128.7177  153.4287 F   0  0  0  0  0  0  0  0  0  0  0  0
  145.9822  133.9929  150.8148 C   0  0  0  0  0  0  0  0  0  0  0  0
  144.6328  133.9425  150.0913 C   0  0  0  0  0  0  0  0  0  0  0  0
  143.5972  132.7260  150.9422 S   0  0  0  0  0  0  0  0  0  0  0  0
  144.9634  132.0666  151.9352 C   0  0  0  0  0  0  0  0  0  0  0  0
  147.5486  131.5040  150.3457 H   0  0  0  0  0  0  0  0  0  0  0  0
  148.3621  132.8192  151.8930 H   0  0  0  0  0  0  0  0  0  0  0  0
  147.2363  133.2576  153.1561 H   0  0  0  0  0  0  0  0  0  0  0  0
  147.7227  130.5134  152.1990 H   0  0  0  0  0  0  0  0  0  0  0  0
  149.6211  131.1773  153.4454 H   0  0  0  0  0  0  0  0  0  0  0  0
  148.3158  133.0093  154.7617 H   0  0  0  0  0  0  0  0  0  0  0  0
  147.7080  131.7278  155.7633 H   0  0  0  0  0  0  0  0  0  0  0  0
  151.0978  132.9514  154.5809 H   0  0  0  0  0  0  0  0  0  0  0  0
  153.0361  133.0054  156.1603 H   0  0  0  0  0  0  0  0  0  0  0  0
  150.8036  131.3407  159.2137 H   0  0  0  0  0  0  0  0  0  0  0  0
  148.7588  131.2105  157.7811 H   0  0  0  0  0  0  0  0  0  0  0  0
  145.9058  134.6823  151.6569 H   0  0  0  0  0  0  0  0  0  0  0  0
  146.7685  134.3747  150.1623 H   0  0  0  0  0  0  0  0  0  0  0  0
  144.1467  134.9176  150.0601 H   0  0  0  0  0  0  0  0  0  0  0  0
  144.7723  133.6088  149.0626 H   0  0  0  0  0  0  0  0  0  0  0  0
  144.9187  130.9785  151.9937 H   0  0  0  0  0  0  0  0  0  0  0  0
  144.8332  132.4490  152.9482 H   0  0  0  0  0  0  0  0  0  0  0  0
  1  2  1  0  0  0  0
  1 21  1  0  0  0  0
  2 20  1  0  0  0  0
  2  3  1  0  0  0  0
  2 17  1  0  0  0  0
  3  4  1  0  0  0  0
  3 22  1  0  0  0  0
  3 23  1  0  0  0  0
  4  5  1  0  0  0  0
  4 24  1  0  0  0  0
  5  6  1  0  0  0  0
  5 13  1  0  0  0  0
  5 25  1  0  0  0  0
  6  7  1  0  0  0  0
  6 26  1  0  0  0  0
  6 27  1  0  0  0  0
  7 12  1  0  0  0  0
  7  8  2  0  0  0  0
  8  9  1  0  0  0  0
  8 28  1  0  0  0  0
  9 10  2  0  0  0  0
  9 29  1  0  0  0  0
 10 11  1  0  0  0  0
 11 12  2  0  0  0  0
 11 30  1  0  0  0  0
 12 31  1  0  0  0  0
 13 14  1  0  0  0  0
 13 15  1  0  0  0  0
 13 16  1  0  0  0  0
 17 18  1  0  0  0  0
 17 32  1  0  0  0  0
 17 33  1  0  0  0  0
 18 19  1  0  0  0  0
 18 34  1  0  0  0  0
 18 35  1  0  0  0  0
 19 20  1  0  0  0  0
 20 36  1  0  0  0  0
 20 37  1  0  0  0  0
M  END
> <s_m_source_file>
AV-unprocessed.smi

> <i_m_source_file_index>
2448

> <i_lp_mmshare_version>
43012

> <i_f3d_flags>
0

> <s_epik_input>
W0NIMl0xU1tDSDJdW0NIMl1bQ0BAXTEoW09IXSlbQ0gyXVtOSF1bQ0BASF0oQyhGKShGKUYpW0NIMl1jMltjSF1bY0hdbltjSF1bY0hdMg==

> <s_epik_cmdline>
J2VwaWtfcHl0aG9uJywgJy1waCcsICc3LjAnLCAnLXRuJywgJzgnLCAnLW1hJywgJzIwMCcsICctbWV0YWxfYmluZGluZycsICctaW1hZScsICc8aW5maWxlLm1hZT4nLCAnLW9tYWUnLCAnPG91dGZpbGUubWFlPic=

> <r_epik_Ionization_Penalty>
0.187708

> <r_epik_Ionization_Penalty_Charging>
0

> <r_epik_Ionization_Penalty_Neutral>
0.187708

> <r_epik_State_Penalty>
0.22769

> <r_epik_Charging_Adjusted_Penalty>
0.22769

> <i_epik_Tot_Q>
0

> <i_epik_Tot_abs_Q>
0

> <r_epik_Metal_State_Penalty>
0.176206

> <b_epik_Metal_Only>
0

> <s_lp_Force_Field>
OPLS_2005

> <r_lp_Energy>
32.0446

> <b_lp_Chiralities_Consistent>
1

> <s_lp_Variant>
AV-unprocessed.smi:2448-3

> <Gold.Version>
5.8.1

> <Gold.Id.Protein>
6NUR|6NUR_protein|mol2

> <Gold.PLP.Fitness>
39.8463

> <Gold.PLP.PLP>
-32.3289

> <Gold.PLP.part.hbond>
-3.0000

> <Gold.PLP.part.metal>
0.0000

> <Gold.PLP.part.buried>
-3.6147

> <Gold.PLP.part.nonpolar>
-25.6325

> <Gold.PLP.part.repulsive>
0.0000

> <Gold.PLP.ligand.clash>
0.0000

> <Gold.PLP.ligand.torsion>
0.6541

> <Gold.PLP.Chemscore.Hbond>
2.7840

> <Gold.PLP.Chemscore.CHOScore>
0.0000

> <Gold.PLP.Chemscore.Metal>
0.0000

> <Gold.Chemscore.Hbonds>
donor molecule, donor type, donor heavy atom, donor atom, acceptor molecule, acceptor atom, score
      L1  H     1    21       P1 10747  1.00
      L1  H     4    24       P1 10747  0.16
      P1  H  6896  6909       L1    10  0.20

> <Gold.PLP.Chemscore.Internal.Correction>
0.4736

> <Gold.Rescore>
     Score         DG    S(hbond)    S(metal)    S(lipo)     H(rot)  DE(clash)    DE(int)     intcor
     15.84     -16.91       2.48        0.00      77.42       2.31       0.04       1.04       ----

> <Gold.Chemscore.Fitness>
15.8409

> <Gold.Chemscore.DG>
-16.9131

> <Gold.Chemscore.ZeroCoef>
-5.4800

> <Gold.Chemscore.Hbond>
2.4825

> <Gold.Chemscore.Metal>
0.0000

> <Gold.Chemscore.Lipo>
77.4179

> <Gold.Chemscore.Internal_Hbond>
0.0000

> <Gold.Chemscore.DEClash>
0.0366

> <Gold.Chemscore.DEInternal>
1.0356

> <Gold.Chemscore.Rot>
2.3111

> <Gold.Chemscore.Internal.Correction>
   9.000000E+99

> <Gold.Chemscore.Hbonds>
donor molecule, donor type, donor heavy atom, donor atom, acceptor molecule, acceptor atom, score
      L1  H     1    21       P1 10747  0.96
      L1  H     4    24       P1 10747  0.16

> <Gold.Chemscore.Hbond.Weighted>
-8.2916

> <Gold.Chemscore.Metal.Weighted>
-0.0000

> <Gold.Chemscore.Lipo.Weighted>
-9.0579

> <Gold.Chemscore.Internal_Hbond.Weighted>
0.0000

> <Gold.Chemscore.DEClash.Weighted>
0.0366

> <Gold.Chemscore.DEInternal.Weighted>
1.0356

> <Gold.Chemscore.Rot.Weighted>
5.9164

> <Gold.Chemscore.Internal.Correction.Weighted>
   9.000000E+99

> <Gold.Protein.RotatedTorsions>
[ 6907 6896 6895 6894 ] final  -74.85 input  -60.11 | X-H torsion
[ 7974 7965 7964 7962 ] final  106.89 input  175.53 | X-H torsion
[ 8008 7997 7996 7995 ] final -120.75 input   59.86 | X-H torsion
[ 10167 10162 10161 10158 ] final   43.15 input  -65.29 | X-H torsion
[ 10718 10713 10712 10709 ] final   75.99 input   66.30 | X-H torsion
[ 10763 10752 10751 10750 ] final   92.71 input  -60.55 | X-H torsion
[ 11005 11000 10999 10996 ] final   55.06 input  -57.11 | X-H torsion

> <Gold.Protein.ActiveResidues>
 VAL166  LYS551  ARG553  GLY616  TRP617  ASP618  TYR619  PRO620  LYS621  CYS622 
 ASP623  PHE694  ASN695  SER759  ASP760  ASP761  ALA762  ILE779  LEU786  VAL792 
 PHE793  MET794  SER795  GLU796  ALA797  LYS798  CYS799  TRP800  GLU811  SER814 

> <Gold.Protein.RotatedAtoms>
  150.7079  134.4808  159.5469 H   0  0  0  0  0  0  0  0  0  0  0  0  # atno 6907 bound_to 6896
  152.2446  134.8191  160.0464 H   0  0  0  0  0  0  0  0  0  0  0  0  # atno 6908 bound_to 6896
  151.8961  133.3492  159.3851 H   0  0  0  0  0  0  0  0  0  0  0  0  # atno 6909 bound_to 6896
  145.3007  139.2570  143.3815 H   0  0  0  0  0  0  0  0  0  0  0  0  # atno 7974 bound_to 7965
  155.1368  140.0401  157.2788 H   0  0  0  0  0  0  0  0  0  0  0  0  # atno 8008 bound_to 7997
  154.6502  140.2567  155.7196 H   0  0  0  0  0  0  0  0  0  0  0  0  # atno 8009 bound_to 7997
  156.2573  140.2838  156.0932 H   0  0  0  0  0  0  0  0  0  0  0  0  # atno 8010 bound_to 7997
  140.3473  144.2395  150.6149 H   0  0  0  0  0  0  0  0  0  0  0  0  # atno 10167 bound_to 10162
  157.6656  130.9753  150.1432 H   0  0  0  0  0  0  0  0  0  0  0  0  # atno 10718 bound_to 10713
  153.2222  135.4351  155.0502 H   0  0  0  0  0  0  0  0  0  0  0  0  # atno 10763 bound_to 10752
  154.8255  135.3359  154.6910 H   0  0  0  0  0  0  0  0  0  0  0  0  # atno 10764 bound_to 10752
  153.7342  135.7009  153.5038 H   0  0  0  0  0  0  0  0  0  0  0  0  # atno 10765 bound_to 10752
  140.0637  134.5566  155.9123 H   0  0  0  0  0  0  0  0  0  0  0  0  # atno 11005 bound_to 11000
  146.3153  140.3521  142.8657 LP  0  0  0  0  0  0  0  0  0  0  0  0  # atno 17320 bound_to 7965
  144.9096  140.7741  143.5816 LP  0  0  0  0  0  0  0  0  0  0  0  0  # atno 17321 bound_to 7965
  140.5252  143.2256  151.8326 LP  0  0  0  0  0  0  0  0  0  0  0  0  # atno 17342 bound_to 10162
  139.4831  144.4788  151.9333 LP  0  0  0  0  0  0  0  0  0  0  0  0  # atno 17343 bound_to 10162
  156.2250  130.3677  149.8511 LP  0  0  0  0  0  0  0  0  0  0  0  0  # atno 17370 bound_to 10713
  156.6354  130.8683  151.3503 LP  0  0  0  0  0  0  0  0  0  0  0  0  # atno 17371 bound_to 10713
  141.1984  133.6601  156.5789 LP  0  0  0  0  0  0  0  0  0  0  0  0  # atno 17394 bound_to 11000
  140.3731  134.7588  157.4612 LP  0  0  0  0  0  0  0  0  0  0  0  0  # atno 17395 bound_to 11000

$$$$
