AV-unprocessed.smi:3042|AV-procd|sdf|11599|dock5
  -GOLD-   2272016573D 1   1.00000     0.00000
 Structure written by MMmdl.
 33 34  0  0  0  0  0  0  0  0  2 V2000
  148.3957  134.3037  153.8764 N   0  3  0  0  0  0  0  0  0  0  0  0
  147.0714  133.7500  153.5392 C   0  0  0  0  0  0  0  0  0  0  0  0
  147.1562  132.6626  152.4371 C   0  0  2  0  0  0  0  0  0  0  0  0
  145.8212  132.6108  151.6951 C   0  0  0  0  0  0  0  0  0  0  0  0
  144.7006  133.3442  152.1447 C   0  0  0  0  0  0  0  0  0  0  0  0
  143.4987  133.2657  151.4161 C   0  0  0  0  0  0  0  0  0  0  0  0
  143.4630  132.4522  150.2665 C   0  0  0  0  0  0  0  0  0  0  0  0
  144.5263  131.7458  149.8263 N   0  0  0  0  0  0  0  0  0  0  0  0
  145.6748  131.8251  150.5309 C   0  0  0  0  0  0  0  0  0  0  0  0
  147.5546  131.3261  152.9265 N   0  0  0  0  0  0  0  0  0  0  0  0
  148.8941  131.3390  153.5269 C   0  0  0  0  0  0  0  0  0  0  0  0
  149.3244  129.9546  154.0404 C   0  0  0  0  0  0  0  0  0  0  0  0
  148.3711  129.4808  154.9826 O   0  0  0  0  0  0  0  0  0  0  0  0
  147.0645  129.3914  154.4302 C   0  0  0  0  0  0  0  0  0  0  0  0
  146.6227  130.7719  153.9129 C   0  0  0  0  0  0  0  0  0  0  0  0
  148.6899  134.9420  153.1512 H   0  0  0  0  0  0  0  0  0  0  0  0
  149.0634  133.5494  153.9528 H   0  0  0  0  0  0  0  0  0  0  0  0
  146.6668  133.3493  154.4674 H   0  0  0  0  0  0  0  0  0  0  0  0
  146.4172  134.5657  153.2293 H   0  0  0  0  0  0  0  0  0  0  0  0
  147.9099  132.9924  151.7198 H   0  0  0  0  0  0  0  0  0  0  0  0
  144.7606  133.9571  153.0321 H   0  0  0  0  0  0  0  0  0  0  0  0
  142.6235  133.8145  151.7314 H   0  0  0  0  0  0  0  0  0  0  0  0
  142.5572  132.3681  149.6847 H   0  0  0  0  0  0  0  0  0  0  0  0
  146.5041  131.2475  150.1495 H   0  0  0  0  0  0  0  0  0  0  0  0
  149.6375  131.6758  152.8049 H   0  0  0  0  0  0  0  0  0  0  0  0
  148.9208  132.0511  154.3532 H   0  0  0  0  0  0  0  0  0  0  0  0
  149.4184  129.2467  153.2152 H   0  0  0  0  0  0  0  0  0  0  0  0
  150.3000  130.0167  154.5226 H   0  0  0  0  0  0  0  0  0  0  0  0
  147.0510  128.6547  153.6251 H   0  0  0  0  0  0  0  0  0  0  0  0
  146.3771  129.0373  155.1985 H   0  0  0  0  0  0  0  0  0  0  0  0
  146.5214  131.4589  154.7545 H   0  0  0  0  0  0  0  0  0  0  0  0
  145.6316  130.6515  153.4793 H   0  0  0  0  0  0  0  0  0  0  0  0
  148.3424  134.7955  154.7569 H   0  0  0  0  0  0  0  0  0  0  0  0
  1  2  1  0  0  0  0
  1 16  1  0  0  0  0
  1 17  1  0  0  0  0
  1 33  1  0  0  0  0
  2  3  1  0  0  0  0
  2 18  1  0  0  0  0
  2 19  1  0  0  0  0
  3  4  1  0  0  0  0
  3 10  1  0  0  0  0
  3 20  1  0  0  0  0
  4  9  1  0  0  0  0
  4  5  2  0  0  0  0
  5  6  1  0  0  0  0
  5 21  1  0  0  0  0
  6  7  2  0  0  0  0
  6 22  1  0  0  0  0
  7  8  1  0  0  0  0
  7 23  1  0  0  0  0
  8  9  2  0  0  0  0
  9 24  1  0  0  0  0
 10 15  1  0  0  0  0
 10 11  1  0  0  0  0
 11 12  1  0  0  0  0
 11 25  1  0  0  0  0
 11 26  1  0  0  0  0
 12 13  1  0  0  0  0
 12 27  1  0  0  0  0
 12 28  1  0  0  0  0
 13 14  1  0  0  0  0
 14 15  1  0  0  0  0
 14 29  1  0  0  0  0
 14 30  1  0  0  0  0
 15 31  1  0  0  0  0
 15 32  1  0  0  0  0
M  CHG  1   1   1
M  END
> <s_m_source_file>
AV-unprocessed.smi

> <i_m_source_file_index>
3042

> <i_lp_mmshare_version>
43012

> <i_f3d_flags>
0

> <s_epik_input>
W0NIMl0xW0NIMl1PW0NIMl1bQ0gyXU4xW0NASF0oW0NIMl1bTkgyXSljMltjSF1bY0hdW2NIXW5bY0hdMg==

> <s_epik_cmdline>
J2VwaWtfcHl0aG9uJywgJy1waCcsICc3LjAnLCAnLXRuJywgJzgnLCAnLW1hJywgJzIwMCcsICctbWV0YWxfYmluZGluZycsICctaW1hZScsICc8aW5maWxlLm1hZT4nLCAnLW9tYWUnLCAnPG91dGZpbGUubWFlPic=

> <r_epik_Ionization_Penalty>
0.0112597

> <r_epik_Ionization_Penalty_Charging>
0.00794922

> <r_epik_Ionization_Penalty_Neutral>
0.00331052

> <r_epik_State_Penalty>
0.00596555

> <r_epik_Charging_Adjusted_Penalty>
0.0139148

> <i_epik_Tot_Q>
1

> <i_epik_Tot_abs_Q>
1

> <r_epik_Metal_State_Penalty>
0.00603286

> <b_epik_Metal_Only>
0

> <s_lp_Force_Field>
OPLS_2005

> <r_lp_Energy>
28.2789

> <b_lp_Chiralities_Consistent>
1

> <s_lp_Variant>
AV-unprocessed.smi:3042-1

> <Gold.Version>
5.8.1

> <Gold.Id.Protein>
6NUR|6NUR_protein|mol2

> <Gold.PLP.Fitness>
37.1638

> <Gold.PLP.PLP>
-23.7732

> <Gold.PLP.part.hbond>
-2.0000

> <Gold.PLP.part.metal>
0.0000

> <Gold.PLP.part.buried>
-3.6106

> <Gold.PLP.part.nonpolar>
-19.2655

> <Gold.PLP.part.repulsive>
0.7630

> <Gold.PLP.ligand.clash>
0.0000

> <Gold.PLP.ligand.torsion>
0.3266

> <Gold.PLP.Chemscore.Hbond>
2.1579

> <Gold.PLP.Chemscore.CHOScore>
2.4997

> <Gold.PLP.Chemscore.Metal>
0.0000

> <Gold.Chemscore.Hbonds>
donor molecule, donor type, donor heavy atom, donor atom, acceptor molecule, acceptor atom, score
      L1  H     1    16       P1  7948  2.00
      P1  H 10785 10796       L1     8  0.09
      L1  C     7    23       P1 10186  0.70
      L1  C     7    23       P1 10952  0.67
      L1  C     9    24       P1 10747  1.00

> <Gold.PLP.Chemscore.Internal.Correction>
0.0712

> <Gold.Rescore>
     Score         DG    S(hbond)    S(metal)    S(lipo)     H(rot)  DE(clash)    DE(int)     intcor
     12.43     -12.98       0.99        0.00      68.20       1.48       0.17       0.37       ----

> <Gold.Chemscore.Fitness>
12.4280

> <Gold.Chemscore.DG>
-12.9768

> <Gold.Chemscore.ZeroCoef>
-5.4800

> <Gold.Chemscore.Hbond>
0.9933

> <Gold.Chemscore.Metal>
0.0000

> <Gold.Chemscore.Lipo>
68.2030

> <Gold.Chemscore.Internal_Hbond>
0.0000

> <Gold.Chemscore.DEClash>
0.1737

> <Gold.Chemscore.DEInternal>
0.3750

> <Gold.Chemscore.Rot>
1.4846

> <Gold.Chemscore.Internal.Correction>
   9.000000E+99

> <Gold.Chemscore.Hbonds>
donor molecule, donor type, donor heavy atom, donor atom, acceptor molecule, acceptor atom, score
      L1  H     1    16       P1  7948  0.45
      P1  H 10785 10796       L1     8  0.01

> <Gold.Chemscore.Hbond.Weighted>
-3.3175

> <Gold.Chemscore.Metal.Weighted>
-0.0000

> <Gold.Chemscore.Lipo.Weighted>
-7.9797

> <Gold.Chemscore.Internal_Hbond.Weighted>
0.0000

> <Gold.Chemscore.DEClash.Weighted>
0.1737

> <Gold.Chemscore.DEInternal.Weighted>
0.3750

> <Gold.Chemscore.Rot.Weighted>
3.8005

> <Gold.Chemscore.Internal.Correction.Weighted>
   9.000000E+99

> <Gold.Protein.RotatedTorsions>
[ 6907 6896 6895 6894 ] final  -47.76 input  -60.11 | X-H torsion
[ 7974 7965 7964 7962 ] final  141.64 input  175.53 | X-H torsion
[ 8008 7997 7996 7995 ] final   -9.14 input   59.86 | X-H torsion
[ 10167 10162 10161 10158 ] final  -79.71 input  -65.29 | X-H torsion
[ 10718 10713 10712 10709 ] final  -82.57 input   66.30 | X-H torsion
[ 10763 10752 10751 10750 ] final -122.45 input  -60.55 | X-H torsion
[ 11005 11000 10999 10996 ] final   21.54 input  -57.11 | X-H torsion

> <Gold.Protein.ActiveResidues>
 VAL166  LYS551  ARG553  GLY616  TRP617  ASP618  TYR619  PRO620  LYS621  CYS622 
 ASP623  PHE694  ASN695  SER759  ASP760  ASP761  ALA762  ILE779  LEU786  VAL792 
 PHE793  MET794  SER795  GLU796  ALA797  LYS798  CYS799  TRP800  GLU811  SER814 

> <Gold.Protein.RotatedAtoms>
  150.8975  134.8384  159.7336 H   0  0  0  0  0  0  0  0  0  0  0  0  # atno 6907 bound_to 6896
  152.4873  134.4554  159.9598 H   0  0  0  0  0  0  0  0  0  0  0  0  # atno 6908 bound_to 6896
  151.4609  133.3554  159.2844 H   0  0  0  0  0  0  0  0  0  0  0  0  # atno 6909 bound_to 6896
  144.9079  139.5333  143.5723 H   0  0  0  0  0  0  0  0  0  0  0  0  # atno 7974 bound_to 7965
  154.5675  140.2363  155.8241 H   0  0  0  0  0  0  0  0  0  0  0  0  # atno 8008 bound_to 7997
  156.2080  140.3034  155.9628 H   0  0  0  0  0  0  0  0  0  0  0  0  # atno 8009 bound_to 7997
  155.2774  140.0421  157.3003 H   0  0  0  0  0  0  0  0  0  0  0  0  # atno 8010 bound_to 7997
  140.4569  143.2465  151.8406 H   0  0  0  0  0  0  0  0  0  0  0  0  # atno 10167 bound_to 10162
  156.0031  130.4638  150.4124 H   0  0  0  0  0  0  0  0  0  0  0  0  # atno 10718 bound_to 10713
  154.8689  135.4132  154.2784 H   0  0  0  0  0  0  0  0  0  0  0  0  # atno 10763 bound_to 10752
  153.3681  135.7006  153.6665 H   0  0  0  0  0  0  0  0  0  0  0  0  # atno 10764 bound_to 10752
  153.5538  135.3623  155.2742 H   0  0  0  0  0  0  0  0  0  0  0  0  # atno 10765 bound_to 10752
  140.3905  134.1824  155.7662 H   0  0  0  0  0  0  0  0  0  0  0  0  # atno 11005 bound_to 11000
  146.3143  139.7861  142.8995 LP  0  0  0  0  0  0  0  0  0  0  0  0  # atno 17320 bound_to 7965
  145.3505  141.0306  143.3341 LP  0  0  0  0  0  0  0  0  0  0  0  0  # atno 17321 bound_to 7965
  139.4802  144.5054  151.9005 LP  0  0  0  0  0  0  0  0  0  0  0  0  # atno 17342 bound_to 10162
  140.4140  144.2331  150.5888 LP  0  0  0  0  0  0  0  0  0  0  0  0  # atno 17343 bound_to 10162
  157.2186  131.0477  151.2559 LP  0  0  0  0  0  0  0  0  0  0  0  0  # atno 17370 bound_to 10713
  157.3821  130.7237  149.6638 LP  0  0  0  0  0  0  0  0  0  0  0  0  # atno 17371 bound_to 10713
  141.1892  133.8242  157.0964 LP  0  0  0  0  0  0  0  0  0  0  0  0  # atno 17394 bound_to 11000
  140.0410  134.9854  157.0962 LP  0  0  0  0  0  0  0  0  0  0  0  0  # atno 17395 bound_to 11000

$$$$
