AV-unprocessed.smi:316|AV-procd|sdf|2325|dock4
  -GOLD-   2262022223D 1   1.00000     0.00000
 Structure written by MMmdl.
 43 44  0  0  0  0  0  0  0  0  2 V2000
  146.0089  142.8321  155.4521 C   0  0  0  0  0  0  0  0  0  0  0  0
  147.4441  142.7369  155.2336 N   0  0  0  0  0  0  0  0  0  0  0  0
  148.0880  141.5991  154.9371 C   0  0  0  0  0  0  0  0  0  0  0  0
  147.5168  140.5144  154.8199 O   0  0  0  0  0  0  0  0  0  0  0  0
  149.6032  141.7152  154.7408 C   0  0  0  0  0  0  0  0  0  0  0  0
  150.4003  140.6208  155.4787 C   0  0  0  0  0  0  0  0  0  0  0  0
  150.7787  141.0431  156.8226 N   0  0  0  0  0  0  0  0  0  0  0  0
  151.7666  140.5002  157.5476 C   0  0  0  0  0  0  0  0  0  0  0  0
  152.4787  139.5791  157.1483 O   0  0  0  0  0  0  0  0  0  0  0  0
  151.8851  141.1036  158.7421 N   0  0  0  0  0  0  0  0  0  0  0  0
  152.8531  140.8463  159.7535 C   0  0  0  0  0  0  0  0  0  0  0  0
  153.2832  139.5237  160.0332 C   0  0  0  0  0  0  0  0  0  0  0  0
  154.1889  139.2863  161.0838 C   0  0  0  0  0  0  0  0  0  0  0  0
  154.6389  140.3734  161.8520 C   0  0  0  0  0  0  0  0  0  0  0  0
  154.2013  141.6178  161.5699 N   0  3  0  0  0  0  0  0  0  0  0  0
  153.3422  141.9131  160.5623 C   0  0  0  0  0  0  0  0  0  0  0  0
  152.9820  143.2677  160.3785 N   0  0  0  0  0  0  0  0  0  0  0  0
  153.0596  143.8797  159.0571 C   0  0  0  0  0  0  0  0  0  0  0  0
  152.2768  145.1841  159.1783 C   0  0  0  0  0  0  0  0  0  0  0  0
  151.1613  144.8084  160.1491 C   0  0  0  0  0  0  0  0  0  0  0  0
  151.8242  143.7985  161.0918 C   0  0  0  0  0  0  0  0  0  0  0  0
  145.7382  143.8579  155.7022 H   0  0  0  0  0  0  0  0  0  0  0  0
  145.6962  142.1869  156.2742 H   0  0  0  0  0  0  0  0  0  0  0  0
  145.4606  142.5437  154.5543 H   0  0  0  0  0  0  0  0  0  0  0  0
  147.9805  143.5892  155.3089 H   0  0  0  0  0  0  0  0  0  0  0  0
  149.8105  141.6760  153.6707 H   0  0  0  0  0  0  0  0  0  0  0  0
  149.9269  142.6980  155.0874 H   0  0  0  0  0  0  0  0  0  0  0  0
  149.7975  139.7165  155.5723 H   0  0  0  0  0  0  0  0  0  0  0  0
  151.2929  140.3428  154.9150 H   0  0  0  0  0  0  0  0  0  0  0  0
  150.2451  141.7983  157.2280 H   0  0  0  0  0  0  0  0  0  0  0  0
  151.2926  141.9062  158.8974 H   0  0  0  0  0  0  0  0  0  0  0  0
  152.9133  138.6804  159.4693 H   0  0  0  0  0  0  0  0  0  0  0  0
  154.5226  138.2829  161.3043 H   0  0  0  0  0  0  0  0  0  0  0  0
  155.3269  140.2867  162.6803 H   0  0  0  0  0  0  0  0  0  0  0  0
  154.0934  144.0540  158.7572 H   0  0  0  0  0  0  0  0  0  0  0  0
  152.5878  143.2383  158.3113 H   0  0  0  0  0  0  0  0  0  0  0  0
  152.9065  145.9596  159.6167 H   0  0  0  0  0  0  0  0  0  0  0  0
  151.9061  145.5485  158.2199 H   0  0  0  0  0  0  0  0  0  0  0  0
  150.7447  145.6685  160.6742 H   0  0  0  0  0  0  0  0  0  0  0  0
  150.3505  144.3237  159.6037 H   0  0  0  0  0  0  0  0  0  0  0  0
  151.1261  143.0139  161.3868 H   0  0  0  0  0  0  0  0  0  0  0  0
  152.1696  144.3037  161.9942 H   0  0  0  0  0  0  0  0  0  0  0  0
  154.5451  142.3857  162.1467 H   0  0  0  0  0  0  0  0  0  0  0  0
  1  2  1  0  0  0  0
  1 22  1  0  0  0  0
  1 23  1  0  0  0  0
  1 24  1  0  0  0  0
  2  3  1  0  0  0  0
  2 25  1  0  0  0  0
  3  4  2  0  0  0  0
  3  5  1  0  0  0  0
  5  6  1  0  0  0  0
  5 26  1  0  0  0  0
  5 27  1  0  0  0  0
  6  7  1  0  0  0  0
  6 28  1  0  0  0  0
  6 29  1  0  0  0  0
  7  8  1  0  0  0  0
  7 30  1  0  0  0  0
  8  9  2  0  0  0  0
  8 10  1  0  0  0  0
 10 11  1  0  0  0  0
 10 31  1  0  0  0  0
 11 16  1  0  0  0  0
 11 12  2  0  0  0  0
 12 13  1  0  0  0  0
 12 32  1  0  0  0  0
 13 14  2  0  0  0  0
 13 33  1  0  0  0  0
 14 15  1  0  0  0  0
 14 34  1  0  0  0  0
 15 16  2  0  0  0  0
 15 43  1  0  0  0  0
 16 17  1  0  0  0  0
 17 21  1  0  0  0  0
 17 18  1  0  0  0  0
 18 19  1  0  0  0  0
 18 35  1  0  0  0  0
 18 36  1  0  0  0  0
 19 20  1  0  0  0  0
 19 37  1  0  0  0  0
 19 38  1  0  0  0  0
 20 21  1  0  0  0  0
 20 39  1  0  0  0  0
 20 40  1  0  0  0  0
 21 41  1  0  0  0  0
 21 42  1  0  0  0  0
M  CHG  1  15   1
M  END
> <s_m_source_file>
AV-unprocessed.smi

> <i_m_source_file_index>
316

> <i_lp_mmshare_version>
43012

> <i_f3d_flags>
0

> <s_epik_input>
W0NIM11bTkhdQyg9TylbQ0gyXVtDSDJdW05IXUMoPU8pW05IXWMxW2NIXVtjSF1bY0hdbmMxTjJbQ0gyXVtDSDJdW0NIMl1bQ0gyXTI=

> <s_epik_cmdline>
J2VwaWtfcHl0aG9uJywgJy1waCcsICc3LjAnLCAnLXRuJywgJzgnLCAnLW1hJywgJzIwMCcsICctbWV0YWxfYmluZGluZycsICctaW1hZScsICc8aW5maWxlLm1hZT4nLCAnLW9tYWUnLCAnPG91dGZpbGUubWFlPic=

> <r_lp_tautomer_probability>
0.999994

> <r_epik_Ionization_Penalty>
1.15434

> <r_epik_Ionization_Penalty_Charging>
1.15432

> <r_epik_Ionization_Penalty_Neutral>
1.92607e-05

> <r_epik_State_Penalty>
1.21599

> <r_epik_Charging_Adjusted_Penalty>
2.37031

> <i_epik_Tot_Q>
1

> <i_epik_Tot_abs_Q>
1

> <r_epik_Metal_State_Penalty>
1.29606

> <b_epik_Metal_Only>
0

> <s_lp_Force_Field>
OPLS_2005

> <r_lp_Energy>
36.337

> <b_lp_Chiralities_Consistent>
1

> <s_lp_Variant>
AV-unprocessed.smi:316-2

> <Gold.Version>
5.8.1

> <Gold.Id.Protein>
6NUR|6NUR_protein|mol2

> <Gold.PLP.Fitness>
47.4822

> <Gold.PLP.PLP>
-43.5252

> <Gold.PLP.part.hbond>
-3.0000

> <Gold.PLP.part.metal>
0.0000

> <Gold.PLP.part.buried>
-4.4566

> <Gold.PLP.part.nonpolar>
-35.9696

> <Gold.PLP.part.repulsive>
0.3408

> <Gold.PLP.ligand.clash>
0.0000

> <Gold.PLP.ligand.torsion>
1.2395

> <Gold.PLP.Chemscore.Hbond>
2.0000

> <Gold.PLP.Chemscore.CHOScore>
0.0000

> <Gold.PLP.Chemscore.Metal>
0.0000

> <Gold.Chemscore.Hbonds>
donor molecule, donor type, donor heavy atom, donor atom, acceptor molecule, acceptor atom, score
      L1  H     2    25       P1  8028  0.81
      P1  H  7997  8009       L1     9  0.99

> <Gold.PLP.Chemscore.Internal.Correction>
0.4361

> <Gold.Rescore>
     Score         DG    S(hbond)    S(metal)    S(lipo)     H(rot)  DE(clash)    DE(int)     intcor
     13.95     -17.14       1.72        0.00      93.75       1.98       0.07       3.12       ----

> <Gold.Chemscore.Fitness>
13.9508

> <Gold.Chemscore.DG>
-17.1366

> <Gold.Chemscore.ZeroCoef>
-5.4800

> <Gold.Chemscore.Hbond>
1.7203

> <Gold.Chemscore.Metal>
0.0000

> <Gold.Chemscore.Lipo>
93.7543

> <Gold.Chemscore.Internal_Hbond>
0.0000

> <Gold.Chemscore.DEClash>
0.0659

> <Gold.Chemscore.DEInternal>
3.1199

> <Gold.Chemscore.Rot>
1.9760

> <Gold.Chemscore.Internal.Correction>
   9.000000E+99

> <Gold.Chemscore.Hbonds>
donor molecule, donor type, donor heavy atom, donor atom, acceptor molecule, acceptor atom, score
      L1  H     2    25       P1  8028  0.35
      P1  H  7997  8009       L1     9  0.86

> <Gold.Chemscore.Hbond.Weighted>
-5.7458

> <Gold.Chemscore.Metal.Weighted>
-0.0000

> <Gold.Chemscore.Lipo.Weighted>
-10.9693

> <Gold.Chemscore.Internal_Hbond.Weighted>
0.0000

> <Gold.Chemscore.DEClash.Weighted>
0.0659

> <Gold.Chemscore.DEInternal.Weighted>
3.1199

> <Gold.Chemscore.Rot.Weighted>
5.0585

> <Gold.Chemscore.Internal.Correction.Weighted>
   9.000000E+99

> <Gold.Protein.RotatedTorsions>
[ 6907 6896 6895 6894 ] final -105.35 input  -60.11 | X-H torsion
[ 7974 7965 7964 7962 ] final  130.74 input  175.53 | X-H torsion
[ 8008 7997 7996 7995 ] final -173.71 input   59.86 | X-H torsion
[ 10167 10162 10161 10158 ] final   75.56 input  -65.29 | X-H torsion
[ 10718 10713 10712 10709 ] final  -50.64 input   66.30 | X-H torsion
[ 10763 10752 10751 10750 ] final    9.18 input  -60.55 | X-H torsion
[ 11005 11000 10999 10996 ] final  -25.19 input  -57.11 | X-H torsion

> <Gold.Protein.ActiveResidues>
 VAL166  LYS551  ARG553  GLY616  TRP617  ASP618  TYR619  PRO620  LYS621  CYS622 
 ASP623  PHE694  ASN695  SER759  ASP760  ASP761  ALA762  ILE779  LEU786  VAL792 
 PHE793  MET794  SER795  GLU796  ALA797  LYS798  CYS799  TRP800  GLU811  SER814 

> <Gold.Protein.RotatedAtoms>
  150.7333  134.0139  159.3678 H   0  0  0  0  0  0  0  0  0  0  0  0  # atno 6907 bound_to 6896
  151.8100  135.0681  160.0421 H   0  0  0  0  0  0  0  0  0  0  0  0  # atno 6908 bound_to 6896
  152.3079  133.5686  159.5698 H   0  0  0  0  0  0  0  0  0  0  0  0  # atno 6909 bound_to 6896
  145.0147  139.4187  143.5227 H   0  0  0  0  0  0  0  0  0  0  0  0  # atno 7974 bound_to 7965
  155.9609  140.1144  157.0896 H   0  0  0  0  0  0  0  0  0  0  0  0  # atno 8008 bound_to 7997
  154.4132  140.1182  156.5245 H   0  0  0  0  0  0  0  0  0  0  0  0  # atno 8009 bound_to 7997
  155.6721  140.3473  155.4825 H   0  0  0  0  0  0  0  0  0  0  0  0  # atno 8010 bound_to 7997
  140.0016  144.5682  150.7732 H   0  0  0  0  0  0  0  0  0  0  0  0  # atno 10167 bound_to 10162
  156.1782  130.4150  149.9545 H   0  0  0  0  0  0  0  0  0  0  0  0  # atno 10718 bound_to 10713
  153.2168  135.6876  153.8047 H   0  0  0  0  0  0  0  0  0  0  0  0  # atno 10763 bound_to 10752
  153.7260  135.3260  155.3277 H   0  0  0  0  0  0  0  0  0  0  0  0  # atno 10764 bound_to 10752
  154.8250  135.4624  154.0999 H   0  0  0  0  0  0  0  0  0  0  0  0  # atno 10765 bound_to 10752
  140.8915  133.7585  156.0426 H   0  0  0  0  0  0  0  0  0  0  0  0  # atno 11005 bound_to 11000
  146.3476  139.9611  142.8717 LP  0  0  0  0  0  0  0  0  0  0  0  0  # atno 17320 bound_to 7965
  145.1975  140.9840  143.4175 LP  0  0  0  0  0  0  0  0  0  0  0  0  # atno 17321 bound_to 7965
  140.7416  143.2821  151.3569 LP  0  0  0  0  0  0  0  0  0  0  0  0  # atno 17342 bound_to 10162
  139.6267  144.0799  152.2441 LP  0  0  0  0  0  0  0  0  0  0  0  0  # atno 17343 bound_to 10162
  156.7324  130.9048  151.3626 LP  0  0  0  0  0  0  0  0  0  0  0  0  # atno 17370 bound_to 10713
  157.6850  130.9177  150.0364 LP  0  0  0  0  0  0  0  0  0  0  0  0  # atno 17371 bound_to 10713
  140.8341  134.3143  157.5338 LP  0  0  0  0  0  0  0  0  0  0  0  0  # atno 17394 bound_to 11000
  139.8730  134.9380  156.3702 LP  0  0  0  0  0  0  0  0  0  0  0  0  # atno 17395 bound_to 11000

$$$$
