AV-unprocessed.smi:2973|AV-procd|sdf|11337|dock8
  -GOLD-   2272016243D 1   1.00000     0.00000
 Structure written by MMmdl.
 49 51  0  0  0  0  0  0  0  0  1 V2000
  145.9808  130.2013  152.2573 C   0  0  0  0  0  0  0  0  0  0  0  0
  145.0546  131.4099  152.0043 C   0  0  2  0  0  0  0  0  0  0  0  0
  144.7960  131.5915  150.4929 C   0  0  0  0  0  0  0  0  0  0  0  0
  143.8006  132.7298  150.2197 C   0  0  0  0  0  0  0  0  0  0  0  0
  144.2743  134.0512  150.8406 C   0  0  0  0  0  0  0  0  0  0  0  0
  144.5371  133.8943  152.3489 C   0  0  0  0  0  0  0  0  0  0  0  0
  145.5179  132.7405  152.6787 C   0  0  1  0  0  0  0  0  0  0  0  0
  145.6230  132.5881  154.1195 N   0  0  0  0  0  0  0  0  0  0  0  0
  146.8543  132.8247  154.5880 C   0  0  0  0  0  0  0  0  0  0  0  0
  147.1895  132.7521  155.7692 O   0  0  0  0  0  0  0  0  0  0  0  0
  147.6472  133.1430  153.5499 N   0  0  0  0  0  0  0  0  0  0  0  0
  149.0838  133.4245  153.6677 C   0  0  0  0  0  0  0  0  0  0  0  0
  149.4129  134.4543  154.7583 C   0  0  0  0  0  0  0  0  0  0  0  0
  149.7001  134.0988  155.9026 O   0  0  0  0  0  0  0  0  0  0  0  0
  149.3733  135.7397  154.3777 N   0  0  0  0  0  0  0  0  0  0  0  0
  149.6259  136.8815  155.2489 C   0  0  0  0  0  0  0  0  0  0  0  0
  150.4656  137.9622  154.5481 C   0  0  0  0  0  0  0  0  0  0  0  0
  150.6527  139.1901  155.4189 C   0  0  0  0  0  0  0  0  0  0  0  0
  151.1618  139.0722  156.7299 C   0  0  0  0  0  0  0  0  0  0  0  0
  151.3331  140.2448  157.4909 C   0  0  0  0  0  0  0  0  0  0  0  0
  150.9913  141.4835  156.9146 C   0  0  0  0  0  0  0  0  0  0  0  0
  150.4909  141.4945  155.5973 C   0  0  0  0  0  0  0  0  0  0  0  0
  150.3233  140.3762  154.8590 N   0  0  0  0  0  0  0  0  0  0  0  0
  146.9727  133.1202  152.3921 C   0  0  0  0  0  0  0  0  0  0  0  0
  147.4273  133.3522  151.2715 O   0  0  0  0  0  0  0  0  0  0  0  0
  146.9622  130.3404  151.8034 H   0  0  0  0  0  0  0  0  0  0  0  0
  145.5543  129.2917  151.8341 H   0  0  0  0  0  0  0  0  0  0  0  0
  146.1281  130.0210  153.3220 H   0  0  0  0  0  0  0  0  0  0  0  0
  144.0951  131.1503  152.4550 H   0  0  0  0  0  0  0  0  0  0  0  0
  145.7310  131.7865  149.9674 H   0  0  0  0  0  0  0  0  0  0  0  0
  144.4024  130.6656  150.0719 H   0  0  0  0  0  0  0  0  0  0  0  0
  143.6632  132.8531  149.1452 H   0  0  0  0  0  0  0  0  0  0  0  0
  142.8241  132.4652  150.6272 H   0  0  0  0  0  0  0  0  0  0  0  0
  145.1759  134.3940  150.3330 H   0  0  0  0  0  0  0  0  0  0  0  0
  143.5231  134.8244  150.6775 H   0  0  0  0  0  0  0  0  0  0  0  0
  144.9097  134.8387  152.7490 H   0  0  0  0  0  0  0  0  0  0  0  0
  143.5871  133.7130  152.8537 H   0  0  0  0  0  0  0  0  0  0  0  0
  144.8384  132.3238  154.6976 H   0  0  0  0  0  0  0  0  0  0  0  0
  149.6356  132.5073  153.8797 H   0  0  0  0  0  0  0  0  0  0  0  0
  149.4636  133.7839  152.7095 H   0  0  0  0  0  0  0  0  0  0  0  0
  149.1336  135.9425  153.4179 H   0  0  0  0  0  0  0  0  0  0  0  0
  148.6621  137.2971  155.5443 H   0  0  0  0  0  0  0  0  0  0  0  0
  150.1148  136.5502  156.1668 H   0  0  0  0  0  0  0  0  0  0  0  0
  151.4469  137.5666  154.2822 H   0  0  0  0  0  0  0  0  0  0  0  0
  149.9901  138.2561  153.6112 H   0  0  0  0  0  0  0  0  0  0  0  0
  151.4198  138.1078  157.1427 H   0  0  0  0  0  0  0  0  0  0  0  0
  151.7215  140.1944  158.4973 H   0  0  0  0  0  0  0  0  0  0  0  0
  151.1102  142.4034  157.4676 H   0  0  0  0  0  0  0  0  0  0  0  0
  150.2201  142.4266  155.1237 H   0  0  0  0  0  0  0  0  0  0  0  0
  1  2  1  0  0  0  0
  1 26  1  0  0  0  0
  1 27  1  0  0  0  0
  1 28  1  0  0  0  0
  2  7  1  0  0  0  0
  2  3  1  0  0  0  0
  2 29  1  0  0  0  0
  3  4  1  0  0  0  0
  3 30  1  0  0  0  0
  3 31  1  0  0  0  0
  4  5  1  0  0  0  0
  4 32  1  0  0  0  0
  4 33  1  0  0  0  0
  5  6  1  0  0  0  0
  5 34  1  0  0  0  0
  5 35  1  0  0  0  0
  6  7  1  0  0  0  0
  6 36  1  0  0  0  0
  6 37  1  0  0  0  0
  7 24  1  0  0  0  0
  7  8  1  0  0  0  0
  8  9  1  0  0  0  0
  8 38  1  0  0  0  0
  9 10  2  0  0  0  0
  9 11  1  0  0  0  0
 11 12  1  0  0  0  0
 11 24  1  0  0  0  0
 12 13  1  0  0  0  0
 12 39  1  0  0  0  0
 12 40  1  0  0  0  0
 13 14  2  0  0  0  0
 13 15  1  0  0  0  0
 15 16  1  0  0  0  0
 15 41  1  0  0  0  0
 16 17  1  0  0  0  0
 16 42  1  0  0  0  0
 16 43  1  0  0  0  0
 17 18  1  0  0  0  0
 17 44  1  0  0  0  0
 17 45  1  0  0  0  0
 18 23  1  0  0  0  0
 18 19  2  0  0  0  0
 19 20  1  0  0  0  0
 19 46  1  0  0  0  0
 20 21  2  0  0  0  0
 20 47  1  0  0  0  0
 21 22  1  0  0  0  0
 21 48  1  0  0  0  0
 22 23  2  0  0  0  0
 22 49  1  0  0  0  0
 24 25  2  0  0  0  0
M  END
> <s_m_source_file>
AV-unprocessed.smi

> <i_m_source_file_index>
2973

> <i_lp_mmshare_version>
43012

> <i_f3d_flags>
0

> <s_epik_input>
W0NIMl0xW0NIMl1bQ0gyXVtDSDJdW0NAQEhdKFtDSDNdKVtDQF0xMltOSF1DKD1PKU4oQzI9TylbQ0gyXUMoPU8pW05IXVtDSDJdW0NIMl1jM1tjSF1bY0hdW2NIXVtjSF1uMw==

> <s_epik_cmdline>
J2VwaWtfcHl0aG9uJywgJy1waCcsICc3LjAnLCAnLXRuJywgJzgnLCAnLW1hJywgJzIwMCcsICctbWV0YWxfYmluZGluZycsICctaW1hZScsICc8aW5maWxlLm1hZT4nLCAnLW9tYWUnLCAnPG91dGZpbGUubWFlPic=

> <r_lp_tautomer_probability>
1

> <r_epik_Ionization_Penalty>
0.0245152

> <r_epik_Ionization_Penalty_Charging>
0

> <r_epik_Ionization_Penalty_Neutral>
0.0245152

> <r_epik_State_Penalty>
0.0198648

> <r_epik_Charging_Adjusted_Penalty>
0.0198648

> <i_epik_Tot_Q>
0

> <i_epik_Tot_abs_Q>
0

> <r_epik_Metal_State_Penalty>
0.0400162

> <b_epik_Metal_Only>
0

> <s_lp_Force_Field>
OPLS_2005

> <r_lp_Energy>
16.1581

> <b_lp_Chiralities_Consistent>
1

> <s_lp_Variant>
AV-unprocessed.smi:2973-1

> <Gold.Version>
5.8.1

> <Gold.Id.Protein>
6NUR|6NUR_protein|mol2

> <Gold.PLP.Fitness>
48.3394

> <Gold.PLP.PLP>
-39.4955

> <Gold.PLP.part.hbond>
-2.7749

> <Gold.PLP.part.metal>
0.0000

> <Gold.PLP.part.buried>
-4.5807

> <Gold.PLP.part.nonpolar>
-32.3957

> <Gold.PLP.part.repulsive>
0.4076

> <Gold.PLP.ligand.clash>
0.0000

> <Gold.PLP.ligand.torsion>
0.6598

> <Gold.PLP.Chemscore.Hbond>
2.3839

> <Gold.PLP.Chemscore.CHOScore>
0.9902

> <Gold.PLP.Chemscore.Metal>
0.0000

> <Gold.Chemscore.Hbonds>
donor molecule, donor type, donor heavy atom, donor atom, acceptor molecule, acceptor atom, score
      L1  H     8    38       P1 10957  0.49
      L1  H    15    41       P1  7948  1.00
      P1  H  7989  7998       L1    23  0.75
      L1  C    22    49       P1  8028  0.58

> <Gold.PLP.Chemscore.Internal.Correction>
0.0409

> <Gold.Rescore>
     Score         DG    S(hbond)    S(metal)    S(lipo)     H(rot)  DE(clash)    DE(int)     intcor
     14.38     -17.78       1.84        0.00      93.24       1.86       0.37       3.04       ----

> <Gold.Chemscore.Fitness>
14.3790

> <Gold.Chemscore.DG>
-17.7803

> <Gold.Chemscore.ZeroCoef>
-5.4800

> <Gold.Chemscore.Hbond>
1.8386

> <Gold.Chemscore.Metal>
0.0000

> <Gold.Chemscore.Lipo>
93.2394

> <Gold.Chemscore.Internal_Hbond>
0.0000

> <Gold.Chemscore.DEClash>
0.3660

> <Gold.Chemscore.DEInternal>
3.0353

> <Gold.Chemscore.Rot>
1.8553

> <Gold.Chemscore.Internal.Correction>
   9.000000E+99

> <Gold.Chemscore.Hbonds>
donor molecule, donor type, donor heavy atom, donor atom, acceptor molecule, acceptor atom, score
      L1  H     8    38       P1 10957  0.31
      L1  H    15    41       P1  7948  0.83
      P1  H  7989  7998       L1    23  0.07

> <Gold.Chemscore.Hbond.Weighted>
-6.1410

> <Gold.Chemscore.Metal.Weighted>
-0.0000

> <Gold.Chemscore.Lipo.Weighted>
-10.9090

> <Gold.Chemscore.Internal_Hbond.Weighted>
0.0000

> <Gold.Chemscore.DEClash.Weighted>
0.3660

> <Gold.Chemscore.DEInternal.Weighted>
3.0353

> <Gold.Chemscore.Rot.Weighted>
4.7497

> <Gold.Chemscore.Internal.Correction.Weighted>
   9.000000E+99

> <Gold.Protein.RotatedTorsions>
[ 6907 6896 6895 6894 ] final  169.88 input  -60.11 | X-H torsion
[ 7974 7965 7964 7962 ] final -140.36 input  175.53 | X-H torsion
[ 8008 7997 7996 7995 ] final  -58.36 input   59.86 | X-H torsion
[ 10167 10162 10161 10158 ] final  -65.32 input  -65.29 | X-H torsion
[ 10718 10713 10712 10709 ] final   60.45 input   66.30 | X-H torsion
[ 10763 10752 10751 10750 ] final  111.49 input  -60.55 | X-H torsion
[ 11005 11000 10999 10996 ] final  129.51 input  -57.11 | X-H torsion

> <Gold.Protein.ActiveResidues>
 VAL166  LYS551  ARG553  GLY616  TRP617  ASP618  TYR619  PRO620  LYS621  CYS622 
 ASP623  PHE694  ASN695  SER759  ASP760  ASP761  ALA762  ILE779  LEU786  VAL792 
 PHE793  MET794  SER795  GLU796  ALA797  LYS798  CYS799  TRP800  GLU811  SER814 

> <Gold.Protein.RotatedAtoms>
  151.8249  133.3400  159.3595 H   0  0  0  0  0  0  0  0  0  0  0  0  # atno 6907 bound_to 6896
  150.7283  134.5538  159.5817 H   0  0  0  0  0  0  0  0  0  0  0  0  # atno 6908 bound_to 6896
  152.2979  134.7647  160.0415 H   0  0  0  0  0  0  0  0  0  0  0  0  # atno 6909 bound_to 6896
  144.8603  140.6209  143.5332 H   0  0  0  0  0  0  0  0  0  0  0  0  # atno 7974 bound_to 7965
  154.4306  140.1086  156.5945 H   0  0  0  0  0  0  0  0  0  0  0  0  # atno 8008 bound_to 7997
  155.5977  140.3493  155.4566 H   0  0  0  0  0  0  0  0  0  0  0  0  # atno 8009 bound_to 7997
  156.0198  140.1237  157.0359 H   0  0  0  0  0  0  0  0  0  0  0  0  # atno 8010 bound_to 7997
  140.5738  143.2320  151.6484 H   0  0  0  0  0  0  0  0  0  0  0  0  # atno 10167 bound_to 10162
  157.5753  130.8939  149.9337 H   0  0  0  0  0  0  0  0  0  0  0  0  # atno 10718 bound_to 10713
  153.4642  135.3715  155.2355 H   0  0  0  0  0  0  0  0  0  0  0  0  # atno 10763 bound_to 10752
  154.8757  135.3916  154.3889 H   0  0  0  0  0  0  0  0  0  0  0  0  # atno 10764 bound_to 10752
  153.4467  135.7085  153.6199 H   0  0  0  0  0  0  0  0  0  0  0  0  # atno 10765 bound_to 10752
  139.9619  134.9600  156.9158 H   0  0  0  0  0  0  0  0  0  0  0  0  # atno 11005 bound_to 11000
  145.4325  139.1547  143.4014 LP  0  0  0  0  0  0  0  0  0  0  0  0  # atno 17320 bound_to 7965
  146.2855  140.4442  142.8759 LP  0  0  0  0  0  0  0  0  0  0  0  0  # atno 17321 bound_to 7965
  139.5131  144.3452  152.0703 LP  0  0  0  0  0  0  0  0  0  0  0  0  # atno 17342 bound_to 10162
  140.2593  144.4084  150.6191 LP  0  0  0  0  0  0  0  0  0  0  0  0  # atno 17343 bound_to 10162
  156.0798  130.3674  150.0603 LP  0  0  0  0  0  0  0  0  0  0  0  0  # atno 17370 bound_to 10713
  156.8750  130.9537  151.3605 LP  0  0  0  0  0  0  0  0  0  0  0  0  # atno 17371 bound_to 10713
  140.5481  134.0654  155.7361 LP  0  0  0  0  0  0  0  0  0  0  0  0  # atno 17394 bound_to 11000
  141.1297  133.9323  157.2561 LP  0  0  0  0  0  0  0  0  0  0  0  0  # atno 17395 bound_to 11000

$$$$
