AV-unprocessed.smi:1060|AV-procd|sdf|4656|dock4
  -GOLD-   22720 3163D 1   1.00000     0.00000
 Structure written by MMmdl.
 37 38  0  0  0  0  0  0  0  0  1 V2000
  149.5861  139.8937  158.0202 O   0  0  0  0  0  0  0  0  0  0  0  0
  150.2980  140.7031  157.4259 C   0  0  0  0  0  0  0  0  0  0  0  0
  151.5991  141.1900  158.0670 C   0  0  0  0  0  0  0  0  0  0  0  0
  151.3528  141.5881  159.4068 O   0  0  0  0  0  0  0  0  0  0  0  0
  152.4220  142.3339  159.9630 C   0  0  0  0  0  0  0  0  0  0  0  0
  152.1285  143.8284  159.7843 C   0  0  2  0  0  0  0  0  0  0  0  0
  150.9540  144.3306  160.6193 C   0  0  0  0  0  0  0  0  0  0  0  0
  150.5165  145.5812  159.8763 C   0  0  0  0  0  0  0  0  0  0  0  0
  151.0690  145.3821  158.4613 C   0  0  0  0  0  0  0  0  0  0  0  0
  151.6813  144.0983  158.4652 O   0  0  0  0  0  0  0  0  0  0  0  0
  150.0420  141.2186  156.2075 N   0  0  0  0  0  0  0  0  0  0  0  0
  148.9457  141.0084  155.3528 C   0  0  0  0  0  0  0  0  0  0  0  0
  147.6622  141.3640  155.6240 C   0  0  0  0  0  0  0  0  0  0  0  0
  146.5793  141.1229  154.6852 C   0  0  0  0  0  0  0  0  0  0  0  0
  145.1357  141.4498  155.0356 C   0  0  0  0  0  0  0  0  0  0  0  0
  144.4395  140.3237  155.1826 F   0  0  0  0  0  0  0  0  0  0  0  0
  145.0569  142.1387  156.1747 F   0  0  0  0  0  0  0  0  0  0  0  0
  144.5616  142.1691  154.0715 F   0  0  0  0  0  0  0  0  0  0  0  0
  146.9105  140.5199  153.5287 C   0  0  0  0  0  0  0  0  0  0  0  0
  148.2296  140.1703  153.2327 N   0  0  0  0  0  0  0  0  0  0  0  0
  149.2746  140.3724  154.0660 C   0  0  0  0  0  0  0  0  0  0  0  0
  150.4093  140.0329  153.7317 O   0  0  0  0  0  0  0  0  0  0  0  0
  148.3991  139.7355  152.3372 H   0  0  0  0  0  0  0  0  0  0  0  0
  152.3377  140.3868  158.0429 H   0  0  0  0  0  0  0  0  0  0  0  0
  151.9914  142.0271  157.4877 H   0  0  0  0  0  0  0  0  0  0  0  0
  152.5612  142.0925  161.0180 H   0  0  0  0  0  0  0  0  0  0  0  0
  153.3445  142.0752  159.4410 H   0  0  0  0  0  0  0  0  0  0  0  0
  153.0169  144.4247  160.0009 H   0  0  0  0  0  0  0  0  0  0  0  0
  150.1458  143.5979  160.6105 H   0  0  0  0  0  0  0  0  0  0  0  0
  151.2233  144.5242  161.6579 H   0  0  0  0  0  0  0  0  0  0  0  0
  149.4321  145.6937  159.8851 H   0  0  0  0  0  0  0  0  0  0  0  0
  150.9511  146.4739  160.3275 H   0  0  0  0  0  0  0  0  0  0  0  0
  150.2903  145.4318  157.7000 H   0  0  0  0  0  0  0  0  0  0  0  0
  151.8178  146.1410  158.2315 H   0  0  0  0  0  0  0  0  0  0  0  0
  150.7518  141.8300  155.8297 H   0  0  0  0  0  0  0  0  0  0  0  0
  147.4015  141.8580  156.5449 H   0  0  0  0  0  0  0  0  0  0  0  0
  146.2036  140.2559  152.7559 H   0  0  0  0  0  0  0  0  0  0  0  0
  1  2  2  0  0  0  0
  2  3  1  0  0  0  0
  2 11  1  0  0  0  0
  3  4  1  0  0  0  0
  3 24  1  0  0  0  0
  3 25  1  0  0  0  0
  4  5  1  0  0  0  0
  5  6  1  0  0  0  0
  5 26  1  0  0  0  0
  5 27  1  0  0  0  0
  6 10  1  0  0  0  0
  6  7  1  0  0  0  0
  6 28  1  0  0  0  0
  7  8  1  0  0  0  0
  7 29  1  0  0  0  0
  7 30  1  0  0  0  0
  8  9  1  0  0  0  0
  8 31  1  0  0  0  0
  8 32  1  0  0  0  0
  9 10  1  0  0  0  0
  9 33  1  0  0  0  0
  9 34  1  0  0  0  0
 11 12  1  0  0  0  0
 11 35  1  0  0  0  0
 12 21  1  0  0  0  0
 12 13  2  0  0  0  0
 13 14  1  0  0  0  0
 13 36  1  0  0  0  0
 14 15  1  0  0  0  0
 14 19  2  0  0  0  0
 15 16  1  0  0  0  0
 15 17  1  0  0  0  0
 15 18  1  0  0  0  0
 19 20  1  0  0  0  0
 19 37  1  0  0  0  0
 20 23  1  0  0  0  0
 20 21  1  0  0  0  0
 21 22  2  0  0  0  0
M  END
> <s_m_source_file>
AV-unprocessed.smi

> <i_m_source_file_index>
1060

> <i_lp_mmshare_version>
43012

> <i_f3d_flags>
0

> <s_epik_input>
Tz1jMVtuSF1bY0hdYyhDKEYpKEYpRilbY0hdYzFbTkhdQyg9TylbQ0gyXU9bQ0gyXVtDQEBIXTJbQ0gyXVtDSDJdW0NIMl1PMg==

> <s_epik_cmdline>
J2VwaWtfcHl0aG9uJywgJy1waCcsICc3LjAnLCAnLXRuJywgJzgnLCAnLW1hJywgJzIwMCcsICctbWV0YWxfYmluZGluZycsICctaW1hZScsICc8aW5maWxlLm1hZT4nLCAnLW9tYWUnLCAnPG91dGZpbGUubWFlPic=

> <r_lp_tautomer_probability>
0.999

> <r_epik_Ionization_Penalty>
0.00950091

> <r_epik_Ionization_Penalty_Charging>
0.00950081

> <r_epik_Ionization_Penalty_Neutral>
1.00143e-07

> <r_epik_State_Penalty>
0.00721819

> <r_epik_Charging_Adjusted_Penalty>
0.016719

> <i_epik_Tot_Q>
0

> <i_epik_Tot_abs_Q>
0

> <r_epik_Metal_State_Penalty>
0.323303

> <b_epik_Metal_Only>
0

> <s_lp_Force_Field>
OPLS_2005

> <r_lp_Energy>
32.1997

> <b_lp_Chiralities_Consistent>
1

> <s_lp_Variant>
AV-unprocessed.smi:1060-1

> <Gold.Version>
5.8.1

> <Gold.Id.Protein>
6NUR|6NUR_protein|mol2

> <Gold.PLP.Fitness>
49.2541

> <Gold.PLP.PLP>
-44.8103

> <Gold.PLP.part.hbond>
-2.6233

> <Gold.PLP.part.metal>
0.0000

> <Gold.PLP.part.buried>
-6.8384

> <Gold.PLP.part.nonpolar>
-37.3586

> <Gold.PLP.part.repulsive>
1.2195

> <Gold.PLP.ligand.clash>
0.0000

> <Gold.PLP.ligand.torsion>
1.2429

> <Gold.PLP.Chemscore.Hbond>
1.7520

> <Gold.PLP.Chemscore.CHOScore>
0.5008

> <Gold.PLP.Chemscore.Metal>
0.0000

> <Gold.Chemscore.Hbonds>
donor molecule, donor type, donor heavy atom, donor atom, acceptor molecule, acceptor atom, score
      L1  H    20    23       P1  7957  0.64
      P1  H  7989  7998       L1    22  0.79
      L1  C    19    37       P1 10175  0.98

> <Gold.PLP.Chemscore.Internal.Correction>
0.1711

> <Gold.Rescore>
     Score         DG    S(hbond)    S(metal)    S(lipo)     H(rot)  DE(clash)    DE(int)     intcor
     13.67     -16.49       1.81        0.00      85.05       1.95       0.18       2.64       ----

> <Gold.Chemscore.Fitness>
13.6664

> <Gold.Chemscore.DG>
-16.4871

> <Gold.Chemscore.ZeroCoef>
-5.4800

> <Gold.Chemscore.Hbond>
1.8131

> <Gold.Chemscore.Metal>
0.0000

> <Gold.Chemscore.Lipo>
85.0451

> <Gold.Chemscore.Internal_Hbond>
0.0000

> <Gold.Chemscore.DEClash>
0.1828

> <Gold.Chemscore.DEInternal>
2.6379

> <Gold.Chemscore.Rot>
1.9527

> <Gold.Chemscore.Internal.Correction>
   9.000000E+99

> <Gold.Chemscore.Hbonds>
donor molecule, donor type, donor heavy atom, donor atom, acceptor molecule, acceptor atom, score
      L1  H    20    23       P1  7957  0.64
      P1  H  7989  7998       L1    22  0.75

> <Gold.Chemscore.Hbond.Weighted>
-6.0559

> <Gold.Chemscore.Metal.Weighted>
-0.0000

> <Gold.Chemscore.Lipo.Weighted>
-9.9503

> <Gold.Chemscore.Internal_Hbond.Weighted>
0.0000

> <Gold.Chemscore.DEClash.Weighted>
0.1828

> <Gold.Chemscore.DEInternal.Weighted>
2.6379

> <Gold.Chemscore.Rot.Weighted>
4.9990

> <Gold.Chemscore.Internal.Correction.Weighted>
   9.000000E+99

> <Gold.Protein.RotatedTorsions>
[ 6907 6896 6895 6894 ] final -173.88 input  -60.11 | X-H torsion
[ 7974 7965 7964 7962 ] final   21.49 input  175.53 | X-H torsion
[ 8008 7997 7996 7995 ] final  -78.48 input   59.86 | X-H torsion
[ 10167 10162 10161 10158 ] final -131.25 input  -65.29 | X-H torsion
[ 10718 10713 10712 10709 ] final  -48.61 input   66.30 | X-H torsion
[ 10763 10752 10751 10750 ] final -172.12 input  -60.55 | X-H torsion
[ 11005 11000 10999 10996 ] final -102.87 input  -57.11 | X-H torsion

> <Gold.Protein.ActiveResidues>
 VAL166  LYS551  ARG553  GLY616  TRP617  ASP618  TYR619  PRO620  LYS621  CYS622 
 ASP623  PHE694  ASN695  SER759  ASP760  ASP761  ALA762  ILE779  LEU786  VAL792 
 PHE793  MET794  SER795  GLU796  ALA797  LYS798  CYS799  TRP800  GLU811  SER814 

> <Gold.Protein.RotatedAtoms>
  151.5633  133.3400  159.2974 H   0  0  0  0  0  0  0  0  0  0  0  0  # atno 6907 bound_to 6896
  150.8410  134.7705  159.6943 H   0  0  0  0  0  0  0  0  0  0  0  0  # atno 6908 bound_to 6896
  152.4478  134.5466  159.9906 H   0  0  0  0  0  0  0  0  0  0  0  0  # atno 6909 bound_to 6896
  146.2069  139.8020  142.8719 H   0  0  0  0  0  0  0  0  0  0  0  0  # atno 7974 bound_to 7965
  154.5693  140.0693  156.8940 H   0  0  0  0  0  0  0  0  0  0  0  0  # atno 8008 bound_to 7997
  155.2664  140.3362  155.4250 H   0  0  0  0  0  0  0  0  0  0  0  0  # atno 8009 bound_to 7997
  156.2106  140.1757  156.7689 H   0  0  0  0  0  0  0  0  0  0  0  0  # atno 8010 bound_to 7997
  139.9209  143.6384  152.2554 H   0  0  0  0  0  0  0  0  0  0  0  0  # atno 10167 bound_to 10162
  156.1972  130.4155  149.9290 H   0  0  0  0  0  0  0  0  0  0  0  0  # atno 10718 bound_to 10713
  154.6229  135.2877  155.0306 H   0  0  0  0  0  0  0  0  0  0  0  0  # atno 10763 bound_to 10752
  154.1494  135.6506  153.4964 H   0  0  0  0  0  0  0  0  0  0  0  0  # atno 10764 bound_to 10752
  153.0244  135.5352  154.7025 H   0  0  0  0  0  0  0  0  0  0  0  0  # atno 10765 bound_to 10752
  141.1170  133.8593  157.1414 H   0  0  0  0  0  0  0  0  0  0  0  0  # atno 11005 bound_to 11000
  145.3286  141.0261  143.3459 LP  0  0  0  0  0  0  0  0  0  0  0  0  # atno 17320 bound_to 7965
  144.8815  139.4898  143.6721 LP  0  0  0  0  0  0  0  0  0  0  0  0  # atno 17321 bound_to 7965
  139.6863  144.7651  151.1519 LP  0  0  0  0  0  0  0  0  0  0  0  0  # atno 17342 bound_to 10162
  140.7662  143.5653  150.9054 LP  0  0  0  0  0  0  0  0  0  0  0  0  # atno 17343 bound_to 10162
  156.7012  130.8933  151.3599 LP  0  0  0  0  0  0  0  0  0  0  0  0  # atno 17370 bound_to 10713
  157.6964  130.9287  150.0658 LP  0  0  0  0  0  0  0  0  0  0  0  0  # atno 17371 bound_to 10713
  140.0100  134.9992  157.0375 LP  0  0  0  0  0  0  0  0  0  0  0  0  # atno 17394 bound_to 11000
  140.4616  134.1478  155.7192 LP  0  0  0  0  0  0  0  0  0  0  0  0  # atno 17395 bound_to 11000

$$$$
