AV-unprocessed.smi:3050|AV-procd|sdf|11631|dock2
  -GOLD-   2272017 23D 1   1.00000     0.00000
 Structure written by MMmdl.
 45 46  0  0  0  0  0  0  0  0  1 V2000
  145.9209  138.3376  158.0804 C   0  0  0  0  0  0  0  0  0  0  0  0
  147.4546  138.3085  158.0709 C   0  0  0  0  0  0  0  0  0  0  0  0
  148.0359  137.1955  158.9632 C   0  0  2  0  0  0  0  0  0  0  0  0
  147.6250  137.4535  160.3055 O   0  0  0  0  0  0  0  0  0  0  0  0
  146.8359  136.4469  160.9330 C   0  0  0  0  0  0  0  0  0  0  0  0
  147.0025  136.5166  162.4496 C   0  0  0  0  0  0  0  0  0  0  0  0
  146.5968  135.1256  162.9450 C   0  0  0  0  0  0  0  0  0  0  0  0
  146.8726  134.1629  161.7791 C   0  0  0  0  0  0  0  0  0  0  0  0
  147.3190  135.0331  160.5977 C   0  0  0  0  0  0  0  0  0  0  0  0
  149.5697  137.1457  158.8673 C   0  0  0  0  0  0  0  0  0  0  0  0
  150.1380  136.1100  158.5206 O   0  0  0  0  0  0  0  0  0  0  0  0
  150.2229  138.2799  159.1639 N   0  0  0  0  0  0  0  0  0  0  0  0
  151.6703  138.4505  159.1291 C   0  0  0  0  0  0  0  0  0  0  0  0
  152.0868  139.5908  158.1863 C   0  0  0  0  0  0  0  0  0  0  0  0
  152.3824  140.8528  158.9465 C   0  0  0  0  0  0  0  0  0  0  0  0
  153.2781  141.0234  160.0404 C   0  0  0  0  0  0  0  0  0  0  0  0
  153.3081  142.2667  160.4917 N   0  0  0  0  0  0  0  0  0  0  0  0
  152.4365  142.9307  159.7050 N   0  0  0  0  0  0  0  0  0  0  0  0
  152.2149  144.3444  159.9210 C   0  0  0  0  0  0  0  0  0  0  0  0
  151.8635  142.1035  158.7632 C   0  0  0  0  0  0  0  0  0  0  0  0
  145.5441  139.1276  157.4305 H   0  0  0  0  0  0  0  0  0  0  0  0
  145.5351  138.5215  159.0834 H   0  0  0  0  0  0  0  0  0  0  0  0
  145.5068  137.3921  157.7296 H   0  0  0  0  0  0  0  0  0  0  0  0
  147.7927  138.1705  157.0429 H   0  0  0  0  0  0  0  0  0  0  0  0
  147.8336  139.2802  158.3908 H   0  0  0  0  0  0  0  0  0  0  0  0
  147.6213  136.2394  158.6364 H   0  0  0  0  0  0  0  0  0  0  0  0
  145.7749  136.5487  160.6964 H   0  0  0  0  0  0  0  0  0  0  0  0
  148.0494  136.6987  162.6974 H   0  0  0  0  0  0  0  0  0  0  0  0
  146.4118  137.3144  162.9008 H   0  0  0  0  0  0  0  0  0  0  0  0
  147.1390  134.8451  163.8485 H   0  0  0  0  0  0  0  0  0  0  0  0
  145.5330  135.1138  163.1851 H   0  0  0  0  0  0  0  0  0  0  0  0
  147.6382  133.4292  162.0338 H   0  0  0  0  0  0  0  0  0  0  0  0
  145.9650  133.6125  161.5275 H   0  0  0  0  0  0  0  0  0  0  0  0
  146.9347  134.6689  159.6460 H   0  0  0  0  0  0  0  0  0  0  0  0
  148.4080  135.0260  160.5354 H   0  0  0  0  0  0  0  0  0  0  0  0
  149.6751  139.0839  159.4343 H   0  0  0  0  0  0  0  0  0  0  0  0
  152.0053  138.6676  160.1438 H   0  0  0  0  0  0  0  0  0  0  0  0
  152.1510  137.5153  158.8364 H   0  0  0  0  0  0  0  0  0  0  0  0
  152.9619  139.2864  157.6112 H   0  0  0  0  0  0  0  0  0  0  0  0
  151.2962  139.7619  157.4548 H   0  0  0  0  0  0  0  0  0  0  0  0
  153.9030  140.2827  160.5174 H   0  0  0  0  0  0  0  0  0  0  0  0
  151.4196  144.7025  159.2668 H   0  0  0  0  0  0  0  0  0  0  0  0
  153.1292  144.8977  159.7045 H   0  0  0  0  0  0  0  0  0  0  0  0
  151.9260  144.5198  160.9577 H   0  0  0  0  0  0  0  0  0  0  0  0
  151.1406  142.4683  158.0483 H   0  0  0  0  0  0  0  0  0  0  0  0
  1  2  1  0  0  0  0
  1 21  1  0  0  0  0
  1 22  1  0  0  0  0
  1 23  1  0  0  0  0
  2  3  1  0  0  0  0
  2 24  1  0  0  0  0
  2 25  1  0  0  0  0
  3  4  1  0  0  0  0
  3 10  1  0  0  0  0
  3 26  1  0  0  0  0
  4  5  1  0  0  0  0
  5  9  1  0  0  0  0
  5  6  1  0  0  0  0
  5 27  1  0  0  0  0
  6  7  1  0  0  0  0
  6 28  1  0  0  0  0
  6 29  1  0  0  0  0
  7  8  1  0  0  0  0
  7 30  1  0  0  0  0
  7 31  1  0  0  0  0
  8  9  1  0  0  0  0
  8 32  1  0  0  0  0
  8 33  1  0  0  0  0
  9 34  1  0  0  0  0
  9 35  1  0  0  0  0
 10 11  2  0  0  0  0
 10 12  1  0  0  0  0
 12 13  1  0  0  0  0
 12 36  1  0  0  0  0
 13 14  1  0  0  0  0
 13 37  1  0  0  0  0
 13 38  1  0  0  0  0
 14 15  1  0  0  0  0
 14 39  1  0  0  0  0
 14 40  1  0  0  0  0
 15 20  2  0  0  0  0
 15 16  1  0  0  0  0
 16 17  2  0  0  0  0
 16 41  1  0  0  0  0
 17 18  1  0  0  0  0
 18 19  1  0  0  0  0
 18 20  1  0  0  0  0
 19 42  1  0  0  0  0
 19 43  1  0  0  0  0
 19 44  1  0  0  0  0
 20 45  1  0  0  0  0
M  END
> <s_m_source_file>
AV-unprocessed.smi

> <i_m_source_file_index>
3050

> <i_lp_mmshare_version>
43012

> <i_f3d_flags>
0

> <s_epik_input>
W0NIMl0xW0NIMl1bQ0gyXVtDSDJdW0NIXTFPW0NAQEhdKFtDSDJdW0NIM10pQyg9TylbTkhdW0NIMl1bQ0gyXWMyW2NIXW5uKFtDSDNdKVtjSF0y

> <s_epik_cmdline>
J2VwaWtfcHl0aG9uJywgJy1waCcsICc3LjAnLCAnLXRuJywgJzgnLCAnLW1hJywgJzIwMCcsICctbWV0YWxfYmluZGluZycsICctaW1hZScsICc8aW5maWxlLm1hZT4nLCAnLW9tYWUnLCAnPG91dGZpbGUubWFlPic=

> <r_lp_tautomer_probability>
1

> <r_epik_Ionization_Penalty>
0.000440265

> <r_epik_Ionization_Penalty_Charging>
0

> <r_epik_Ionization_Penalty_Neutral>
0.000440265

> <r_epik_State_Penalty>
-0

> <r_epik_Charging_Adjusted_Penalty>
0

> <i_epik_Tot_Q>
0

> <i_epik_Tot_abs_Q>
0

> <r_epik_Metal_State_Penalty>
-0

> <b_epik_Metal_Only>
0

> <s_lp_Force_Field>
OPLS_2005

> <r_lp_Energy>
20.5357

> <b_lp_Chiralities_Consistent>
1

> <s_lp_Variant>
AV-unprocessed.smi:3050-1

> <Gold.Version>
5.8.1

> <Gold.Id.Protein>
6NUR|6NUR_protein|mol2

> <Gold.PLP.Fitness>
45.6580

> <Gold.PLP.PLP>
-41.0471

> <Gold.PLP.part.hbond>
-3.0000

> <Gold.PLP.part.metal>
0.0000

> <Gold.PLP.part.buried>
-5.7759

> <Gold.PLP.part.nonpolar>
-33.7059

> <Gold.PLP.part.repulsive>
0.2200

> <Gold.PLP.ligand.clash>
0.0000

> <Gold.PLP.ligand.torsion>
1.3343

> <Gold.PLP.Chemscore.Hbond>
2.3616

> <Gold.PLP.Chemscore.CHOScore>
0.0000

> <Gold.PLP.Chemscore.Metal>
0.0000

> <Gold.Chemscore.Hbonds>
donor molecule, donor type, donor heavy atom, donor atom, acceptor molecule, acceptor atom, score
      P1  H  6896  6909       L1    11  1.00
      P1  H  6931  6943       L1     4  0.24
      P1  H  6934  6947       L1     4  0.90

> <Gold.PLP.Chemscore.Internal.Correction>
0.1948

> <Gold.Rescore>
     Score         DG    S(hbond)    S(metal)    S(lipo)     H(rot)  DE(clash)    DE(int)     intcor
     17.06     -18.38       1.88        0.00      96.63       1.83       0.22       1.10       ----

> <Gold.Chemscore.Fitness>
17.0600

> <Gold.Chemscore.DG>
-18.3790

> <Gold.Chemscore.ZeroCoef>
-5.4800

> <Gold.Chemscore.Hbond>
1.8785

> <Gold.Chemscore.Metal>
0.0000

> <Gold.Chemscore.Lipo>
96.6330

> <Gold.Chemscore.Internal_Hbond>
0.0000

> <Gold.Chemscore.DEClash>
0.2195

> <Gold.Chemscore.DEInternal>
1.0996

> <Gold.Chemscore.Rot>
1.8286

> <Gold.Chemscore.Internal.Correction>
   9.000000E+99

> <Gold.Chemscore.Hbonds>
donor molecule, donor type, donor heavy atom, donor atom, acceptor molecule, acceptor atom, score
      P1  H  6896  6909       L1    11  0.96
      P1  H  6931  6943       L1     4  0.14
      P1  H  6934  6947       L1     4  0.69

> <Gold.Chemscore.Hbond.Weighted>
-6.2741

> <Gold.Chemscore.Metal.Weighted>
-0.0000

> <Gold.Chemscore.Lipo.Weighted>
-11.3061

> <Gold.Chemscore.Internal_Hbond.Weighted>
0.0000

> <Gold.Chemscore.DEClash.Weighted>
0.2195

> <Gold.Chemscore.DEInternal.Weighted>
1.0996

> <Gold.Chemscore.Rot.Weighted>
4.6811

> <Gold.Chemscore.Internal.Correction.Weighted>
   9.000000E+99

> <Gold.Protein.RotatedTorsions>
[ 6907 6896 6895 6894 ] final   73.13 input  -60.11 | X-H torsion
[ 7974 7965 7964 7962 ] final -178.10 input  175.53 | X-H torsion
[ 8008 7997 7996 7995 ] final   29.33 input   59.86 | X-H torsion
[ 10167 10162 10161 10158 ] final  164.85 input  -65.29 | X-H torsion
[ 10718 10713 10712 10709 ] final  145.38 input   66.30 | X-H torsion
[ 10763 10752 10751 10750 ] final  -54.38 input  -60.55 | X-H torsion
[ 11005 11000 10999 10996 ] final  165.60 input  -57.11 | X-H torsion

> <Gold.Protein.ActiveResidues>
 VAL166  LYS551  ARG553  GLY616  TRP617  ASP618  TYR619  PRO620  LYS621  CYS622 
 ASP623  PHE694  ASN695  SER759  ASP760  ASP761  ALA762  ILE779  LEU786  VAL792 
 PHE793  MET794  SER795  GLU796  ALA797  LYS798  CYS799  TRP800  GLU811  SER814 

> <Gold.Protein.RotatedAtoms>
  152.4906  134.4468  159.9561 H   0  0  0  0  0  0  0  0  0  0  0  0  # atno 6907 bound_to 6896
  151.4455  133.3625  159.2795 H   0  0  0  0  0  0  0  0  0  0  0  0  # atno 6908 bound_to 6896
  150.9057  134.8496  159.7451 H   0  0  0  0  0  0  0  0  0  0  0  0  # atno 6909 bound_to 6896
  144.7129  140.0920  143.6421 H   0  0  0  0  0  0  0  0  0  0  0  0  # atno 7974 bound_to 7965
  155.0728  140.3202  155.4625 H   0  0  0  0  0  0  0  0  0  0  0  0  # atno 8008 bound_to 7997
  156.2786  140.2108  156.5801 H   0  0  0  0  0  0  0  0  0  0  0  0  # atno 8009 bound_to 7997
  154.7041  140.0504  157.0474 H   0  0  0  0  0  0  0  0  0  0  0  0  # atno 8010 bound_to 7997
  139.4896  144.4193  151.9206 H   0  0  0  0  0  0  0  0  0  0  0  0  # atno 10167 bound_to 10162
  157.3460  131.0943  151.1042 H   0  0  0  0  0  0  0  0  0  0  0  0  # atno 10718 bound_to 10713
  154.1739  135.6454  153.5016 H   0  0  0  0  0  0  0  0  0  0  0  0  # atno 10763 bound_to 10752
  153.0077  135.5390  154.6584 H   0  0  0  0  0  0  0  0  0  0  0  0  # atno 10764 bound_to 10752
  154.5931  135.2936  155.0587 H   0  0  0  0  0  0  0  0  0  0  0  0  # atno 10765 bound_to 10752
  140.2578  134.7926  157.3562 H   0  0  0  0  0  0  0  0  0  0  0  0  # atno 11005 bound_to 11000
  145.9612  139.2802  143.1154 LP  0  0  0  0  0  0  0  0  0  0  0  0  # atno 17320 bound_to 7965
  145.9219  140.9109  143.0401 LP  0  0  0  0  0  0  0  0  0  0  0  0  # atno 17321 bound_to 7965
  140.3636  144.2942  150.5930 LP  0  0  0  0  0  0  0  0  0  0  0  0  # atno 17342 bound_to 10162
  140.5381  143.2229  151.8130 LP  0  0  0  0  0  0  0  0  0  0  0  0  # atno 17343 bound_to 10162
  157.2236  130.6492  149.5821 LP  0  0  0  0  0  0  0  0  0  0  0  0  # atno 17370 bound_to 10713
  155.9714  130.4621  150.6135 LP  0  0  0  0  0  0  0  0  0  0  0  0  # atno 17371 bound_to 10713
  140.1495  134.4868  155.7972 LP  0  0  0  0  0  0  0  0  0  0  0  0  # atno 17394 bound_to 11000
  141.2194  133.6856  156.7352 LP  0  0  0  0  0  0  0  0  0  0  0  0  # atno 17395 bound_to 11000

$$$$
