AV-unprocessed.smi:2223|AV-procd|sdf|8990|dock4
  -GOLD-   2272012203D 1   1.00000     0.00000
 Structure written by MMmdl.
 46 47  0  0  0  0  0  0  0  0  1 V2000
  143.7863  132.5007  149.8875 C   0  0  0  0  0  0  0  0  0  0  0  0
  144.8656  132.2043  150.9076 C   0  0  0  0  0  0  0  0  0  0  0  0
  145.1371  130.8803  151.3016 C   0  0  0  0  0  0  0  0  0  0  0  0
  146.1555  130.6647  152.2507 C   0  0  0  0  0  0  0  0  0  0  0  0
  146.5008  129.2665  152.7185 C   0  0  0  0  0  0  0  0  0  0  0  0
  146.8812  131.6659  152.7926 N   0  0  0  0  0  0  0  0  0  0  0  0
  146.6305  132.9452  152.4188 C   0  0  0  0  0  0  0  0  0  0  0  0
  147.3366  134.0675  152.9288 N   0  0  0  0  0  0  0  0  0  0  0  0
  147.8163  134.2518  154.1717 C   0  0  0  0  0  0  0  0  0  0  0  0
  147.7221  133.4473  155.0991 O   0  0  0  0  0  0  0  0  0  0  0  0
  148.4303  135.4384  154.2857 N   0  0  0  0  0  0  0  0  0  0  0  0
  149.0714  135.9297  155.5027 C   0  0  1  0  0  0  0  0  0  0  0  0
  150.3706  135.1854  155.8244 C   0  0  0  0  0  0  0  0  0  0  0  0
  151.3487  136.2980  156.1584 C   0  0  0  0  0  0  0  0  0  0  0  0
  152.4743  136.0562  156.5922 O   0  0  0  0  0  0  0  0  0  0  0  0
  150.8268  137.5161  155.9169 N   0  0  0  0  0  0  0  0  0  0  0  0
  151.5059  138.8275  156.0927 C   0  0  0  0  0  0  0  0  0  0  0  0
  152.7889  138.8785  155.2330 C   0  0  0  0  0  0  0  0  0  0  0  0
  151.9167  139.0737  157.5641 C   0  0  0  0  0  0  0  0  0  0  0  0
  150.5523  139.9694  155.6756 C   0  0  0  0  0  0  0  0  0  0  0  0
  149.4780  137.4045  155.3609 C   0  0  0  0  0  0  0  0  0  0  0  0
  145.6233  133.2487  151.4753 C   0  0  0  0  0  0  0  0  0  0  0  0
  143.0161  131.7287  149.9001 H   0  0  0  0  0  0  0  0  0  0  0  0
  144.2164  132.5418  148.8868 H   0  0  0  0  0  0  0  0  0  0  0  0
  143.3085  133.4582  150.0967 H   0  0  0  0  0  0  0  0  0  0  0  0
  144.5806  130.0526  150.8863 H   0  0  0  0  0  0  0  0  0  0  0  0
  145.7485  128.5461  152.3968 H   0  0  0  0  0  0  0  0  0  0  0  0
  146.5605  129.2308  153.8068 H   0  0  0  0  0  0  0  0  0  0  0  0
  147.4645  128.9607  152.3108 H   0  0  0  0  0  0  0  0  0  0  0  0
  147.5015  134.8125  152.2685 H   0  0  0  0  0  0  0  0  0  0  0  0
  148.4636  136.0404  153.4761 H   0  0  0  0  0  0  0  0  0  0  0  0
  148.3848  135.8335  156.3465 H   0  0  0  0  0  0  0  0  0  0  0  0
  150.2505  134.4980  156.6625 H   0  0  0  0  0  0  0  0  0  0  0  0
  150.7505  134.6250  154.9689 H   0  0  0  0  0  0  0  0  0  0  0  0
  153.3382  139.8056  155.4005 H   0  0  0  0  0  0  0  0  0  0  0  0
  152.5784  138.8284  154.1650 H   0  0  0  0  0  0  0  0  0  0  0  0
  153.4600  138.0537  155.4760 H   0  0  0  0  0  0  0  0  0  0  0  0
  152.6327  138.3307  157.9169 H   0  0  0  0  0  0  0  0  0  0  0  0
  151.0578  139.0646  158.2361 H   0  0  0  0  0  0  0  0  0  0  0  0
  152.3952  140.0470  157.6790 H   0  0  0  0  0  0  0  0  0  0  0  0
  151.0058  140.9456  155.8503 H   0  0  0  0  0  0  0  0  0  0  0  0
  149.6227  139.9350  156.2450 H   0  0  0  0  0  0  0  0  0  0  0  0
  150.2922  139.9288  154.6182 H   0  0  0  0  0  0  0  0  0  0  0  0
  149.5016  137.7143  154.3145 H   0  0  0  0  0  0  0  0  0  0  0  0
  148.7641  138.0384  155.8871 H   0  0  0  0  0  0  0  0  0  0  0  0
  145.4338  134.2723  151.1855 H   0  0  0  0  0  0  0  0  0  0  0  0
  1  2  1  0  0  0  0
  1 23  1  0  0  0  0
  1 24  1  0  0  0  0
  1 25  1  0  0  0  0
  2 22  1  0  0  0  0
  2  3  2  0  0  0  0
  3  4  1  0  0  0  0
  3 26  1  0  0  0  0
  4  5  1  0  0  0  0
  4  6  2  0  0  0  0
  5 27  1  0  0  0  0
  5 28  1  0  0  0  0
  5 29  1  0  0  0  0
  6  7  1  0  0  0  0
  7  8  1  0  0  0  0
  7 22  2  0  0  0  0
  8  9  1  0  0  0  0
  8 30  1  0  0  0  0
  9 10  2  0  0  0  0
  9 11  1  0  0  0  0
 11 12  1  0  0  0  0
 11 31  1  0  0  0  0
 12 21  1  0  0  0  0
 12 13  1  0  0  0  0
 12 32  1  0  0  0  0
 13 14  1  0  0  0  0
 13 33  1  0  0  0  0
 13 34  1  0  0  0  0
 14 15  2  0  0  0  0
 14 16  1  0  0  0  0
 16 17  1  0  0  0  0
 16 21  1  0  0  0  0
 17 18  1  0  0  0  0
 17 19  1  0  0  0  0
 17 20  1  0  0  0  0
 18 35  1  0  0  0  0
 18 36  1  0  0  0  0
 18 37  1  0  0  0  0
 19 38  1  0  0  0  0
 19 39  1  0  0  0  0
 19 40  1  0  0  0  0
 20 41  1  0  0  0  0
 20 42  1  0  0  0  0
 20 43  1  0  0  0  0
 21 44  1  0  0  0  0
 21 45  1  0  0  0  0
 22 46  1  0  0  0  0
M  END
> <s_m_source_file>
AV-unprocessed.smi

> <i_m_source_file_index>
2223

> <i_lp_mmshare_version>
43012

> <i_f3d_flags>
0

> <s_epik_input>
W0NIM11jMVtjSF1jKFtDSDNdKW5jKFtjSF0xKVtOSF1DKD1PKVtOSF1bQ0BASF0yW0NIMl1DKD1PKU4oW0NIMl0yKUMoW0NIM10pKFtDSDNdKVtDSDNd

> <s_epik_cmdline>
J2VwaWtfcHl0aG9uJywgJy1waCcsICc3LjAnLCAnLXRuJywgJzgnLCAnLW1hJywgJzIwMCcsICctbWV0YWxfYmluZGluZycsICctaW1hZScsICc8aW5maWxlLm1hZT4nLCAnLW9tYWUnLCAnPG91dGZpbGUubWFlPic=

> <r_lp_tautomer_probability>
1

> <r_epik_Ionization_Penalty>
0.000228403

> <r_epik_Ionization_Penalty_Charging>
0

> <r_epik_Ionization_Penalty_Neutral>
0.000228403

> <r_epik_State_Penalty>
-0

> <r_epik_Charging_Adjusted_Penalty>
0

> <i_epik_Tot_Q>
0

> <i_epik_Tot_abs_Q>
0

> <r_epik_Metal_State_Penalty>
-0

> <b_epik_Metal_Only>
0

> <s_lp_Force_Field>
OPLS_2005

> <r_lp_Energy>
29.0753

> <b_lp_Chiralities_Consistent>
1

> <s_lp_Variant>
AV-unprocessed.smi:2223-2

> <Gold.Version>
5.8.1

> <Gold.Id.Protein>
6NUR|6NUR_protein|mol2

> <Gold.PLP.Fitness>
43.5355

> <Gold.PLP.PLP>
-36.3649

> <Gold.PLP.part.hbond>
-2.6085

> <Gold.PLP.part.metal>
0.0000

> <Gold.PLP.part.buried>
-4.0316

> <Gold.PLP.part.nonpolar>
-29.5820

> <Gold.PLP.part.repulsive>
0.1585

> <Gold.PLP.ligand.clash>
0.0000

> <Gold.PLP.ligand.torsion>
0.3638

> <Gold.PLP.Chemscore.Hbond>
2.6227

> <Gold.PLP.Chemscore.CHOScore>
0.0000

> <Gold.PLP.Chemscore.Metal>
0.0000

> <Gold.Chemscore.Hbonds>
donor molecule, donor type, donor heavy atom, donor atom, acceptor molecule, acceptor atom, score
      L1  H     8    30       P1  7948  0.78
      L1  H    11    31       P1  7948  0.93
      P1  H 10752 10765       L1    15  0.95

> <Gold.PLP.Chemscore.Internal.Correction>
0.0300

> <Gold.Rescore>
     Score         DG    S(hbond)    S(metal)    S(lipo)     H(rot)  DE(clash)    DE(int)     intcor
     17.61     -18.85       1.79        0.00      89.66       1.21       0.04       1.21       ----

> <Gold.Chemscore.Fitness>
17.6106

> <Gold.Chemscore.DG>
-18.8534

> <Gold.Chemscore.ZeroCoef>
-5.4800

> <Gold.Chemscore.Hbond>
1.7870

> <Gold.Chemscore.Metal>
0.0000

> <Gold.Chemscore.Lipo>
89.6641

> <Gold.Chemscore.Internal_Hbond>
0.0000

> <Gold.Chemscore.DEClash>
0.0375

> <Gold.Chemscore.DEInternal>
1.2053

> <Gold.Chemscore.Rot>
1.2055

> <Gold.Chemscore.Internal.Correction>
   9.000000E+99

> <Gold.Chemscore.Hbonds>
donor molecule, donor type, donor heavy atom, donor atom, acceptor molecule, acceptor atom, score
      L1  H     8    30       P1  7948  0.65
      L1  H    11    31       P1  7948  0.90
      P1  H 10752 10765       L1    15  0.22

> <Gold.Chemscore.Hbond.Weighted>
-5.9687

> <Gold.Chemscore.Metal.Weighted>
-0.0000

> <Gold.Chemscore.Lipo.Weighted>
-10.4907

> <Gold.Chemscore.Internal_Hbond.Weighted>
0.0000

> <Gold.Chemscore.DEClash.Weighted>
0.0375

> <Gold.Chemscore.DEInternal.Weighted>
1.2053

> <Gold.Chemscore.Rot.Weighted>
3.0861

> <Gold.Chemscore.Internal.Correction.Weighted>
   9.000000E+99

> <Gold.Protein.RotatedTorsions>
[ 6907 6896 6895 6894 ] final  176.63 input  -60.11 | X-H torsion
[ 7974 7965 7964 7962 ] final  173.99 input  175.53 | X-H torsion
[ 8008 7997 7996 7995 ] final  -40.65 input   59.86 | X-H torsion
[ 10167 10162 10161 10158 ] final -142.53 input  -65.29 | X-H torsion
[ 10718 10713 10712 10709 ] final -146.39 input   66.30 | X-H torsion
[ 10763 10752 10751 10750 ] final -146.40 input  -60.55 | X-H torsion
[ 11005 11000 10999 10996 ] final   70.47 input  -57.11 | X-H torsion

> <Gold.Protein.ActiveResidues>
 VAL166  LYS551  ARG553  GLY616  TRP617  ASP618  TYR619  PRO620  LYS621  CYS622 
 ASP623  PHE694  ASN695  SER759  ASP760  ASP761  ALA762  ILE779  LEU786  VAL792 
 PHE793  MET794  SER795  GLU796  ALA797  LYS798  CYS799  TRP800  GLU811  SER814 

> <Gold.Protein.RotatedAtoms>
  151.7170  133.3313  159.3305 H   0  0  0  0  0  0  0  0  0  0  0  0  # atno 6907 bound_to 6896
  150.7669  134.6481  159.6283 H   0  0  0  0  0  0  0  0  0  0  0  0  # atno 6908 bound_to 6896
  152.3676  134.6784  160.0238 H   0  0  0  0  0  0  0  0  0  0  0  0  # atno 6909 bound_to 6896
  144.7231  139.9730  143.6437 H   0  0  0  0  0  0  0  0  0  0  0  0  # atno 7974 bound_to 7965
  154.4010  140.1520  156.3061 H   0  0  0  0  0  0  0  0  0  0  0  0  # atno 8008 bound_to 7997
  155.8657  140.3451  155.5765 H   0  0  0  0  0  0  0  0  0  0  0  0  # atno 8009 bound_to 7997
  155.7830  140.0846  157.2039 H   0  0  0  0  0  0  0  0  0  0  0  0  # atno 8010 bound_to 7997
  139.8080  143.7742  152.2662 H   0  0  0  0  0  0  0  0  0  0  0  0  # atno 10167 bound_to 10162
  156.3944  130.7902  151.2107 H   0  0  0  0  0  0  0  0  0  0  0  0  # atno 10718 bound_to 10713
  154.8338  135.3387  154.6655 H   0  0  0  0  0  0  0  0  0  0  0  0  # atno 10763 bound_to 10752
  153.7272  135.6954  153.5003 H   0  0  0  0  0  0  0  0  0  0  0  0  # atno 10764 bound_to 10752
  153.2338  135.4407  155.0577 H   0  0  0  0  0  0  0  0  0  0  0  0  # atno 10765 bound_to 10752
  139.9596  134.7084  156.0676 H   0  0  0  0  0  0  0  0  0  0  0  0  # atno 11005 bound_to 11000
  146.0548  139.3546  143.0617 LP  0  0  0  0  0  0  0  0  0  0  0  0  # atno 17320 bound_to 7965
  145.8169  140.9698  143.0919 LP  0  0  0  0  0  0  0  0  0  0  0  0  # atno 17321 bound_to 7965
  139.7882  144.7420  150.9992 LP  0  0  0  0  0  0  0  0  0  0  0  0  # atno 17342 bound_to 10162
  140.7818  143.4470  151.0469 LP  0  0  0  0  0  0  0  0  0  0  0  0  # atno 17343 bound_to 10162
  157.7501  131.0306  150.4143 LP  0  0  0  0  0  0  0  0  0  0  0  0  # atno 17370 bound_to 10713
  156.4411  130.3992  149.6697 LP  0  0  0  0  0  0  0  0  0  0  0  0  # atno 17371 bound_to 10713
  141.1271  133.6596  156.3366 LP  0  0  0  0  0  0  0  0  0  0  0  0  # atno 17394 bound_to 11000
  140.5531  134.6008  157.5413 LP  0  0  0  0  0  0  0  0  0  0  0  0  # atno 17395 bound_to 11000

$$$$
