AV-unprocessed.smi:910|AV-procd|sdf|4133|dock6
  -GOLD-   22720 2 33D 1   1.00000     0.00000
 Structure written by MMmdl.
 45 46  0  0  0  0  0  0  0  0  2 V2000
  146.7635  133.9741  162.3523 C   0  0  0  0  0  0  0  0  0  0  0  0
  147.2536  135.1882  161.6289 C   0  0  0  0  0  0  0  0  0  0  0  0
  147.3825  135.2226  160.2494 N   0  0  0  0  0  0  0  0  0  0  0  0
  147.8289  136.4458  159.9560 C   0  0  0  0  0  0  0  0  0  0  0  0
  148.0806  136.9237  158.7269 N   0  5  0  0  0  0  0  0  0  0  0  0
  149.3084  136.7520  158.1874 C   0  0  0  0  0  0  0  0  0  0  0  0
  150.3531  136.5410  158.8083 O   0  0  0  0  0  0  0  0  0  0  0  0
  149.3327  136.8567  156.8506 N   0  0  0  0  0  0  0  0  0  0  0  0
  150.5309  136.8540  156.0158 C   0  0  0  0  0  0  0  0  0  0  0  0
  150.8007  138.2504  155.4336 C   0  0  0  0  0  0  0  0  0  0  0  0
  149.5753  138.9648  155.3773 O   0  0  0  0  0  0  0  0  0  0  0  0
  149.5973  140.1798  154.6393 C   0  0  1  0  0  0  0  0  0  0  0  0
  148.2184  140.4628  154.0016 C   0  0  0  0  0  0  0  0  0  0  0  0
  147.1278  140.6646  155.0669 C   0  0  0  0  0  0  0  0  0  0  0  0
  147.5113  141.7749  156.0560 C   0  0  0  0  0  0  0  0  0  0  0  0
  148.8878  141.5133  156.6878 C   0  0  0  0  0  0  0  0  0  0  0  0
  149.9794  141.3160  155.6148 C   0  0  1  0  0  0  0  0  0  0  0  0
  151.3642  141.0961  156.2437 C   0  0  0  0  0  0  0  0  0  0  0  0
  148.0157  137.2053  161.0725 O   0  0  0  0  0  0  0  0  0  0  0  0
  147.6471  136.4045  162.1189 C   0  0  0  0  0  0  0  0  0  0  0  0
  147.7349  136.9692  163.4958 C   0  0  0  0  0  0  0  0  0  0  0  0
  147.5867  133.2980  162.5832 H   0  0  0  0  0  0  0  0  0  0  0  0
  146.0384  133.4222  161.7536 H   0  0  0  0  0  0  0  0  0  0  0  0
  146.2797  134.2409  163.2919 H   0  0  0  0  0  0  0  0  0  0  0  0
  148.4528  137.0215  156.3845 H   0  0  0  0  0  0  0  0  0  0  0  0
  151.3971  136.4909  156.5713 H   0  0  0  0  0  0  0  0  0  0  0  0
  150.3667  136.1464  155.2033 H   0  0  0  0  0  0  0  0  0  0  0  0
  151.5035  138.7933  156.0668 H   0  0  0  0  0  0  0  0  0  0  0  0
  151.2589  138.1537  154.4498 H   0  0  0  0  0  0  0  0  0  0  0  0
  150.3565  140.1156  153.8579 H   0  0  0  0  0  0  0  0  0  0  0  0
  148.2872  141.3626  153.3893 H   0  0  0  0  0  0  0  0  0  0  0  0
  147.9269  139.6645  153.3206 H   0  0  0  0  0  0  0  0  0  0  0  0
  146.1792  140.9069  154.5876 H   0  0  0  0  0  0  0  0  0  0  0  0
  146.9670  139.7329  155.6088 H   0  0  0  0  0  0  0  0  0  0  0  0
  147.5240  142.7352  155.5390 H   0  0  0  0  0  0  0  0  0  0  0  0
  146.7534  141.8524  156.8362 H   0  0  0  0  0  0  0  0  0  0  0  0
  149.1518  142.3464  157.3397 H   0  0  0  0  0  0  0  0  0  0  0  0
  148.8308  140.6312  157.3270 H   0  0  0  0  0  0  0  0  0  0  0  0
  150.0392  142.2384  155.0352 H   0  0  0  0  0  0  0  0  0  0  0  0
  151.3822  140.2019  156.8675 H   0  0  0  0  0  0  0  0  0  0  0  0
  151.6480  141.9418  156.8704 H   0  0  0  0  0  0  0  0  0  0  0  0
  152.1300  140.9829  155.4761 H   0  0  0  0  0  0  0  0  0  0  0  0
  146.7403  137.0992  163.9225 H   0  0  0  0  0  0  0  0  0  0  0  0
  148.2305  137.9401  163.4904 H   0  0  0  0  0  0  0  0  0  0  0  0
  148.3001  136.3046  164.1494 H   0  0  0  0  0  0  0  0  0  0  0  0
  1 22  1  0  0  0  0
  1 23  1  0  0  0  0
  1 24  1  0  0  0  0
  1  2  1  0  0  0  0
  2  3  1  0  0  0  0
  2 20  2  0  0  0  0
  3  4  2  0  0  0  0
  4 19  1  0  0  0  0
  4  5  1  0  0  0  0
  5  6  1  0  0  0  0
  6  8  1  0  0  0  0
  6  7  2  0  0  0  0
  8  9  1  0  0  0  0
  8 25  1  0  0  0  0
  9 10  1  0  0  0  0
  9 26  1  0  0  0  0
  9 27  1  0  0  0  0
 10 11  1  0  0  0  0
 10 28  1  0  0  0  0
 10 29  1  0  0  0  0
 11 12  1  0  0  0  0
 12 17  1  0  0  0  0
 12 13  1  0  0  0  0
 12 30  1  0  0  0  0
 13 14  1  0  0  0  0
 13 31  1  0  0  0  0
 13 32  1  0  0  0  0
 14 15  1  0  0  0  0
 14 33  1  0  0  0  0
 14 34  1  0  0  0  0
 15 16  1  0  0  0  0
 15 35  1  0  0  0  0
 15 36  1  0  0  0  0
 16 17  1  0  0  0  0
 16 37  1  0  0  0  0
 16 38  1  0  0  0  0
 17 18  1  0  0  0  0
 17 39  1  0  0  0  0
 18 40  1  0  0  0  0
 18 41  1  0  0  0  0
 18 42  1  0  0  0  0
 19 20  1  0  0  0  0
 20 21  1  0  0  0  0
 21 43  1  0  0  0  0
 21 44  1  0  0  0  0
 21 45  1  0  0  0  0
M  CHG  1   5  -1
M  END
> <s_m_source_file>
AV-unprocessed.smi

> <i_m_source_file_index>
910

> <i_lp_mmshare_version>
43012

> <i_f3d_flags>
0

> <s_epik_input>
W0NIM11jMW5jKG9jMVtDSDNdKVtOSF1DKD1PKVtOSF1bQ0gyXVtDSDJdT1tDQEBIXTJbQ0gyXVtDSDJdW0NIMl1bQ0gyXVtDQEhdMltDSDNd

> <s_epik_cmdline>
J2VwaWtfcHl0aG9uJywgJy1waCcsICc3LjAnLCAnLXRuJywgJzgnLCAnLW1hJywgJzIwMCcsICctbWV0YWxfYmluZGluZycsICctaW1hZScsICc8aW5maWxlLm1hZT4nLCAnLW9tYWUnLCAnPG91dGZpbGUubWFlPic=

> <r_lp_tautomer_probability>
0.107061

> <r_epik_Ionization_Penalty>
10.1763

> <r_epik_Ionization_Penalty_Charging>
7.13067

> <r_epik_Ionization_Penalty_Neutral>
3.04564

> <r_epik_State_Penalty>
5.57927

> <r_epik_Charging_Adjusted_Penalty>
12.7099

> <i_epik_Tot_Q>
-1

> <i_epik_Tot_abs_Q>
1

> <r_epik_Metal_State_Penalty>
1.52303

> <b_epik_Metal_Only>
1

> <s_lp_Force_Field>
OPLS_2005

> <r_lp_Energy>
4.58121

> <b_lp_Chiralities_Consistent>
1

> <s_lp_Variant>
AV-unprocessed.smi:910-18

> <Gold.Version>
5.8.1

> <Gold.Id.Protein>
6NUR|6NUR_protein|mol2

> <Gold.PLP.Fitness>
39.7054

> <Gold.PLP.PLP>
-34.7107

> <Gold.PLP.part.hbond>
-3.0000

> <Gold.PLP.part.metal>
0.0000

> <Gold.PLP.part.buried>
-3.7791

> <Gold.PLP.part.nonpolar>
-28.0015

> <Gold.PLP.part.repulsive>
0.0772

> <Gold.PLP.ligand.clash>
0.0000

> <Gold.PLP.ligand.torsion>
1.5558

> <Gold.PLP.Chemscore.Hbond>
2.6726

> <Gold.PLP.Chemscore.CHOScore>
0.0000

> <Gold.PLP.Chemscore.Metal>
0.0000

> <Gold.Chemscore.Hbonds>
donor molecule, donor type, donor heavy atom, donor atom, acceptor molecule, acceptor atom, score
      P1  H  6896  6908       L1     7  1.00
      P1  H  6931  6943       L1    19  0.93
      P1  H  6934  6947       L1    19  0.72

> <Gold.PLP.Chemscore.Internal.Correction>
0.0885

> <Gold.Rescore>
     Score         DG    S(hbond)    S(metal)    S(lipo)     H(rot)  DE(clash)    DE(int)     intcor
     16.44     -18.45       2.30        0.00      80.57       1.62       0.19       1.82       ----

> <Gold.Chemscore.Fitness>
16.4381

> <Gold.Chemscore.DG>
-18.4456

> <Gold.Chemscore.ZeroCoef>
-5.4800

> <Gold.Chemscore.Hbond>
2.2988

> <Gold.Chemscore.Metal>
0.0000

> <Gold.Chemscore.Lipo>
80.5707

> <Gold.Chemscore.Internal_Hbond>
0.0000

> <Gold.Chemscore.DEClash>
0.1919

> <Gold.Chemscore.DEInternal>
1.8157

> <Gold.Chemscore.Rot>
1.6169

> <Gold.Chemscore.Internal.Correction>
   9.000000E+99

> <Gold.Chemscore.Hbonds>
donor molecule, donor type, donor heavy atom, donor atom, acceptor molecule, acceptor atom, score
      P1  H  6896  6908       L1     7  0.94
      P1  H  6931  6943       L1    19  0.20
      P1  H  6934  6947       L1    19  0.56

> <Gold.Chemscore.Hbond.Weighted>
-7.6781

> <Gold.Chemscore.Metal.Weighted>
-0.0000

> <Gold.Chemscore.Lipo.Weighted>
-9.4268

> <Gold.Chemscore.Internal_Hbond.Weighted>
0.0000

> <Gold.Chemscore.DEClash.Weighted>
0.1919

> <Gold.Chemscore.DEInternal.Weighted>
1.8157

> <Gold.Chemscore.Rot.Weighted>
4.1393

> <Gold.Chemscore.Internal.Correction.Weighted>
   9.000000E+99

> <Gold.Protein.RotatedTorsions>
[ 6907 6896 6895 6894 ] final -172.13 input  -60.11 | X-H torsion
[ 7974 7965 7964 7962 ] final  -32.18 input  175.53 | X-H torsion
[ 8008 7997 7996 7995 ] final  -10.25 input   59.86 | X-H torsion
[ 10167 10162 10161 10158 ] final -155.83 input  -65.29 | X-H torsion
[ 10718 10713 10712 10709 ] final -136.37 input   66.30 | X-H torsion
[ 10763 10752 10751 10750 ] final  -39.01 input  -60.55 | X-H torsion
[ 11005 11000 10999 10996 ] final  161.35 input  -57.11 | X-H torsion

> <Gold.Protein.ActiveResidues>
 VAL166  LYS551  ARG553  GLY616  TRP617  ASP618  TYR619  PRO620  LYS621  CYS622 
 ASP623  PHE694  ASN695  SER759  ASP760  ASP761  ALA762  ILE779  LEU786  VAL792 
 PHE793  MET794  SER795  GLU796  ALA797  LYS798  CYS799  TRP800  GLU811  SER814 

> <Gold.Protein.RotatedAtoms>
  151.5349  133.3442  159.2924 H   0  0  0  0  0  0  0  0  0  0  0  0  # atno 6907 bound_to 6896
  150.8571  134.7915  159.7065 H   0  0  0  0  0  0  0  0  0  0  0  0  # atno 6908 bound_to 6896
  152.4601  134.5212  159.9835 H   0  0  0  0  0  0  0  0  0  0  0  0  # atno 6909 bound_to 6896
  146.1010  140.5760  142.8821 H   0  0  0  0  0  0  0  0  0  0  0  0  # atno 7974 bound_to 7965
  154.5572  140.2334  155.8392 H   0  0  0  0  0  0  0  0  0  0  0  0  # atno 8008 bound_to 7997
  156.1998  140.3055  155.9463 H   0  0  0  0  0  0  0  0  0  0  0  0  # atno 8009 bound_to 7997
  155.2957  140.0429  157.3017 H   0  0  0  0  0  0  0  0  0  0  0  0  # atno 8010 bound_to 7997
  139.6899  143.9438  152.2380 H   0  0  0  0  0  0  0  0  0  0  0  0  # atno 10167 bound_to 10162
  156.2763  130.7295  151.1278 H   0  0  0  0  0  0  0  0  0  0  0  0  # atno 10718 bound_to 10713
  153.9222  135.6781  153.4747 H   0  0  0  0  0  0  0  0  0  0  0  0  # atno 10763 bound_to 10752
  153.1022  135.4822  154.8885 H   0  0  0  0  0  0  0  0  0  0  0  0  # atno 10764 bound_to 10752
  154.7472  135.3175  154.8580 H   0  0  0  0  0  0  0  0  0  0  0  0  # atno 10765 bound_to 10752
  140.2150  134.8239  157.3160 H   0  0  0  0  0  0  0  0  0  0  0  0  # atno 11005 bound_to 11000
  144.7432  140.4999  143.6854 LP  0  0  0  0  0  0  0  0  0  0  0  0  # atno 17320 bound_to 7965
  145.5855  139.1492  143.3211 LP  0  0  0  0  0  0  0  0  0  0  0  0  # atno 17321 bound_to 7965
  139.9251  144.6776  150.8421 LP  0  0  0  0  0  0  0  0  0  0  0  0  # atno 17342 bound_to 10162
  140.7679  143.3347  151.2333 LP  0  0  0  0  0  0  0  0  0  0  0  0  # atno 17343 bound_to 10162
  157.7300  131.0619  150.5746 LP  0  0  0  0  0  0  0  0  0  0  0  0  # atno 17370 bound_to 10713
  156.5848  130.4313  149.5962 LP  0  0  0  0  0  0  0  0  0  0  0  0  # atno 17371 bound_to 10713
  140.1910  134.4371  155.7715 LP  0  0  0  0  0  0  0  0  0  0  0  0  # atno 17394 bound_to 11000
  141.2225  133.7027  156.8028 LP  0  0  0  0  0  0  0  0  0  0  0  0  # atno 17395 bound_to 11000

$$$$
