AV-unprocessed.smi:3188|AV-procd|sdf|12184|dock9
  -GOLD-   2272018 23D 1   1.00000     0.00000
 Structure written by MMmdl.
 40 41  0  0  0  0  0  0  0  0  2 V2000
  151.5190  145.0109  158.8905 C   0  0  0  0  0  0  0  0  0  0  0  0
  152.0323  143.8832  159.7708 C   0  0  0  0  0  0  0  0  0  0  0  0
  152.2360  144.1016  161.0841 C   0  0  0  0  0  0  0  0  0  0  0  0
  152.8102  143.0812  162.0396 C   0  0  0  0  0  0  0  0  0  0  0  0
  153.5751  141.9911  161.2858 C   0  0  0  0  0  0  0  0  0  0  0  0
  152.7440  141.4220  160.1240 C   0  0  2  0  0  0  0  0  0  0  0  0
  153.5183  140.2657  159.4616 C   0  0  0  0  0  0  0  0  0  0  0  0
  152.3231  142.5235  159.1022 C   0  0  1  0  0  0  0  0  0  0  0  0
  151.1429  142.0200  158.2291 C   0  0  0  0  0  0  0  0  0  0  0  0
  151.5500  140.9912  157.2495 N   0  3  0  0  0  0  0  0  0  0  0  0
  150.4600  140.5346  156.3664 C   0  0  0  0  0  0  0  0  0  0  0  0
  149.9960  141.6645  155.4356 C   0  0  0  0  0  0  0  0  0  0  0  0
  148.5833  141.5606  155.1257 N   0  0  0  0  0  0  0  0  0  0  0  0
  147.9820  141.3878  153.8959 C   0  0  0  0  0  0  0  0  0  0  0  0
  146.6498  141.3579  154.1962 C   0  0  0  0  0  0  0  0  0  0  0  0
  146.4988  141.5093  155.5736 N   0  0  0  0  0  0  0  0  0  0  0  0
  147.6671  141.6262  156.1214 N   0  0  0  0  0  0  0  0  0  0  0  0
  152.1567  145.1334  158.0148 H   0  0  0  0  0  0  0  0  0  0  0  0
  151.5118  145.9601  159.4276 H   0  0  0  0  0  0  0  0  0  0  0  0
  150.4975  144.8170  158.5635 H   0  0  0  0  0  0  0  0  0  0  0  0
  151.9970  145.0633  161.5145 H   0  0  0  0  0  0  0  0  0  0  0  0
  153.4785  143.5830  162.7402 H   0  0  0  0  0  0  0  0  0  0  0  0
  151.9959  142.6523  162.6241 H   0  0  0  0  0  0  0  0  0  0  0  0
  154.5088  142.4028  160.8995 H   0  0  0  0  0  0  0  0  0  0  0  0
  153.8531  141.1986  161.9819 H   0  0  0  0  0  0  0  0  0  0  0  0
  151.8362  141.0038  160.5624 H   0  0  0  0  0  0  0  0  0  0  0  0
  154.4341  140.6230  158.9897 H   0  0  0  0  0  0  0  0  0  0  0  0
  152.9330  139.7518  158.7007 H   0  0  0  0  0  0  0  0  0  0  0  0
  153.8024  139.5146  160.1994 H   0  0  0  0  0  0  0  0  0  0  0  0
  153.1798  142.6993  158.4494 H   0  0  0  0  0  0  0  0  0  0  0  0
  150.3592  141.5787  158.8426 H   0  0  0  0  0  0  0  0  0  0  0  0
  150.6850  142.8627  157.7088 H   0  0  0  0  0  0  0  0  0  0  0  0
  152.2869  141.3746  156.6750 H   0  0  0  0  0  0  0  0  0  0  0  0
  150.8075  139.6813  155.7820 H   0  0  0  0  0  0  0  0  0  0  0  0
  149.6250  140.1897  156.9778 H   0  0  0  0  0  0  0  0  0  0  0  0
  150.1775  142.6354  155.8985 H   0  0  0  0  0  0  0  0  0  0  0  0
  150.5585  141.6483  154.5010 H   0  0  0  0  0  0  0  0  0  0  0  0
  148.5232  141.3054  152.9647 H   0  0  0  0  0  0  0  0  0  0  0  0
  145.7968  141.2410  153.5437 H   0  0  0  0  0  0  0  0  0  0  0  0
  151.9144  140.1949  157.7530 H   0  0  0  0  0  0  0  0  0  0  0  0
  1  2  1  0  0  0  0
  1 18  1  0  0  0  0
  1 19  1  0  0  0  0
  1 20  1  0  0  0  0
  2  8  1  0  0  0  0
  2  3  2  0  0  0  0
  3  4  1  0  0  0  0
  3 21  1  0  0  0  0
  4  5  1  0  0  0  0
  4 22  1  0  0  0  0
  4 23  1  0  0  0  0
  5  6  1  0  0  0  0
  5 24  1  0  0  0  0
  5 25  1  0  0  0  0
  6  7  1  0  0  0  0
  6  8  1  0  0  0  0
  6 26  1  0  0  0  0
  7 27  1  0  0  0  0
  7 28  1  0  0  0  0
  7 29  1  0  0  0  0
  8  9  1  0  0  0  0
  8 30  1  0  0  0  0
  9 10  1  0  0  0  0
  9 31  1  0  0  0  0
  9 32  1  0  0  0  0
 10 11  1  0  0  0  0
 10 33  1  0  0  0  0
 10 40  1  0  0  0  0
 11 12  1  0  0  0  0
 11 34  1  0  0  0  0
 11 35  1  0  0  0  0
 12 13  1  0  0  0  0
 12 36  1  0  0  0  0
 12 37  1  0  0  0  0
 13 17  1  0  0  0  0
 13 14  1  0  0  0  0
 14 15  2  0  0  0  0
 14 38  1  0  0  0  0
 15 16  1  0  0  0  0
 15 39  1  0  0  0  0
 16 17  2  0  0  0  0
M  CHG  1  10   1
M  END
> <s_m_source_file>
AV-unprocessed.smi

> <i_m_source_file_index>
3188

> <i_lp_mmshare_version>
43012

> <i_f3d_flags>
0

> <s_epik_input>
W0NIM11DMT1bQ0hdW0NIMl1bQ0gyXVtDQEBIXShbQ0gzXSlbQ0BIXTFbQ0gyXVtOSF1bQ0gyXVtDSDJdbjJbY0hdW2NIXW5uMg==

> <s_epik_cmdline>
J2VwaWtfcHl0aG9uJywgJy1waCcsICc3LjAnLCAnLXRuJywgJzgnLCAnLW1hJywgJzIwMCcsICctbWV0YWxfYmluZGluZycsICctaW1hZScsICc8aW5maWxlLm1hZT4nLCAnLW9tYWUnLCAnPG91dGZpbGUubWFlPic=

> <r_lp_tautomer_probability>
1

> <r_epik_Ionization_Penalty>
0.007268

> <r_epik_Ionization_Penalty_Charging>
0.00726786

> <r_epik_Ionization_Penalty_Neutral>
1.34882e-07

> <r_epik_State_Penalty>
0.00542069

> <r_epik_Charging_Adjusted_Penalty>
0.0126886

> <i_epik_Tot_Q>
1

> <i_epik_Tot_abs_Q>
1

> <r_epik_Metal_State_Penalty>
-0

> <b_epik_Metal_Only>
0

> <s_lp_Force_Field>
OPLS_2005

> <r_lp_Energy>
15.008

> <b_lp_Chiralities_Consistent>
1

> <s_lp_Variant>
AV-unprocessed.smi:3188-2

> <Gold.Version>
5.8.1

> <Gold.Id.Protein>
6NUR|6NUR_protein|mol2

> <Gold.PLP.Fitness>
48.0281

> <Gold.PLP.PLP>
-42.6625

> <Gold.PLP.part.hbond>
0.0000

> <Gold.PLP.part.metal>
0.0000

> <Gold.PLP.part.buried>
-3.9824

> <Gold.PLP.part.nonpolar>
-38.1167

> <Gold.PLP.part.repulsive>
0.2998

> <Gold.PLP.ligand.clash>
0.0000

> <Gold.PLP.ligand.torsion>
0.3420

> <Gold.PLP.Chemscore.Hbond>
0.0000

> <Gold.PLP.Chemscore.CHOScore>
1.9964

> <Gold.PLP.Chemscore.Metal>
0.0000

> <Gold.Chemscore.Hbonds>
donor molecule, donor type, donor heavy atom, donor atom, acceptor molecule, acceptor atom, score
      L1  C    14    38       P1  7957  1.00
      L1  C    15    39       P1 10175  1.00

> <Gold.PLP.Chemscore.Internal.Correction>
0.0605

> <Gold.Rescore>
     Score         DG    S(hbond)    S(metal)    S(lipo)     H(rot)  DE(clash)    DE(int)     intcor
     14.75     -15.21       0.00        0.00     122.16       1.78       0.02       0.44       ----

> <Gold.Chemscore.Fitness>
14.7540

> <Gold.Chemscore.DG>
-15.2135

> <Gold.Chemscore.ZeroCoef>
-5.4800

> <Gold.Chemscore.Hbond>
0.0000

> <Gold.Chemscore.Metal>
0.0000

> <Gold.Chemscore.Lipo>
122.1582

> <Gold.Chemscore.Internal_Hbond>
0.0000

> <Gold.Chemscore.DEClash>
0.0174

> <Gold.Chemscore.DEInternal>
0.4421

> <Gold.Chemscore.Rot>
1.7809

> <Gold.Chemscore.Internal.Correction>
   9.000000E+99

> <Gold.Chemscore.Hbond.Weighted>
-0.0000

> <Gold.Chemscore.Metal.Weighted>
-0.0000

> <Gold.Chemscore.Lipo.Weighted>
-14.2925

> <Gold.Chemscore.Internal_Hbond.Weighted>
0.0000

> <Gold.Chemscore.DEClash.Weighted>
0.0174

> <Gold.Chemscore.DEInternal.Weighted>
0.4421

> <Gold.Chemscore.Rot.Weighted>
4.5590

> <Gold.Chemscore.Internal.Correction.Weighted>
   9.000000E+99

> <Gold.Protein.RotatedTorsions>
[ 6907 6896 6895 6894 ] final   42.49 input  -60.11 | X-H torsion
[ 7974 7965 7964 7962 ] final  -29.31 input  175.53 | X-H torsion
[ 8008 7997 7996 7995 ] final  102.93 input   59.86 | X-H torsion
[ 10167 10162 10161 10158 ] final  172.57 input  -65.29 | X-H torsion
[ 10718 10713 10712 10709 ] final -169.27 input   66.30 | X-H torsion
[ 10763 10752 10751 10750 ] final  -87.25 input  -60.55 | X-H torsion
[ 11005 11000 10999 10996 ] final -144.81 input  -57.11 | X-H torsion

> <Gold.Protein.ActiveResidues>
 VAL166  LYS551  ARG553  GLY616  TRP617  ASP618  TYR619  PRO620  LYS621  CYS622 
 ASP623  PHE694  ASN695  SER759  ASP760  ASP761  ALA762  ILE779  LEU786  VAL792 
 PHE793  MET794  SER795  GLU796  ALA797  LYS798  CYS799  TRP800  GLU811  SER814 

> <Gold.Protein.RotatedAtoms>
  152.2085  134.8523  160.0499 H   0  0  0  0  0  0  0  0  0  0  0  0  # atno 6907 bound_to 6896
  151.9350  133.3616  159.3952 H   0  0  0  0  0  0  0  0  0  0  0  0  # atno 6908 bound_to 6896
  150.6971  134.4423  159.5342 H   0  0  0  0  0  0  0  0  0  0  0  0  # atno 6909 bound_to 6896
  146.1226  140.5395  142.8729 H   0  0  0  0  0  0  0  0  0  0  0  0  # atno 7974 bound_to 7965
  156.1438  140.3173  155.8537 H   0  0  0  0  0  0  0  0  0  0  0  0  # atno 8008 bound_to 7997
  155.4104  140.0505  157.3049 H   0  0  0  0  0  0  0  0  0  0  0  0  # atno 8009 bound_to 7997
  154.4998  140.2125  155.9382 H   0  0  0  0  0  0  0  0  0  0  0  0  # atno 8010 bound_to 7997
  139.5081  144.3358  152.0066 H   0  0  0  0  0  0  0  0  0  0  0  0  # atno 10167 bound_to 10162
  156.7092  130.9226  151.3087 H   0  0  0  0  0  0  0  0  0  0  0  0  # atno 10718 bound_to 10713
  154.6315  135.5420  153.7685 H   0  0  0  0  0  0  0  0  0  0  0  0  # atno 10763 bound_to 10752
  153.0287  135.6437  154.1294 H   0  0  0  0  0  0  0  0  0  0  0  0  # atno 10764 bound_to 10752
  154.1224  135.2919  155.3185 H   0  0  0  0  0  0  0  0  0  0  0  0  # atno 10765 bound_to 10752
  140.7986  134.2883  157.4987 H   0  0  0  0  0  0  0  0  0  0  0  0  # atno 11005 bound_to 11000
  144.7611  140.5425  143.6734 LP  0  0  0  0  0  0  0  0  0  0  0  0  # atno 17320 bound_to 7965
  145.5434  139.1475  143.3434 LP  0  0  0  0  0  0  0  0  0  0  0  0  # atno 17321 bound_to 7965
  140.2797  144.3873  150.6123 LP  0  0  0  0  0  0  0  0  0  0  0  0  # atno 17342 bound_to 10162
  140.6027  143.2167  151.7041 LP  0  0  0  0  0  0  0  0  0  0  0  0  # atno 17343 bound_to 10162
  157.6943  130.9265  150.0600 LP  0  0  0  0  0  0  0  0  0  0  0  0  # atno 17370 bound_to 10713
  156.1673  130.3645  149.9214 LP  0  0  0  0  0  0  0  0  0  0  0  0  # atno 17371 bound_to 10713
  139.8724  134.9416  156.3803 LP  0  0  0  0  0  0  0  0  0  0  0  0  # atno 17394 bound_to 11000
  140.9317  133.7574  156.0033 LP  0  0  0  0  0  0  0  0  0  0  0  0  # atno 17395 bound_to 11000

$$$$
