AV-unprocessed.smi:476|AV-procd|sdf|2669|dock3
  -GOLD-   2262023 83D 1   1.00000     0.00000
 Structure written by MMmdl.
 39 40  0  0  0  0  0  0  0  0  1 V2000
  147.0250  140.4889  153.2989 C   0  0  0  0  0  0  0  0  0  0  0  0
  146.9959  139.3528  154.3060 C   0  0  0  0  0  0  0  0  0  0  0  0
  145.8994  138.8609  154.8924 C   0  0  0  0  0  0  0  0  0  0  0  0
  146.2467  137.5251  155.9631 S   0  0  0  0  0  0  0  0  0  0  0  0
  147.9988  137.6563  155.5719 C   0  0  0  0  0  0  0  0  0  0  0  0
  148.8485  136.9121  156.0585 O   0  0  0  0  0  0  0  0  0  0  0  0
  148.1842  138.7043  154.6703 N   0  0  0  0  0  0  0  0  0  0  0  0
  149.5099  139.0863  154.1665 C   0  0  0  0  0  0  0  0  0  0  0  0
  150.3343  139.8661  155.1979 C   0  0  0  0  0  0  0  0  0  0  0  0
  151.4896  140.2144  154.9506 O   0  0  0  0  0  0  0  0  0  0  0  0
  149.7164  140.1395  156.3565 N   0  0  0  0  0  0  0  0  0  0  0  0
  150.3272  140.8152  157.4974 C   0  0  0  0  0  0  0  0  0  0  0  0
  150.9872  142.1554  157.1116 C   0  0  0  0  0  0  0  0  0  0  0  0
  151.5513  142.9262  158.2966 C   0  0  0  0  0  0  0  0  0  0  0  0
  152.4032  142.3611  159.1747 C   0  0  0  0  0  0  0  0  0  0  0  0
  152.9686  143.0714  160.3914 C   0  0  0  0  0  0  0  0  0  0  0  0
  152.2038  144.3640  160.7201 C   0  0  0  0  0  0  0  0  0  0  0  0
  151.9179  145.1756  159.4503 C   0  0  0  0  0  0  0  0  0  0  0  0
  151.0783  144.3677  158.4443 C   0  0  0  0  0  0  0  0  0  0  0  0
  146.0244  140.6751  152.9077 H   0  0  0  0  0  0  0  0  0  0  0  0
  147.6688  140.2550  152.4509 H   0  0  0  0  0  0  0  0  0  0  0  0
  147.3803  141.4052  153.7706 H   0  0  0  0  0  0  0  0  0  0  0  0
  144.8859  139.2041  154.7455 H   0  0  0  0  0  0  0  0  0  0  0  0
  150.0802  138.2203  153.8325 H   0  0  0  0  0  0  0  0  0  0  0  0
  149.3814  139.7051  153.2763 H   0  0  0  0  0  0  0  0  0  0  0  0
  148.7642  139.8232  156.4719 H   0  0  0  0  0  0  0  0  0  0  0  0
  149.5861  140.9701  158.2829 H   0  0  0  0  0  0  0  0  0  0  0  0
  151.0778  140.1436  157.9147 H   0  0  0  0  0  0  0  0  0  0  0  0
  151.7894  141.9656  156.3972 H   0  0  0  0  0  0  0  0  0  0  0  0
  150.2669  142.7865  156.5906 H   0  0  0  0  0  0  0  0  0  0  0  0
  152.7229  141.3389  159.0323 H   0  0  0  0  0  0  0  0  0  0  0  0
  152.9403  142.3970  161.2474 H   0  0  0  0  0  0  0  0  0  0  0  0
  154.0182  143.2923  160.1956 H   0  0  0  0  0  0  0  0  0  0  0  0
  151.2594  144.1143  161.2055 H   0  0  0  0  0  0  0  0  0  0  0  0
  152.7706  144.9610  161.4350 H   0  0  0  0  0  0  0  0  0  0  0  0
  151.4052  146.1048  159.7006 H   0  0  0  0  0  0  0  0  0  0  0  0
  152.8640  145.4602  158.9879 H   0  0  0  0  0  0  0  0  0  0  0  0
  151.1004  144.8609  157.4722 H   0  0  0  0  0  0  0  0  0  0  0  0
  150.0366  144.3506  158.7660 H   0  0  0  0  0  0  0  0  0  0  0  0
  1  2  1  0  0  0  0
  1 20  1  0  0  0  0
  1 21  1  0  0  0  0
  1 22  1  0  0  0  0
  2  7  1  0  0  0  0
  2  3  2  0  0  0  0
  3  4  1  0  0  0  0
  3 23  1  0  0  0  0
  4  5  1  0  0  0  0
  5  6  2  0  0  0  0
  5  7  1  0  0  0  0
  7  8  1  0  0  0  0
  8  9  1  0  0  0  0
  8 24  1  0  0  0  0
  8 25  1  0  0  0  0
  9 10  2  0  0  0  0
  9 11  1  0  0  0  0
 11 12  1  0  0  0  0
 11 26  1  0  0  0  0
 12 13  1  0  0  0  0
 12 27  1  0  0  0  0
 12 28  1  0  0  0  0
 13 14  1  0  0  0  0
 13 29  1  0  0  0  0
 13 30  1  0  0  0  0
 14 19  1  0  0  0  0
 14 15  2  0  0  0  0
 15 16  1  0  0  0  0
 15 31  1  0  0  0  0
 16 17  1  0  0  0  0
 16 32  1  0  0  0  0
 16 33  1  0  0  0  0
 17 18  1  0  0  0  0
 17 34  1  0  0  0  0
 17 35  1  0  0  0  0
 18 19  1  0  0  0  0
 18 36  1  0  0  0  0
 18 37  1  0  0  0  0
 19 38  1  0  0  0  0
 19 39  1  0  0  0  0
M  END
> <s_m_source_file>
AV-unprocessed.smi

> <i_m_source_file_index>
476

> <i_lp_mmshare_version>
43012

> <i_f3d_flags>
0

> <s_epik_input>
W0NIM11jMVtjSF1zYyg9TyluMVtDSDJdQyg9TylbTkhdW0NIMl1bQ0gyXUMyPVtDSF1bQ0gyXVtDSDJdW0NIMl1bQ0gyXTI=

> <s_epik_cmdline>
J2VwaWtfcHl0aG9uJywgJy1waCcsICc3LjAnLCAnLXRuJywgJzgnLCAnLW1hJywgJzIwMCcsICctbWV0YWxfYmluZGluZycsICctaW1hZScsICc8aW5maWxlLm1hZT4nLCAnLW9tYWUnLCAnPG91dGZpbGUubWFlPic=

> <r_lp_tautomer_probability>
1

> <r_epik_Ionization_Penalty>
1.31088e-06

> <r_epik_Ionization_Penalty_Charging>
1.18065e-06

> <r_epik_Ionization_Penalty_Neutral>
1.30231e-07

> <r_epik_State_Penalty>
-0

> <r_epik_Charging_Adjusted_Penalty>
1.18065e-06

> <i_epik_Tot_Q>
0

> <i_epik_Tot_abs_Q>
0

> <r_epik_Metal_State_Penalty>
-0

> <b_epik_Metal_Only>
0

> <s_lp_Force_Field>
OPLS_2005

> <r_lp_Energy>
10.5339

> <b_lp_Chiralities_Consistent>
1

> <s_lp_Variant>
AV-unprocessed.smi:476-1

> <Gold.Version>
5.8.1

> <Gold.Id.Protein>
6NUR|6NUR_protein|mol2

> <Gold.PLP.Fitness>
41.4280

> <Gold.PLP.PLP>
-35.9657

> <Gold.PLP.part.hbond>
-1.0000

> <Gold.PLP.part.metal>
0.0000

> <Gold.PLP.part.buried>
-3.8863

> <Gold.PLP.part.nonpolar>
-31.6439

> <Gold.PLP.part.repulsive>
0.1170

> <Gold.PLP.ligand.clash>
0.0000

> <Gold.PLP.ligand.torsion>
0.2974

> <Gold.PLP.Chemscore.Hbond>
1.0000

> <Gold.PLP.Chemscore.CHOScore>
0.9998

> <Gold.PLP.Chemscore.Metal>
0.0000

> <Gold.Chemscore.Hbonds>
donor molecule, donor type, donor heavy atom, donor atom, acceptor molecule, acceptor atom, score
      P1  H  7989  7998       L1    10  1.00
      L1  C     3    23       P1 10175  0.18

> <Gold.PLP.Chemscore.Internal.Correction>
0.0576

> <Gold.Rescore>
     Score         DG    S(hbond)    S(metal)    S(lipo)     H(rot)  DE(clash)    DE(int)     intcor
     15.72     -16.00       0.98        0.00      99.58       1.72       0.00       0.28       ----

> <Gold.Chemscore.Fitness>
15.7203

> <Gold.Chemscore.DG>
-16.0019

> <Gold.Chemscore.ZeroCoef>
-5.4800

> <Gold.Chemscore.Hbond>
0.9814

> <Gold.Chemscore.Metal>
0.0000

> <Gold.Chemscore.Lipo>
99.5830

> <Gold.Chemscore.Internal_Hbond>
0.0000

> <Gold.Chemscore.DEClash>
0.0000

> <Gold.Chemscore.DEInternal>
0.2816

> <Gold.Chemscore.Rot>
1.7215

> <Gold.Chemscore.Internal.Correction>
   9.000000E+99

> <Gold.Chemscore.Hbonds>
donor molecule, donor type, donor heavy atom, donor atom, acceptor molecule, acceptor atom, score
      P1  H  7989  7998       L1    10  0.81

> <Gold.Chemscore.Hbond.Weighted>
-3.2778

> <Gold.Chemscore.Metal.Weighted>
-0.0000

> <Gold.Chemscore.Lipo.Weighted>
-11.6512

> <Gold.Chemscore.Internal_Hbond.Weighted>
0.0000

> <Gold.Chemscore.DEClash.Weighted>
0.0000

> <Gold.Chemscore.DEInternal.Weighted>
0.2816

> <Gold.Chemscore.Rot.Weighted>
4.4070

> <Gold.Chemscore.Internal.Correction.Weighted>
   9.000000E+99

> <Gold.Protein.RotatedTorsions>
[ 6907 6896 6895 6894 ] final -151.32 input  -60.11 | X-H torsion
[ 7974 7965 7964 7962 ] final -152.96 input  175.53 | X-H torsion
[ 8008 7997 7996 7995 ] final  -63.79 input   59.86 | X-H torsion
[ 10167 10162 10161 10158 ] final -138.20 input  -65.29 | X-H torsion
[ 10718 10713 10712 10709 ] final   52.50 input   66.30 | X-H torsion
[ 10763 10752 10751 10750 ] final  -51.43 input  -60.55 | X-H torsion
[ 11005 11000 10999 10996 ] final  -69.59 input  -57.11 | X-H torsion

> <Gold.Protein.ActiveResidues>
 VAL166  LYS551  ARG553  GLY616  TRP617  ASP618  TYR619  PRO620  LYS621  CYS622 
 ASP623  PHE694  ASN695  SER759  ASP760  ASP761  ALA762  ILE779  LEU786  VAL792 
 PHE793  MET794  SER795  GLU796  ALA797  LYS798  CYS799  TRP800  GLU811  SER814 

> <Gold.Protein.RotatedAtoms>
  151.2114  133.4554  159.2598 H   0  0  0  0  0  0  0  0  0  0  0  0  # atno 6907 bound_to 6896
  151.0973  134.9952  159.8442 H   0  0  0  0  0  0  0  0  0  0  0  0  # atno 6908 bound_to 6896
  152.5440  134.2043  159.8777 H   0  0  0  0  0  0  0  0  0  0  0  0  # atno 6909 bound_to 6896
  144.7766  140.4591  143.5869 H   0  0  0  0  0  0  0  0  0  0  0  0  # atno 7974 bound_to 7965
  154.4574  140.0967  156.6796 H   0  0  0  0  0  0  0  0  0  0  0  0  # atno 8008 bound_to 7997
  155.5097  140.3476  155.4367 H   0  0  0  0  0  0  0  0  0  0  0  0  # atno 8009 bound_to 7997
  156.0804  140.1371  156.9708 H   0  0  0  0  0  0  0  0  0  0  0  0  # atno 8010 bound_to 7997
  139.8502  143.7208  152.2658 H   0  0  0  0  0  0  0  0  0  0  0  0  # atno 10167 bound_to 10162
  157.5080  130.8482  149.8399 H   0  0  0  0  0  0  0  0  0  0  0  0  # atno 10718 bound_to 10713
  154.1265  135.6527  153.4913 H   0  0  0  0  0  0  0  0  0  0  0  0  # atno 10763 bound_to 10752
  153.0209  135.5282  154.7045 H   0  0  0  0  0  0  0  0  0  0  0  0  # atno 10764 bound_to 10752
  154.6267  135.2971  155.0234 H   0  0  0  0  0  0  0  0  0  0  0  0  # atno 10765 bound_to 10752
  141.1557  133.6768  156.6623 H   0  0  0  0  0  0  0  0  0  0  0  0  # atno 11005 bound_to 11000
  145.6168  139.1519  143.3045 LP  0  0  0  0  0  0  0  0  0  0  0  0  # atno 17320 bound_to 7965
  146.1949  140.6281  142.9128 LP  0  0  0  0  0  0  0  0  0  0  0  0  # atno 17321 bound_to 7965
  139.7473  144.7544  151.0561 LP  0  0  0  0  0  0  0  0  0  0  0  0  # atno 17342 bound_to 10162
  140.7788  143.4902  150.9904 LP  0  0  0  0  0  0  0  0  0  0  0  0  # atno 17343 bound_to 10162
  156.0271  130.3776  150.1793 LP  0  0  0  0  0  0  0  0  0  0  0  0  # atno 17370 bound_to 10713
  156.9983  130.9914  151.3397 LP  0  0  0  0  0  0  0  0  0  0  0  0  # atno 17371 bound_to 10713
  140.3238  134.7986  157.4273 LP  0  0  0  0  0  0  0  0  0  0  0  0  # atno 17394 bound_to 11000
  140.1074  134.5391  155.8296 LP  0  0  0  0  0  0  0  0  0  0  0  0  # atno 17395 bound_to 11000

$$$$
