#       Name:                AV-unprocessed.smi:1799
#       Creating user name   scv26
#       Creation time:       Fri Mar 27 08:51:27 2020


#       File generated by GOLD software.
#

@<TRIPOS>MOLECULE
AV-unprocessed.smi:1799
    45    46     1
SMALL
NO_CHARGES


@<TRIPOS>ATOM
      1 ****         0.1157  -1.5623   1.3835 C.3            1 S1                 0.0000
      2 ****        -1.3222  -1.1712   0.9770 C.3            1 S1                 0.0000
      3 ****        -2.2570  -1.7506   2.0567 C.3            1 S1                 0.0000
      4 ****        -1.5285   0.3638   0.9421 C.3            1 S1                 0.0000
      5 ****        -0.9888   1.0696  -0.3173 C.3            1 S1                 0.0000
      6 ****         0.4639   1.2312  -0.3265 N.am           1 S1                 0.0000
      7 ****         1.1592   2.0738   0.4515 C.2            1 S1                 0.0000
      8 ****         0.6353   2.8237   1.2750 O.2            1 S1                 0.0000
      9 ****         2.4788   1.9809   0.2113 N.am           1 S1                 0.0000
     10 ****         3.5404   2.6651   0.8605 C.2            1 S1                 0.0000
     11 ****         3.3584   3.5471   1.8559 N.2            1 S1                 0.0000
     12 ****         4.5615   4.0640   2.3184 N.2            1 S1                 0.0000
     13 ****         5.6022   3.5520   1.6551 C.2            1 S1                 0.0000
     14 ****         5.2140   2.3885   0.3995 S.3            1 S1                 0.0000
     15 ****        -1.4989   0.3612  -1.5829 C.3            1 S1                 0.0000
     16 ****        -1.3008  -1.1771  -1.6049 C.3            1 S1                 0.0000
     17 ****        -2.2227  -1.7601  -2.6939 C.3            1 S1                 0.0000
     18 ****         0.1411  -1.5779  -1.9878 C.3            1 S1                 0.0000
     19 ****        -1.7182  -1.7980  -0.3156 N.4            1 S1                 1.0000
     20 ****         0.3325  -1.2337   2.4006 H              1 S1                 0.0000
     21 ****         0.8840  -1.1212   0.7575 H              1 S1                 0.0000
     22 ****         0.2545  -2.6438   1.3579 H              1 S1                 0.0000
     23 ****        -2.0428  -1.3254   3.0382 H              1 S1                 0.0000
     24 ****        -2.1509  -2.8331   2.1394 H              1 S1                 0.0000
     25 ****        -3.3048  -1.5438   1.8350 H              1 S1                 0.0000
     26 ****        -2.5998   0.5679   0.9797 H              1 S1                 0.0000
     27 ****        -1.1244   0.8196   1.8469 H              1 S1                 0.0000
     28 ****        -1.4027   2.0797  -0.3319 H              1 S1                 0.0000
     29 ****         0.9795   0.6606  -0.9806 H              1 S1                 0.0000
     30 ****         2.7604   1.3325  -0.5089 H              1 S1                 0.0000
     31 ****         6.6055   3.8617   1.9075 H              1 S1                 0.0000
     32 ****        -2.5673   0.5725  -1.6523 H              1 S1                 0.0000
     33 ****        -1.0594   0.8151  -2.4725 H              1 S1                 0.0000
     34 ****        -1.9960  -1.3423  -3.6758 H              1 S1                 0.0000
     35 ****        -3.2727  -1.5501  -2.4860 H              1 S1                 0.0000
     36 ****        -2.1187  -2.8436  -2.7678 H              1 S1                 0.0000
     37 ****         0.3740  -1.2607  -3.0050 H              1 S1                 0.0000
     38 ****         0.2751  -2.6596  -1.9499 H              1 S1                 0.0000
     39 ****         0.9025  -1.1347  -1.3549 H              1 S1                 0.0000
     40 ****        -1.4356  -2.7676  -0.3111 H              1 S1                 0.0000
     41 ****        -2.7280  -1.7750  -0.3240 H              1 S1                 0.0000
     42 ****        -0.3581   2.8244   1.3897 LP             1 S1                 0.0000
     43 ****         1.2031   3.4323   1.8294 LP             1 S1                 0.0000
     44 ****         2.4630   3.8017   2.2210 LP             1 S1                 0.0000
     45 ****         4.6392   4.7353   3.0555 LP             1 S1                 0.0000
@<TRIPOS>BOND
    1    1    2 1     
    2    1   20 1     
    3    1   21 1     
    4    1   22 1     
    5    2   19 1     
    6    2    3 1     
    7    2    4 1     
    8    3   23 1     
    9    3   24 1     
   10    3   25 1     
   11    4    5 1     
   12    4   26 1     
   13    4   27 1     
   14    5    6 1     
   15    5   15 1     
   16    5   28 1     
   17    6    7 am    
   18    6   29 1     
   19    7    8 2     
   20    7    9 am    
   21    9   10 1     
   22    9   30 1     
   23   10   14 1     
   24   10   11 2     
   25   11   12 1     
   26   12   13 2     
   27   13   14 1     
   28   13   31 1     
   29   15   16 1     
   30   15   32 1     
   31   15   33 1     
   32   16   17 1     
   33   16   18 1     
   34   16   19 1     
   35   17   34 1     
   36   17   35 1     
   37   17   36 1     
   38   18   37 1     
   39   18   38 1     
   40   18   39 1     
   41   19   40 1     
   42   19   41 1     
   43    8   42 1     
   44    8   43 1     
   45   11   44 1     
   46   12   45 1     
@<TRIPOS>SUBSTRUCTURE
      1 S1             1
@<TRIPOS>SET
LONE_PAIRS      STATIC     ATOMS    <user>   **** ""
4 42 43 44 45
DONOR_HYDROGENS      STATIC     ATOMS    <user>   **** ""
4 29 30 40 41
ATOM$BLUE        STATIC     ATOMS    COLORGROUP SYSTEM
4 42 43 44 45
ATOM$RED        STATIC     ATOMS    COLORGROUP SYSTEM
4 29 30 40 41
