AV-unprocessed.smi:652|AV-procd|sdf|3194|dock1
  -GOLD-   22720 0123D 1   1.00000     0.00000
 Structure written by MMmdl.
 48 49  0  0  0  0  0  0  0  0  2 V2000
  148.4733  132.3796  153.4090 C   0  0  0  0  0  0  0  0  0  0  0  0
  149.3854  133.5379  153.8336 C   0  0  0  0  0  0  0  0  0  0  0  0
  150.0420  133.2801  155.1978 C   0  0  0  0  0  0  0  0  0  0  0  0
  148.6102  134.7744  153.8725 N   0  0  0  0  0  0  0  0  0  0  0  0
  147.5416  135.0040  154.6519 C   0  0  0  0  0  0  0  0  0  0  0  0
  147.0715  134.1708  155.4259 O   0  0  0  0  0  0  0  0  0  0  0  0
  146.9077  136.3921  154.5468 C   0  0  0  0  0  0  0  0  0  0  0  0
  147.8621  137.4865  155.0664 C   0  0  0  0  0  0  0  0  0  0  0  0
  148.5165  138.2633  153.9769 N   0  3  1  0  0  0  0  0  0  0  0  0
  147.5902  139.1908  153.2818 C   0  0  0  0  0  0  0  0  0  0  0  0
  147.3277  140.4548  154.1243 C   0  0  0  0  0  0  0  0  0  0  0  0
  148.5626  141.0833  154.4535 O   0  0  0  0  0  0  0  0  0  0  0  0
  149.4150  140.2406  155.2215 C   0  0  2  0  0  0  0  0  0  0  0  0
  150.6648  141.0497  155.6175 C   0  0  0  0  0  0  0  0  0  0  0  0
  150.3490  142.2587  156.3725 N   0  0  0  0  0  0  0  0  0  0  0  0
  151.0316  142.5858  157.5533 C   0  0  0  0  0  0  0  0  0  0  0  0
  151.6923  143.8278  157.6345 C   0  0  0  0  0  0  0  0  0  0  0  0
  152.3803  144.1248  158.8239 C   0  0  0  0  0  0  0  0  0  0  0  0
  152.3523  143.1569  159.8442 C   0  0  0  0  0  0  0  0  0  0  0  0
  151.7010  141.9795  159.7126 N   0  0  0  0  0  0  0  0  0  0  0  0
  151.0450  141.7002  158.5808 N   0  0  0  0  0  0  0  0  0  0  0  0
  149.7487  138.9911  154.3758 C   0  0  0  0  0  0  0  0  0  0  0  0
  149.0297  131.4436  153.3524 H   0  0  0  0  0  0  0  0  0  0  0  0
  148.0412  132.5636  152.4249 H   0  0  0  0  0  0  0  0  0  0  0  0
  147.6529  132.2372  154.1132 H   0  0  0  0  0  0  0  0  0  0  0  0
  150.1734  133.6268  153.0835 H   0  0  0  0  0  0  0  0  0  0  0  0
  150.6319  132.3633  155.1804 H   0  0  0  0  0  0  0  0  0  0  0  0
  149.2957  133.1799  155.9866 H   0  0  0  0  0  0  0  0  0  0  0  0
  150.7120  134.0952  155.4734 H   0  0  0  0  0  0  0  0  0  0  0  0
  148.9185  135.5183  153.2634 H   0  0  0  0  0  0  0  0  0  0  0  0
  146.6302  136.5617  153.5074 H   0  0  0  0  0  0  0  0  0  0  0  0
  145.9794  136.4014  155.1189 H   0  0  0  0  0  0  0  0  0  0  0  0
  147.2809  138.1760  155.6807 H   0  0  0  0  0  0  0  0  0  0  0  0
  148.6100  137.0549  155.7316 H   0  0  0  0  0  0  0  0  0  0  0  0
  148.0430  139.4804  152.3325 H   0  0  0  0  0  0  0  0  0  0  0  0
  146.6547  138.6889  153.0324 H   0  0  0  0  0  0  0  0  0  0  0  0
  146.7167  141.1588  153.5593 H   0  0  0  0  0  0  0  0  0  0  0  0
  146.7724  140.2169  155.0326 H   0  0  0  0  0  0  0  0  0  0  0  0
  148.8863  139.9540  156.1299 H   0  0  0  0  0  0  0  0  0  0  0  0
  151.3231  140.4322  156.2290 H   0  0  0  0  0  0  0  0  0  0  0  0
  151.2367  141.3183  154.7285 H   0  0  0  0  0  0  0  0  0  0  0  0
  149.7916  142.9688  155.9199 H   0  0  0  0  0  0  0  0  0  0  0  0
  151.6776  144.5291  156.8131 H   0  0  0  0  0  0  0  0  0  0  0  0
  152.9100  145.0576  158.9497 H   0  0  0  0  0  0  0  0  0  0  0  0
  152.8638  143.3262  160.7800 H   0  0  0  0  0  0  0  0  0  0  0  0
  150.4396  138.3359  154.9017 H   0  0  0  0  0  0  0  0  0  0  0  0
  150.2708  139.2999  153.4691 H   0  0  0  0  0  0  0  0  0  0  0  0
  148.7930  137.5774  153.2889 H   0  0  0  0  0  0  0  0  0  0  0  0
  1  2  1  0  0  0  0
  1 23  1  0  0  0  0
  1 24  1  0  0  0  0
  1 25  1  0  0  0  0
  2  3  1  0  0  0  0
  2  4  1  0  0  0  0
  2 26  1  0  0  0  0
  3 27  1  0  0  0  0
  3 28  1  0  0  0  0
  3 29  1  0  0  0  0
  4  5  1  0  0  0  0
  4 30  1  0  0  0  0
  5  6  2  0  0  0  0
  5  7  1  0  0  0  0
  7  8  1  0  0  0  0
  7 31  1  0  0  0  0
  7 32  1  0  0  0  0
  8  9  1  0  0  0  0
  8 33  1  0  0  0  0
  8 34  1  0  0  0  0
  9 22  1  0  0  0  0
  9 10  1  0  0  0  0
  9 48  1  0  0  0  0
 10 11  1  0  0  0  0
 10 35  1  0  0  0  0
 10 36  1  0  0  0  0
 11 12  1  0  0  0  0
 11 37  1  0  0  0  0
 11 38  1  0  0  0  0
 12 13  1  0  0  0  0
 13 14  1  0  0  0  0
 13 22  1  0  0  0  0
 13 39  1  0  0  0  0
 14 15  1  0  0  0  0
 14 40  1  0  0  0  0
 14 41  1  0  0  0  0
 15 16  1  0  0  0  0
 15 42  1  0  0  0  0
 16 21  1  0  0  0  0
 16 17  2  0  0  0  0
 17 18  1  0  0  0  0
 17 43  1  0  0  0  0
 18 19  2  0  0  0  0
 18 44  1  0  0  0  0
 19 20  1  0  0  0  0
 19 45  1  0  0  0  0
 20 21  2  0  0  0  0
 22 46  1  0  0  0  0
 22 47  1  0  0  0  0
M  CHG  1   9   1
M  END
> <s_m_source_file>
AV-unprocessed.smi

> <i_m_source_file_index>
652

> <i_lp_mmshare_version>
43012

> <i_f3d_flags>
0

> <s_epik_input>
W0NIM11bQ0hdKFtDSDNdKVtOSF1DKD1PKVtDSDJdW0NIMl1OMVtDSDJdW0NIMl1PW0NASF0oW0NIMl0xKVtDSDJdW05IXWMyW2NIXVtjSF1bY0hdbm4y

> <s_epik_cmdline>
J2VwaWtfcHl0aG9uJywgJy1waCcsICc3LjAnLCAnLXRuJywgJzgnLCAnLW1hJywgJzIwMCcsICctbWV0YWxfYmluZGluZycsICctaW1hZScsICc8aW5maWxlLm1hZT4nLCAnLW9tYWUnLCAnPG91dGZpbGUubWFlPic=

> <r_lp_tautomer_probability>
0.999978

> <r_epik_Ionization_Penalty>
0.433079

> <r_epik_Ionization_Penalty_Charging>
0.413784

> <r_epik_Ionization_Penalty_Neutral>
0.0192945

> <r_epik_State_Penalty>
0.425138

> <r_epik_Charging_Adjusted_Penalty>
0.838922

> <i_epik_Tot_Q>
1

> <i_epik_Tot_abs_Q>
1

> <r_epik_Metal_State_Penalty>
0.422073

> <b_epik_Metal_Only>
0

> <s_lp_Force_Field>
OPLS_2005

> <r_lp_Energy>
22.7305

> <b_lp_Chiralities_Consistent>
1

> <s_lp_Variant>
AV-unprocessed.smi:652-3

> <Gold.Version>
5.8.1

> <Gold.Id.Protein>
6NUR|6NUR_protein|mol2

> <Gold.PLP.Fitness>
49.4996

> <Gold.PLP.PLP>
-39.3076

> <Gold.PLP.part.hbond>
-3.2095

> <Gold.PLP.part.metal>
0.0000

> <Gold.PLP.part.buried>
-3.1629

> <Gold.PLP.part.nonpolar>
-32.7193

> <Gold.PLP.part.repulsive>
0.2620

> <Gold.PLP.ligand.clash>
0.0000

> <Gold.PLP.ligand.torsion>
1.0752

> <Gold.PLP.Chemscore.Hbond>
4.0000

> <Gold.PLP.Chemscore.CHOScore>
0.0000

> <Gold.PLP.Chemscore.Metal>
0.0000

> <Gold.Chemscore.Hbonds>
donor molecule, donor type, donor heavy atom, donor atom, acceptor molecule, acceptor atom, score
      L1  H     4    30       P1  7948  1.00
      L1  H     9    48       P1  7948  2.00
      L1  H    15    42       P1  8028  1.00

> <Gold.PLP.Chemscore.Internal.Correction>
0.3424

> <Gold.Rescore>
     Score         DG    S(hbond)    S(metal)    S(lipo)     H(rot)  DE(clash)    DE(int)     intcor
     18.13     -19.93       2.95        0.00      88.80       2.26       0.06       1.74       ----

> <Gold.Chemscore.Fitness>
18.1276

> <Gold.Chemscore.DG>
-19.9274

> <Gold.Chemscore.ZeroCoef>
-5.4800

> <Gold.Chemscore.Hbond>
2.9466

> <Gold.Chemscore.Metal>
0.0000

> <Gold.Chemscore.Lipo>
88.8017

> <Gold.Chemscore.Internal_Hbond>
0.0000

> <Gold.Chemscore.DEClash>
0.0580

> <Gold.Chemscore.DEInternal>
1.7419

> <Gold.Chemscore.Rot>
2.2594

> <Gold.Chemscore.Internal.Correction>
   9.000000E+99

> <Gold.Chemscore.Hbonds>
donor molecule, donor type, donor heavy atom, donor atom, acceptor molecule, acceptor atom, score
      L1  H     4    30       P1  7948  0.67
      L1  H     9    48       P1  7948  0.99
      L1  H    15    42       P1  8028  0.97

> <Gold.Chemscore.Hbond.Weighted>
-9.8417

> <Gold.Chemscore.Metal.Weighted>
-0.0000

> <Gold.Chemscore.Lipo.Weighted>
-10.3898

> <Gold.Chemscore.Internal_Hbond.Weighted>
0.0000

> <Gold.Chemscore.DEClash.Weighted>
0.0580

> <Gold.Chemscore.DEInternal.Weighted>
1.7419

> <Gold.Chemscore.Rot.Weighted>
5.7841

> <Gold.Chemscore.Internal.Correction.Weighted>
   9.000000E+99

> <Gold.Protein.RotatedTorsions>
[ 6907 6896 6895 6894 ] final  -22.67 input  -60.11 | X-H torsion
[ 7974 7965 7964 7962 ] final   25.89 input  175.53 | X-H torsion
[ 8008 7997 7996 7995 ] final   36.00 input   59.86 | X-H torsion
[ 10167 10162 10161 10158 ] final -172.63 input  -65.29 | X-H torsion
[ 10718 10713 10712 10709 ] final  136.05 input   66.30 | X-H torsion
[ 10763 10752 10751 10750 ] final -173.71 input  -60.55 | X-H torsion
[ 11005 11000 10999 10996 ] final  -31.83 input  -57.11 | X-H torsion

> <Gold.Protein.ActiveResidues>
 VAL166  LYS551  ARG553  GLY616  TRP617  ASP618  TYR619  PRO620  LYS621  CYS622 
 ASP623  PHE694  ASN695  SER759  ASP760  ASP761  ALA762  ILE779  LEU786  VAL792 
 PHE793  MET794  SER795  GLU796  ALA797  LYS798  CYS799  TRP800  GLU811  SER814 

> <Gold.Protein.RotatedAtoms>
  151.2152  135.0497  159.8927 H   0  0  0  0  0  0  0  0  0  0  0  0  # atno 6907 bound_to 6896
  152.5421  134.0701  159.8200 H   0  0  0  0  0  0  0  0  0  0  0  0  # atno 6908 bound_to 6896
  151.0860  133.5305  159.2649 H   0  0  0  0  0  0  0  0  0  0  0  0  # atno 6909 bound_to 6896
  146.1866  139.7404  142.8862 H   0  0  0  0  0  0  0  0  0  0  0  0  # atno 7974 bound_to 7965
  155.1803  140.3299  155.4376 H   0  0  0  0  0  0  0  0  0  0  0  0  # atno 8008 bound_to 7997
  156.2479  140.1928  156.6852 H   0  0  0  0  0  0  0  0  0  0  0  0  # atno 8009 bound_to 7997
  154.6276  140.0587  156.9678 H   0  0  0  0  0  0  0  0  0  0  0  0  # atno 8010 bound_to 7997
  139.5734  144.1589  152.1416 H   0  0  0  0  0  0  0  0  0  0  0  0  # atno 10167 bound_to 10162
  157.4507  131.1065  151.0037 H   0  0  0  0  0  0  0  0  0  0  0  0  # atno 10718 bound_to 10713
  154.6047  135.2858  155.0497 H   0  0  0  0  0  0  0  0  0  0  0  0  # atno 10763 bound_to 10752
  154.1749  135.6466  153.5023 H   0  0  0  0  0  0  0  0  0  0  0  0  # atno 10764 bound_to 10752
  153.0171  135.5409  154.6779 H   0  0  0  0  0  0  0  0  0  0  0  0  # atno 10765 bound_to 10752
  140.9501  133.7226  156.1206 H   0  0  0  0  0  0  0  0  0  0  0  0  # atno 11005 bound_to 11000
  145.3921  141.0374  143.3118 LP  0  0  0  0  0  0  0  0  0  0  0  0  # atno 17320 bound_to 7965
  144.8408  139.5475  143.6901 LP  0  0  0  0  0  0  0  0  0  0  0  0  # atno 17321 bound_to 7965
  140.1127  144.5443  150.6914 LP  0  0  0  0  0  0  0  0  0  0  0  0  # atno 17342 bound_to 10162
  140.7017  143.2440  151.4844 LP  0  0  0  0  0  0  0  0  0  0  0  0  # atno 17343 bound_to 10162
  157.0867  130.5925  149.5431 LP  0  0  0  0  0  0  0  0  0  0  0  0  # atno 17370 bound_to 10713
  155.9986  130.5060  150.7576 LP  0  0  0  0  0  0  0  0  0  0  0  0  # atno 17371 bound_to 10713
  140.7615  134.3934  157.5525 LP  0  0  0  0  0  0  0  0  0  0  0  0  # atno 17394 bound_to 11000
  139.8845  134.8964  156.2701 LP  0  0  0  0  0  0  0  0  0  0  0  0  # atno 17395 bound_to 11000

$$$$
