AV-unprocessed.smi:1971|AV-procd|sdf|7973|dock8
  -GOLD-   2272010143D 1   1.00000     0.00000
 Structure written by MMmdl.
 42 43  0  0  0  0  0  0  0  0  2 V2000
  151.9406  145.3253  159.6081 C   0  0  0  0  0  0  0  0  0  0  0  0
  152.4929  143.8963  159.5077 C   0  0  0  0  0  0  0  0  0  0  0  0
  151.5474  142.9063  158.9961 N   0  0  0  0  0  0  0  0  0  0  0  0
  151.9497  141.5348  159.3047 C   0  0  0  0  0  0  0  0  0  0  0  0
  150.9423  140.5079  158.7542 C   0  0  0  0  0  0  0  0  0  0  0  0
  150.7759  140.6047  157.2956 N   0  0  0  0  0  0  0  0  0  0  0  0
  149.8003  139.6235  156.7631 C   0  0  1  0  0  0  0  0  0  0  0  0
  149.8572  139.5043  155.2186 C   0  0  0  0  0  0  0  0  0  0  0  0
  149.9483  138.2073  157.3895 C   0  0  0  0  0  0  0  0  0  0  0  0
  149.1745  138.0436  158.6193 N   0  0  0  0  0  0  0  0  0  0  0  0
  149.1194  136.9481  159.3913 C   0  0  0  0  0  0  0  0  0  0  0  0
  149.7721  135.9458  159.0914 O   0  0  0  0  0  0  0  0  0  0  0  0
  148.2994  137.0793  160.4590 N   0  5  0  0  0  0  0  0  0  0  0  0
  147.8884  135.9908  161.1294 C   0  0  0  0  0  0  0  0  0  0  0  0
  147.6243  134.8231  160.5321 N   0  0  0  0  0  0  0  0  0  0  0  0
  147.2196  133.8248  161.4200 C   0  0  0  0  0  0  0  0  0  0  0  0
  147.1835  134.2391  162.7250 C   0  0  0  0  0  0  0  0  0  0  0  0
  147.6612  135.9055  162.8790 S   0  0  0  0  0  0  0  0  0  0  0  0
  150.4000  141.9946  156.9922 C   0  0  0  0  0  0  0  0  0  0  0  0
  151.4124  143.0130  157.5466 C   0  0  0  0  0  0  0  0  0  0  0  0
  152.7303  146.0212  159.8916 H   0  0  0  0  0  0  0  0  0  0  0  0
  151.1538  145.4068  160.3575 H   0  0  0  0  0  0  0  0  0  0  0  0
  151.5345  145.6577  158.6524 H   0  0  0  0  0  0  0  0  0  0  0  0
  153.3595  143.9282  158.8461 H   0  0  0  0  0  0  0  0  0  0  0  0
  152.8710  143.5816  160.4815 H   0  0  0  0  0  0  0  0  0  0  0  0
  152.9401  141.3324  158.8940 H   0  0  0  0  0  0  0  0  0  0  0  0
  152.0252  141.3984  160.3829 H   0  0  0  0  0  0  0  0  0  0  0  0
  151.3168  139.5254  159.0334 H   0  0  0  0  0  0  0  0  0  0  0  0
  149.9788  140.6337  159.2507 H   0  0  0  0  0  0  0  0  0  0  0  0
  148.7993  139.9768  157.0156 H   0  0  0  0  0  0  0  0  0  0  0  0
  149.1517  138.7697  154.8333 H   0  0  0  0  0  0  0  0  0  0  0  0
  150.8520  139.2109  154.8820 H   0  0  0  0  0  0  0  0  0  0  0  0
  149.5898  140.4331  154.7178 H   0  0  0  0  0  0  0  0  0  0  0  0
  149.7024  137.4417  156.6520 H   0  0  0  0  0  0  0  0  0  0  0  0
  150.9756  138.0172  157.6935 H   0  0  0  0  0  0  0  0  0  0  0  0
  148.6197  138.8349  158.9104 H   0  0  0  0  0  0  0  0  0  0  0  0
  146.9765  132.8455  161.0355 H   0  0  0  0  0  0  0  0  0  0  0  0
  146.9086  133.6700  163.6000 H   0  0  0  0  0  0  0  0  0  0  0  0
  150.3536  142.1539  155.9168 H   0  0  0  0  0  0  0  0  0  0  0  0
  149.4062  142.2092  157.3883 H   0  0  0  0  0  0  0  0  0  0  0  0
  151.0855  144.0190  157.2811 H   0  0  0  0  0  0  0  0  0  0  0  0
  152.3814  142.8643  157.0670 H   0  0  0  0  0  0  0  0  0  0  0  0
  1  2  1  0  0  0  0
  1 21  1  0  0  0  0
  1 22  1  0  0  0  0
  1 23  1  0  0  0  0
  2  3  1  0  0  0  0
  2 24  1  0  0  0  0
  2 25  1  0  0  0  0
  3 20  1  0  0  0  0
  3  4  1  0  0  0  0
  4  5  1  0  0  0  0
  4 26  1  0  0  0  0
  4 27  1  0  0  0  0
  5  6  1  0  0  0  0
  5 28  1  0  0  0  0
  5 29  1  0  0  0  0
  6  7  1  0  0  0  0
  6 19  1  0  0  0  0
  7  8  1  0  0  0  0
  7  9  1  0  0  0  0
  7 30  1  0  0  0  0
  8 31  1  0  0  0  0
  8 32  1  0  0  0  0
  8 33  1  0  0  0  0
  9 10  1  0  0  0  0
  9 34  1  0  0  0  0
  9 35  1  0  0  0  0
 10 11  1  0  0  0  0
 10 36  1  0  0  0  0
 11 12  2  0  0  0  0
 11 13  1  0  0  0  0
 13 14  1  0  0  0  0
 14 18  1  0  0  0  0
 14 15  2  0  0  0  0
 15 16  1  0  0  0  0
 16 17  2  0  0  0  0
 16 37  1  0  0  0  0
 17 18  1  0  0  0  0
 17 38  1  0  0  0  0
 19 20  1  0  0  0  0
 19 39  1  0  0  0  0
 19 40  1  0  0  0  0
 20 41  1  0  0  0  0
 20 42  1  0  0  0  0
M  CHG  1  13  -1
M  END
> <s_m_source_file>
AV-unprocessed.smi

> <i_m_source_file_index>
1971

> <i_lp_mmshare_version>
43012

> <i_f3d_flags>
0

> <s_epik_input>
W0NIM11bQ0gyXU4xW0NIMl1bQ0gyXU4oW0NIMl1bQ0gyXTEpW0NASF0oW0NIM10pW0NIMl1bTkhdQyg9TylbTkhdYzJuW2NIXVtjSF1zMg==

> <s_epik_cmdline>
J2VwaWtfcHl0aG9uJywgJy1waCcsICc3LjAnLCAnLXRuJywgJzgnLCAnLW1hJywgJzIwMCcsICctbWV0YWxfYmluZGluZycsICctaW1hZScsICc8aW5maWxlLm1hZT4nLCAnLW9tYWUnLCAnPG91dGZpbGUubWFlPic=

> <r_lp_tautomer_probability>
0.999

> <r_epik_Ionization_Penalty>
9.52272

> <r_epik_Ionization_Penalty_Charging>
5.92713

> <r_epik_Ionization_Penalty_Neutral>
3.59559

> <r_epik_State_Penalty>
7.69531

> <r_epik_Charging_Adjusted_Penalty>
13.6224

> <i_epik_Tot_Q>
-1

> <i_epik_Tot_abs_Q>
1

> <r_epik_Metal_State_Penalty>
3.66212

> <b_epik_Metal_Only>
1

> <s_lp_Force_Field>
OPLS_2005

> <r_lp_Energy>
38.2579

> <b_lp_Chiralities_Consistent>
1

> <s_lp_Variant>
AV-unprocessed.smi:1971-12

> <Gold.Version>
5.8.1

> <Gold.Id.Protein>
6NUR|6NUR_protein|mol2

> <Gold.PLP.Fitness>
47.9928

> <Gold.PLP.PLP>
-39.4606

> <Gold.PLP.part.hbond>
-3.0000

> <Gold.PLP.part.metal>
0.0000

> <Gold.PLP.part.buried>
-6.0121

> <Gold.PLP.part.nonpolar>
-32.5000

> <Gold.PLP.part.repulsive>
0.2142

> <Gold.PLP.ligand.clash>
0.0000

> <Gold.PLP.ligand.torsion>
1.0666

> <Gold.PLP.Chemscore.Hbond>
3.5320

> <Gold.PLP.Chemscore.CHOScore>
0.0000

> <Gold.PLP.Chemscore.Metal>
0.0000

> <Gold.Chemscore.Hbonds>
donor molecule, donor type, donor heavy atom, donor atom, acceptor molecule, acceptor atom, score
      P1  H  6896  6908       L1    12  1.00
      P1  H  6931  6943       L1    13  1.57
      P1  H  6934  6947       L1    13  0.49

> <Gold.PLP.Chemscore.Internal.Correction>
0.0693

> <Gold.Rescore>
     Score         DG    S(hbond)    S(metal)    S(lipo)     H(rot)  DE(clash)    DE(int)     intcor
     16.48     -18.84       2.11        0.00      91.14       1.70       0.03       2.33       ----

> <Gold.Chemscore.Fitness>
16.4784

> <Gold.Chemscore.DG>
-18.8433

> <Gold.Chemscore.ZeroCoef>
-5.4800

> <Gold.Chemscore.Hbond>
2.1142

> <Gold.Chemscore.Metal>
0.0000

> <Gold.Chemscore.Lipo>
91.1404

> <Gold.Chemscore.Internal_Hbond>
0.0000

> <Gold.Chemscore.DEClash>
0.0344

> <Gold.Chemscore.DEInternal>
2.3306

> <Gold.Chemscore.Rot>
1.7037

> <Gold.Chemscore.Internal.Correction>
   9.000000E+99

> <Gold.Chemscore.Hbonds>
donor molecule, donor type, donor heavy atom, donor atom, acceptor molecule, acceptor atom, score
      P1  H  6896  6908       L1    12  0.99
      P1  H  6931  6943       L1    13  0.29
      P1  H  6934  6947       L1    13  0.22

> <Gold.Chemscore.Hbond.Weighted>
-7.0613

> <Gold.Chemscore.Metal.Weighted>
-0.0000

> <Gold.Chemscore.Lipo.Weighted>
-10.6634

> <Gold.Chemscore.Internal_Hbond.Weighted>
0.0000

> <Gold.Chemscore.DEClash.Weighted>
0.0344

> <Gold.Chemscore.DEInternal.Weighted>
2.3306

> <Gold.Chemscore.Rot.Weighted>
4.3614

> <Gold.Chemscore.Internal.Correction.Weighted>
   9.000000E+99

> <Gold.Protein.RotatedTorsions>
[ 6907 6896 6895 6894 ] final  171.65 input  -60.11 | X-H torsion
[ 7974 7965 7964 7962 ] final  149.84 input  175.53 | X-H torsion
[ 8008 7997 7996 7995 ] final  143.90 input   59.86 | X-H torsion
[ 10167 10162 10161 10158 ] final   -7.37 input  -65.29 | X-H torsion
[ 10718 10713 10712 10709 ] final   93.21 input   66.30 | X-H torsion
[ 10763 10752 10751 10750 ] final -121.25 input  -60.55 | X-H torsion
[ 11005 11000 10999 10996 ] final  -70.90 input  -57.11 | X-H torsion

> <Gold.Protein.ActiveResidues>
 VAL166  LYS551  ARG553  GLY616  TRP617  ASP618  TYR619  PRO620  LYS621  CYS622 
 ASP623  PHE694  ASN695  SER759  ASP760  ASP761  ALA762  ILE779  LEU786  VAL792 
 PHE793  MET794  SER795  GLU796  ALA797  LYS798  CYS799  TRP800  GLU811  SER814 

> <Gold.Protein.RotatedAtoms>
  151.7968  133.3365  159.3514 H   0  0  0  0  0  0  0  0  0  0  0  0  # atno 6907 bound_to 6896
  150.7372  134.5791  159.5939 H   0  0  0  0  0  0  0  0  0  0  0  0  # atno 6908 bound_to 6896
  152.3171  134.7427  160.0374 H   0  0  0  0  0  0  0  0  0  0  0  0  # atno 6909 bound_to 6896
  144.8408  139.6332  143.6017 H   0  0  0  0  0  0  0  0  0  0  0  0  # atno 7974 bound_to 7965
  156.2920  140.2250  156.4966 H   0  0  0  0  0  0  0  0  0  0  0  0  # atno 8008 bound_to 7997
  154.7726  140.0465  157.1084 H   0  0  0  0  0  0  0  0  0  0  0  0  # atno 8009 bound_to 7997
  154.9856  140.3084  155.4931 H   0  0  0  0  0  0  0  0  0  0  0  0  # atno 8010 bound_to 7997
  140.7027  143.6088  150.8724 H   0  0  0  0  0  0  0  0  0  0  0  0  # atno 10167 bound_to 10162
  157.6955  131.0470  150.4000 H   0  0  0  0  0  0  0  0  0  0  0  0  # atno 10718 bound_to 10713
  154.8664  135.4174  154.2590 H   0  0  0  0  0  0  0  0  0  0  0  0  # atno 10763 bound_to 10752
  153.3522  135.6999  153.6785 H   0  0  0  0  0  0  0  0  0  0  0  0  # atno 10764 bound_to 10752
  153.5720  135.3589  155.2814 H   0  0  0  0  0  0  0  0  0  0  0  0  # atno 10765 bound_to 10752
  141.1582  133.6802  156.6823 H   0  0  0  0  0  0  0  0  0  0  0  0  # atno 11005 bound_to 11000
  146.2701  139.6614  142.9302 LP  0  0  0  0  0  0  0  0  0  0  0  0  # atno 17320 bound_to 7965
  145.4698  141.0435  143.2705 LP  0  0  0  0  0  0  0  0  0  0  0  0  # atno 17321 bound_to 7965
  139.9811  143.5950  152.2942 LP  0  0  0  0  0  0  0  0  0  0  0  0  # atno 17342 bound_to 10162
  139.6571  144.7662  151.2034 LP  0  0  0  0  0  0  0  0  0  0  0  0  # atno 17343 bound_to 10162
  156.4394  130.3988  149.6707 LP  0  0  0  0  0  0  0  0  0  0  0  0  # atno 17370 bound_to 10713
  156.3896  130.7620  151.2620 LP  0  0  0  0  0  0  0  0  0  0  0  0  # atno 17371 bound_to 10713
  140.3093  134.8099  157.4163 LP  0  0  0  0  0  0  0  0  0  0  0  0  # atno 17394 bound_to 11000
  140.1193  134.5241  155.8198 LP  0  0  0  0  0  0  0  0  0  0  0  0  # atno 17395 bound_to 11000

$$$$
