AV-unprocessed.smi:3330|AV-procd|sdf|12803|dock7
  -GOLD-   2272019163D 1   1.00000     0.00000
 Structure written by MMmdl.
 39 40  0  0  0  0  0  0  0  0  2 V2000
  151.7839  140.9244  157.9747 C   0  0  0  0  0  0  0  0  0  0  0  0
  151.1199  142.3123  157.9148 C   0  0  2  0  0  0  0  0  0  0  0  0
  150.8287  142.6380  156.5003 N   0  3  0  0  0  0  0  0  0  0  0  0
  150.3803  141.4954  155.6794 C   0  0  0  0  0  0  0  0  0  0  0  0
  148.8485  141.3828  155.6852 C   0  0  0  0  0  0  0  0  0  0  0  0
  148.3737  140.5360  154.5881 N   0  0  0  0  0  0  0  0  0  0  0  0
  147.3525  140.8482  153.7799 C   0  0  0  0  0  0  0  0  0  0  0  0
  146.6538  141.8602  153.8149 O   0  0  0  0  0  0  0  0  0  0  0  0
  147.1855  139.7359  152.7676 C   0  0  0  0  0  0  0  0  0  0  0  0
  148.2626  138.8677  153.1934 N   0  0  0  0  0  0  0  0  0  0  0  0
  148.9322  139.3617  154.2427 C   0  0  0  0  0  0  0  0  0  0  0  0
  149.8981  138.8270  154.7853 O   0  0  0  0  0  0  0  0  0  0  0  0
  151.9848  143.4267  158.5649 C   0  0  1  0  0  0  0  0  0  0  0  0
  151.2806  144.7967  158.5996 C   0  0  0  0  0  0  0  0  0  0  0  0
  152.4292  143.0624  159.9045 N   0  0  0  0  0  0  0  0  0  0  0  0
  152.1325  143.6822  161.1010 C   0  0  0  0  0  0  0  0  0  0  0  0
  152.7717  142.9903  162.0894 C   0  0  0  0  0  0  0  0  0  0  0  0
  153.4418  141.9467  161.3926 C   0  0  0  0  0  0  0  0  0  0  0  0
  153.2350  141.9915  160.0867 N   0  0  0  0  0  0  0  0  0  0  0  0
  151.9211  140.5835  159.0010 H   0  0  0  0  0  0  0  0  0  0  0  0
  152.7620  140.9316  157.4927 H   0  0  0  0  0  0  0  0  0  0  0  0
  151.1712  140.1761  157.4707 H   0  0  0  0  0  0  0  0  0  0  0  0
  150.1786  142.2368  158.4625 H   0  0  0  0  0  0  0  0  0  0  0  0
  150.1188  143.3561  156.4773 H   0  0  0  0  0  0  0  0  0  0  0  0
  150.7436  141.6263  154.6590 H   0  0  0  0  0  0  0  0  0  0  0  0
  150.8234  140.5758  156.0630 H   0  0  0  0  0  0  0  0  0  0  0  0
  148.5078  140.9752  156.6388 H   0  0  0  0  0  0  0  0  0  0  0  0
  148.4003  142.3754  155.6115 H   0  0  0  0  0  0  0  0  0  0  0  0
  146.2143  139.2489  152.8595 H   0  0  0  0  0  0  0  0  0  0  0  0
  147.3349  140.0926  151.7480 H   0  0  0  0  0  0  0  0  0  0  0  0
  148.4793  137.9943  152.7350 H   0  0  0  0  0  0  0  0  0  0  0  0
  152.8872  143.5414  157.9621 H   0  0  0  0  0  0  0  0  0  0  0  0
  151.0841  145.1721  157.5954 H   0  0  0  0  0  0  0  0  0  0  0  0
  151.8988  145.5407  159.1033 H   0  0  0  0  0  0  0  0  0  0  0  0
  150.3284  144.7450  159.1286 H   0  0  0  0  0  0  0  0  0  0  0  0
  151.4994  144.5560  161.1497 H   0  0  0  0  0  0  0  0  0  0  0  0
  152.7612  143.1969  163.1493 H   0  0  0  0  0  0  0  0  0  0  0  0
  154.0676  141.1635  161.7946 H   0  0  0  0  0  0  0  0  0  0  0  0
  151.6709  143.0071  156.0825 H   0  0  0  0  0  0  0  0  0  0  0  0
  1  2  1  0  0  0  0
  1 20  1  0  0  0  0
  1 21  1  0  0  0  0
  1 22  1  0  0  0  0
  2  3  1  0  0  0  0
  2 13  1  0  0  0  0
  2 23  1  0  0  0  0
  3  4  1  0  0  0  0
  3 24  1  0  0  0  0
  3 39  1  0  0  0  0
  4  5  1  0  0  0  0
  4 25  1  0  0  0  0
  4 26  1  0  0  0  0
  5  6  1  0  0  0  0
  5 27  1  0  0  0  0
  5 28  1  0  0  0  0
  6 11  1  0  0  0  0
  6  7  1  0  0  0  0
  7  8  2  0  0  0  0
  7  9  1  0  0  0  0
  9 10  1  0  0  0  0
  9 29  1  0  0  0  0
  9 30  1  0  0  0  0
 10 11  1  0  0  0  0
 10 31  1  0  0  0  0
 11 12  2  0  0  0  0
 13 14  1  0  0  0  0
 13 15  1  0  0  0  0
 13 32  1  0  0  0  0
 14 33  1  0  0  0  0
 14 34  1  0  0  0  0
 14 35  1  0  0  0  0
 15 19  1  0  0  0  0
 15 16  1  0  0  0  0
 16 17  2  0  0  0  0
 16 36  1  0  0  0  0
 17 18  1  0  0  0  0
 17 37  1  0  0  0  0
 18 19  2  0  0  0  0
 18 38  1  0  0  0  0
M  CHG  1   3   1
M  END
> <s_m_source_file>
AV-unprocessed.smi

> <i_m_source_file_index>
3330

> <i_lp_mmshare_version>
43012

> <i_f3d_flags>
0

> <s_epik_input>
bjFbY0hdW2NIXVtjSF1uMVtDQEBIXShbQ0gzXSlbQ0BIXShbQ0gzXSlbTkhdW0NIMl1bQ0gyXU4yQyg9TylbQ0gyXVtOSF1DMj1P

> <s_epik_cmdline>
J2VwaWtfcHl0aG9uJywgJy1waCcsICc3LjAnLCAnLXRuJywgJzgnLCAnLW1hJywgJzIwMCcsICctbWV0YWxfYmluZGluZycsICctaW1hZScsICc8aW5maWxlLm1hZT4nLCAnLW9tYWUnLCAnPG91dGZpbGUubWFlPic=

> <r_lp_tautomer_probability>
1

> <r_epik_Ionization_Penalty>
0.0124905

> <r_epik_Ionization_Penalty_Charging>
0.0123685

> <r_epik_Ionization_Penalty_Neutral>
0.000122059

> <r_epik_State_Penalty>
0.00957041

> <r_epik_Charging_Adjusted_Penalty>
0.0219389

> <i_epik_Tot_Q>
1

> <i_epik_Tot_abs_Q>
1

> <r_epik_Metal_State_Penalty>
0.0858301

> <b_epik_Metal_Only>
0

> <s_lp_Force_Field>
OPLS_2005

> <r_lp_Energy>
25.3738

> <b_lp_Chiralities_Consistent>
1

> <s_lp_Variant>
AV-unprocessed.smi:3330-3

> <Gold.Version>
5.8.1

> <Gold.Id.Protein>
6NUR|6NUR_protein|mol2

> <Gold.PLP.Fitness>
52.9355

> <Gold.PLP.PLP>
-45.4026

> <Gold.PLP.part.hbond>
-2.9932

> <Gold.PLP.part.metal>
0.0000

> <Gold.PLP.part.buried>
-5.1141

> <Gold.PLP.part.nonpolar>
-38.2201

> <Gold.PLP.part.repulsive>
0.4717

> <Gold.PLP.ligand.clash>
0.0000

> <Gold.PLP.ligand.torsion>
0.7817

> <Gold.PLP.Chemscore.Hbond>
3.0000

> <Gold.PLP.Chemscore.CHOScore>
0.0000

> <Gold.PLP.Chemscore.Metal>
0.0000

> <Gold.Chemscore.Hbonds>
donor molecule, donor type, donor heavy atom, donor atom, acceptor molecule, acceptor atom, score
      L1  H     3    24       P1  8028  2.00
      L1  H    10    31       P1  7948  1.00

> <Gold.PLP.Chemscore.Internal.Correction>
0.0962

> <Gold.Rescore>
     Score         DG    S(hbond)    S(metal)    S(lipo)     H(rot)  DE(clash)    DE(int)     intcor
     14.75     -16.62       1.99        0.00      96.62       2.67       0.09       1.78       ----

> <Gold.Chemscore.Fitness>
14.7535

> <Gold.Chemscore.DG>
-16.6161

> <Gold.Chemscore.ZeroCoef>
-5.4800

> <Gold.Chemscore.Hbond>
1.9935

> <Gold.Chemscore.Metal>
0.0000

> <Gold.Chemscore.Lipo>
96.6191

> <Gold.Chemscore.Internal_Hbond>
0.0000

> <Gold.Chemscore.DEClash>
0.0873

> <Gold.Chemscore.DEInternal>
1.7753

> <Gold.Chemscore.Rot>
2.6666

> <Gold.Chemscore.Internal.Correction>
   9.000000E+99

> <Gold.Chemscore.Hbonds>
donor molecule, donor type, donor heavy atom, donor atom, acceptor molecule, acceptor atom, score
      L1  H     3    24       P1  8028  0.94
      L1  H    10    31       P1  7948  0.96

> <Gold.Chemscore.Hbond.Weighted>
-6.6581

> <Gold.Chemscore.Metal.Weighted>
-0.0000

> <Gold.Chemscore.Lipo.Weighted>
-11.3044

> <Gold.Chemscore.Internal_Hbond.Weighted>
0.0000

> <Gold.Chemscore.DEClash.Weighted>
0.0873

> <Gold.Chemscore.DEInternal.Weighted>
1.7753

> <Gold.Chemscore.Rot.Weighted>
6.8265

> <Gold.Chemscore.Internal.Correction.Weighted>
   9.000000E+99

> <Gold.Protein.RotatedTorsions>
[ 6907 6896 6895 6894 ] final  -52.59 input  -60.11 | X-H torsion
[ 7974 7965 7964 7962 ] final -120.68 input  175.53 | X-H torsion
[ 8008 7997 7996 7995 ] final  138.21 input   59.86 | X-H torsion
[ 10167 10162 10161 10158 ] final  154.35 input  -65.29 | X-H torsion
[ 10718 10713 10712 10709 ] final  110.96 input   66.30 | X-H torsion
[ 10763 10752 10751 10750 ] final   28.50 input  -60.55 | X-H torsion
[ 11005 11000 10999 10996 ] final  131.19 input  -57.11 | X-H torsion

> <Gold.Protein.ActiveResidues>
 VAL166  LYS551  ARG553  GLY616  TRP617  ASP618  TYR619  PRO620  LYS621  CYS622 
 ASP623  PHE694  ASN695  SER759  ASP760  ASP761  ALA762  ILE779  LEU786  VAL792 
 PHE793  MET794  SER795  GLU796  ALA797  LYS798  CYS799  TRP800  GLU811  SER814 

> <Gold.Protein.RotatedAtoms>
  150.8504  134.7827  159.7003 H   0  0  0  0  0  0  0  0  0  0  0  0  # atno 6907 bound_to 6896
  152.4570  134.5266  159.9808 H   0  0  0  0  0  0  0  0  0  0  0  0  # atno 6908 bound_to 6896
  151.5388  133.3398  159.2967 H   0  0  0  0  0  0  0  0  0  0  0  0  # atno 6909 bound_to 6896
  145.0487  140.8201  143.4222 H   0  0  0  0  0  0  0  0  0  0  0  0  # atno 7974 bound_to 7965
  156.2998  140.2399  156.4035 H   0  0  0  0  0  0  0  0  0  0  0  0  # atno 8008 bound_to 7997
  154.8505  140.0424  157.1621 H   0  0  0  0  0  0  0  0  0  0  0  0  # atno 8009 bound_to 7997
  154.9004  140.2976  155.5325 H   0  0  0  0  0  0  0  0  0  0  0  0  # atno 8010 bound_to 7997
  139.4823  144.5194  151.7900 H   0  0  0  0  0  0  0  0  0  0  0  0  # atno 10167 bound_to 10162
  157.6468  131.0942  150.6679 H   0  0  0  0  0  0  0  0  0  0  0  0  # atno 10718 bound_to 10713
  153.0488  135.6511  154.0747 H   0  0  0  0  0  0  0  0  0  0  0  0  # atno 10763 bound_to 10752
  154.0440  135.2901  155.3352 H   0  0  0  0  0  0  0  0  0  0  0  0  # atno 10764 bound_to 10752
  154.6763  135.5337  153.8270 H   0  0  0  0  0  0  0  0  0  0  0  0  # atno 10765 bound_to 10752
  139.9716  134.9576  156.9403 H   0  0  0  0  0  0  0  0  0  0  0  0  # atno 11005 bound_to 11000
  145.1555  139.2489  143.5419 LP  0  0  0  0  0  0  0  0  0  0  0  0  # atno 17320 bound_to 7965
  146.3516  140.1268  142.8598 LP  0  0  0  0  0  0  0  0  0  0  0  0  # atno 17321 bound_to 7965
  140.4706  144.1592  150.5917 LP  0  0  0  0  0  0  0  0  0  0  0  0  # atno 17342 bound_to 10162
  140.4386  143.2536  151.9502 LP  0  0  0  0  0  0  0  0  0  0  0  0  # atno 17343 bound_to 10162
  156.6995  130.4619  149.5577 LP  0  0  0  0  0  0  0  0  0  0  0  0  # atno 17370 bound_to 10713
  156.1805  130.6496  151.0946 LP  0  0  0  0  0  0  0  0  0  0  0  0  # atno 17371 bound_to 10713
  140.5282  134.0840  155.7309 LP  0  0  0  0  0  0  0  0  0  0  0  0  # atno 17394 bound_to 11000
  141.1395  133.9163  157.2358 LP  0  0  0  0  0  0  0  0  0  0  0  0  # atno 17395 bound_to 11000

$$$$
