AV-unprocessed.smi:648|AV-procd|sdf|3176|dock9
  -GOLD-   22720 0103D 1   1.00000     0.00000
 Structure written by MMmdl.
 45 46  0  0  0  0  0  0  0  0  1 V2000
  141.9883  135.8446  153.7655 C   0  0  0  0  0  0  0  0  0  0  0  0
  143.2419  135.8643  152.8785 C   0  0  2  0  0  0  0  0  0  0  0  0
  143.3875  134.5439  152.0984 C   0  0  0  0  0  0  0  0  0  0  0  0
  144.6214  134.5045  151.1666 C   0  0  0  0  0  0  0  0  0  0  0  0
  144.8363  133.0455  150.7072 C   0  0  0  0  0  0  0  0  0  0  0  0
  144.3661  135.3290  149.8835 C   0  0  0  0  0  0  0  0  0  0  0  0
  145.9006  134.9523  151.9392 C   0  0  0  0  0  0  0  0  0  0  0  0
  145.8050  136.2095  152.8614 C   0  0  2  0  0  0  0  0  0  0  0  0
  145.8417  137.5163  152.0219 C   0  0  0  0  0  0  0  0  0  0  0  0
  147.0995  137.7201  151.4049 O   0  0  0  0  0  0  0  0  0  0  0  0
  147.0069  136.2813  153.7237 N   0  0  0  0  0  0  0  0  0  0  0  0
  147.1219  137.3348  154.7421 C   0  0  0  0  0  0  0  0  0  0  0  0
  148.4561  137.2239  155.4960 C   0  0  0  0  0  0  0  0  0  0  0  0
  149.3309  138.3521  155.2353 N   0  0  0  0  0  0  0  0  0  0  0  0
  149.8070  138.8341  154.0861 C   0  0  0  0  0  0  0  0  0  0  0  0
  150.5848  139.8976  154.2331 N   0  0  0  0  0  0  0  0  0  0  0  0
  150.5427  140.0244  155.5931 C   0  0  0  0  0  0  0  0  0  0  0  0
  149.8060  139.1223  156.2418 N   0  0  0  0  0  0  0  0  0  0  0  0
  144.5090  136.1176  153.7154 C   0  0  0  0  0  0  0  0  0  0  0  0
  142.0389  135.0485  154.5091 H   0  0  0  0  0  0  0  0  0  0  0  0
  141.0886  135.6869  153.1699 H   0  0  0  0  0  0  0  0  0  0  0  0
  141.8687  136.7892  154.2965 H   0  0  0  0  0  0  0  0  0  0  0  0
  143.1112  136.6843  152.1738 H   0  0  0  0  0  0  0  0  0  0  0  0
  143.4543  133.7274  152.8193 H   0  0  0  0  0  0  0  0  0  0  0  0
  142.4824  134.3534  151.5196 H   0  0  0  0  0  0  0  0  0  0  0  0
  145.6982  132.9618  150.0439 H   0  0  0  0  0  0  0  0  0  0  0  0
  143.9690  132.6631  150.1677 H   0  0  0  0  0  0  0  0  0  0  0  0
  145.0082  132.3756  151.5508 H   0  0  0  0  0  0  0  0  0  0  0  0
  145.2820  135.4675  149.3083 H   0  0  0  0  0  0  0  0  0  0  0  0
  143.9364  136.3076  150.0750 H   0  0  0  0  0  0  0  0  0  0  0  0
  143.6520  134.8245  149.2317 H   0  0  0  0  0  0  0  0  0  0  0  0
  146.1759  134.1023  152.5597 H   0  0  0  0  0  0  0  0  0  0  0  0
  146.7329  135.0675  151.2431 H   0  0  0  0  0  0  0  0  0  0  0  0
  145.0739  137.4981  151.2472 H   0  0  0  0  0  0  0  0  0  0  0  0
  145.6538  138.4009  152.6179 H   0  0  0  0  0  0  0  0  0  0  0  0
  147.7493  137.2219  151.8765 H   0  0  0  0  0  0  0  0  0  0  0  0
  147.8327  136.2939  153.1330 H   0  0  0  0  0  0  0  0  0  0  0  0
  147.0647  138.3253  154.2933 H   0  0  0  0  0  0  0  0  0  0  0  0
  146.3146  137.2679  155.4687 H   0  0  0  0  0  0  0  0  0  0  0  0
  148.2725  137.1747  156.5701 H   0  0  0  0  0  0  0  0  0  0  0  0
  148.9755  136.3036  155.2247 H   0  0  0  0  0  0  0  0  0  0  0  0
  149.5767  138.4013  153.1235 H   0  0  0  0  0  0  0  0  0  0  0  0
  151.0715  140.8041  156.1211 H   0  0  0  0  0  0  0  0  0  0  0  0
  144.3852  137.0167  154.3200 H   0  0  0  0  0  0  0  0  0  0  0  0
  144.5810  135.2952  154.4256 H   0  0  0  0  0  0  0  0  0  0  0  0
  1  2  1  0  0  0  0
  1 20  1  0  0  0  0
  1 21  1  0  0  0  0
  1 22  1  0  0  0  0
  2 19  1  0  0  0  0
  2  3  1  0  0  0  0
  2 23  1  0  0  0  0
  3  4  1  0  0  0  0
  3 24  1  0  0  0  0
  3 25  1  0  0  0  0
  4  5  1  0  0  0  0
  4  6  1  0  0  0  0
  4  7  1  0  0  0  0
  5 26  1  0  0  0  0
  5 27  1  0  0  0  0
  5 28  1  0  0  0  0
  6 29  1  0  0  0  0
  6 30  1  0  0  0  0
  6 31  1  0  0  0  0
  7  8  1  0  0  0  0
  7 32  1  0  0  0  0
  7 33  1  0  0  0  0
  8  9  1  0  0  0  0
  8 11  1  0  0  0  0
  8 19  1  0  0  0  0
  9 10  1  0  0  0  0
  9 34  1  0  0  0  0
  9 35  1  0  0  0  0
 10 36  1  0  0  0  0
 11 12  1  0  0  0  0
 11 37  1  0  0  0  0
 12 13  1  0  0  0  0
 12 38  1  0  0  0  0
 12 39  1  0  0  0  0
 13 14  1  0  0  0  0
 13 40  1  0  0  0  0
 13 41  1  0  0  0  0
 14 18  1  0  0  0  0
 14 15  1  0  0  0  0
 15 16  2  0  0  0  0
 15 42  1  0  0  0  0
 16 17  1  0  0  0  0
 17 18  2  0  0  0  0
 17 43  1  0  0  0  0
 19 44  1  0  0  0  0
 19 45  1  0  0  0  0
M  END
> <s_m_source_file>
AV-unprocessed.smi

> <i_m_source_file_index>
648

> <i_lp_mmshare_version>
43012

> <i_f3d_flags>
0

> <s_epik_input>
W0NIM11DMShbQ0gzXSlbQ0gyXVtDQEBIXShbQ0gzXSlbQ0gyXVtDQF0oW0NIMl0xKShbQ0gyXVtPSF0pW05IXVtDSDJdW0NIMl1uMltjSF1uW2NIXW4y

> <s_epik_cmdline>
J2VwaWtfcHl0aG9uJywgJy1waCcsICc3LjAnLCAnLXRuJywgJzgnLCAnLW1hJywgJzIwMCcsICctbWV0YWxfYmluZGluZycsICctaW1hZScsICc8aW5maWxlLm1hZT4nLCAnLW9tYWUnLCAnPG91dGZpbGUubWFlPic=

> <r_lp_tautomer_probability>
1

> <r_epik_Ionization_Penalty>
2.45849

> <r_epik_Ionization_Penalty_Charging>
0

> <r_epik_Ionization_Penalty_Neutral>
2.45849

> <r_epik_State_Penalty>
2.62037

> <r_epik_Charging_Adjusted_Penalty>
2.62037

> <i_epik_Tot_Q>
0

> <i_epik_Tot_abs_Q>
0

> <r_epik_Metal_State_Penalty>
2.62024

> <b_epik_Metal_Only>
0

> <s_lp_Force_Field>
OPLS_2005

> <r_lp_Energy>
36.1132

> <b_lp_Chiralities_Consistent>
1

> <s_lp_Variant>
AV-unprocessed.smi:648-7

> <Gold.Version>
5.8.1

> <Gold.Id.Protein>
6NUR|6NUR_protein|mol2

> <Gold.PLP.Fitness>
42.7750

> <Gold.PLP.PLP>
-27.8440

> <Gold.PLP.part.hbond>
-3.5110

> <Gold.PLP.part.metal>
0.0000

> <Gold.PLP.part.buried>
-1.6323

> <Gold.PLP.part.nonpolar>
-22.3527

> <Gold.PLP.part.repulsive>
0.1393

> <Gold.PLP.ligand.clash>
0.0000

> <Gold.PLP.ligand.torsion>
0.4476

> <Gold.PLP.Chemscore.Hbond>
3.6100

> <Gold.PLP.Chemscore.CHOScore>
1.6610

> <Gold.PLP.Chemscore.Metal>
0.0000

> <Gold.Chemscore.Hbonds>
donor molecule, donor type, donor heavy atom, donor atom, acceptor molecule, acceptor atom, score
      L1  H    10    36       P1  7948  0.96
      L1  H    11    37       P1  7948  1.00
      P1  H  7954  7966       L1    10  0.65
      P1  H  7989  7998       L1    16  1.00
      L1  C    15    42       P1  7948  0.96
      L1  C    15    42       P1  7957  0.70

> <Gold.PLP.Chemscore.Internal.Correction>
0.0133

> <Gold.Rescore>
     Score         DG    S(hbond)    S(metal)    S(lipo)     H(rot)  DE(clash)    DE(int)     intcor
     13.02     -13.63       2.98        0.00      52.66       3.12       0.19       0.41       ----

> <Gold.Chemscore.Fitness>
13.0239

> <Gold.Chemscore.DG>
-13.6262

> <Gold.Chemscore.ZeroCoef>
-5.4800

> <Gold.Chemscore.Hbond>
2.9843

> <Gold.Chemscore.Metal>
0.0000

> <Gold.Chemscore.Lipo>
52.6634

> <Gold.Chemscore.Internal_Hbond>
0.0000

> <Gold.Chemscore.DEClash>
0.1884

> <Gold.Chemscore.DEInternal>
0.4139

> <Gold.Chemscore.Rot>
3.1183

> <Gold.Chemscore.Internal.Correction>
   9.000000E+99

> <Gold.Chemscore.Hbonds>
donor molecule, donor type, donor heavy atom, donor atom, acceptor molecule, acceptor atom, score
      L1  H    10    36       P1  7948  0.86
      L1  H    11    37       P1  7948  1.00
      P1  H  7954  7966       L1    10  0.06
      P1  H  7989  7998       L1    16  0.91

> <Gold.Chemscore.Hbond.Weighted>
-9.9675

> <Gold.Chemscore.Metal.Weighted>
-0.0000

> <Gold.Chemscore.Lipo.Weighted>
-6.1616

> <Gold.Chemscore.Internal_Hbond.Weighted>
0.0000

> <Gold.Chemscore.DEClash.Weighted>
0.1884

> <Gold.Chemscore.DEInternal.Weighted>
0.4139

> <Gold.Chemscore.Rot.Weighted>
7.9829

> <Gold.Chemscore.Internal.Correction.Weighted>
   9.000000E+99

> <Gold.Protein.RotatedTorsions>
[ 6907 6896 6895 6894 ] final   33.07 input  -60.11 | X-H torsion
[ 7974 7965 7964 7962 ] final -172.91 input  175.53 | X-H torsion
[ 8008 7997 7996 7995 ] final    7.27 input   59.86 | X-H torsion
[ 10167 10162 10161 10158 ] final   84.23 input  -65.29 | X-H torsion
[ 10718 10713 10712 10709 ] final -142.26 input   66.30 | X-H torsion
[ 10763 10752 10751 10750 ] final -177.01 input  -60.55 | X-H torsion
[ 11005 11000 10999 10996 ] final    4.79 input  -57.11 | X-H torsion

> <Gold.Protein.ActiveResidues>
 VAL166  LYS551  ARG553  GLY616  TRP617  ASP618  TYR619  PRO620  LYS621  CYS622 
 ASP623  PHE694  ASN695  SER759  ASP760  ASP761  ALA762  ILE779  LEU786  VAL792 
 PHE793  MET794  SER795  GLU796  ALA797  LYS798  CYS799  TRP800  GLU811  SER814 

> <Gold.Protein.RotatedAtoms>
  152.0834  134.9456  160.0572 H   0  0  0  0  0  0  0  0  0  0  0  0  # atno 6907 bound_to 6896
  152.0736  133.4113  159.4478 H   0  0  0  0  0  0  0  0  0  0  0  0  # atno 6908 bound_to 6896
  150.6836  134.2983  159.4739 H   0  0  0  0  0  0  0  0  0  0  0  0  # atno 6909 bound_to 6896
  144.7142  140.1701  143.6368 H   0  0  0  0  0  0  0  0  0  0  0  0  # atno 7974 bound_to 7965
  154.7517  140.2768  155.6287 H   0  0  0  0  0  0  0  0  0  0  0  0  # atno 8008 bound_to 7997
  156.2897  140.2677  156.2199 H   0  0  0  0  0  0  0  0  0  0  0  0  # atno 8009 bound_to 7997
  155.0129  140.0372  157.2396 H   0  0  0  0  0  0  0  0  0  0  0  0  # atno 8010 bound_to 7997
  139.9102  144.6276  150.8545 H   0  0  0  0  0  0  0  0  0  0  0  0  # atno 10167 bound_to 10162
  156.3438  130.7652  151.1793 H   0  0  0  0  0  0  0  0  0  0  0  0  # atno 10718 bound_to 10713
  154.5653  135.2823  155.0879 H   0  0  0  0  0  0  0  0  0  0  0  0  # atno 10763 bound_to 10752
  154.2272  135.6380  153.5167 H   0  0  0  0  0  0  0  0  0  0  0  0  # atno 10764 bound_to 10752
  153.0041  135.5528  154.6260 H   0  0  0  0  0  0  0  0  0  0  0  0  # atno 10765 bound_to 10752
  140.5780  134.0040  155.8036 H   0  0  0  0  0  0  0  0  0  0  0  0  # atno 11005 bound_to 11000
  145.8951  139.2398  143.1526 LP  0  0  0  0  0  0  0  0  0  0  0  0  # atno 17320 bound_to 7965
  145.9865  140.8639  143.0088 LP  0  0  0  0  0  0  0  0  0  0  0  0  # atno 17321 bound_to 7965
  140.7687  143.3371  151.2285 LP  0  0  0  0  0  0  0  0  0  0  0  0  # atno 17342 bound_to 10162
  139.6949  143.9630  152.2878 LP  0  0  0  0  0  0  0  0  0  0  0  0  # atno 17343 bound_to 10162
  157.7451  131.0447  150.4806 LP  0  0  0  0  0  0  0  0  0  0  0  0  # atno 17370 bound_to 10713
  156.4990  130.4112  149.6364 LP  0  0  0  0  0  0  0  0  0  0  0  0  # atno 17371 bound_to 10713
  141.1014  133.9762  157.3072 LP  0  0  0  0  0  0  0  0  0  0  0  0  # atno 17394 bound_to 11000
  139.9330  135.0198  156.8465 LP  0  0  0  0  0  0  0  0  0  0  0  0  # atno 17395 bound_to 11000

$$$$
