AV-unprocessed.smi:598|AV-procd|sdf|3028|dock10
  -GOLD-   2262023543D 1   1.00000     0.00000
 Structure written by MMmdl.
 43 44  0  0  0  0  0  0  0  0  3 V2000
  153.2684  142.6548  162.8518 C   0  0  0  0  0  0  0  0  0  0  0  0
  152.6610  142.8118  161.4459 C   0  0  1  0  0  0  0  0  0  0  0  0
  152.1582  144.2581  161.2562 C   0  0  0  0  0  0  0  0  0  0  0  0
  151.5296  144.4774  159.8736 C   0  0  0  0  0  0  0  0  0  0  0  0
  152.5129  144.0997  158.7560 C   0  0  0  0  0  0  0  0  0  0  0  0
  153.0265  142.6560  158.9067 C   0  0  2  0  0  0  0  0  0  0  0  0
  151.9404  141.7155  158.6200 N   0  0  0  0  0  0  0  0  0  0  0  0
  152.0548  140.5386  157.9849 C   0  0  0  0  0  0  0  0  0  0  0  0
  153.1276  140.0883  157.5798 O   0  0  0  0  0  0  0  0  0  0  0  0
  150.7465  139.7561  157.7995 C   0  0  0  0  0  0  0  0  0  0  0  0
  150.8322  138.6924  156.7842 N   0  0  0  0  0  0  0  0  0  0  0  0
  150.5378  137.3811  157.2070 C   0  0  0  0  0  0  0  0  0  0  0  0
  150.5876  136.3293  156.3662 C   0  0  0  0  0  0  0  0  0  0  0  0
  150.2840  134.9893  156.8185 N   0  3  0  0  0  0  0  0  0  0  0  0
  149.9813  134.8198  157.9953 O   0  0  0  0  0  0  0  0  0  0  0  0
  150.3396  134.0627  156.0153 O   0  5  0  0  0  0  0  0  0  0  0  0
  150.9589  136.5848  154.9878 C   0  0  0  0  0  0  0  0  0  0  0  0
  151.2451  137.8362  154.5779 C   0  0  0  0  0  0  0  0  0  0  0  0
  151.1928  138.9791  155.4954 C   0  0  0  0  0  0  0  0  0  0  0  0
  151.4573  140.1240  155.1281 O   0  0  0  0  0  0  0  0  0  0  0  0
  153.6484  142.4215  160.3105 C   0  0  2  0  0  0  0  0  0  0  0  0
  154.2038  140.9902  160.4559 C   0  0  0  0  0  0  0  0  0  0  0  0
  154.1821  143.2406  162.9571 H   0  0  0  0  0  0  0  0  0  0  0  0
  153.5070  141.6155  163.0760 H   0  0  0  0  0  0  0  0  0  0  0  0
  152.5700  142.9900  163.6195 H   0  0  0  0  0  0  0  0  0  0  0  0
  151.7963  142.1488  161.3911 H   0  0  0  0  0  0  0  0  0  0  0  0
  151.4265  144.5027  162.0271 H   0  0  0  0  0  0  0  0  0  0  0  0
  152.9869  144.9551  161.3892 H   0  0  0  0  0  0  0  0  0  0  0  0
  150.6180  143.8852  159.7854 H   0  0  0  0  0  0  0  0  0  0  0  0
  151.2292  145.5200  159.7650 H   0  0  0  0  0  0  0  0  0  0  0  0
  152.0412  144.2335  157.7815 H   0  0  0  0  0  0  0  0  0  0  0  0
  153.3600  144.7866  158.7789 H   0  0  0  0  0  0  0  0  0  0  0  0
  153.8147  142.5238  158.1634 H   0  0  0  0  0  0  0  0  0  0  0  0
  151.0181  141.9942  158.9222 H   0  0  0  0  0  0  0  0  0  0  0  0
  150.4585  139.3371  158.7652 H   0  0  0  0  0  0  0  0  0  0  0  0
  149.9488  140.4572  157.5464 H   0  0  0  0  0  0  0  0  0  0  0  0
  150.2795  137.2952  158.2528 H   0  0  0  0  0  0  0  0  0  0  0  0
  151.0104  135.7749  154.2748 H   0  0  0  0  0  0  0  0  0  0  0  0
  151.5203  138.0040  153.5469 H   0  0  0  0  0  0  0  0  0  0  0  0
  154.5057  143.0926  160.3852 H   0  0  0  0  0  0  0  0  0  0  0  0
  153.4042  140.2534  160.5339 H   0  0  0  0  0  0  0  0  0  0  0  0
  154.8341  140.8914  161.3392 H   0  0  0  0  0  0  0  0  0  0  0  0
  154.8207  140.7224  159.5977 H   0  0  0  0  0  0  0  0  0  0  0  0
  1  2  1  0  0  0  0
  1 23  1  0  0  0  0
  1 24  1  0  0  0  0
  1 25  1  0  0  0  0
  2 21  1  0  0  0  0
  2  3  1  0  0  0  0
  2 26  1  0  0  0  0
  3  4  1  0  0  0  0
  3 27  1  0  0  0  0
  3 28  1  0  0  0  0
  4  5  1  0  0  0  0
  4 29  1  0  0  0  0
  4 30  1  0  0  0  0
  5  6  1  0  0  0  0
  5 31  1  0  0  0  0
  5 32  1  0  0  0  0
  6  7  1  0  0  0  0
  6 21  1  0  0  0  0
  6 33  1  0  0  0  0
  7  8  1  0  0  0  0
  7 34  1  0  0  0  0
  8  9  2  0  0  0  0
  8 10  1  0  0  0  0
 10 11  1  0  0  0  0
 10 35  1  0  0  0  0
 10 36  1  0  0  0  0
 11 19  1  0  0  0  0
 11 12  1  0  0  0  0
 12 13  2  0  0  0  0
 12 37  1  0  0  0  0
 13 14  1  0  0  0  0
 13 17  1  0  0  0  0
 14 15  2  0  0  0  0
 14 16  1  0  0  0  0
 17 18  2  0  0  0  0
 17 38  1  0  0  0  0
 18 19  1  0  0  0  0
 18 39  1  0  0  0  0
 19 20  2  0  0  0  0
 21 22  1  0  0  0  0
 21 40  1  0  0  0  0
 22 41  1  0  0  0  0
 22 42  1  0  0  0  0
 22 43  1  0  0  0  0
M  CHG  1  14   1
M  CHG  1  16  -1
M  END
> <s_m_source_file>
AV-unprocessed.smi

> <i_m_source_file_index>
598

> <i_lp_mmshare_version>
43012

> <i_f3d_flags>
0

> <s_epik_input>
W0NIM11bQ0BASF0xW0NIMl1bQ0gyXVtDSDJdW0NASF0oW0NASF0xW0NIM10pW05IXUMoPU8pW0NIMl1uMltjSF1jKFtOK10oPU8pW08tXSlbY0hdW2NIXWMyPU8=

> <s_epik_cmdline>
J2VwaWtfcHl0aG9uJywgJy1waCcsICc3LjAnLCAnLXRuJywgJzgnLCAnLW1hJywgJzIwMCcsICctbWV0YWxfYmluZGluZycsICctaW1hZScsICc8aW5maWxlLm1hZT4nLCAnLW9tYWUnLCAnPG91dGZpbGUubWFlPic=

> <r_lp_tautomer_probability>
1

> <r_epik_Ionization_Penalty>
1.91291e-08

> <r_epik_Ionization_Penalty_Charging>
8.21931e-11

> <r_epik_Ionization_Penalty_Neutral>
1.90469e-08

> <r_epik_State_Penalty>
-0

> <r_epik_Charging_Adjusted_Penalty>
8.21931e-11

> <i_epik_Tot_Q>
0

> <i_epik_Tot_abs_Q>
2

> <r_epik_Metal_State_Penalty>
-0

> <b_epik_Metal_Only>
0

> <s_lp_Force_Field>
OPLS_2005

> <r_lp_Energy>
23.1067

> <b_lp_Chiralities_Consistent>
1

> <s_lp_Variant>
AV-unprocessed.smi:598-8

> <Gold.Version>
5.8.1

> <Gold.Id.Protein>
6NUR|6NUR_protein|mol2

> <Gold.PLP.Fitness>
53.9672

> <Gold.PLP.PLP>
-46.1597

> <Gold.PLP.part.hbond>
-3.0000

> <Gold.PLP.part.metal>
0.0000

> <Gold.PLP.part.buried>
-5.7968

> <Gold.PLP.part.nonpolar>
-37.7313

> <Gold.PLP.part.repulsive>
0.1461

> <Gold.PLP.ligand.clash>
0.0000

> <Gold.PLP.ligand.torsion>
0.5804

> <Gold.PLP.Chemscore.Hbond>
2.9840

> <Gold.PLP.Chemscore.CHOScore>
0.0000

> <Gold.PLP.Chemscore.Metal>
0.0000

> <Gold.Chemscore.Hbonds>
donor molecule, donor type, donor heavy atom, donor atom, acceptor molecule, acceptor atom, score
      P1  H  6896  6909       L1    15  0.86
      P1  H  7989  7998       L1    20  1.00
      P1  H  7997  8009       L1     9  0.99

> <Gold.PLP.Chemscore.Internal.Correction>
0.0164

> <Gold.Rescore>
     Score         DG    S(hbond)    S(metal)    S(lipo)     H(rot)  DE(clash)    DE(int)     intcor
     24.50     -25.05       2.95        0.00     116.63       1.54       0.01       0.54       ----

> <Gold.Chemscore.Fitness>
24.4974

> <Gold.Chemscore.DG>
-25.0524

> <Gold.Chemscore.ZeroCoef>
-5.4800

> <Gold.Chemscore.Hbond>
2.9542

> <Gold.Chemscore.Metal>
0.0000

> <Gold.Chemscore.Lipo>
116.6330

> <Gold.Chemscore.Internal_Hbond>
0.0000

> <Gold.Chemscore.DEClash>
0.0133

> <Gold.Chemscore.DEInternal>
0.5417

> <Gold.Chemscore.Rot>
1.5393

> <Gold.Chemscore.Internal.Correction>
   9.000000E+99

> <Gold.Chemscore.Hbonds>
donor molecule, donor type, donor heavy atom, donor atom, acceptor molecule, acceptor atom, score
      P1  H  6896  6909       L1    15  0.85
      P1  H  7989  7998       L1    20  0.97
      P1  H  7997  8009       L1     9  0.89

> <Gold.Chemscore.Hbond.Weighted>
-9.8671

> <Gold.Chemscore.Metal.Weighted>
-0.0000

> <Gold.Chemscore.Lipo.Weighted>
-13.6461

> <Gold.Chemscore.Internal_Hbond.Weighted>
0.0000

> <Gold.Chemscore.DEClash.Weighted>
0.0133

> <Gold.Chemscore.DEInternal.Weighted>
0.5417

> <Gold.Chemscore.Rot.Weighted>
3.9407

> <Gold.Chemscore.Internal.Correction.Weighted>
   9.000000E+99

> <Gold.Protein.RotatedTorsions>
[ 6907 6896 6895 6894 ] final   20.21 input  -60.11 | X-H torsion
[ 7974 7965 7964 7962 ] final -164.54 input  175.53 | X-H torsion
[ 8008 7997 7996 7995 ] final  160.31 input   59.86 | X-H torsion
[ 10167 10162 10161 10158 ] final -179.87 input  -65.29 | X-H torsion
[ 10718 10713 10712 10709 ] final  174.65 input   66.30 | X-H torsion
[ 10763 10752 10751 10750 ] final -139.17 input  -60.55 | X-H torsion
[ 11005 11000 10999 10996 ] final   92.87 input  -57.11 | X-H torsion

> <Gold.Protein.ActiveResidues>
 VAL166  LYS551  ARG553  GLY616  TRP617  ASP618  TYR619  PRO620  LYS621  CYS622 
 ASP623  PHE694  ASN695  SER759  ASP760  ASP761  ALA762  ILE779  LEU786  VAL792 
 PHE793  MET794  SER795  GLU796  ALA797  LYS798  CYS799  TRP800  GLU811  SER814 

> <Gold.Protein.RotatedAtoms>
  151.8929  135.0409  160.0499 H   0  0  0  0  0  0  0  0  0  0  0  0  # atno 6907 bound_to 6896
  152.2421  133.5139  159.5284 H   0  0  0  0  0  0  0  0  0  0  0  0  # atno 6908 bound_to 6896
  150.7057  134.0991  159.4002 H   0  0  0  0  0  0  0  0  0  0  0  0  # atno 6909 bound_to 6896
  144.7294  140.2946  143.6215 H   0  0  0  0  0  0  0  0  0  0  0  0  # atno 7974 bound_to 7965
  156.2180  140.1807  156.7543 H   0  0  0  0  0  0  0  0  0  0  0  0  # atno 8008 bound_to 7997
  154.5822  140.0664  156.9149 H   0  0  0  0  0  0  0  0  0  0  0  0  # atno 8009 bound_to 7997
  155.2483  140.3327  155.4287 H   0  0  0  0  0  0  0  0  0  0  0  0  # atno 8010 bound_to 7997
  139.5367  144.2478  152.0809 H   0  0  0  0  0  0  0  0  0  0  0  0  # atno 10167 bound_to 10162
  156.9465  131.0018  151.2957 H   0  0  0  0  0  0  0  0  0  0  0  0  # atno 10718 bound_to 10713
  154.8617  135.3590  154.5503 H   0  0  0  0  0  0  0  0  0  0  0  0  # atno 10763 bound_to 10752
  153.6121  135.7009  153.5347 H   0  0  0  0  0  0  0  0  0  0  0  0  # atno 10764 bound_to 10752
  153.3200  135.4154  155.1369 H   0  0  0  0  0  0  0  0  0  0  0  0  # atno 10765 bound_to 10752
  139.8817  134.8758  156.3635 H   0  0  0  0  0  0  0  0  0  0  0  0  # atno 11005 bound_to 11000
  145.7821  139.1895  143.2151 LP  0  0  0  0  0  0  0  0  0  0  0  0  # atno 17320 bound_to 7965
  146.0825  140.7748  142.9634 LP  0  0  0  0  0  0  0  0  0  0  0  0  # atno 17321 bound_to 7965
  140.1949  144.4715  150.6460 LP  0  0  0  0  0  0  0  0  0  0  0  0  # atno 17342 bound_to 10162
  140.6577  143.2242  151.5930 LP  0  0  0  0  0  0  0  0  0  0  0  0  # atno 17343 bound_to 10162
  157.5750  130.8337  149.8443 LP  0  0  0  0  0  0  0  0  0  0  0  0  # atno 17370 bound_to 10713
  156.0381  130.3746  150.1506 LP  0  0  0  0  0  0  0  0  0  0  0  0  # atno 17371 bound_to 10713
  140.9513  133.7449  156.0275 LP  0  0  0  0  0  0  0  0  0  0  0  0  # atno 17394 bound_to 11000
  140.8102  134.3408  157.5414 LP  0  0  0  0  0  0  0  0  0  0  0  0  # atno 17395 bound_to 11000

$$$$
