AV-unprocessed.smi:1475|AV-procd|sdf|5978|dock1
  -GOLD-   22720 6 73D 1   1.00000     0.00000
 Structure written by MMmdl.
 50 51  0  0  0  0  0  0  0  0  2 V2000
  151.1408  145.5940  159.1775 C   0  0  0  0  0  0  0  0  0  0  0  0
  151.9445  144.5020  159.8195 C   0  0  0  0  0  0  0  0  0  0  0  0
  152.3351  144.3807  161.1824 C   0  0  0  0  0  0  0  0  0  0  0  0
  153.0467  143.2151  161.2273 C   0  0  0  0  0  0  0  0  0  0  0  0
  153.7213  142.5440  162.3785 C   0  0  0  0  0  0  0  0  0  0  0  0
  153.0545  142.6999  159.9431 N   0  0  0  0  0  0  0  0  0  0  0  0
  153.6616  141.4743  159.4490 C   0  0  0  0  0  0  0  0  0  0  0  0
  152.8615  140.8992  158.2795 C   0  0  0  0  0  0  0  0  0  0  0  0
  153.4190  140.6579  157.2090 O   0  0  0  0  0  0  0  0  0  0  0  0
  151.5552  140.6809  158.4972 N   0  0  0  0  0  0  0  0  0  0  0  0
  150.6284  140.1083  157.5285 C   0  0  0  0  0  0  0  0  0  0  0  0
  150.4800  141.0025  156.2809 C   0  0  0  0  0  0  0  0  0  0  0  0
  149.1728  140.8216  155.6006 N   0  3  1  0  0  0  0  0  0  0  0  0
  148.4027  142.0902  155.5247 C   0  0  0  0  0  0  0  0  0  0  0  0
  146.9831  141.8583  154.9715 C   0  0  1  0  0  0  0  0  0  0  0  0
  146.1933  143.1722  154.8848 C   0  0  0  0  0  0  0  0  0  0  0  0
  147.0504  141.1568  153.6031 C   0  0  0  0  0  0  0  0  0  0  0  0
  147.9015  139.8751  153.6605 C   0  0  2  0  0  0  0  0  0  0  0  0
  147.1907  138.7149  154.3797 C   0  0  0  0  0  0  0  0  0  0  0  0
  149.2873  140.1750  154.2655 C   0  0  0  0  0  0  0  0  0  0  0  0
  152.3769  143.4917  159.0827 N   0  0  0  0  0  0  0  0  0  0  0  0
  150.8829  146.3694  159.8989 H   0  0  0  0  0  0  0  0  0  0  0  0
  150.2111  145.2049  158.7620 H   0  0  0  0  0  0  0  0  0  0  0  0
  151.6969  146.0668  158.3678 H   0  0  0  0  0  0  0  0  0  0  0  0
  152.1247  145.0495  162.0038 H   0  0  0  0  0  0  0  0  0  0  0  0
  153.5585  143.0990  163.3024 H   0  0  0  0  0  0  0  0  0  0  0  0
  154.7968  142.4777  162.2135 H   0  0  0  0  0  0  0  0  0  0  0  0
  153.3355  141.5350  162.5232 H   0  0  0  0  0  0  0  0  0  0  0  0
  154.6898  141.6767  159.1435 H   0  0  0  0  0  0  0  0  0  0  0  0
  153.7121  140.7459  160.2587 H   0  0  0  0  0  0  0  0  0  0  0  0
  151.1862  140.9003  159.4117 H   0  0  0  0  0  0  0  0  0  0  0  0
  150.9715  139.1068  157.2686 H   0  0  0  0  0  0  0  0  0  0  0  0
  149.6611  139.9886  158.0170 H   0  0  0  0  0  0  0  0  0  0  0  0
  150.5773  142.0413  156.6000 H   0  0  0  0  0  0  0  0  0  0  0  0
  151.2857  140.8237  155.5672 H   0  0  0  0  0  0  0  0  0  0  0  0
  148.3288  142.5317  156.5196 H   0  0  0  0  0  0  0  0  0  0  0  0
  148.9430  142.8051  154.9012 H   0  0  0  0  0  0  0  0  0  0  0  0
  146.4510  141.2079  155.6668 H   0  0  0  0  0  0  0  0  0  0  0  0
  146.6718  143.8791  154.2061 H   0  0  0  0  0  0  0  0  0  0  0  0
  146.1146  143.6501  155.8616 H   0  0  0  0  0  0  0  0  0  0  0  0
  145.1801  142.9974  154.5217 H   0  0  0  0  0  0  0  0  0  0  0  0
  146.0467  140.9269  153.2430 H   0  0  0  0  0  0  0  0  0  0  0  0
  147.4865  141.8388  152.8715 H   0  0  0  0  0  0  0  0  0  0  0  0
  148.0587  139.5462  152.6325 H   0  0  0  0  0  0  0  0  0  0  0  0
  147.0167  138.9316  155.4337 H   0  0  0  0  0  0  0  0  0  0  0  0
  147.7838  137.8015  154.3269 H   0  0  0  0  0  0  0  0  0  0  0  0
  146.2242  138.5032  153.9213 H   0  0  0  0  0  0  0  0  0  0  0  0
  149.8467  140.8331  153.5985 H   0  0  0  0  0  0  0  0  0  0  0  0
  149.8552  139.2477  154.3289 H   0  0  0  0  0  0  0  0  0  0  0  0
  148.6324  140.1986  156.1836 H   0  0  0  0  0  0  0  0  0  0  0  0
  1  2  1  0  0  0  0
  1 22  1  0  0  0  0
  1 23  1  0  0  0  0
  1 24  1  0  0  0  0
  2 21  2  0  0  0  0
  2  3  1  0  0  0  0
  3  4  2  0  0  0  0
  3 25  1  0  0  0  0
  4  5  1  0  0  0  0
  4  6  1  0  0  0  0
  5 26  1  0  0  0  0
  5 27  1  0  0  0  0
  5 28  1  0  0  0  0
  6  7  1  0  0  0  0
  6 21  1  0  0  0  0
  7  8  1  0  0  0  0
  7 29  1  0  0  0  0
  7 30  1  0  0  0  0
  8  9  2  0  0  0  0
  8 10  1  0  0  0  0
 10 11  1  0  0  0  0
 10 31  1  0  0  0  0
 11 12  1  0  0  0  0
 11 32  1  0  0  0  0
 11 33  1  0  0  0  0
 12 13  1  0  0  0  0
 12 34  1  0  0  0  0
 12 35  1  0  0  0  0
 13 20  1  0  0  0  0
 13 14  1  0  0  0  0
 13 50  1  0  0  0  0
 14 15  1  0  0  0  0
 14 36  1  0  0  0  0
 14 37  1  0  0  0  0
 15 16  1  0  0  0  0
 15 17  1  0  0  0  0
 15 38  1  0  0  0  0
 16 39  1  0  0  0  0
 16 40  1  0  0  0  0
 16 41  1  0  0  0  0
 17 18  1  0  0  0  0
 17 42  1  0  0  0  0
 17 43  1  0  0  0  0
 18 19  1  0  0  0  0
 18 20  1  0  0  0  0
 18 44  1  0  0  0  0
 19 45  1  0  0  0  0
 19 46  1  0  0  0  0
 19 47  1  0  0  0  0
 20 48  1  0  0  0  0
 20 49  1  0  0  0  0
M  CHG  1  13   1
M  END
> <s_m_source_file>
AV-unprocessed.smi

> <i_m_source_file_index>
1475

> <i_lp_mmshare_version>
43012

> <i_f3d_flags>
0

> <s_epik_input>
W0NIM11jMVtjSF1jKFtDSDNdKW4objEpW0NIMl1DKD1PKVtOSF1bQ0gyXVtDSDJdTjJbQ0gyXVtDQEBIXShbQ0gzXSlbQ0gyXVtDQEBIXShbQ0gzXSlbQ0gyXTI=

> <s_epik_cmdline>
J2VwaWtfcHl0aG9uJywgJy1waCcsICc3LjAnLCAnLXRuJywgJzgnLCAnLW1hJywgJzIwMCcsICctbWV0YWxfYmluZGluZycsICctaW1hZScsICc8aW5maWxlLm1hZT4nLCAnLW9tYWUnLCAnPG91dGZpbGUubWFlPic=

> <r_lp_tautomer_probability>
1

> <r_epik_Ionization_Penalty>
0.00206431

> <r_epik_Ionization_Penalty_Charging>
0.00187095

> <r_epik_Ionization_Penalty_Neutral>
0.000193364

> <r_epik_State_Penalty>
-0

> <r_epik_Charging_Adjusted_Penalty>
0.00187095

> <i_epik_Tot_Q>
1

> <i_epik_Tot_abs_Q>
1

> <r_epik_Metal_State_Penalty>
-0

> <b_epik_Metal_Only>
0

> <s_lp_Force_Field>
OPLS_2005

> <r_lp_Energy>
16.2356

> <b_lp_Chiralities_Consistent>
1

> <s_lp_Variant>
AV-unprocessed.smi:1475-3

> <Gold.Version>
5.8.1

> <Gold.Id.Protein>
6NUR|6NUR_protein|mol2

> <Gold.PLP.Fitness>
47.5842

> <Gold.PLP.PLP>
-47.1178

> <Gold.PLP.part.hbond>
-1.0000

> <Gold.PLP.part.metal>
0.0000

> <Gold.PLP.part.buried>
-4.8861

> <Gold.PLP.part.nonpolar>
-40.4223

> <Gold.PLP.part.repulsive>
0.2284

> <Gold.PLP.ligand.clash>
0.0000

> <Gold.PLP.ligand.torsion>
1.2922

> <Gold.PLP.Chemscore.Hbond>
1.0000

> <Gold.PLP.Chemscore.CHOScore>
0.0000

> <Gold.PLP.Chemscore.Metal>
0.0000

> <Gold.Chemscore.Hbonds>
donor molecule, donor type, donor heavy atom, donor atom, acceptor molecule, acceptor atom, score
      P1  H  7997  8008       L1     9  0.13

> <Gold.PLP.Chemscore.Internal.Correction>
0.0508

> <Gold.Rescore>
     Score         DG    S(hbond)    S(metal)    S(lipo)     H(rot)  DE(clash)    DE(int)     intcor
     16.74     -18.16       1.00        0.00     115.71       1.64       0.37       1.04       ----

> <Gold.Chemscore.Fitness>
16.7449

> <Gold.Chemscore.DG>
-18.1568

> <Gold.Chemscore.ZeroCoef>
-5.4800

> <Gold.Chemscore.Hbond>
0.9989

> <Gold.Chemscore.Metal>
0.0000

> <Gold.Chemscore.Lipo>
115.7147

> <Gold.Chemscore.Internal_Hbond>
0.0000

> <Gold.Chemscore.DEClash>
0.3686

> <Gold.Chemscore.DEInternal>
1.0434

> <Gold.Chemscore.Rot>
1.6399

> <Gold.Chemscore.Internal.Correction>
   9.000000E+99

> <Gold.Chemscore.Hbonds>
donor molecule, donor type, donor heavy atom, donor atom, acceptor molecule, acceptor atom, score
      P1  H  7997  8008       L1     9  0.14

> <Gold.Chemscore.Hbond.Weighted>
-3.3364

> <Gold.Chemscore.Metal.Weighted>
-0.0000

> <Gold.Chemscore.Lipo.Weighted>
-13.5386

> <Gold.Chemscore.Internal_Hbond.Weighted>
0.0000

> <Gold.Chemscore.DEClash.Weighted>
0.3686

> <Gold.Chemscore.DEInternal.Weighted>
1.0434

> <Gold.Chemscore.Rot.Weighted>
4.1982

> <Gold.Chemscore.Internal.Correction.Weighted>
   9.000000E+99

> <Gold.Protein.RotatedTorsions>
[ 6907 6896 6895 6894 ] final  110.47 input  -60.11 | X-H torsion
[ 7974 7965 7964 7962 ] final   20.94 input  175.53 | X-H torsion
[ 8008 7997 7996 7995 ] final  -67.77 input   59.86 | X-H torsion
[ 10167 10162 10161 10158 ] final -148.40 input  -65.29 | X-H torsion
[ 10718 10713 10712 10709 ] final    1.68 input   66.30 | X-H torsion
[ 10763 10752 10751 10750 ] final   42.47 input  -60.55 | X-H torsion
[ 11005 11000 10999 10996 ] final  -15.45 input  -57.11 | X-H torsion

> <Gold.Protein.ActiveResidues>
 VAL166  LYS551  ARG553  GLY616  TRP617  ASP618  TYR619  PRO620  LYS621  CYS622 
 ASP623  PHE694  ASN695  SER759  ASP760  ASP761  ALA762  ILE779  LEU786  VAL792 
 PHE793  MET794  SER795  GLU796  ALA797  LYS798  CYS799  TRP800  GLU811  SER814 

> <Gold.Protein.RotatedAtoms>
  152.5018  133.8795  159.7338 H   0  0  0  0  0  0  0  0  0  0  0  0  # atno 6907 bound_to 6896
  150.9261  133.6813  159.2828 H   0  0  0  0  0  0  0  0  0  0  0  0  # atno 6908 bound_to 6896
  151.4173  135.0998  159.9656 H   0  0  0  0  0  0  0  0  0  0  0  0  # atno 6909 bound_to 6896
  146.2091  139.8097  142.8703 H   0  0  0  0  0  0  0  0  0  0  0  0  # atno 7974 bound_to 7965
  154.4822  140.0886  156.7405 H   0  0  0  0  0  0  0  0  0  0  0  0  # atno 8008 bound_to 7997
  155.4440  140.3455  155.4275 H   0  0  0  0  0  0  0  0  0  0  0  0  # atno 8009 bound_to 7997
  156.1209  140.1474  156.9194 H   0  0  0  0  0  0  0  0  0  0  0  0  # atno 8010 bound_to 7997
  139.7535  143.8483  152.2592 H   0  0  0  0  0  0  0  0  0  0  0  0  # atno 10167 bound_to 10162
  156.8518  130.5556  149.5669 H   0  0  0  0  0  0  0  0  0  0  0  0  # atno 10718 bound_to 10713
  152.9882  135.6131  154.2954 H   0  0  0  0  0  0  0  0  0  0  0  0  # atno 10763 bound_to 10752
  154.2677  135.2780  155.2753 H   0  0  0  0  0  0  0  0  0  0  0  0  # atno 10764 bound_to 10752
  154.5150  135.5830  153.6692 H   0  0  0  0  0  0  0  0  0  0  0  0  # atno 10765 bound_to 10752
  140.7968  133.8245  155.9431 H   0  0  0  0  0  0  0  0  0  0  0  0  # atno 11005 bound_to 11000
  145.3209  141.0243  143.3501 LP  0  0  0  0  0  0  0  0  0  0  0  0  # atno 17320 bound_to 7965
  144.8868  139.4829  143.6697 LP  0  0  0  0  0  0  0  0  0  0  0  0  # atno 17321 bound_to 7965
  139.8468  144.7183  150.9263 LP  0  0  0  0  0  0  0  0  0  0  0  0  # atno 17342 bound_to 10162
  140.7800  143.3934  151.1271 LP  0  0  0  0  0  0  0  0  0  0  0  0  # atno 17343 bound_to 10162
  156.0824  130.5831  150.9587 LP  0  0  0  0  0  0  0  0  0  0  0  0  # atno 17370 bound_to 10713
  157.6299  131.0922  150.8462 LP  0  0  0  0  0  0  0  0  0  0  0  0  # atno 17371 bound_to 10713
  140.9335  134.1992  157.4847 LP  0  0  0  0  0  0  0  0  0  0  0  0  # atno 17394 bound_to 11000
  139.8725  134.9842  156.5232 LP  0  0  0  0  0  0  0  0  0  0  0  0  # atno 17395 bound_to 11000

$$$$
