AV-unprocessed.smi:1941|AV-procd|sdf|7846|dock7
  -GOLD-   22720 9593D 1   1.00000     0.00000
 Structure written by MMmdl.
 40 41  0  0  0  0  0  0  0  0  1 V2000
  146.6563  131.3992  152.7427 C   0  0  0  0  0  0  0  0  0  0  0  0
  145.7705  132.2924  151.9444 C   0  0  0  0  0  0  0  0  0  0  0  0
  145.9841  133.6019  151.7965 N   0  0  0  0  0  0  0  0  0  0  0  0
  145.0009  134.2228  151.0203 C   0  0  0  0  0  0  0  0  0  0  0  0
  145.0605  135.7039  150.7833 C   0  0  0  0  0  0  0  0  0  0  0  0
  145.1040  136.5376  152.0792 C   0  0  0  0  0  0  0  0  0  0  0  0
  146.4593  136.9617  152.4241 N   0  0  0  0  0  0  0  0  0  0  0  0
  146.7740  137.8899  153.3393 C   0  0  0  0  0  0  0  0  0  0  0  0
  145.9487  138.4857  154.0319 O   0  0  0  0  0  0  0  0  0  0  0  0
  148.0962  138.1049  153.3913 N   0  0  0  0  0  0  0  0  0  0  0  0
  148.7597  139.1027  154.2273 C   0  0  1  0  0  0  0  0  0  0  0  0
  148.3222  138.8911  155.6850 C   0  0  0  0  0  0  0  0  0  0  0  0
  150.2891  138.9962  154.0518 C   0  0  2  0  0  0  0  0  0  0  0  0
  150.9056  137.7089  154.6022 C   0  0  0  0  0  0  0  0  0  0  0  0
  152.3356  138.1324  154.8448 C   0  0  0  0  0  0  0  0  0  0  0  0
  152.1530  139.5550  155.3619 C   0  0  0  0  0  0  0  0  0  0  0  0
  150.9555  140.0399  154.7611 O   0  0  0  0  0  0  0  0  0  0  0  0
  144.0448  133.3518  150.5595 C   0  0  0  0  0  0  0  0  0  0  0  0
  144.3374  131.7221  151.0991 S   0  0  0  0  0  0  0  0  0  0  0  0
  147.2825  131.9848  153.4163 H   0  0  0  0  0  0  0  0  0  0  0  0
  147.2992  130.8220  152.0781 H   0  0  0  0  0  0  0  0  0  0  0  0
  146.0547  130.7109  153.3369 H   0  0  0  0  0  0  0  0  0  0  0  0
  145.9349  135.9447  150.1775 H   0  0  0  0  0  0  0  0  0  0  0  0
  144.1999  136.0159  150.1905 H   0  0  0  0  0  0  0  0  0  0  0  0
  144.4413  137.4004  151.9917 H   0  0  0  0  0  0  0  0  0  0  0  0
  144.7171  135.9429  152.9068 H   0  0  0  0  0  0  0  0  0  0  0  0
  147.2128  136.5337  151.9063 H   0  0  0  0  0  0  0  0  0  0  0  0
  148.6875  137.5654  152.7768 H   0  0  0  0  0  0  0  0  0  0  0  0
  148.4413  140.1035  153.9292 H   0  0  0  0  0  0  0  0  0  0  0  0
  148.7436  139.6525  156.3415 H   0  0  0  0  0  0  0  0  0  0  0  0
  148.6397  137.9169  156.0583 H   0  0  0  0  0  0  0  0  0  0  0  0
  147.2374  138.9477  155.7802 H   0  0  0  0  0  0  0  0  0  0  0  0
  150.5550  139.0944  152.9978 H   0  0  0  0  0  0  0  0  0  0  0  0
  150.4354  137.4283  155.5459 H   0  0  0  0  0  0  0  0  0  0  0  0
  150.8230  136.8677  153.9138 H   0  0  0  0  0  0  0  0  0  0  0  0
  152.8643  137.4870  155.5468 H   0  0  0  0  0  0  0  0  0  0  0  0
  152.8875  138.1417  153.9039 H   0  0  0  0  0  0  0  0  0  0  0  0
  152.0196  139.5559  156.4441 H   0  0  0  0  0  0  0  0  0  0  0  0
  153.0041  140.1937  155.1252 H   0  0  0  0  0  0  0  0  0  0  0  0
  143.1820  133.5718  149.9485 H   0  0  0  0  0  0  0  0  0  0  0  0
  1  2  1  0  0  0  0
  1 20  1  0  0  0  0
  1 21  1  0  0  0  0
  1 22  1  0  0  0  0
  2 19  1  0  0  0  0
  2  3  2  0  0  0  0
  3  4  1  0  0  0  0
  4  5  1  0  0  0  0
  4 18  2  0  0  0  0
  5  6  1  0  0  0  0
  5 23  1  0  0  0  0
  5 24  1  0  0  0  0
  6  7  1  0  0  0  0
  6 25  1  0  0  0  0
  6 26  1  0  0  0  0
  7  8  1  0  0  0  0
  7 27  1  0  0  0  0
  8  9  2  0  0  0  0
  8 10  1  0  0  0  0
 10 11  1  0  0  0  0
 10 28  1  0  0  0  0
 11 12  1  0  0  0  0
 11 13  1  0  0  0  0
 11 29  1  0  0  0  0
 12 30  1  0  0  0  0
 12 31  1  0  0  0  0
 12 32  1  0  0  0  0
 13 17  1  0  0  0  0
 13 14  1  0  0  0  0
 13 33  1  0  0  0  0
 14 15  1  0  0  0  0
 14 34  1  0  0  0  0
 14 35  1  0  0  0  0
 15 16  1  0  0  0  0
 15 36  1  0  0  0  0
 15 37  1  0  0  0  0
 16 17  1  0  0  0  0
 16 38  1  0  0  0  0
 16 39  1  0  0  0  0
 18 19  1  0  0  0  0
 18 40  1  0  0  0  0
M  END
> <s_m_source_file>
AV-unprocessed.smi

> <i_m_source_file_index>
1941

> <i_lp_mmshare_version>
43012

> <i_f3d_flags>
0

> <s_epik_input>
W0NIM11jMW5jKFtjSF1zMSlbQ0gyXVtDSDJdW05IXUMoPU8pW05IXVtDQEhdKFtDSDNdKVtDQEBIXTJbQ0gyXVtDSDJdW0NIMl1PMg==

> <s_epik_cmdline>
J2VwaWtfcHl0aG9uJywgJy1waCcsICc3LjAnLCAnLXRuJywgJzgnLCAnLW1hJywgJzIwMCcsICctbWV0YWxfYmluZGluZycsICctaW1hZScsICc8aW5maWxlLm1hZT4nLCAnLW9tYWUnLCAnPG91dGZpbGUubWFlPic=

> <r_epik_Ionization_Penalty>
0.00195486

> <r_epik_Ionization_Penalty_Charging>
0

> <r_epik_Ionization_Penalty_Neutral>
0.00195486

> <r_epik_State_Penalty>
0.00129472

> <r_epik_Charging_Adjusted_Penalty>
0.00129472

> <i_epik_Tot_Q>
0

> <i_epik_Tot_abs_Q>
0

> <r_epik_Metal_State_Penalty>
-0

> <b_epik_Metal_Only>
0

> <s_lp_Force_Field>
OPLS_2005

> <r_lp_Energy>
10.9889

> <b_lp_Chiralities_Consistent>
1

> <s_lp_Variant>
AV-unprocessed.smi:1941-2

> <Gold.Version>
5.8.1

> <Gold.Id.Protein>
6NUR|6NUR_protein|mol2

> <Gold.PLP.Fitness>
45.4993

> <Gold.PLP.PLP>
-34.8279

> <Gold.PLP.part.hbond>
-3.0000

> <Gold.PLP.part.metal>
0.0000

> <Gold.PLP.part.buried>
-3.8924

> <Gold.PLP.part.nonpolar>
-28.3446

> <Gold.PLP.part.repulsive>
0.3884

> <Gold.PLP.ligand.clash>
0.0000

> <Gold.PLP.ligand.torsion>
0.4211

> <Gold.PLP.Chemscore.Hbond>
2.8305

> <Gold.PLP.Chemscore.CHOScore>
1.0000

> <Gold.PLP.Chemscore.Metal>
0.0000

> <Gold.Chemscore.Hbonds>
donor molecule, donor type, donor heavy atom, donor atom, acceptor molecule, acceptor atom, score
      L1  H     7    27       P1  7948  0.93
      L1  H    10    28       P1  7948  1.00
      P1  H  7989  7998       L1    17  0.90
      L1  C    18    40       P1 10186  1.00

> <Gold.PLP.Chemscore.Internal.Correction>
0.0221

> <Gold.Rescore>
     Score         DG    S(hbond)    S(metal)    S(lipo)     H(rot)  DE(clash)    DE(int)     intcor
     17.07     -17.90       1.88        0.00      89.57       1.69       0.31       0.52       ----

> <Gold.Chemscore.Fitness>
17.0718

> <Gold.Chemscore.DG>
-17.8953

> <Gold.Chemscore.ZeroCoef>
-5.4800

> <Gold.Chemscore.Hbond>
1.8767

> <Gold.Chemscore.Metal>
0.0000

> <Gold.Chemscore.Lipo>
89.5689

> <Gold.Chemscore.Internal_Hbond>
0.0000

> <Gold.Chemscore.DEClash>
0.3081

> <Gold.Chemscore.DEInternal>
0.5154

> <Gold.Chemscore.Rot>
1.6923

> <Gold.Chemscore.Internal.Correction>
   9.000000E+99

> <Gold.Chemscore.Hbonds>
donor molecule, donor type, donor heavy atom, donor atom, acceptor molecule, acceptor atom, score
      L1  H     7    27       P1  7948  0.91
      L1  H    10    28       P1  7948  0.95
      P1  H  7989  7998       L1    17  0.05

> <Gold.Chemscore.Hbond.Weighted>
-6.2680

> <Gold.Chemscore.Metal.Weighted>
-0.0000

> <Gold.Chemscore.Lipo.Weighted>
-10.4796

> <Gold.Chemscore.Internal_Hbond.Weighted>
0.0000

> <Gold.Chemscore.DEClash.Weighted>
0.3081

> <Gold.Chemscore.DEInternal.Weighted>
0.5154

> <Gold.Chemscore.Rot.Weighted>
4.3323

> <Gold.Chemscore.Internal.Correction.Weighted>
   9.000000E+99

> <Gold.Protein.RotatedTorsions>
[ 6907 6896 6895 6894 ] final  -30.05 input  -60.11 | X-H torsion
[ 7974 7965 7964 7962 ] final  -20.04 input  175.53 | X-H torsion
[ 8008 7997 7996 7995 ] final  -27.94 input   59.86 | X-H torsion
[ 10167 10162 10161 10158 ] final  115.61 input  -65.29 | X-H torsion
[ 10718 10713 10712 10709 ] final   42.78 input   66.30 | X-H torsion
[ 10763 10752 10751 10750 ] final  -82.69 input  -60.55 | X-H torsion
[ 11005 11000 10999 10996 ] final   74.84 input  -57.11 | X-H torsion

> <Gold.Protein.ActiveResidues>
 VAL166  LYS551  ARG553  GLY616  TRP617  ASP618  TYR619  PRO620  LYS621  CYS622 
 ASP623  PHE694  ASN695  SER759  ASP760  ASP761  ALA762  ILE779  LEU786  VAL792 
 PHE793  MET794  SER795  GLU796  ALA797  LYS798  CYS799  TRP800  GLU811  SER814 

> <Gold.Protein.RotatedAtoms>
  151.1109  135.0026  159.8492 H   0  0  0  0  0  0  0  0  0  0  0  0  # atno 6907 bound_to 6896
  152.5443  134.1837  159.8656 H   0  0  0  0  0  0  0  0  0  0  0  0  # atno 6908 bound_to 6896
  151.1888  133.4635  159.2628 H   0  0  0  0  0  0  0  0  0  0  0  0  # atno 6909 bound_to 6896
  146.1809  140.4146  142.8495 H   0  0  0  0  0  0  0  0  0  0  0  0  # atno 7974 bound_to 7965
  154.4354  140.1858  156.1012 H   0  0  0  0  0  0  0  0  0  0  0  0  # atno 8008 bound_to 7997
  156.0291  140.3332  155.7094 H   0  0  0  0  0  0  0  0  0  0  0  0  # atno 8009 bound_to 7997
  155.5866  140.0627  157.2760 H   0  0  0  0  0  0  0  0  0  0  0  0  # atno 8010 bound_to 7997
  139.6305  144.7114  151.2443 H   0  0  0  0  0  0  0  0  0  0  0  0  # atno 10167 bound_to 10162
  157.4086  130.7901  149.7411 H   0  0  0  0  0  0  0  0  0  0  0  0  # atno 10718 bound_to 10713
  154.5788  135.5582  153.7165 H   0  0  0  0  0  0  0  0  0  0  0  0  # atno 10763 bound_to 10752
  153.0074  135.6315  154.2012 H   0  0  0  0  0  0  0  0  0  0  0  0  # atno 10764 bound_to 10752
  154.1952  135.2880  155.2989 H   0  0  0  0  0  0  0  0  0  0  0  0  # atno 10765 bound_to 10752
  139.9372  134.7467  156.1197 H   0  0  0  0  0  0  0  0  0  0  0  0  # atno 11005 bound_to 11000
  144.8314  140.6713  143.6288 LP  0  0  0  0  0  0  0  0  0  0  0  0  # atno 17320 bound_to 7965
  145.4078  139.1585  143.4142 LP  0  0  0  0  0  0  0  0  0  0  0  0  # atno 17321 bound_to 7965
  140.7436  143.6489  150.8266 LP  0  0  0  0  0  0  0  0  0  0  0  0  # atno 17342 bound_to 10162
  140.0114  143.5639  152.2837 LP  0  0  0  0  0  0  0  0  0  0  0  0  # atno 17343 bound_to 10162
  155.9844  130.3992  150.3315 LP  0  0  0  0  0  0  0  0  0  0  0  0  # atno 17370 bound_to 10713
  157.1450  131.0306  151.2911 LP  0  0  0  0  0  0  0  0  0  0  0  0  # atno 17371 bound_to 10713
  141.0990  133.6684  156.2712 LP  0  0  0  0  0  0  0  0  0  0  0  0  # atno 17394 bound_to 11000
  140.6046  134.5520  157.5523 LP  0  0  0  0  0  0  0  0  0  0  0  0  # atno 17395 bound_to 11000

$$$$
