#       Name:                AV-unprocessed.smi:287
#       Creating user name   scv26
#       Creation time:       Thu Mar 26 21:57:51 2020


#       File generated by GOLD software.
#

@<TRIPOS>MOLECULE
AV-unprocessed.smi:287
    70    73     1
SMALL
NO_CHARGES


@<TRIPOS>ATOM
      1 ****        -1.3847   4.4010   3.5144 C.3            1 S1                 0.0000
      2 ****        -2.0419   4.0226   2.2317 C.2            1 S1                 0.0000
      3 ****        -2.6610   2.8917   1.7857 C.2            1 S1                 0.0000
      4 ****        -3.0814   3.1359   0.4441 C.2            1 S1                 0.0000
      5 ****        -3.8087   2.1472  -0.4577 C.3            1 S1                 0.0000
      6 ****        -5.2687   1.9994   0.0016 C.3            1 S1                 0.0000
      7 ****        -3.8805   2.5793  -1.8028 O.3            1 S1                 0.0000
      8 ****        -3.1194   0.7632  -0.4905 C.3            1 S1                 0.0000
      9 ****        -1.6663   0.8543  -0.5942 N.pl3          1 S1                 0.0000
     10 ****        -0.9051  -0.2477  -0.4317 C.ar           1 S1                 0.0000
     11 ****        -1.4686  -1.4803  -0.3507 N.ar           1 S1                 0.0000
     12 ****        -0.6938  -2.5552  -0.1870 C.ar           1 S1                 0.0000
     13 ****         0.6349  -2.6159  -0.0806 N.ar           1 S1                 0.0000
     14 ****         1.2125  -1.3812  -0.1602 C.ar           1 S1                 0.0000
     15 ****         0.5076  -0.1564  -0.3384 C.ar           1 S1                 0.0000
     16 ****         1.4018   0.9026  -0.3817 N.2            1 S1                 0.0000
     17 ****         2.5673   0.3334  -0.2406 C.2            1 S1                 0.0000
     18 ****         2.5530  -1.0363  -0.0850 N.pl3          1 S1                 0.0000
     19 ****         3.7650  -1.9151   0.0695 C.3            1 S1                 0.0000
     20 ****         4.0763  -2.4572  -1.1742 O.3            1 S1                 0.0000
     21 ****         3.5428  -3.7677  -1.2666 C.3            1 S1                 0.0000
     22 ****         4.2851  -4.5768  -2.3450 C.3            1 S1                 0.0000
     23 ****         5.5986  -4.9125  -1.9463 O.3            1 S1                 0.0000
     24 ****         3.5749  -4.3277   0.1659 C.3            1 S1                 0.0000
     25 ****         2.4315  -5.1251   0.3999 O.3            1 S1                 0.0000
     26 ****         3.5614  -3.0807   1.0583 C.3            1 S1                 0.0000
     27 ****         4.6213  -3.1414   1.9916 O.3            1 S1                 0.0000
     28 ****        -2.6908   4.4279   0.1845 C.2            1 S1                 0.0000
     29 ****        -2.8127   5.3318  -0.9978 C.3            1 S1                 0.0000
     30 ****        -2.0570   4.9706   1.2615 O.3            1 S1                 0.0000
     31 ****         4.5472  -1.2210   0.3804 H              1 S1                 0.0000
     32 ****         2.5108  -3.6501  -1.5967 H              1 S1                 0.0000
     33 ****         4.4708  -4.9228   0.3451 H              1 S1                 0.0000
     34 ****         2.6325  -2.9555   1.6147 H              1 S1                 0.0000
     35 ****        -1.3514   3.5535   4.1993 H              1 S1                 0.0000
     36 ****        -1.9278   5.2100   4.0030 H              1 S1                 0.0000
     37 ****        -0.3614   4.7345   3.3410 H              1 S1                 0.0000
     38 ****        -2.7904   1.9832   2.3552 H              1 S1                 0.0000
     39 ****        -5.3250   1.6331   1.0274 H              1 S1                 0.0000
     40 ****        -5.8169   1.2961  -0.6263 H              1 S1                 0.0000
     41 ****        -5.7948   2.9544  -0.0341 H              1 S1                 0.0000
     42 ****        -4.3342   1.9199  -2.3050 H              1 S1                 0.0000
     43 ****        -3.3421   0.2457   0.4439 H              1 S1                 0.0000
     44 ****        -3.5214   0.1431  -1.2934 H              1 S1                 0.0000
     45 ****        -1.2864   1.7884  -0.6586 H              1 S1                 0.0000
     46 ****        -1.2120  -3.5012  -0.1308 H              1 S1                 0.0000
     47 ****         3.4830   0.9070  -0.2445 H              1 S1                 0.0000
     48 ****         3.7469  -5.5039  -2.5426 H              1 S1                 0.0000
     49 ****         4.3202  -4.0221  -3.2828 H              1 S1                 0.0000
     50 ****         6.0016  -5.4186  -2.6352 H              1 S1                 0.0000
     51 ****         1.6632  -4.5907   0.2644 H              1 S1                 0.0000
     52 ****         5.4298  -3.2658   1.5178 H              1 S1                 0.0000
     53 ****        -3.8505   5.4040  -1.3241 H              1 S1                 0.0000
     54 ****        -2.2191   4.9577  -1.8322 H              1 S1                 0.0000
     55 ****        -2.4653   6.3385  -0.7632 H              1 S1                 0.0000
     56 ****        -2.9576   2.7050  -2.1666 LP             1 S1                 0.0000
     57 ****        -4.3794   3.4445  -1.8532 LP             1 S1                 0.0000
     58 ****        -2.4614  -1.5828  -0.4135 LP             1 S1                 0.0000
     59 ****         1.1474  -3.4657   0.0429 LP             1 S1                 0.0000
     60 ****         1.2003   1.8755  -0.4947 LP             1 S1                 0.0000
     61 ****         5.0697  -2.4935  -1.2826 LP             1 S1                 0.0000
     62 ****         3.6830  -1.8859  -1.8946 LP             1 S1                 0.0000
     63 ****         5.5680  -5.4523  -1.1051 LP             1 S1                 0.0000
     64 ****         6.1265  -4.0781  -1.7879 LP             1 S1                 0.0000
     65 ****         2.4442  -5.4666   1.3397 LP             1 S1                 0.0000
     66 ****         2.4223  -5.8974  -0.2353 LP             1 S1                 0.0000
     67 ****         4.4759  -3.9070   2.6182 LP             1 S1                 0.0000
     68 ****         4.6625  -2.2883   2.5116 LP             1 S1                 0.0000
     69 ****        -1.1218   5.2264   1.0167 LP             1 S1                 0.0000
     70 ****        -2.5515   5.7795   1.5794 LP             1 S1                 0.0000
@<TRIPOS>BOND
    1    1    2 1     
    2    1   35 1     
    3    1   36 1     
    4    1   37 1     
    5    2   30 1     
    6    2    3 2     
    7    3    4 1     
    8    3   38 1     
    9    4    5 1     
   10    4   28 2     
   11    5    6 1     
   12    5    7 1     
   13    5    8 1     
   14    6   39 1     
   15    6   40 1     
   16    6   41 1     
   17    7   42 1     
   18    8    9 1     
   19    8   43 1     
   20    8   44 1     
   21    9   10 1     
   22    9   45 1     
   23   10   15 ar    
   24   10   11 ar    
   25   11   12 ar    
   26   12   13 ar    
   27   12   46 1     
   28   13   14 ar    
   29   14   18 1     
   30   14   15 ar    
   31   15   16 1     
   32   16   17 2     
   33   17   18 1     
   34   17   47 1     
   35   18   19 1     
   36   19   31 1     
   37   19   26 1     
   38   19   20 1     
   39   20   21 1     
   40   21   32 1     
   41   21   22 1     
   42   21   24 1     
   43   22   23 1     
   44   22   48 1     
   45   22   49 1     
   46   23   50 1     
   47   24   33 1     
   48   24   25 1     
   49   24   26 1     
   50   25   51 1     
   51   26   34 1     
   52   26   27 1     
   53   27   52 1     
   54   28   29 1     
   55   28   30 1     
   56   29   53 1     
   57   29   54 1     
   58   29   55 1     
   59    7   56 1     
   60    7   57 1     
   61   11   58 1     
   62   13   59 1     
   63   16   60 1     
   64   20   61 1     
   65   20   62 1     
   66   23   63 1     
   67   23   64 1     
   68   25   65 1     
   69   25   66 1     
   70   27   67 1     
   71   27   68 1     
   72   30   69 1     
   73   30   70 1     
@<TRIPOS>SUBSTRUCTURE
      1 S1             1
@<TRIPOS>SET
LONE_PAIRS      STATIC     ATOMS    <user>   **** ""
15 56 57 58 59 60 61 62 63 64 65 66 67 68 69 70
DONOR_HYDROGENS      STATIC     ATOMS    <user>   **** ""
5 42 45 50 51 52
ATOM$BLUE        STATIC     ATOMS    COLORGROUP SYSTEM
15 56 57 58 59 60 61 62 63 64 65 66 67 68 69 70
ATOM$RED        STATIC     ATOMS    COLORGROUP SYSTEM
5 42 45 50 51 52
