AV-unprocessed.smi:167|AV-procd|sdf|1395|dock10
  -GOLD-   2262019143D 1   1.00000     0.00000
 Structure written by MMmdl.
 51 55  0  0  0  0  0  0  0  0  1 V2000
  149.3401  141.1107  153.5426 O   0  0  0  0  0  0  0  0  0  0  0  0
  148.5602  140.7299  154.6557 C   0  0  0  0  0  0  0  0  0  0  0  0
  149.0943  141.4052  155.9336 C   0  0  1  0  0  0  0  0  0  0  0  0
  148.9128  140.5664  157.2156 C   0  0  0  0  0  0  0  0  0  0  0  0
  150.3546  140.5190  157.7629 C   0  0  2  0  0  0  0  0  0  0  0  0
  150.7343  141.9076  158.3063 C   0  0  0  0  0  0  0  0  0  0  0  0
  150.9617  142.6893  157.0016 C   0  0  0  0  0  0  0  0  0  0  0  0
  150.6291  141.6200  155.9451 C   0  0  1  0  0  0  0  0  0  0  0  0
  151.1763  140.4221  156.5664 N   0  0  0  0  0  0  0  0  0  0  0  0
  151.2839  139.2550  155.8751 C   0  0  0  0  0  0  0  0  0  0  0  0
  151.8525  139.2719  154.6403 N   0  0  0  0  0  0  0  0  0  0  0  0
  151.9872  138.1431  153.9396 C   0  0  0  0  0  0  0  0  0  0  0  0
  151.6189  136.9058  154.2736 N   0  0  0  0  0  0  0  0  0  0  0  0
  151.0264  136.8804  155.5016 C   0  0  0  0  0  0  0  0  0  0  0  0
  150.8177  137.9979  156.3606 C   0  0  0  0  0  0  0  0  0  0  0  0
  150.1837  137.5785  157.5242 N   0  0  0  0  0  0  0  0  0  0  0  0
  150.0435  136.2907  157.3710 C   0  0  0  0  0  0  0  0  0  0  0  0
  150.5092  135.7877  156.1771 N   0  0  0  0  0  0  0  0  0  0  0  0
  150.5038  134.4151  155.7560 C   0  0  0  0  0  0  0  0  0  0  0  0
  149.3820  133.4500  156.1559 C   0  0  0  0  0  0  0  0  0  0  0  0
  150.4123  132.2972  156.2074 C   0  0  0  0  0  0  0  0  0  0  0  0
  150.2574  131.2871  157.3613 C   0  0  0  0  0  0  0  0  0  0  0  0
  150.1856  131.9146  158.6265 O   0  0  0  0  0  0  0  0  0  0  0  0
  150.5099  131.4858  154.9016 C   0  0  0  0  0  0  0  0  0  0  0  0
  149.3237  130.7602  154.6487 O   0  0  0  0  0  0  0  0  0  0  0  0
  151.4736  133.4098  156.3784 C   0  0  0  0  0  0  0  0  0  0  0  0
  149.3952  140.3767  152.9497 H   0  0  0  0  0  0  0  0  0  0  0  0
  147.5209  140.9917  154.4613 H   0  0  0  0  0  0  0  0  0  0  0  0
  148.6064  139.6451  154.7542 H   0  0  0  0  0  0  0  0  0  0  0  0
  148.5931  142.3691  156.0366 H   0  0  0  0  0  0  0  0  0  0  0  0
  148.2110  141.0176  157.9176 H   0  0  0  0  0  0  0  0  0  0  0  0
  148.5529  139.5621  156.9875 H   0  0  0  0  0  0  0  0  0  0  0  0
  150.5143  139.7274  158.4960 H   0  0  0  0  0  0  0  0  0  0  0  0
  149.9537  142.3418  158.9319 H   0  0  0  0  0  0  0  0  0  0  0  0
  151.6540  141.8619  158.8910 H   0  0  0  0  0  0  0  0  0  0  0  0
  150.3376  143.5800  156.9228 H   0  0  0  0  0  0  0  0  0  0  0  0
  152.0038  143.0009  156.9209 H   0  0  0  0  0  0  0  0  0  0  0  0
  151.0380  141.8801  154.9704 H   0  0  0  0  0  0  0  0  0  0  0  0
  152.4591  138.2461  152.9737 H   0  0  0  0  0  0  0  0  0  0  0  0
  149.5947  135.6723  158.1344 H   0  0  0  0  0  0  0  0  0  0  0  0
  150.6114  134.4208  154.6701 H   0  0  0  0  0  0  0  0  0  0  0  0
  148.9402  133.6846  157.1245 H   0  0  0  0  0  0  0  0  0  0  0  0
  148.6047  133.3323  155.4005 H   0  0  0  0  0  0  0  0  0  0  0  0
  149.3556  130.6877  157.2329 H   0  0  0  0  0  0  0  0  0  0  0  0
  151.0959  130.5909  157.3897 H   0  0  0  0  0  0  0  0  0  0  0  0
  149.8186  131.3010  159.2447 H   0  0  0  0  0  0  0  0  0  0  0  0
  150.7100  132.1369  154.0499 H   0  0  0  0  0  0  0  0  0  0  0  0
  151.3336  130.7727  154.9391 H   0  0  0  0  0  0  0  0  0  0  0  0
  148.9177  130.5503  155.4759 H   0  0  0  0  0  0  0  0  0  0  0  0
  152.3921  133.2646  155.8086 H   0  0  0  0  0  0  0  0  0  0  0  0
  151.6988  133.6434  157.4200 H   0  0  0  0  0  0  0  0  0  0  0  0
  1  2  1  0  0  0  0
  1 27  1  0  0  0  0
  2  3  1  0  0  0  0
  2 28  1  0  0  0  0
  2 29  1  0  0  0  0
  3  8  1  0  0  0  0
  3  4  1  0  0  0  0
  3 30  1  0  0  0  0
  4  5  1  0  0  0  0
  4 31  1  0  0  0  0
  4 32  1  0  0  0  0
  5  9  1  0  0  0  0
  5  6  1  0  0  0  0
  5 33  1  0  0  0  0
  6  7  1  0  0  0  0
  6 34  1  0  0  0  0
  6 35  1  0  0  0  0
  7  8  1  0  0  0  0
  7 36  1  0  0  0  0
  7 37  1  0  0  0  0
  8  9  1  0  0  0  0
  8 38  1  0  0  0  0
  9 10  1  0  0  0  0
 10 15  1  0  0  0  0
 10 11  2  0  0  0  0
 11 12  1  0  0  0  0
 12 13  2  0  0  0  0
 12 39  1  0  0  0  0
 13 14  1  0  0  0  0
 14 18  1  0  0  0  0
 14 15  2  0  0  0  0
 15 16  1  0  0  0  0
 16 17  2  0  0  0  0
 17 18  1  0  0  0  0
 17 40  1  0  0  0  0
 18 19  1  0  0  0  0
 19 26  1  0  0  0  0
 19 20  1  0  0  0  0
 19 41  1  0  0  0  0
 20 21  1  0  0  0  0
 20 42  1  0  0  0  0
 20 43  1  0  0  0  0
 21 22  1  0  0  0  0
 21 24  1  0  0  0  0
 21 26  1  0  0  0  0
 22 23  1  0  0  0  0
 22 44  1  0  0  0  0
 22 45  1  0  0  0  0
 23 46  1  0  0  0  0
 24 25  1  0  0  0  0
 24 47  1  0  0  0  0
 24 48  1  0  0  0  0
 25 49  1  0  0  0  0
 26 50  1  0  0  0  0
 26 51  1  0  0  0  0
M  END
> <s_m_source_file>
AV-unprocessed.smi

> <i_m_source_file_index>
167

> <i_lp_mmshare_version>
43012

> <i_f3d_flags>
0

> <s_epik_input>
W09IXVtDSDJdW0NASF0oW0NIMl1bQ0BASF0xMilbQ0BIXShbQ0gyXVtDSDJdMSlOMmMobltjSF1uMyljKGMzNCluW2NIXW40W0NIXShbQ0gyXTUpW0NIMl1DNShbQ0gyXVtPSF0pW0NIMl1bT0hd

> <s_epik_cmdline>
J2VwaWtfcHl0aG9uJywgJy1waCcsICc3LjAnLCAnLXRuJywgJzgnLCAnLW1hJywgJzIwMCcsICctbWV0YWxfYmluZGluZycsICctaW1hZScsICc8aW5maWxlLm1hZT4nLCAnLW9tYWUnLCAnPG91dGZpbGUubWFlPic=

> <r_lp_tautomer_probability>
1

> <r_epik_Ionization_Penalty>
0.0047903

> <r_epik_Ionization_Penalty_Charging>
0

> <r_epik_Ionization_Penalty_Neutral>
0.0047903

> <r_epik_State_Penalty>
0.00341021

> <r_epik_Charging_Adjusted_Penalty>
0.00341021

> <i_epik_Tot_Q>
0

> <i_epik_Tot_abs_Q>
0

> <r_epik_Metal_State_Penalty>
-0

> <b_epik_Metal_Only>
0

> <s_lp_Force_Field>
OPLS_2005

> <r_lp_Energy>
89.2094

> <b_lp_Chiralities_Consistent>
1

> <s_lp_Variant>
AV-unprocessed.smi:167-4

> <Gold.Version>
5.8.1

> <Gold.Id.Protein>
6NUR|6NUR_protein|mol2

> <Gold.PLP.Fitness>
47.9233

> <Gold.PLP.PLP>
-35.8751

> <Gold.PLP.part.hbond>
-6.0000

> <Gold.PLP.part.metal>
0.0000

> <Gold.PLP.part.buried>
-6.5557

> <Gold.PLP.part.nonpolar>
-23.3011

> <Gold.PLP.part.repulsive>
0.8970

> <Gold.PLP.ligand.clash>
0.0000

> <Gold.PLP.ligand.torsion>
1.2715

> <Gold.PLP.Chemscore.Hbond>
4.7116

> <Gold.PLP.Chemscore.CHOScore>
0.0000

> <Gold.PLP.Chemscore.Metal>
0.0000

> <Gold.Chemscore.Hbonds>
donor molecule, donor type, donor heavy atom, donor atom, acceptor molecule, acceptor atom, score
      L1  H     1    27       P1  7957  0.78
      P1  H  6896  6908       L1    23  1.00
      P1  H  7989  7998       L1    11  0.99
      P1  H  8011  8017       L1     1  0.85
      P1  H 10752 10764       L1    13  1.00

> <Gold.PLP.Chemscore.Internal.Correction>
0.4565

> <Gold.Rescore>
     Score         DG    S(hbond)    S(metal)    S(lipo)     H(rot)  DE(clash)    DE(int)     intcor
     11.01     -14.55       3.44        0.00      71.19       4.20       1.35       2.19       ----

> <Gold.Chemscore.Fitness>
11.0117

> <Gold.Chemscore.DG>
-14.5502

> <Gold.Chemscore.ZeroCoef>
-5.4800

> <Gold.Chemscore.Hbond>
3.4438

> <Gold.Chemscore.Metal>
0.0000

> <Gold.Chemscore.Lipo>
71.1919

> <Gold.Chemscore.Internal_Hbond>
0.0000

> <Gold.Chemscore.DEClash>
1.3531

> <Gold.Chemscore.DEInternal>
2.1855

> <Gold.Chemscore.Rot>
4.2038

> <Gold.Chemscore.Internal.Correction>
   9.000000E+99

> <Gold.Chemscore.Hbonds>
donor molecule, donor type, donor heavy atom, donor atom, acceptor molecule, acceptor atom, score
      L1  H     1    27       P1  7957  0.78
      P1  H  6896  6908       L1    23  0.95
      P1  H  7989  7998       L1    11  0.75
      P1  H  8011  8017       L1     1  0.14
      P1  H 10752 10764       L1    13  0.70

> <Gold.Chemscore.Hbond.Weighted>
-11.5024

> <Gold.Chemscore.Metal.Weighted>
-0.0000

> <Gold.Chemscore.Lipo.Weighted>
-8.3295

> <Gold.Chemscore.Internal_Hbond.Weighted>
0.0000

> <Gold.Chemscore.DEClash.Weighted>
1.3531

> <Gold.Chemscore.DEInternal.Weighted>
2.1855

> <Gold.Chemscore.Rot.Weighted>
10.7617

> <Gold.Chemscore.Internal.Correction.Weighted>
   9.000000E+99

> <Gold.Protein.RotatedTorsions>
[ 6907 6896 6895 6894 ] final   88.92 input  -60.11 | X-H torsion
[ 7974 7965 7964 7962 ] final   56.76 input  175.53 | X-H torsion
[ 8008 7997 7996 7995 ] final  -61.29 input   59.86 | X-H torsion
[ 10167 10162 10161 10158 ] final   74.17 input  -65.29 | X-H torsion
[ 10718 10713 10712 10709 ] final  -65.43 input   66.30 | X-H torsion
[ 10763 10752 10751 10750 ] final  -86.81 input  -60.55 | X-H torsion
[ 11005 11000 10999 10996 ] final   49.18 input  -57.11 | X-H torsion

> <Gold.Protein.ActiveResidues>
 VAL166  LYS551  ARG553  GLY616  TRP617  ASP618  TYR619  PRO620  LYS621  CYS622 
 ASP623  PHE694  ASN695  SER759  ASP760  ASP761  ALA762  ILE779  LEU786  VAL792 
 PHE793  MET794  SER795  GLU796  ALA797  LYS798  CYS799  TRP800  GLU811  SER814 

> <Gold.Protein.RotatedAtoms>
  152.5430  134.2047  159.8725 H   0  0  0  0  0  0  0  0  0  0  0  0  # atno 6907 bound_to 6896
  151.2033  133.4591  159.2604 H   0  0  0  0  0  0  0  0  0  0  0  0  # atno 6908 bound_to 6896
  151.0968  134.9961  159.8485 H   0  0  0  0  0  0  0  0  0  0  0  0  # atno 6909 bound_to 6896
  145.9363  139.3850  143.0390 H   0  0  0  0  0  0  0  0  0  0  0  0  # atno 7974 bound_to 7965
  154.4441  140.1021  156.6408 H   0  0  0  0  0  0  0  0  0  0  0  0  # atno 8008 bound_to 7997
  155.5503  140.3485  155.4448 H   0  0  0  0  0  0  0  0  0  0  0  0  # atno 8009 bound_to 7997
  156.0533  140.1309  157.0014 H   0  0  0  0  0  0  0  0  0  0  0  0  # atno 8010 bound_to 7997
  140.0166  144.5573  150.7615 H   0  0  0  0  0  0  0  0  0  0  0  0  # atno 10167 bound_to 10162
  156.0670  130.4247  150.1562 H   0  0  0  0  0  0  0  0  0  0  0  0  # atno 10718 bound_to 10713
  154.6266  135.5436  153.7634 H   0  0  0  0  0  0  0  0  0  0  0  0  # atno 10763 bound_to 10752
  153.0264  135.6426  154.1362 H   0  0  0  0  0  0  0  0  0  0  0  0  # atno 10764 bound_to 10752
  154.1294  135.2915  155.3169 H   0  0  0  0  0  0  0  0  0  0  0  0  # atno 10765 bound_to 10752
  140.1126  134.4935  155.8665 H   0  0  0  0  0  0  0  0  0  0  0  0  # atno 11005 bound_to 11000
  145.8359  140.9606  143.0824 LP  0  0  0  0  0  0  0  0  0  0  0  0  # atno 17320 bound_to 7965
  144.6772  140.0222  143.7483 LP  0  0  0  0  0  0  0  0  0  0  0  0  # atno 17321 bound_to 7965
  140.7360  143.2747  151.3778 LP  0  0  0  0  0  0  0  0  0  0  0  0  # atno 17342 bound_to 10162
  139.6168  144.0986  152.2353 LP  0  0  0  0  0  0  0  0  0  0  0  0  # atno 17343 bound_to 10162
  156.9620  130.9808  151.3477 LP  0  0  0  0  0  0  0  0  0  0  0  0  # atno 17370 bound_to 10713
  157.5718  130.8316  149.8402 LP  0  0  0  0  0  0  0  0  0  0  0  0  # atno 17371 bound_to 10713
  141.2134  133.6732  156.6734 LP  0  0  0  0  0  0  0  0  0  0  0  0  # atno 17394 bound_to 11000
  140.3071  134.8116  157.4146 LP  0  0  0  0  0  0  0  0  0  0  0  0  # atno 17395 bound_to 11000

$$$$
