AV-unprocessed.smi:1599|AV-procd|sdf|6423|dock2
  -GOLD-   22720 7 63D 1   1.00000     0.00000
 Structure written by MMmdl.
 39 40  0  0  0  0  0  0  0  0  1 V2000
  142.6546  139.4368  155.3826 C   0  0  0  0  0  0  0  0  0  0  0  0
  141.8262  138.6655  154.3434 C   0  0  2  0  0  0  0  0  0  0  0  0
  142.7185  138.2231  153.2743 N   0  0  0  0  0  0  0  0  0  0  0  0
  143.1298  136.9630  153.0716 C   0  0  0  0  0  0  0  0  0  0  0  0
  142.8098  136.0149  153.7886 O   0  0  0  0  0  0  0  0  0  0  0  0
  143.9236  136.8793  151.9916 N   0  0  0  0  0  0  0  0  0  0  0  0
  144.5410  135.7167  151.4654 C   0  0  0  0  0  0  0  0  0  0  0  0
  145.8635  135.2976  151.7629 C   0  0  0  0  0  0  0  0  0  0  0  0
  146.1648  134.1749  151.1284 N   0  0  0  0  0  0  0  0  0  0  0  0
  145.0496  133.8594  150.4223 N   0  0  0  0  0  0  0  0  0  0  0  0
  145.0313  132.6604  149.6035 C   0  0  0  0  0  0  0  0  0  0  0  0
  143.8364  132.6598  148.6483 C   0  0  0  0  0  0  0  0  0  0  0  0
  143.7986  133.6182  147.7184 N   0  0  0  0  0  0  0  0  0  0  0  0
  142.9572  131.8070  148.7504 O   0  0  0  0  0  0  0  0  0  0  0  0
  144.0380  134.7819  150.6052 C   0  0  0  0  0  0  0  0  0  0  0  0
  140.6853  139.5207  153.7536 C   0  0  2  0  0  0  0  0  0  0  0  0
  139.8294  140.2502  154.7905 C   0  0  0  0  0  0  0  0  0  0  0  0
  138.4963  140.4477  154.0854 C   0  0  0  0  0  0  0  0  0  0  0  0
  138.5662  139.5037  152.8826 C   0  0  0  0  0  0  0  0  0  0  0  0
  139.7195  138.7061  153.1064 O   0  0  0  0  0  0  0  0  0  0  0  0
  142.0441  139.7379  156.2340 H   0  0  0  0  0  0  0  0  0  0  0  0
  143.0931  140.3378  154.9521 H   0  0  0  0  0  0  0  0  0  0  0  0
  143.4680  138.8220  155.7693 H   0  0  0  0  0  0  0  0  0  0  0  0
  141.3944  137.7971  154.8444 H   0  0  0  0  0  0  0  0  0  0  0  0
  143.0354  138.9322  152.6296 H   0  0  0  0  0  0  0  0  0  0  0  0
  144.0995  137.7368  151.4890 H   0  0  0  0  0  0  0  0  0  0  0  0
  146.5997  135.7596  152.4042 H   0  0  0  0  0  0  0  0  0  0  0  0
  145.9613  132.6121  149.0355 H   0  0  0  0  0  0  0  0  0  0  0  0
  145.0008  131.7778  150.2444 H   0  0  0  0  0  0  0  0  0  0  0  0
  143.0239  133.6620  147.0718 H   0  0  0  0  0  0  0  0  0  0  0  0
  144.5409  134.3009  147.6712 H   0  0  0  0  0  0  0  0  0  0  0  0
  143.0789  134.6837  150.1185 H   0  0  0  0  0  0  0  0  0  0  0  0
  141.0810  140.2373  153.0308 H   0  0  0  0  0  0  0  0  0  0  0  0
  139.6852  139.6207  155.6699 H   0  0  0  0  0  0  0  0  0  0  0  0
  140.2756  141.1893  155.1194 H   0  0  0  0  0  0  0  0  0  0  0  0
  137.6662  140.1978  154.7471 H   0  0  0  0  0  0  0  0  0  0  0  0
  138.3654  141.4793  153.7569 H   0  0  0  0  0  0  0  0  0  0  0  0
  137.6746  138.8845  152.7819 H   0  0  0  0  0  0  0  0  0  0  0  0
  138.6949  140.0686  151.9583 H   0  0  0  0  0  0  0  0  0  0  0  0
  1  2  1  0  0  0  0
  1 21  1  0  0  0  0
  1 22  1  0  0  0  0
  1 23  1  0  0  0  0
  2  3  1  0  0  0  0
  2 16  1  0  0  0  0
  2 24  1  0  0  0  0
  3  4  1  0  0  0  0
  3 25  1  0  0  0  0
  4  5  2  0  0  0  0
  4  6  1  0  0  0  0
  6  7  1  0  0  0  0
  6 26  1  0  0  0  0
  7 15  2  0  0  0  0
  7  8  1  0  0  0  0
  8  9  2  0  0  0  0
  8 27  1  0  0  0  0
  9 10  1  0  0  0  0
 10 11  1  0  0  0  0
 10 15  1  0  0  0  0
 11 12  1  0  0  0  0
 11 28  1  0  0  0  0
 11 29  1  0  0  0  0
 12 13  1  0  0  0  0
 12 14  2  0  0  0  0
 13 30  1  0  0  0  0
 13 31  1  0  0  0  0
 15 32  1  0  0  0  0
 16 20  1  0  0  0  0
 16 17  1  0  0  0  0
 16 33  1  0  0  0  0
 17 18  1  0  0  0  0
 17 34  1  0  0  0  0
 17 35  1  0  0  0  0
 18 19  1  0  0  0  0
 18 36  1  0  0  0  0
 18 37  1  0  0  0  0
 19 20  1  0  0  0  0
 19 38  1  0  0  0  0
 19 39  1  0  0  0  0
M  END
> <s_m_source_file>
AV-unprocessed.smi

> <i_m_source_file_index>
1599

> <i_lp_mmshare_version>
43012

> <i_f3d_flags>
0

> <s_epik_input>
TzFbQ0gyXVtDSDJdW0NIMl1bQ0BIXTFbQ0BIXShbQ0gzXSlbTkhdQyg9TylbTkhdYzJbY0hdbm4oW2NIXTIpW0NIMl1DKD1PKVtOSDJd

> <s_epik_cmdline>
J2VwaWtfcHl0aG9uJywgJy1waCcsICc3LjAnLCAnLXRuJywgJzgnLCAnLW1hJywgJzIwMCcsICctbWV0YWxfYmluZGluZycsICctaW1hZScsICc8aW5maWxlLm1hZT4nLCAnLW9tYWUnLCAnPG91dGZpbGUubWFlPic=

> <r_lp_tautomer_probability>
1

> <r_epik_Ionization_Penalty>
4.15391e-05

> <r_epik_Ionization_Penalty_Charging>
0

> <r_epik_Ionization_Penalty_Neutral>
4.15391e-05

> <r_epik_State_Penalty>
-0

> <r_epik_Charging_Adjusted_Penalty>
0

> <i_epik_Tot_Q>
0

> <i_epik_Tot_abs_Q>
0

> <r_epik_Metal_State_Penalty>
-0

> <b_epik_Metal_Only>
0

> <s_lp_Force_Field>
OPLS_2005

> <r_lp_Energy>
20.6042

> <b_lp_Chiralities_Consistent>
1

> <s_lp_Variant>
AV-unprocessed.smi:1599-1

> <Gold.Version>
5.8.1

> <Gold.Id.Protein>
6NUR|6NUR_protein|mol2

> <Gold.PLP.Fitness>
46.6889

> <Gold.PLP.PLP>
-28.6021

> <Gold.PLP.part.hbond>
-5.1077

> <Gold.PLP.part.metal>
0.0000

> <Gold.PLP.part.buried>
-3.5967

> <Gold.PLP.part.nonpolar>
-23.3611

> <Gold.PLP.part.repulsive>
3.8366

> <Gold.PLP.ligand.clash>
0.0000

> <Gold.PLP.ligand.torsion>
1.2276

> <Gold.PLP.Chemscore.Hbond>
4.8720

> <Gold.PLP.Chemscore.CHOScore>
1.9568

> <Gold.PLP.Chemscore.Metal>
0.0000

> <Gold.Chemscore.Hbonds>
donor molecule, donor type, donor heavy atom, donor atom, acceptor molecule, acceptor atom, score
      L1  H     3    25       P1 10175  0.93
      L1  H     6    26       P1 10171  0.86
      L1  H    13    30       P1 10195  1.00
      L1  H    13    31       P1  7921  1.00
      P1  H 10785 10796       L1    14  1.00
      L1  C     8    27       P1  7948  0.92
      L1  C    15    32       P1 10186  1.00

> <Gold.PLP.Chemscore.Internal.Correction>
0.0554

> <Gold.Rescore>
     Score         DG    S(hbond)    S(metal)    S(lipo)     H(rot)  DE(clash)    DE(int)     intcor
     18.20     -20.90       4.61        0.00      50.17       2.28       1.51       1.19       ----

> <Gold.Chemscore.Fitness>
18.1985

> <Gold.Chemscore.DG>
-20.8961

> <Gold.Chemscore.ZeroCoef>
-5.4800

> <Gold.Chemscore.Hbond>
4.6076

> <Gold.Chemscore.Metal>
0.0000

> <Gold.Chemscore.Lipo>
50.1659

> <Gold.Chemscore.Internal_Hbond>
0.0000

> <Gold.Chemscore.DEClash>
1.5123

> <Gold.Chemscore.DEInternal>
1.1853

> <Gold.Chemscore.Rot>
2.2823

> <Gold.Chemscore.Internal.Correction>
   9.000000E+99

> <Gold.Chemscore.Hbonds>
donor molecule, donor type, donor heavy atom, donor atom, acceptor molecule, acceptor atom, score
      L1  H     3    25       P1 10175  0.90
      L1  H     6    26       P1 10171  0.85
      L1  H    13    30       P1 10195  0.94
      L1  H    13    31       P1  7921  0.98
      P1  H 10785 10796       L1    14  0.95

> <Gold.Chemscore.Hbond.Weighted>
-15.3894

> <Gold.Chemscore.Metal.Weighted>
-0.0000

> <Gold.Chemscore.Lipo.Weighted>
-5.8694

> <Gold.Chemscore.Internal_Hbond.Weighted>
0.0000

> <Gold.Chemscore.DEClash.Weighted>
1.5123

> <Gold.Chemscore.DEInternal.Weighted>
1.1853

> <Gold.Chemscore.Rot.Weighted>
5.8427

> <Gold.Chemscore.Internal.Correction.Weighted>
   9.000000E+99

> <Gold.Protein.RotatedTorsions>
[ 6907 6896 6895 6894 ] final   55.99 input  -60.11 | X-H torsion
[ 7974 7965 7964 7962 ] final  -68.45 input  175.53 | X-H torsion
[ 8008 7997 7996 7995 ] final  138.98 input   59.86 | X-H torsion
[ 10167 10162 10161 10158 ] final   95.21 input  -65.29 | X-H torsion
[ 10718 10713 10712 10709 ] final   59.01 input   66.30 | X-H torsion
[ 10763 10752 10751 10750 ] final  119.25 input  -60.55 | X-H torsion
[ 11005 11000 10999 10996 ] final   92.97 input  -57.11 | X-H torsion

> <Gold.Protein.ActiveResidues>
 VAL166  LYS551  ARG553  GLY616  TRP617  ASP618  TYR619  PRO620  LYS621  CYS622 
 ASP623  PHE694  ASN695  SER759  ASP760  ASP761  ALA762  ILE779  LEU786  VAL792 
 PHE793  MET794  SER795  GLU796  ALA797  LYS798  CYS799  TRP800  GLU811  SER814 

> <Gold.Protein.RotatedAtoms>
  152.3593  134.6896  160.0212 H   0  0  0  0  0  0  0  0  0  0  0  0  # atno 6907 bound_to 6896
  151.7224  133.3309  159.3327 H   0  0  0  0  0  0  0  0  0  0  0  0  # atno 6908 bound_to 6896
  150.7593  134.6370  159.6261 H   0  0  0  0  0  0  0  0  0  0  0  0  # atno 6909 bound_to 6896
  145.7164  140.9057  143.0653 H   0  0  0  0  0  0  0  0  0  0  0  0  # atno 7974 bound_to 7965
  156.2993  140.2379  156.4162 H   0  0  0  0  0  0  0  0  0  0  0  0  # atno 8008 bound_to 7997
  154.8396  140.0429  157.1552 H   0  0  0  0  0  0  0  0  0  0  0  0  # atno 8009 bound_to 7997
  154.9117  140.2991  155.5266 H   0  0  0  0  0  0  0  0  0  0  0  0  # atno 8010 bound_to 7997
  139.8010  144.6813  150.9765 H   0  0  0  0  0  0  0  0  0  0  0  0  # atno 10167 bound_to 10162
  157.5641  130.8858  149.9159 H   0  0  0  0  0  0  0  0  0  0  0  0  # atno 10718 bound_to 10713
  153.5801  135.3485  155.2871 H   0  0  0  0  0  0  0  0  0  0  0  0  # atno 10763 bound_to 10752
  154.8669  135.4180  154.2630 H   0  0  0  0  0  0  0  0  0  0  0  0  # atno 10764 bound_to 10752
  153.3414  135.7050  153.6934 H   0  0  0  0  0  0  0  0  0  0  0  0  # atno 10765 bound_to 10752
  139.8816  134.8764  156.3651 H   0  0  0  0  0  0  0  0  0  0  0  0  # atno 11005 bound_to 11000
  144.6928  139.9143  143.7465 LP  0  0  0  0  0  0  0  0  0  0  0  0  # atno 17320 bound_to 7965
  146.0666  139.3657  143.0548 LP  0  0  0  0  0  0  0  0  0  0  0  0  # atno 17321 bound_to 7965
  140.7820  143.4281  151.0736 LP  0  0  0  0  0  0  0  0  0  0  0  0  # atno 17342 bound_to 10162
  139.7953  143.8160  152.3157 LP  0  0  0  0  0  0  0  0  0  0  0  0  # atno 17343 bound_to 10162
  156.0691  130.3688  150.0814 LP  0  0  0  0  0  0  0  0  0  0  0  0  # atno 17370 bound_to 10713
  156.8975  130.9609  151.3580 LP  0  0  0  0  0  0  0  0  0  0  0  0  # atno 17371 bound_to 10713
  140.9503  133.7455  156.0263 LP  0  0  0  0  0  0  0  0  0  0  0  0  # atno 17394 bound_to 11000
  140.8114  134.3395  157.5410 LP  0  0  0  0  0  0  0  0  0  0  0  0  # atno 17395 bound_to 11000

$$$$
