AV-unprocessed.smi:110|AV-procd|sdf|1070|dock5
  -GOLD-   2262018153D 1   1.00000     0.00000
 Structure written by MMmdl.
 46 50  0  0  0  0  0  0  0  0  1 V2000
  147.3637  136.0160  154.1814 O   0  0  0  0  0  0  0  0  0  0  0  0
  146.7730  137.2423  154.5561 C   0  0  0  0  0  0  0  0  0  0  0  0
  147.5436  138.4147  153.9241 C   0  0  2  0  0  0  0  0  0  0  0  0
  148.7448  138.6750  154.6340 O   0  0  0  0  0  0  0  0  0  0  0  0
  149.1956  139.9452  154.2916 C   0  0  2  0  0  0  0  0  0  0  0  0
  149.8995  140.5232  155.4754 N   0  0  0  0  0  0  0  0  0  0  0  0
  149.5777  141.6684  156.1669 C   0  0  0  0  0  0  0  0  0  0  0  0
  150.3585  141.9498  157.1743 N   0  0  0  0  0  0  0  0  0  0  0  0
  151.3022  140.9284  157.1751 C   0  0  0  0  0  0  0  0  0  0  0  0
  152.4277  140.6090  157.9903 C   0  0  0  0  0  0  0  0  0  0  0  0
  152.8406  141.3701  159.0369 N   0  0  0  0  0  0  0  0  0  0  0  0
  153.4127  140.7137  160.2230 C   0  0  0  0  0  0  0  0  0  0  0  0
  153.2931  141.6871  161.4089 C   0  0  0  0  0  0  0  0  0  0  0  0
  152.7459  142.8971  160.7278 C   0  0  0  0  0  0  0  0  0  0  0  0
  152.4885  144.1519  161.3068 C   0  0  0  0  0  0  0  0  0  0  0  0
  151.9816  145.1753  160.4787 C   0  0  0  0  0  0  0  0  0  0  0  0
  151.7504  144.9323  159.1052 C   0  0  0  0  0  0  0  0  0  0  0  0
  152.0173  143.6634  158.5453 C   0  0  0  0  0  0  0  0  0  0  0  0
  152.5101  142.6373  159.3806 C   0  0  0  0  0  0  0  0  0  0  0  0
  153.1290  139.4911  157.6685 N   0  0  0  0  0  0  0  0  0  0  0  0
  152.7588  138.7331  156.6337 C   0  0  0  0  0  0  0  0  0  0  0  0
  151.7350  138.9079  155.7981 N   0  0  0  0  0  0  0  0  0  0  0  0
  151.0217  140.0279  156.1075 C   0  0  0  0  0  0  0  0  0  0  0  0
  147.9688  140.7887  153.8991 C   0  0  1  0  0  0  0  0  0  0  0  0
  148.0983  141.2906  152.5836 O   0  0  0  0  0  0  0  0  0  0  0  0
  146.8261  139.7742  153.9420 C   0  0  2  0  0  0  0  0  0  0  0  0
  146.0560  139.9436  155.1175 O   0  0  0  0  0  0  0  0  0  0  0  0
  147.7994  138.1815  152.8884 H   0  0  0  0  0  0  0  0  0  0  0  0
  149.9537  139.8815  153.5094 H   0  0  0  0  0  0  0  0  0  0  0  0
  147.8161  141.6191  154.5909 H   0  0  0  0  0  0  0  0  0  0  0  0
  146.1465  139.8714  153.0939 H   0  0  0  0  0  0  0  0  0  0  0  0
  148.1141  136.1974  153.6366 H   0  0  0  0  0  0  0  0  0  0  0  0
  145.7442  137.2298  154.1955 H   0  0  0  0  0  0  0  0  0  0  0  0
  146.7383  137.3291  155.6427 H   0  0  0  0  0  0  0  0  0  0  0  0
  148.7357  142.2913  155.9026 H   0  0  0  0  0  0  0  0  0  0  0  0
  152.9008  139.7747  160.4375 H   0  0  0  0  0  0  0  0  0  0  0  0
  154.4623  140.4869  160.0340 H   0  0  0  0  0  0  0  0  0  0  0  0
  152.5940  141.3275  162.1644 H   0  0  0  0  0  0  0  0  0  0  0  0
  154.2570  141.8952  161.8740 H   0  0  0  0  0  0  0  0  0  0  0  0
  152.6764  144.3293  162.3555 H   0  0  0  0  0  0  0  0  0  0  0  0
  151.7752  146.1504  160.8947 H   0  0  0  0  0  0  0  0  0  0  0  0
  151.3714  145.7249  158.4771 H   0  0  0  0  0  0  0  0  0  0  0  0
  151.8512  143.4982  157.4914 H   0  0  0  0  0  0  0  0  0  0  0  0
  153.3709  137.8630  156.4476 H   0  0  0  0  0  0  0  0  0  0  0  0
  148.3066  140.5708  152.0080 H   0  0  0  0  0  0  0  0  0  0  0  0
  146.3938  139.3665  155.7849 H   0  0  0  0  0  0  0  0  0  0  0  0
  1  2  1  0  0  0  0
  1 32  1  0  0  0  0
  2  3  1  0  0  0  0
  2 33  1  0  0  0  0
  2 34  1  0  0  0  0
  3 28  1  0  0  0  0
  3 26  1  0  0  0  0
  3  4  1  0  0  0  0
  4  5  1  0  0  0  0
  5 29  1  0  0  0  0
  5  6  1  0  0  0  0
  5 24  1  0  0  0  0
  6 23  1  0  0  0  0
  6  7  1  0  0  0  0
  7  8  2  0  0  0  0
  7 35  1  0  0  0  0
  8  9  1  0  0  0  0
  9 23  2  0  0  0  0
  9 10  1  0  0  0  0
 10 11  1  0  0  0  0
 10 20  2  0  0  0  0
 11 19  1  0  0  0  0
 11 12  1  0  0  0  0
 12 13  1  0  0  0  0
 12 36  1  0  0  0  0
 12 37  1  0  0  0  0
 13 14  1  0  0  0  0
 13 38  1  0  0  0  0
 13 39  1  0  0  0  0
 14 19  2  0  0  0  0
 14 15  1  0  0  0  0
 15 16  2  0  0  0  0
 15 40  1  0  0  0  0
 16 17  1  0  0  0  0
 16 41  1  0  0  0  0
 17 18  2  0  0  0  0
 17 42  1  0  0  0  0
 18 19  1  0  0  0  0
 18 43  1  0  0  0  0
 20 21  1  0  0  0  0
 21 22  2  0  0  0  0
 21 44  1  0  0  0  0
 22 23  1  0  0  0  0
 24 30  1  0  0  0  0
 24 25  1  0  0  0  0
 24 26  1  0  0  0  0
 25 45  1  0  0  0  0
 26 31  1  0  0  0  0
 26 27  1  0  0  0  0
 27 46  1  0  0  0  0
M  END
> <s_m_source_file>
AV-unprocessed.smi

> <i_m_source_file_index>
110

> <i_lp_mmshare_version>
43012

> <i_f3d_flags>
0

> <s_epik_input>
W09IXVtDSDJdW0NASF0xT1tDQEhdKFtDQEhdKFtPSF0pW0NAQEhdMVtPSF0pbihbY0hdbjIpYyhjMjMpbltjSF1uYzNOKFtDSDJdW0NIMl00KWMoYzQ1KVtjSF1bY0hdW2NIXVtjSF01

> <s_epik_cmdline>
J2VwaWtfcHl0aG9uJywgJy1waCcsICc3LjAnLCAnLXRuJywgJzgnLCAnLW1hJywgJzIwMCcsICctbWV0YWxfYmluZGluZycsICctaW1hZScsICc8aW5maWxlLm1hZT4nLCAnLW9tYWUnLCAnPG91dGZpbGUubWFlPic=

> <r_lp_tautomer_probability>
1

> <r_epik_Ionization_Penalty>
0.00068475

> <r_epik_Ionization_Penalty_Charging>
0

> <r_epik_Ionization_Penalty_Neutral>
0.00068475

> <r_epik_State_Penalty>
0.000417442

> <r_epik_Charging_Adjusted_Penalty>
0.000417442

> <i_epik_Tot_Q>
0

> <i_epik_Tot_abs_Q>
0

> <r_epik_Metal_State_Penalty>
-0

> <b_epik_Metal_Only>
0

> <s_epik_Chemistry_Notes>
This compound contains an acetal/aminal-like group ( X-CH(R)-Y where X, Y are N, S, or O) that may be acid/base labile, releasing an aldehyde.

> <s_lp_Force_Field>
OPLS_2005

> <r_lp_Energy>
57.5739

> <b_lp_Chiralities_Consistent>
1

> <s_lp_Variant>
AV-unprocessed.smi:110-8

> <Gold.Version>
5.8.1

> <Gold.Id.Protein>
6NUR|6NUR_protein|mol2

> <Gold.PLP.Fitness>
60.3929

> <Gold.PLP.PLP>
-47.9254

> <Gold.PLP.part.hbond>
-3.5001

> <Gold.PLP.part.metal>
0.0000

> <Gold.PLP.part.buried>
0.4173

> <Gold.PLP.part.nonpolar>
-43.6621

> <Gold.PLP.part.repulsive>
0.2327

> <Gold.PLP.ligand.clash>
0.0000

> <Gold.PLP.ligand.torsion>
0.4341

> <Gold.PLP.Chemscore.Hbond>
3.5200

> <Gold.PLP.Chemscore.CHOScore>
0.8910

> <Gold.PLP.Chemscore.Metal>
0.0000

> <Gold.Chemscore.Hbonds>
donor molecule, donor type, donor heavy atom, donor atom, acceptor molecule, acceptor atom, score
      L1  H     1    32       P1  7948  1.00
      L1  H    25    45       P1  7957  0.75
      P1  H  7997  8009       L1    20  1.00
      P1  H  8011  8017       L1    25  0.71
      L1  C     7    35       P1  8028  0.88

> <Gold.PLP.Chemscore.Internal.Correction>
0.1025

> <Gold.Rescore>
     Score         DG    S(hbond)    S(metal)    S(lipo)     H(rot)  DE(clash)    DE(int)     intcor
     13.36     -17.08       2.02        0.00     115.44       3.38       1.87       1.85       ----

> <Gold.Chemscore.Fitness>
13.3556

> <Gold.Chemscore.DG>
-17.0776

> <Gold.Chemscore.ZeroCoef>
-5.4800

> <Gold.Chemscore.Hbond>
2.0221

> <Gold.Chemscore.Metal>
0.0000

> <Gold.Chemscore.Lipo>
115.4353

> <Gold.Chemscore.Internal_Hbond>
0.0000

> <Gold.Chemscore.DEClash>
1.8733

> <Gold.Chemscore.DEInternal>
1.8487

> <Gold.Chemscore.Rot>
3.3837

> <Gold.Chemscore.Internal.Correction>
   9.000000E+99

> <Gold.Chemscore.Hbonds>
donor molecule, donor type, donor heavy atom, donor atom, acceptor molecule, acceptor atom, score
      L1  H     1    32       P1  7948  0.93
      L1  H    25    45       P1  7957  0.75
      P1  H  7997  8009       L1    20  0.14
      P1  H  8011  8017       L1    25  0.13

> <Gold.Chemscore.Hbond.Weighted>
-6.7539

> <Gold.Chemscore.Metal.Weighted>
-0.0000

> <Gold.Chemscore.Lipo.Weighted>
-13.5059

> <Gold.Chemscore.Internal_Hbond.Weighted>
0.0000

> <Gold.Chemscore.DEClash.Weighted>
1.8733

> <Gold.Chemscore.DEInternal.Weighted>
1.8487

> <Gold.Chemscore.Rot.Weighted>
8.6622

> <Gold.Chemscore.Internal.Correction.Weighted>
   9.000000E+99

> <Gold.Protein.RotatedTorsions>
[ 6907 6896 6895 6894 ] final -144.46 input  -60.11 | X-H torsion
[ 7974 7965 7964 7962 ] final   96.53 input  175.53 | X-H torsion
[ 8008 7997 7996 7995 ] final  147.45 input   59.86 | X-H torsion
[ 10167 10162 10161 10158 ] final  150.20 input  -65.29 | X-H torsion
[ 10718 10713 10712 10709 ] final   -8.33 input   66.30 | X-H torsion
[ 10763 10752 10751 10750 ] final -164.48 input  -60.55 | X-H torsion
[ 11005 11000 10999 10996 ] final  117.76 input  -57.11 | X-H torsion

> <Gold.Protein.ActiveResidues>
 VAL166  LYS551  ARG553  GLY616  TRP617  ASP618  TYR619  PRO620  LYS621  CYS622 
 ASP623  PHE694  ASN695  SER759  ASP760  ASP761  ALA762  ILE779  LEU786  VAL792 
 PHE793  MET794  SER795  GLU796  ALA797  LYS798  CYS799  TRP800  GLU811  SER814 

> <Gold.Protein.RotatedAtoms>
  151.1144  133.5149  159.2604 H   0  0  0  0  0  0  0  0  0  0  0  0  # atno 6907 bound_to 6896
  151.1931  135.0410  159.8851 H   0  0  0  0  0  0  0  0  0  0  0  0  # atno 6908 bound_to 6896
  152.5452  134.0982  159.8360 H   0  0  0  0  0  0  0  0  0  0  0  0  # atno 6909 bound_to 6896
  145.4376  139.2304  143.3109 H   0  0  0  0  0  0  0  0  0  0  0  0  # atno 7974 bound_to 7965
  156.2824  140.2155  156.5540 H   0  0  0  0  0  0  0  0  0  0  0  0  # atno 8008 bound_to 7997
  154.7268  140.0499  157.0712 H   0  0  0  0  0  0  0  0  0  0  0  0  # atno 8009 bound_to 7997
  155.0406  140.3145  155.4729 H   0  0  0  0  0  0  0  0  0  0  0  0  # atno 8010 bound_to 7997
  139.4853  144.5541  151.7349 H   0  0  0  0  0  0  0  0  0  0  0  0  # atno 10167 bound_to 10162
  156.7042  130.5102  149.5909 H   0  0  0  0  0  0  0  0  0  0  0  0  # atno 10718 bound_to 10713
  154.7024  135.2990  154.9320 H   0  0  0  0  0  0  0  0  0  0  0  0  # atno 10763 bound_to 10752
  154.0248  135.6678  153.4779 H   0  0  0  0  0  0  0  0  0  0  0  0  # atno 10764 bound_to 10752
  153.0692  135.5071  154.8176 H   0  0  0  0  0  0  0  0  0  0  0  0  # atno 10765 bound_to 10752
  139.9085  134.9613  156.7399 H   0  0  0  0  0  0  0  0  0  0  0  0  # atno 11005 bound_to 11000
  146.2573  140.5121  142.8868 LP  0  0  0  0  0  0  0  0  0  0  0  0  # atno 17320 bound_to 7965
  144.8142  140.6439  143.6395 LP  0  0  0  0  0  0  0  0  0  0  0  0  # atno 17321 bound_to 7965
  140.5100  144.1040  150.5992 LP  0  0  0  0  0  0  0  0  0  0  0  0  # atno 17342 bound_to 10162
  140.3962  143.2727  152.0001 LP  0  0  0  0  0  0  0  0  0  0  0  0  # atno 17343 bound_to 10162
  156.1707  130.6435  151.0834 LP  0  0  0  0  0  0  0  0  0  0  0  0  # atno 17370 bound_to 10713
  157.6961  131.0793  150.6963 LP  0  0  0  0  0  0  0  0  0  0  0  0  # atno 17371 bound_to 10713
  140.6858  133.9434  155.7937 LP  0  0  0  0  0  0  0  0  0  0  0  0  # atno 17394 bound_to 11000
  141.0478  134.0529  157.3822 LP  0  0  0  0  0  0  0  0  0  0  0  0  # atno 17395 bound_to 11000

$$$$
