AV-unprocessed.smi:1591|AV-procd|sdf|6399|dock5
  -GOLD-   22720 7 33D 1   1.00000     0.00000
 Structure written by MMmdl.
 51 54  0  0  0  0  0  0  0  0  2 V2000
  146.4671  142.6501  158.0760 C   0  0  0  0  0  0  0  0  0  0  0  0
  147.7423  142.8993  158.8959 C   0  0  0  0  0  0  0  0  0  0  0  0
  149.0515  142.7288  158.0853 C   0  0  2  0  0  0  0  0  0  0  0  0
  149.2244  141.3117  157.7570 N   0  0  0  0  0  0  0  0  0  0  0  0
  149.2389  140.7753  156.5267 C   0  0  0  0  0  0  0  0  0  0  0  0
  149.0193  141.4160  155.4992 O   0  0  0  0  0  0  0  0  0  0  0  0
  149.5694  139.2823  156.4529 C   0  0  0  0  0  0  0  0  0  0  0  0
  150.9191  139.0746  155.9069 N   0  0  0  0  0  0  0  0  0  0  0  0
  151.0114  138.4838  154.6339 C   0  0  0  0  0  0  0  0  0  0  0  0
  152.1983  138.2173  154.0572 C   0  0  0  0  0  0  0  0  0  0  0  0
  153.4119  138.5575  154.7889 C   0  0  0  0  0  0  0  0  0  0  0  0
  154.5049  138.3203  154.2784 O   0  0  0  0  0  0  0  0  0  0  0  0
  153.2710  139.1296  156.0204 N   0  5  0  0  0  0  0  0  0  0  0  0
  152.0565  139.3927  156.5959 C   0  0  0  0  0  0  0  0  0  0  0  0
  151.9545  139.9048  157.7107 O   0  0  0  0  0  0  0  0  0  0  0  0
  150.3447  143.2948  158.7670 C   0  0  0  0  0  0  0  0  0  0  0  0
  151.1452  142.1902  159.5173 C   0  0  0  0  0  0  0  0  0  0  0  0
  152.4217  142.7799  160.1567 C   0  0  1  0  0  0  0  0  0  0  0  0
  153.3259  143.3756  159.0584 C   0  0  0  0  0  0  0  0  0  0  0  0
  152.5617  144.4988  158.3289 C   0  0  2  0  0  0  0  0  0  0  0  0
  152.1781  145.6069  159.3282 C   0  0  0  0  0  0  0  0  0  0  0  0
  151.2774  145.0036  160.4231 C   0  0  2  0  0  0  0  0  0  0  0  0
  152.0372  143.8836  161.1637 C   0  0  0  0  0  0  0  0  0  0  0  0
  149.9984  144.4211  159.7843 C   0  0  0  0  0  0  0  0  0  0  0  0
  151.2859  143.9160  157.6889 C   0  0  0  0  0  0  0  0  0  0  0  0
  145.5787  142.8547  158.6739 H   0  0  0  0  0  0  0  0  0  0  0  0
  146.4005  141.6164  157.7357 H   0  0  0  0  0  0  0  0  0  0  0  0
  146.4321  143.2962  157.1983 H   0  0  0  0  0  0  0  0  0  0  0  0
  147.6741  143.9113  159.2909 H   0  0  0  0  0  0  0  0  0  0  0  0
  147.7387  142.2325  159.7581 H   0  0  0  0  0  0  0  0  0  0  0  0
  148.9089  143.2927  157.1618 H   0  0  0  0  0  0  0  0  0  0  0  0
  149.4103  140.6933  158.5329 H   0  0  0  0  0  0  0  0  0  0  0  0
  149.4913  138.8319  157.4439 H   0  0  0  0  0  0  0  0  0  0  0  0
  148.8121  138.7779  155.8510 H   0  0  0  0  0  0  0  0  0  0  0  0
  150.0657  138.2559  154.1643 H   0  0  0  0  0  0  0  0  0  0  0  0
  152.2507  137.7601  153.0802 H   0  0  0  0  0  0  0  0  0  0  0  0
  150.5340  141.7344  160.2963 H   0  0  0  0  0  0  0  0  0  0  0  0
  151.4237  141.3843  158.8373 H   0  0  0  0  0  0  0  0  0  0  0  0
  152.9615  141.9885  160.6776 H   0  0  0  0  0  0  0  0  0  0  0  0
  154.2459  143.7658  159.4953 H   0  0  0  0  0  0  0  0  0  0  0  0
  153.6242  142.6003  158.3513 H   0  0  0  0  0  0  0  0  0  0  0  0
  153.1971  144.9200  157.5490 H   0  0  0  0  0  0  0  0  0  0  0  0
  153.0735  146.0446  159.7713 H   0  0  0  0  0  0  0  0  0  0  0  0
  151.6591  146.4171  158.8148 H   0  0  0  0  0  0  0  0  0  0  0  0
  151.0028  145.7838  161.1336 H   0  0  0  0  0  0  0  0  0  0  0  0
  151.4193  143.4701  161.9616 H   0  0  0  0  0  0  0  0  0  0  0  0
  152.9307  144.2860  161.6427 H   0  0  0  0  0  0  0  0  0  0  0  0
  149.4333  145.2143  159.2925 H   0  0  0  0  0  0  0  0  0  0  0  0
  149.3650  144.0435  160.5860 H   0  0  0  0  0  0  0  0  0  0  0  0
  151.5855  143.1710  156.9516 H   0  0  0  0  0  0  0  0  0  0  0  0
  150.7613  144.6949  157.1337 H   0  0  0  0  0  0  0  0  0  0  0  0
  1  2  1  0  0  0  0
  1 26  1  0  0  0  0
  1 27  1  0  0  0  0
  1 28  1  0  0  0  0
  2  3  1  0  0  0  0
  2 29  1  0  0  0  0
  2 30  1  0  0  0  0
  3  4  1  0  0  0  0
  3 16  1  0  0  0  0
  3 31  1  0  0  0  0
  4  5  1  0  0  0  0
  4 32  1  0  0  0  0
  5  6  2  0  0  0  0
  5  7  1  0  0  0  0
  7  8  1  0  0  0  0
  7 33  1  0  0  0  0
  7 34  1  0  0  0  0
  8 14  1  0  0  0  0
  8  9  1  0  0  0  0
  9 10  2  0  0  0  0
  9 35  1  0  0  0  0
 10 11  1  0  0  0  0
 10 36  1  0  0  0  0
 11 12  2  0  0  0  0
 11 13  1  0  0  0  0
 13 14  1  0  0  0  0
 14 15  2  0  0  0  0
 16 24  1  0  0  0  0
 16 25  1  0  0  0  0
 16 17  1  0  0  0  0
 17 18  1  0  0  0  0
 17 37  1  0  0  0  0
 17 38  1  0  0  0  0
 18 23  1  0  0  0  0
 18 19  1  0  0  0  0
 18 39  1  0  0  0  0
 19 20  1  0  0  0  0
 19 40  1  0  0  0  0
 19 41  1  0  0  0  0
 20 21  1  0  0  0  0
 20 25  1  0  0  0  0
 20 42  1  0  0  0  0
 21 22  1  0  0  0  0
 21 43  1  0  0  0  0
 21 44  1  0  0  0  0
 22 23  1  0  0  0  0
 22 24  1  0  0  0  0
 22 45  1  0  0  0  0
 23 46  1  0  0  0  0
 23 47  1  0  0  0  0
 24 48  1  0  0  0  0
 24 49  1  0  0  0  0
 25 50  1  0  0  0  0
 25 51  1  0  0  0  0
M  CHG  1  13  -1
M  END
> <s_m_source_file>
AV-unprocessed.smi

> <i_m_source_file_index>
1591

> <i_lp_mmshare_version>
43012

> <i_f3d_flags>
0

> <s_epik_input>
W0NIMl0xW0NASF0oW0NIMl0yKVtDSDJdW0NASF0oW0NIMl0zKVtDSDJdW0NAQEhdMVtDSDJdQzIzW0NASF0oW0NIMl1bQ0gzXSlbTkhdQyg9TylbQ0gyXW40W2NIXVtjSF1jKD1PKVtuSF1jND1P

> <s_epik_cmdline>
J2VwaWtfcHl0aG9uJywgJy1waCcsICc3LjAnLCAnLXRuJywgJzgnLCAnLW1hJywgJzIwMCcsICctbWV0YWxfYmluZGluZycsICctaW1hZScsICc8aW5maWxlLm1hZT4nLCAnLW9tYWUnLCAnPG91dGZpbGUubWFlPic=

> <r_lp_tautomer_probability>
0.999537

> <r_epik_Ionization_Penalty>
3.13902

> <r_epik_Ionization_Penalty_Charging>
2.97334e-08

> <r_epik_Ionization_Penalty_Neutral>
3.13902

> <r_epik_State_Penalty>
3.13814

> <r_epik_Charging_Adjusted_Penalty>
3.13814

> <i_epik_Tot_Q>
-1

> <i_epik_Tot_abs_Q>
1

> <r_epik_Metal_State_Penalty>
0.465244

> <b_epik_Metal_Only>
1

> <s_lp_Force_Field>
OPLS_2005

> <r_lp_Energy>
48.864

> <b_lp_Chiralities_Consistent>
1

> <s_lp_Variant>
AV-unprocessed.smi:1591-3

> <Gold.Version>
5.8.1

> <Gold.Id.Protein>
6NUR|6NUR_protein|mol2

> <Gold.PLP.Fitness>
49.8656

> <Gold.PLP.PLP>
-47.1313

> <Gold.PLP.part.hbond>
-2.5959

> <Gold.PLP.part.metal>
0.0000

> <Gold.PLP.part.buried>
-3.8646

> <Gold.PLP.part.nonpolar>
-42.1816

> <Gold.PLP.part.repulsive>
0.2372

> <Gold.PLP.ligand.clash>
0.0183

> <Gold.PLP.ligand.torsion>
1.6679

> <Gold.PLP.Chemscore.Hbond>
2.0000

> <Gold.PLP.Chemscore.CHOScore>
0.0000

> <Gold.PLP.Chemscore.Metal>
0.0000

> <Gold.Chemscore.Hbonds>
donor molecule, donor type, donor heavy atom, donor atom, acceptor molecule, acceptor atom, score
      P1  H  7997  8009       L1    13  1.79

> <Gold.PLP.Chemscore.Internal.Correction>
0.0884

> <Gold.Rescore>
     Score         DG    S(hbond)    S(metal)    S(lipo)     H(rot)  DE(clash)    DE(int)     intcor
     16.71     -18.74       0.82        0.00     133.25       1.99       0.42       1.61       ----

> <Gold.Chemscore.Fitness>
16.7099

> <Gold.Chemscore.DG>
-18.7394

> <Gold.Chemscore.ZeroCoef>
-5.4800

> <Gold.Chemscore.Hbond>
0.8242

> <Gold.Chemscore.Metal>
0.0000

> <Gold.Chemscore.Lipo>
133.2509

> <Gold.Chemscore.Internal_Hbond>
0.0000

> <Gold.Chemscore.DEClash>
0.4174

> <Gold.Chemscore.DEInternal>
1.6122

> <Gold.Chemscore.Rot>
1.9858

> <Gold.Chemscore.Internal.Correction>
   9.000000E+99

> <Gold.Chemscore.Hbonds>
donor molecule, donor type, donor heavy atom, donor atom, acceptor molecule, acceptor atom, score
      P1  H  7997  8009       L1    13  0.69

> <Gold.Chemscore.Hbond.Weighted>
-2.7527

> <Gold.Chemscore.Metal.Weighted>
-0.0000

> <Gold.Chemscore.Lipo.Weighted>
-15.5904

> <Gold.Chemscore.Internal_Hbond.Weighted>
0.0000

> <Gold.Chemscore.DEClash.Weighted>
0.4174

> <Gold.Chemscore.DEInternal.Weighted>
1.6122

> <Gold.Chemscore.Rot.Weighted>
5.0836

> <Gold.Chemscore.Internal.Correction.Weighted>
   9.000000E+99

> <Gold.Protein.RotatedTorsions>
[ 6907 6896 6895 6894 ] final   15.59 input  -60.11 | X-H torsion
[ 7974 7965 7964 7962 ] final   47.87 input  175.53 | X-H torsion
[ 8008 7997 7996 7995 ] final -165.56 input   59.86 | X-H torsion
[ 10167 10162 10161 10158 ] final  139.62 input  -65.29 | X-H torsion
[ 10718 10713 10712 10709 ] final   64.68 input   66.30 | X-H torsion
[ 10763 10752 10751 10750 ] final   99.96 input  -60.55 | X-H torsion
[ 11005 11000 10999 10996 ] final   68.09 input  -57.11 | X-H torsion

> <Gold.Protein.ActiveResidues>
 VAL166  LYS551  ARG553  GLY616  TRP617  ASP618  TYR619  PRO620  LYS621  CYS622 
 ASP623  PHE694  ASN695  SER759  ASP760  ASP761  ALA762  ILE779  LEU786  VAL792 
 PHE793  MET794  SER795  GLU796  ALA797  LYS798  CYS799  TRP800  GLU811  SER814 

> <Gold.Protein.RotatedAtoms>
  151.8205  135.0653  160.0424 H   0  0  0  0  0  0  0  0  0  0  0  0  # atno 6907 bound_to 6896
  152.2954  133.5598  159.5592 H   0  0  0  0  0  0  0  0  0  0  0  0  # atno 6908 bound_to 6896
  150.7249  134.0284  159.3767 H   0  0  0  0  0  0  0  0  0  0  0  0  # atno 6909 bound_to 6896
  146.0257  139.4704  142.9869 H   0  0  0  0  0  0  0  0  0  0  0  0  # atno 7974 bound_to 7965
  155.8515  140.0964  157.1672 H   0  0  0  0  0  0  0  0  0  0  0  0  # atno 8008 bound_to 7997
  154.3985  140.1382  156.3912 H   0  0  0  0  0  0  0  0  0  0  0  0  # atno 8009 bound_to 7997
  155.7956  140.3454  155.5376 H   0  0  0  0  0  0  0  0  0  0  0  0  # atno 8010 bound_to 7997
  139.5073  144.6284  151.5880 H   0  0  0  0  0  0  0  0  0  0  0  0  # atno 10167 bound_to 10162
  157.6055  130.9173  149.9877 H   0  0  0  0  0  0  0  0  0  0  0  0  # atno 10718 bound_to 10713
  153.3080  135.4095  155.1311 H   0  0  0  0  0  0  0  0  0  0  0  0  # atno 10763 bound_to 10752
  154.8568  135.3557  154.5762 H   0  0  0  0  0  0  0  0  0  0  0  0  # atno 10764 bound_to 10752
  153.6190  135.7065  153.5376 H   0  0  0  0  0  0  0  0  0  0  0  0  # atno 10765 bound_to 10752
  139.9732  134.6866  156.0405 H   0  0  0  0  0  0  0  0  0  0  0  0  # atno 11005 bound_to 11000
  145.7121  141.0103  143.1447 LP  0  0  0  0  0  0  0  0  0  0  0  0  # atno 17320 bound_to 7965
  144.7008  139.8770  143.7444 LP  0  0  0  0  0  0  0  0  0  0  0  0  # atno 17321 bound_to 7965
  140.6008  143.9613  150.6385 LP  0  0  0  0  0  0  0  0  0  0  0  0  # atno 17342 bound_to 10162
  140.2824  143.3380  152.1139 LP  0  0  0  0  0  0  0  0  0  0  0  0  # atno 17343 bound_to 10162
  156.1141  130.3648  149.9999 LP  0  0  0  0  0  0  0  0  0  0  0  0  # atno 17370 bound_to 10713
  156.8092  130.9318  151.3644 LP  0  0  0  0  0  0  0  0  0  0  0  0  # atno 17371 bound_to 10713
  141.1411  133.6564  156.3731 LP  0  0  0  0  0  0  0  0  0  0  0  0  # atno 17394 bound_to 11000
  140.5249  134.6268  157.5331 LP  0  0  0  0  0  0  0  0  0  0  0  0  # atno 17395 bound_to 11000

$$$$
