AV-unprocessed.smi:3344|AV-procd|sdf|12898|dock10
  -GOLD-   2272019303D 1   1.00000     0.00000
 Structure written by MMmdl.
 43 44  0  0  0  0  0  0  0  0  2 V2000
  150.9214  139.0434  154.2616 C   0  0  0  0  0  0  0  0  0  0  0  0
  149.9396  140.1616  154.6662 C   0  0  1  0  0  0  0  0  0  0  0  0
  148.4698  139.7425  154.5045 C   0  0  0  0  0  0  0  0  0  0  0  0
  147.7121  139.7183  155.4750 O   0  0  0  0  0  0  0  0  0  0  0  0
  148.0760  139.4122  153.2641 N   0  0  0  0  0  0  0  0  0  0  0  0
  146.7232  139.0091  152.8983 C   0  0  0  0  0  0  0  0  0  0  0  0
  146.7300  137.7920  151.9516 C   0  0  0  0  0  0  0  0  0  0  0  0
  145.3689  137.2490  151.6939 N   0  3  0  0  0  0  0  0  0  0  0  0
  144.5606  137.1313  152.9400 C   0  0  0  0  0  0  0  0  0  0  0  0
  144.7637  135.8153  153.7151 C   0  0  0  0  0  0  0  0  0  0  0  0
  143.7738  134.7201  153.2891 C   0  0  0  0  0  0  0  0  0  0  0  0
  144.0234  134.1607  151.8823 C   0  0  0  0  0  0  0  0  0  0  0  0
  144.0797  135.2285  150.7766 C   0  0  0  0  0  0  0  0  0  0  0  0
  145.3821  136.0526  150.8035 C   0  0  0  0  0  0  0  0  0  0  0  0
  150.1810  140.6415  156.0215 N   0  0  0  0  0  0  0  0  0  0  0  0
  150.3146  141.8883  156.4795 C   0  0  0  0  0  0  0  0  0  0  0  0
  150.4836  141.9652  157.7922 N   0  0  0  0  0  0  0  0  0  0  0  0
  150.4318  140.6368  158.1070 C   0  0  0  0  0  0  0  0  0  0  0  0
  150.2409  139.8020  157.0855 N   0  0  0  0  0  0  0  0  0  0  0  0
  150.7576  138.7312  153.2295 H   0  0  0  0  0  0  0  0  0  0  0  0
  150.8216  138.1593  154.8930 H   0  0  0  0  0  0  0  0  0  0  0  0
  151.9534  139.3869  154.3382 H   0  0  0  0  0  0  0  0  0  0  0  0
  150.1162  141.0025  153.9930 H   0  0  0  0  0  0  0  0  0  0  0  0
  148.7578  139.4582  152.5206 H   0  0  0  0  0  0  0  0  0  0  0  0
  146.1428  138.7941  153.7973 H   0  0  0  0  0  0  0  0  0  0  0  0
  146.2531  139.8683  152.4207 H   0  0  0  0  0  0  0  0  0  0  0  0
  147.2086  138.0488  151.0056 H   0  0  0  0  0  0  0  0  0  0  0  0
  147.3434  137.0121  152.4042 H   0  0  0  0  0  0  0  0  0  0  0  0
  144.7827  137.9733  153.5968 H   0  0  0  0  0  0  0  0  0  0  0  0
  143.5069  137.2569  152.6881 H   0  0  0  0  0  0  0  0  0  0  0  0
  145.7945  135.4650  153.6493 H   0  0  0  0  0  0  0  0  0  0  0  0
  144.5888  136.0183  154.7723 H   0  0  0  0  0  0  0  0  0  0  0  0
  143.8271  133.8973  154.0030 H   0  0  0  0  0  0  0  0  0  0  0  0
  142.7543  135.1024  153.3548 H   0  0  0  0  0  0  0  0  0  0  0  0
  144.9451  133.5774  151.8774 H   0  0  0  0  0  0  0  0  0  0  0  0
  143.2265  133.4537  151.6486 H   0  0  0  0  0  0  0  0  0  0  0  0
  144.0434  134.7027  149.8218 H   0  0  0  0  0  0  0  0  0  0  0  0
  143.1961  135.8676  150.7886 H   0  0  0  0  0  0  0  0  0  0  0  0
  145.5752  136.4069  149.7909 H   0  0  0  0  0  0  0  0  0  0  0  0
  146.2207  135.4034  151.0594 H   0  0  0  0  0  0  0  0  0  0  0  0
  150.2847  142.7588  155.8405 H   0  0  0  0  0  0  0  0  0  0  0  0
  150.5306  140.2745  159.1197 H   0  0  0  0  0  0  0  0  0  0  0  0
  144.8971  137.9705  151.1674 H   0  0  0  0  0  0  0  0  0  0  0  0
  1  2  1  0  0  0  0
  1 20  1  0  0  0  0
  1 21  1  0  0  0  0
  1 22  1  0  0  0  0
  2  3  1  0  0  0  0
  2 15  1  0  0  0  0
  2 23  1  0  0  0  0
  3  4  2  0  0  0  0
  3  5  1  0  0  0  0
  5  6  1  0  0  0  0
  5 24  1  0  0  0  0
  6  7  1  0  0  0  0
  6 25  1  0  0  0  0
  6 26  1  0  0  0  0
  7  8  1  0  0  0  0
  7 27  1  0  0  0  0
  7 28  1  0  0  0  0
  8 14  1  0  0  0  0
  8  9  1  0  0  0  0
  8 43  1  0  0  0  0
  9 10  1  0  0  0  0
  9 29  1  0  0  0  0
  9 30  1  0  0  0  0
 10 11  1  0  0  0  0
 10 31  1  0  0  0  0
 10 32  1  0  0  0  0
 11 12  1  0  0  0  0
 11 33  1  0  0  0  0
 11 34  1  0  0  0  0
 12 13  1  0  0  0  0
 12 35  1  0  0  0  0
 12 36  1  0  0  0  0
 13 14  1  0  0  0  0
 13 37  1  0  0  0  0
 13 38  1  0  0  0  0
 14 39  1  0  0  0  0
 14 40  1  0  0  0  0
 15 19  1  0  0  0  0
 15 16  1  0  0  0  0
 16 17  2  0  0  0  0
 16 41  1  0  0  0  0
 17 18  1  0  0  0  0
 18 19  2  0  0  0  0
 18 42  1  0  0  0  0
M  CHG  1   8   1
M  END
> <s_m_source_file>
AV-unprocessed.smi

> <i_m_source_file_index>
3344

> <i_lp_mmshare_version>
43012

> <i_f3d_flags>
0

> <s_epik_input>
bjFbY0hdbltjSF1uMVtDQEhdKFtDSDNdKUMoPU8pW05IXVtDSDJdW0NIMl1OMltDSDJdW0NIMl1bQ0gyXVtDSDJdW0NIMl1bQ0gyXTI=

> <s_epik_cmdline>
J2VwaWtfcHl0aG9uJywgJy1waCcsICc3LjAnLCAnLXRuJywgJzgnLCAnLW1hJywgJzIwMCcsICctbWV0YWxfYmluZGluZycsICctaW1hZScsICc8aW5maWxlLm1hZT4nLCAnLW9tYWUnLCAnPG91dGZpbGUubWFlPic=

> <r_lp_tautomer_probability>
1

> <r_epik_Ionization_Penalty>
0.00266407

> <r_epik_Ionization_Penalty_Charging>
0.00265606

> <r_epik_Ionization_Penalty_Neutral>
8.01095e-06

> <r_epik_State_Penalty>
0.00184955

> <r_epik_Charging_Adjusted_Penalty>
0.00450561

> <i_epik_Tot_Q>
1

> <i_epik_Tot_abs_Q>
1

> <r_epik_Metal_State_Penalty>
-0

> <b_epik_Metal_Only>
0

> <s_lp_Force_Field>
OPLS_2005

> <r_lp_Energy>
28.0166

> <b_lp_Chiralities_Consistent>
1

> <s_lp_Variant>
AV-unprocessed.smi:3344-2

> <Gold.Version>
5.8.1

> <Gold.Id.Protein>
6NUR|6NUR_protein|mol2

> <Gold.PLP.Fitness>
36.9692

> <Gold.PLP.PLP>
-28.8276

> <Gold.PLP.part.hbond>
-2.0000

> <Gold.PLP.part.metal>
0.0000

> <Gold.PLP.part.buried>
0.2337

> <Gold.PLP.part.nonpolar>
-27.8799

> <Gold.PLP.part.repulsive>
0.2145

> <Gold.PLP.ligand.clash>
0.0000

> <Gold.PLP.ligand.torsion>
0.4799

> <Gold.PLP.Chemscore.Hbond>
2.0000

> <Gold.PLP.Chemscore.CHOScore>
0.9861

> <Gold.PLP.Chemscore.Metal>
0.0000

> <Gold.Chemscore.Hbonds>
donor molecule, donor type, donor heavy atom, donor atom, acceptor molecule, acceptor atom, score
      L1  H     5    24       P1  7957  1.00
      L1  H     8    43       P1 10171  1.00
      L1  C    16    41       P1  8028  1.00

> <Gold.PLP.Chemscore.Internal.Correction>
0.1432

> <Gold.Rescore>
     Score         DG    S(hbond)    S(metal)    S(lipo)     H(rot)  DE(clash)    DE(int)     intcor
     10.63     -12.89       1.98        0.00      62.43       2.54       1.52       0.75       ----

> <Gold.Chemscore.Fitness>
10.6295

> <Gold.Chemscore.DG>
-12.8909

> <Gold.Chemscore.ZeroCoef>
-5.4800

> <Gold.Chemscore.Hbond>
1.9770

> <Gold.Chemscore.Metal>
0.0000

> <Gold.Chemscore.Lipo>
62.4287

> <Gold.Chemscore.Internal_Hbond>
0.0000

> <Gold.Chemscore.DEClash>
1.5155

> <Gold.Chemscore.DEInternal>
0.7459

> <Gold.Chemscore.Rot>
2.5377

> <Gold.Chemscore.Internal.Correction>
   9.000000E+99

> <Gold.Chemscore.Hbonds>
donor molecule, donor type, donor heavy atom, donor atom, acceptor molecule, acceptor atom, score
      L1  H     5    24       P1  7957  1.00
      L1  H     8    43       P1 10171  0.98

> <Gold.Chemscore.Hbond.Weighted>
-6.6033

> <Gold.Chemscore.Metal.Weighted>
-0.0000

> <Gold.Chemscore.Lipo.Weighted>
-7.3042

> <Gold.Chemscore.Internal_Hbond.Weighted>
0.0000

> <Gold.Chemscore.DEClash.Weighted>
1.5155

> <Gold.Chemscore.DEInternal.Weighted>
0.7459

> <Gold.Chemscore.Rot.Weighted>
6.4966

> <Gold.Chemscore.Internal.Correction.Weighted>
   9.000000E+99

> <Gold.Protein.RotatedTorsions>
[ 6907 6896 6895 6894 ] final -136.55 input  -60.11 | X-H torsion
[ 7974 7965 7964 7962 ] final   53.41 input  175.53 | X-H torsion
[ 8008 7997 7996 7995 ] final  102.74 input   59.86 | X-H torsion
[ 10167 10162 10161 10158 ] final  148.66 input  -65.29 | X-H torsion
[ 10718 10713 10712 10709 ] final -158.06 input   66.30 | X-H torsion
[ 10763 10752 10751 10750 ] final -139.70 input  -60.55 | X-H torsion
[ 11005 11000 10999 10996 ] final  -39.09 input  -57.11 | X-H torsion

> <Gold.Protein.ActiveResidues>
 VAL166  LYS551  ARG553  GLY616  TRP617  ASP618  TYR619  PRO620  LYS621  CYS622 
 ASP623  PHE694  ASN695  SER759  ASP760  ASP761  ALA762  ILE779  LEU786  VAL792 
 PHE793  MET794  SER795  GLU796  ALA797  LYS798  CYS799  TRP800  GLU811  SER814 

> <Gold.Protein.RotatedAtoms>
  151.0114  133.5961  159.2681 H   0  0  0  0  0  0  0  0  0  0  0  0  # atno 6907 bound_to 6896
  151.3111  135.0793  159.9282 H   0  0  0  0  0  0  0  0  0  0  0  0  # atno 6908 bound_to 6896
  152.5300  133.9779  159.7847 H   0  0  0  0  0  0  0  0  0  0  0  0  # atno 6909 bound_to 6896
  145.9714  139.4153  143.0187 H   0  0  0  0  0  0  0  0  0  0  0  0  # atno 7974 bound_to 7965
  156.1420  140.3176  155.8511 H   0  0  0  0  0  0  0  0  0  0  0  0  # atno 8008 bound_to 7997
  155.4136  140.0507  157.3047 H   0  0  0  0  0  0  0  0  0  0  0  0  # atno 8009 bound_to 7997
  154.4984  140.2120  155.9410 H   0  0  0  0  0  0  0  0  0  0  0  0  # atno 8010 bound_to 7997
  139.4872  144.5662  151.7140 H   0  0  0  0  0  0  0  0  0  0  0  0  # atno 10167 bound_to 10162
  156.5490  130.8597  151.2773 H   0  0  0  0  0  0  0  0  0  0  0  0  # atno 10718 bound_to 10713
  154.8601  135.3575  154.5588 H   0  0  0  0  0  0  0  0  0  0  0  0  # atno 10763 bound_to 10752
  153.6204  135.7006  153.5317 H   0  0  0  0  0  0  0  0  0  0  0  0  # atno 10764 bound_to 10752
  153.3133  135.4172  155.1315 H   0  0  0  0  0  0  0  0  0  0  0  0  # atno 10765 bound_to 10752
  141.0076  133.6924  156.2140 H   0  0  0  0  0  0  0  0  0  0  0  0  # atno 11005 bound_to 11000
  145.7900  140.9818  143.1054 LP  0  0  0  0  0  0  0  0  0  0  0  0  # atno 17320 bound_to 7965
  144.6838  139.9671  143.7481 LP  0  0  0  0  0  0  0  0  0  0  0  0  # atno 17321 bound_to 7965
  140.5241  144.0833  150.6032 LP  0  0  0  0  0  0  0  0  0  0  0  0  # atno 17342 bound_to 10162
  140.3801  143.2807  152.0180 LP  0  0  0  0  0  0  0  0  0  0  0  0  # atno 17343 bound_to 10162
  157.7391  130.9825  150.2293 LP  0  0  0  0  0  0  0  0  0  0  0  0  # atno 17370 bound_to 10713
  156.2902  130.3744  149.7849 LP  0  0  0  0  0  0  0  0  0  0  0  0  # atno 17371 bound_to 10713
  140.6786  134.4791  157.5588 LP  0  0  0  0  0  0  0  0  0  0  0  0  # atno 17394 bound_to 11000
  139.9072  134.8423  156.1662 LP  0  0  0  0  0  0  0  0  0  0  0  0  # atno 17395 bound_to 11000

$$$$
