#       Name:                AV-unprocessed.smi:1214
#       Creating user name   scv26
#       Creation time:       Fri Mar 27 04:14:35 2020


#       File generated by GOLD software.
#

@<TRIPOS>MOLECULE
AV-unprocessed.smi:1214
    36    37     1
SMALL
NO_CHARGES


@<TRIPOS>ATOM
      1 ****        -1.8908  -3.3971   0.5379 C.3            1 S1                 0.0000
      2 ****        -0.5406  -4.0466   0.2797 C.ar           1 S1                 0.0000
      3 ****        -0.4460  -5.4545   0.2672 C.ar           1 S1                 0.0000
      4 ****         0.8012  -6.0561   0.0293 C.ar           1 S1                 0.0000
      5 ****         1.9083  -5.2187  -0.1865 C.ar           1 S1                 0.0000
      6 ****         1.8261  -3.8726  -0.1764 N.ar           1 S1                 0.0000
      7 ****         0.6285  -3.2725   0.0468 C.ar           1 S1                 0.0000
      8 ****         0.4569  -1.8544   0.0924 N.am           1 S1                 0.0000
      9 ****         1.2851  -0.8400  -0.2366 C.2            1 S1                 0.0000
     10 ****         2.4226  -1.0580  -0.6504 O.2            1 S1                 0.0000
     11 ****         0.7999   0.4010  -0.0693 N.am           1 S1                 0.0000
     12 ****         1.5217   1.6368  -0.3487 C.3            1 S1                 0.0000
     13 ****         1.4896   1.9982  -1.8472 C.3            1 S1                 0.0000
     14 ****         1.9153   3.4628  -2.0101 C.3            1 S1                 0.0000
     15 ****         1.3960   4.3203  -0.4753 S.o2           1 S1                 0.0000
     16 ****         2.5814   4.9121   0.1630 O.2            1 S1                 0.0000
     17 ****         0.1968   5.1291  -0.7417 O.2            1 S1                 0.0000
     18 ****         0.9089   2.8063   0.4330 C.3            1 S1                 0.0000
     19 ****        -2.6700  -4.1452   0.6867 H              1 S1                 0.0000
     20 ****        -2.1822  -2.7738  -0.3078 H              1 S1                 0.0000
     21 ****        -1.8507  -2.7735   1.4314 H              1 S1                 0.0000
     22 ****        -1.3176  -6.0695   0.4385 H              1 S1                 0.0000
     23 ****         0.9064  -7.1310   0.0140 H              1 S1                 0.0000
     24 ****         2.8861  -5.6387  -0.3711 H              1 S1                 0.0000
     25 ****        -0.4348  -1.5580   0.4614 H              1 S1                 0.0000
     26 ****        -0.1469   0.4908   0.2720 H              1 S1                 0.0000
     27 ****         2.5633   1.5345  -0.0385 H              1 S1                 0.0000
     28 ****         2.1171   1.3324  -2.4405 H              1 S1                 0.0000
     29 ****         0.4698   1.8887  -2.2194 H              1 S1                 0.0000
     30 ****         2.9996   3.5430  -2.0883 H              1 S1                 0.0000
     31 ****         1.4666   3.9414  -2.8805 H              1 S1                 0.0000
     32 ****        -0.1805   2.7558   0.4324 H              1 S1                 0.0000
     33 ****         1.2551   2.8586   1.4653 H              1 S1                 0.0000
     34 ****         2.6438  -3.3185  -0.3326 LP             1 S1                 0.0000
     35 ****         2.7474  -1.9988  -0.7479 LP             1 S1                 0.0000
     36 ****         3.0225  -0.2946  -0.8895 LP             1 S1                 0.0000
@<TRIPOS>BOND
    1    1    2 1     
    2    1   19 1     
    3    1   20 1     
    4    1   21 1     
    5    2    7 ar    
    6    2    3 ar    
    7    3    4 ar    
    8    3   22 1     
    9    4    5 ar    
   10    4   23 1     
   11    5    6 ar    
   12    5   24 1     
   13    6    7 ar    
   14    7    8 1     
   15    8    9 am    
   16    8   25 1     
   17    9   10 2     
   18    9   11 am    
   19   11   12 1     
   20   11   26 1     
   21   12   18 1     
   22   12   13 1     
   23   12   27 1     
   24   13   14 1     
   25   13   28 1     
   26   13   29 1     
   27   14   15 1     
   28   14   30 1     
   29   14   31 1     
   30   15   16 2     
   31   15   17 2     
   32   15   18 1     
   33   18   32 1     
   34   18   33 1     
   35    6   34 1     
   36   10   35 1     
   37   10   36 1     
@<TRIPOS>SUBSTRUCTURE
      1 S1             1
@<TRIPOS>SET
LONE_PAIRS      STATIC     ATOMS    <user>   **** ""
5 34 35 36 16 17
DONOR_HYDROGENS      STATIC     ATOMS    <user>   **** ""
2 25 26
ATOM$BLUE        STATIC     ATOMS    COLORGROUP SYSTEM
5 34 35 36 16 17
ATOM$RED        STATIC     ATOMS    COLORGROUP SYSTEM
2 25 26
