AV-unprocessed.smi:288|AV-procd|sdf|2212|dock1
  -GOLD-   2262022 43D 1   1.00000     0.00000
 Structure written by MMmdl.
 33 34  0  0  0  0  0  0  0  0  1 V2000
  152.4168  138.1002  158.5553 O   0  0  0  0  0  0  0  0  0  0  0  0
  152.4972  139.2764  158.9135 C   0  0  0  0  0  0  0  0  0  0  0  0
  153.5426  139.7744  159.8013 C   0  0  0  0  0  0  0  0  0  0  0  0
  154.4631  138.9234  160.2855 F   0  0  0  0  0  0  0  0  0  0  0  0
  153.6040  141.0791  160.1455 C   0  0  0  0  0  0  0  0  0  0  0  0
  152.6987  142.0240  159.6898 N   0  0  0  0  0  0  0  0  0  0  0  0
  152.7940  143.4833  160.0811 C   0  0  1  0  0  0  0  0  0  0  0  0
  152.7547  144.3816  158.8311 C   0  0  0  0  0  0  0  0  0  0  0  0
  151.6878  145.3977  159.1853 C   0  0  0  0  0  0  0  0  0  0  0  0
  150.7773  144.5907  160.0984 C   0  0  0  0  0  0  0  0  0  0  0  0
  151.6973  143.8357  160.8761 O   0  0  0  0  0  0  0  0  0  0  0  0
  151.6541  141.6310  158.8255 C   0  0  0  0  0  0  0  0  0  0  0  0
  150.8496  142.4588  158.3908 O   0  0  0  0  0  0  0  0  0  0  0  0
  151.5778  140.2615  158.4780 N   0  0  0  0  0  0  0  0  0  0  0  0
  150.5070  139.8484  157.5858 C   0  0  0  0  0  0  0  0  0  0  0  0
  150.4683  140.6493  156.2645 C   0  0  1  0  0  0  0  0  0  0  0  0
  151.5517  140.2359  155.4539 O   0  0  0  0  0  0  0  0  0  0  0  0
  149.1672  140.4137  155.4725 C   0  0  0  0  0  0  0  0  0  0  0  0
  149.0131  141.3611  154.5469 F   0  0  0  0  0  0  0  0  0  0  0  0
  149.1725  139.2144  154.8889 F   0  0  0  0  0  0  0  0  0  0  0  0
  148.1250  140.4791  156.3015 F   0  0  0  0  0  0  0  0  0  0  0  0
  154.4052  141.3780  160.8034 H   0  0  0  0  0  0  0  0  0  0  0  0
  153.7081  143.5759  160.6703 H   0  0  0  0  0  0  0  0  0  0  0  0
  153.7305  144.8280  158.6380 H   0  0  0  0  0  0  0  0  0  0  0  0
  152.4501  143.8009  157.9588 H   0  0  0  0  0  0  0  0  0  0  0  0
  152.1286  146.2293  159.7365 H   0  0  0  0  0  0  0  0  0  0  0  0
  151.1715  145.7984  158.3126 H   0  0  0  0  0  0  0  0  0  0  0  0
  150.1424  145.2178  160.7243 H   0  0  0  0  0  0  0  0  0  0  0  0
  150.1387  143.9238  159.5174 H   0  0  0  0  0  0  0  0  0  0  0  0
  150.5788  138.7720  157.4203 H   0  0  0  0  0  0  0  0  0  0  0  0
  149.5789  139.9654  158.1474 H   0  0  0  0  0  0  0  0  0  0  0  0
  150.5688  141.7177  156.4606 H   0  0  0  0  0  0  0  0  0  0  0  0
  151.6240  139.2950  155.5051 H   0  0  0  0  0  0  0  0  0  0  0  0
  1  2  2  0  0  0  0
  2 14  1  0  0  0  0
  2  3  1  0  0  0  0
  3  4  1  0  0  0  0
  3  5  2  0  0  0  0
  5  6  1  0  0  0  0
  5 22  1  0  0  0  0
  6  7  1  0  0  0  0
  6 12  1  0  0  0  0
  7 11  1  0  0  0  0
  7  8  1  0  0  0  0
  7 23  1  0  0  0  0
  8  9  1  0  0  0  0
  8 24  1  0  0  0  0
  8 25  1  0  0  0  0
  9 10  1  0  0  0  0
  9 26  1  0  0  0  0
  9 27  1  0  0  0  0
 10 11  1  0  0  0  0
 10 28  1  0  0  0  0
 10 29  1  0  0  0  0
 12 13  2  0  0  0  0
 12 14  1  0  0  0  0
 14 15  1  0  0  0  0
 15 16  1  0  0  0  0
 15 30  1  0  0  0  0
 15 31  1  0  0  0  0
 16 17  1  0  0  0  0
 16 18  1  0  0  0  0
 16 32  1  0  0  0  0
 17 33  1  0  0  0  0
 18 19  1  0  0  0  0
 18 20  1  0  0  0  0
 18 21  1  0  0  0  0
M  END
> <s_m_source_file>
AV-unprocessed.smi

> <i_m_source_file_index>
288

> <i_lp_mmshare_version>
43012

> <i_f3d_flags>
0

> <s_epik_input>
TzFbQ0gyXVtDSDJdW0NIMl1bQ0BIXTFuKFtjSF1jKEYpYzI9TyljKD1PKW4yW0NIMl1bQ0BIXShbT0hdKUMoRikoRilG

> <s_epik_cmdline>
J2VwaWtfcHl0aG9uJywgJy1waCcsICc3LjAnLCAnLXRuJywgJzgnLCAnLW1hJywgJzIwMCcsICctbWV0YWxfYmluZGluZycsICctaW1hZScsICc8aW5maWxlLm1hZT4nLCAnLW9tYWUnLCAnPG91dGZpbGUubWFlPic=

> <r_lp_tautomer_probability>
1

> <r_epik_Ionization_Penalty>
0.000551119

> <r_epik_Ionization_Penalty_Charging>
2.51184e-08

> <r_epik_Ionization_Penalty_Neutral>
0.000551094

> <r_epik_State_Penalty>
0.000345115

> <r_epik_Charging_Adjusted_Penalty>
0.00034514

> <i_epik_Tot_Q>
0

> <i_epik_Tot_abs_Q>
0

> <r_epik_Metal_State_Penalty>
-0

> <b_epik_Metal_Only>
0

> <s_epik_Chemistry_Notes>
This compound contains an acetal/aminal-like group ( X-CH(R)-Y where X, Y are N, S, or O) that may be acid/base labile, releasing an aldehyde.

> <s_lp_Force_Field>
OPLS_2005

> <r_lp_Energy>
35.613

> <b_lp_Chiralities_Consistent>
1

> <s_lp_Variant>
AV-unprocessed.smi:288-4

> <Gold.Version>
5.8.1

> <Gold.Id.Protein>
6NUR|6NUR_protein|mol2

> <Gold.PLP.Fitness>
43.9150

> <Gold.PLP.PLP>
-43.3358

> <Gold.PLP.part.hbond>
-1.0000

> <Gold.PLP.part.metal>
0.0000

> <Gold.PLP.part.buried>
-5.6162

> <Gold.PLP.part.nonpolar>
-36.5763

> <Gold.PLP.part.repulsive>
0.1849

> <Gold.PLP.ligand.clash>
0.9144

> <Gold.PLP.ligand.torsion>
0.5682

> <Gold.PLP.Chemscore.Hbond>
0.8640

> <Gold.PLP.Chemscore.CHOScore>
0.0000

> <Gold.PLP.Chemscore.Metal>
0.0000

> <Gold.Chemscore.Hbonds>
donor molecule, donor type, donor heavy atom, donor atom, acceptor molecule, acceptor atom, score
      P1  H  7989  7998       L1    17  0.87

> <Gold.PLP.Chemscore.Internal.Correction>
0.0380

> <Gold.Rescore>
     Score         DG    S(hbond)    S(metal)    S(lipo)     H(rot)  DE(clash)    DE(int)     intcor
      5.72     -10.37       0.99        0.00      69.78       2.57       0.02       4.63       ----

> <Gold.Chemscore.Fitness>
5.7223

> <Gold.Chemscore.DG>
-10.3720

> <Gold.Chemscore.ZeroCoef>
-5.4800

> <Gold.Chemscore.Hbond>
0.9867

> <Gold.Chemscore.Metal>
0.0000

> <Gold.Chemscore.Lipo>
69.7797

> <Gold.Chemscore.Internal_Hbond>
0.0000

> <Gold.Chemscore.DEClash>
0.0208

> <Gold.Chemscore.DEInternal>
4.6289

> <Gold.Chemscore.Rot>
2.5656

> <Gold.Chemscore.Internal.Correction>
   9.000000E+99

> <Gold.Chemscore.Hbonds>
donor molecule, donor type, donor heavy atom, donor atom, acceptor molecule, acceptor atom, score
      P1  H  7989  7998       L1    17  0.61

> <Gold.Chemscore.Hbond.Weighted>
-3.2957

> <Gold.Chemscore.Metal.Weighted>
-0.0000

> <Gold.Chemscore.Lipo.Weighted>
-8.1642

> <Gold.Chemscore.Internal_Hbond.Weighted>
0.0000

> <Gold.Chemscore.DEClash.Weighted>
0.0208

> <Gold.Chemscore.DEInternal.Weighted>
4.6289

> <Gold.Chemscore.Rot.Weighted>
6.5679

> <Gold.Chemscore.Internal.Correction.Weighted>
   9.000000E+99

> <Gold.Protein.RotatedTorsions>
[ 6907 6896 6895 6894 ] final  -40.80 input  -60.11 | X-H torsion
[ 7974 7965 7964 7962 ] final  152.76 input  175.53 | X-H torsion
[ 8008 7997 7996 7995 ] final  115.41 input   59.86 | X-H torsion
[ 10167 10162 10161 10158 ] final   81.95 input  -65.29 | X-H torsion
[ 10718 10713 10712 10709 ] final    2.33 input   66.30 | X-H torsion
[ 10763 10752 10751 10750 ] final  -54.18 input  -60.55 | X-H torsion
[ 11005 11000 10999 10996 ] final  123.70 input  -57.11 | X-H torsion

> <Gold.Protein.ActiveResidues>
 VAL166  LYS551  ARG553  GLY616  TRP617  ASP618  TYR619  PRO620  LYS621  CYS622 
 ASP623  PHE694  ASN695  SER759  ASP760  ASP761  ALA762  ILE779  LEU786  VAL792 
 PHE793  MET794  SER795  GLU796  ALA797  LYS798  CYS799  TRP800  GLU811  SER814 

> <Gold.Protein.RotatedAtoms>
  150.9742  134.9109  159.7805 H   0  0  0  0  0  0  0  0  0  0  0  0  # atno 6907 bound_to 6896
  152.5200  134.3499  159.9257 H   0  0  0  0  0  0  0  0  0  0  0  0  # atno 6908 bound_to 6896
  151.3507  133.3885  159.2714 H   0  0  0  0  0  0  0  0  0  0  0  0  # atno 6909 bound_to 6896
  144.8200  139.6711  143.6104 H   0  0  0  0  0  0  0  0  0  0  0  0  # atno 7974 bound_to 7965
  156.2380  140.2939  156.0364 H   0  0  0  0  0  0  0  0  0  0  0  0  # atno 8008 bound_to 7997
  155.2036  140.0410  157.2939 H   0  0  0  0  0  0  0  0  0  0  0  0  # atno 8009 bound_to 7997
  154.6114  140.2452  155.7671 H   0  0  0  0  0  0  0  0  0  0  0  0  # atno 8010 bound_to 7997
  139.9339  144.6134  150.8318 H   0  0  0  0  0  0  0  0  0  0  0  0  # atno 10167 bound_to 10162
  156.8615  130.5588  149.5662 H   0  0  0  0  0  0  0  0  0  0  0  0  # atno 10718 bound_to 10713
  154.1707  135.6459  153.5009 H   0  0  0  0  0  0  0  0  0  0  0  0  # atno 10763 bound_to 10752
  153.0085  135.5383  154.6615 H   0  0  0  0  0  0  0  0  0  0  0  0  # atno 10764 bound_to 10752
  154.5954  135.2938  155.0564 H   0  0  0  0  0  0  0  0  0  0  0  0  # atno 10765 bound_to 10752
  139.9325  134.9641  156.8299 H   0  0  0  0  0  0  0  0  0  0  0  0  # atno 11005 bound_to 11000
  146.2505  139.6189  142.9430 LP  0  0  0  0  0  0  0  0  0  0  0  0  # atno 17320 bound_to 7965
  145.5127  141.0435  143.2479 LP  0  0  0  0  0  0  0  0  0  0  0  0  # atno 17321 bound_to 7965
  140.7630  143.3212  151.2619 LP  0  0  0  0  0  0  0  0  0  0  0  0  # atno 17342 bound_to 10162
  139.6760  143.9937  152.2781 LP  0  0  0  0  0  0  0  0  0  0  0  0  # atno 17343 bound_to 10162
  156.0774  130.5793  150.9500 LP  0  0  0  0  0  0  0  0  0  0  0  0  # atno 17370 bound_to 10713
  157.6247  131.0926  150.8555 LP  0  0  0  0  0  0  0  0  0  0  0  0  # atno 17371 bound_to 10713
  140.6165  134.0034  155.7599 LP  0  0  0  0  0  0  0  0  0  0  0  0  # atno 17394 bound_to 11000
  141.0921  133.9901  157.3220 LP  0  0  0  0  0  0  0  0  0  0  0  0  # atno 17395 bound_to 11000

$$$$
