AV-unprocessed.smi:3086|AV-procd|sdf|11765|dock3
  -GOLD-   2272017143D 1   1.00000     0.00000
 Structure written by MMmdl.
 30 31  0  0  0  0  0  0  0  0  2 V2000
  153.1392  138.2987  154.5271 C   0  0  0  0  0  0  0  0  0  0  0  0
  152.2953  139.2975  155.2427 C   0  0  0  0  0  0  0  0  0  0  0  0
  152.5752  139.7402  156.5022 N   0  0  0  0  0  0  0  0  0  0  0  0
  151.5714  140.5917  156.6819 C   0  0  0  0  0  0  0  0  0  0  0  0
  151.3806  141.4136  157.9152 C   0  0  0  0  0  0  0  0  0  0  0  0
  150.7371  140.6463  155.6323 N   0  0  0  0  0  0  0  0  0  0  0  0
  149.5576  141.4723  155.3958 C   0  0  1  0  0  0  0  0  0  0  0  0
  148.8348  141.0389  154.1061 C   0  0  0  0  0  0  0  0  0  0  0  0
  147.5897  141.9078  153.8711 C   0  0  0  0  0  0  0  0  0  0  0  0
  146.6650  141.8899  155.0998 C   0  0  0  0  0  0  0  0  0  0  0  0
  147.3985  142.3075  156.3146 N   0  3  0  0  0  0  0  0  0  0  0  0
  148.5794  141.4613  156.5933 C   0  0  0  0  0  0  0  0  0  0  0  0
  151.2130  139.8178  154.6701 N   0  0  0  0  0  0  0  0  0  0  0  0
  154.0224  138.0474  155.1153 H   0  0  0  0  0  0  0  0  0  0  0  0
  153.4671  138.6989  153.5674 H   0  0  0  0  0  0  0  0  0  0  0  0
  152.5729  137.3846  154.3477 H   0  0  0  0  0  0  0  0  0  0  0  0
  152.2417  141.3136  158.5767 H   0  0  0  0  0  0  0  0  0  0  0  0
  150.4908  141.0836  158.4516 H   0  0  0  0  0  0  0  0  0  0  0  0
  151.2675  142.4662  157.6550 H   0  0  0  0  0  0  0  0  0  0  0  0
  149.8993  142.4998  155.2648 H   0  0  0  0  0  0  0  0  0  0  0  0
  149.5080  141.1159  153.2512 H   0  0  0  0  0  0  0  0  0  0  0  0
  148.5403  139.9907  154.1767 H   0  0  0  0  0  0  0  0  0  0  0  0
  147.8945  142.9330  153.6559 H   0  0  0  0  0  0  0  0  0  0  0  0
  147.0501  141.5552  152.9917 H   0  0  0  0  0  0  0  0  0  0  0  0
  145.8184  142.5596  154.9464 H   0  0  0  0  0  0  0  0  0  0  0  0
  146.2574  140.8897  155.2526 H   0  0  0  0  0  0  0  0  0  0  0  0
  147.7078  143.2612  156.1923 H   0  0  0  0  0  0  0  0  0  0  0  0
  148.2337  140.4499  156.8117 H   0  0  0  0  0  0  0  0  0  0  0  0
  149.0742  141.8308  157.4920 H   0  0  0  0  0  0  0  0  0  0  0  0
  146.7722  142.2667  157.1063 H   0  0  0  0  0  0  0  0  0  0  0  0
  1  2  1  0  0  0  0
  1 14  1  0  0  0  0
  1 15  1  0  0  0  0
  1 16  1  0  0  0  0
  2 13  2  0  0  0  0
  2  3  1  0  0  0  0
  3  4  2  0  0  0  0
  4  5  1  0  0  0  0
  4  6  1  0  0  0  0
  5 17  1  0  0  0  0
  5 18  1  0  0  0  0
  5 19  1  0  0  0  0
  6  7  1  0  0  0  0
  6 13  1  0  0  0  0
  7 12  1  0  0  0  0
  7  8  1  0  0  0  0
  7 20  1  0  0  0  0
  8  9  1  0  0  0  0
  8 21  1  0  0  0  0
  8 22  1  0  0  0  0
  9 10  1  0  0  0  0
  9 23  1  0  0  0  0
  9 24  1  0  0  0  0
 10 11  1  0  0  0  0
 10 25  1  0  0  0  0
 10 26  1  0  0  0  0
 11 12  1  0  0  0  0
 11 27  1  0  0  0  0
 11 30  1  0  0  0  0
 12 28  1  0  0  0  0
 12 29  1  0  0  0  0
M  CHG  1  11   1
M  END
> <s_m_source_file>
AV-unprocessed.smi

> <i_m_source_file_index>
3086

> <i_lp_mmshare_version>
43012

> <i_f3d_flags>
0

> <s_epik_input>
W0NIM11jMW5jKFtDSDNdKW4objEpW0NAQEhdMltDSDJdW0NIMl1bQ0gyXVtOSF1bQ0gyXTI=

> <s_epik_cmdline>
J2VwaWtfcHl0aG9uJywgJy1waCcsICc3LjAnLCAnLXRuJywgJzgnLCAnLW1hJywgJzIwMCcsICctbWV0YWxfYmluZGluZycsICctaW1hZScsICc8aW5maWxlLm1hZT4nLCAnLW9tYWUnLCAnPG91dGZpbGUubWFlPic=

> <r_lp_tautomer_probability>
1

> <r_epik_Ionization_Penalty>
0.000522417

> <r_epik_Ionization_Penalty_Charging>
0.000474443

> <r_epik_Ionization_Penalty_Neutral>
4.79736e-05

> <r_epik_State_Penalty>
-0

> <r_epik_Charging_Adjusted_Penalty>
0.000474443

> <i_epik_Tot_Q>
1

> <i_epik_Tot_abs_Q>
1

> <r_epik_Metal_State_Penalty>
-0

> <b_epik_Metal_Only>
0

> <s_lp_Force_Field>
OPLS_2005

> <r_lp_Energy>
16.4369

> <b_lp_Chiralities_Consistent>
1

> <s_lp_Variant>
AV-unprocessed.smi:3086-2

> <Gold.Version>
5.8.1

> <Gold.Id.Protein>
6NUR|6NUR_protein|mol2

> <Gold.PLP.Fitness>
38.4016

> <Gold.PLP.PLP>
-28.3610

> <Gold.PLP.part.hbond>
-3.0000

> <Gold.PLP.part.metal>
0.0000

> <Gold.PLP.part.buried>
-1.6920

> <Gold.PLP.part.nonpolar>
-23.4773

> <Gold.PLP.part.repulsive>
0.0869

> <Gold.PLP.ligand.clash>
0.0000

> <Gold.PLP.ligand.torsion>
0.2503

> <Gold.PLP.Chemscore.Hbond>
3.5000

> <Gold.PLP.Chemscore.CHOScore>
0.0000

> <Gold.PLP.Chemscore.Metal>
0.0000

> <Gold.Chemscore.Hbonds>
donor molecule, donor type, donor heavy atom, donor atom, acceptor molecule, acceptor atom, score
      L1  H    11    27       P1  8028  1.40
      P1  H  7989  7998       L1    13  1.00
      P1  H  7997  8008       L1     3  1.00

> <Gold.PLP.Chemscore.Internal.Correction>
0.0412

> <Gold.Rescore>
     Score         DG    S(hbond)    S(metal)    S(lipo)     H(rot)  DE(clash)    DE(int)     intcor
     12.08     -12.52       1.20        0.00      47.82       1.00       0.25       0.19       ----

> <Gold.Chemscore.Fitness>
12.0780

> <Gold.Chemscore.DG>
-12.5193

> <Gold.Chemscore.ZeroCoef>
-5.4800

> <Gold.Chemscore.Hbond>
1.1989

> <Gold.Chemscore.Metal>
0.0000

> <Gold.Chemscore.Lipo>
47.8188

> <Gold.Chemscore.Internal_Hbond>
0.0000

> <Gold.Chemscore.DEClash>
0.2509

> <Gold.Chemscore.DEInternal>
0.1904

> <Gold.Chemscore.Rot>
1.0000

> <Gold.Chemscore.Internal.Correction>
   9.000000E+99

> <Gold.Chemscore.Hbonds>
donor molecule, donor type, donor heavy atom, donor atom, acceptor molecule, acceptor atom, score
      L1  H    11    27       P1  8028  0.07
      P1  H  7989  7998       L1    13  0.26
      P1  H  7997  8008       L1     3  0.45

> <Gold.Chemscore.Hbond.Weighted>
-4.0045

> <Gold.Chemscore.Metal.Weighted>
-0.0000

> <Gold.Chemscore.Lipo.Weighted>
-5.5948

> <Gold.Chemscore.Internal_Hbond.Weighted>
0.0000

> <Gold.Chemscore.DEClash.Weighted>
0.2509

> <Gold.Chemscore.DEInternal.Weighted>
0.1904

> <Gold.Chemscore.Rot.Weighted>
2.5600

> <Gold.Chemscore.Internal.Correction.Weighted>
   9.000000E+99

> <Gold.Protein.RotatedTorsions>
[ 6907 6896 6895 6894 ] final  -15.40 input  -60.11 | X-H torsion
[ 7974 7965 7964 7962 ] final  152.96 input  175.53 | X-H torsion
[ 8008 7997 7996 7995 ] final  -49.12 input   59.86 | X-H torsion
[ 10167 10162 10161 10158 ] final  175.57 input  -65.29 | X-H torsion
[ 10718 10713 10712 10709 ] final   80.40 input   66.30 | X-H torsion
[ 10763 10752 10751 10750 ] final -147.37 input  -60.55 | X-H torsion
[ 11005 11000 10999 10996 ] final -175.30 input  -57.11 | X-H torsion

> <Gold.Protein.ActiveResidues>
 VAL166  LYS551  ARG553  GLY616  TRP617  ASP618  TYR619  PRO620  LYS621  CYS622 
 ASP623  PHE694  ASN695  SER759  ASP760  ASP761  ALA762  ILE779  LEU786  VAL792 
 PHE793  MET794  SER795  GLU796  ALA797  LYS798  CYS799  TRP800  GLU811  SER814 

> <Gold.Protein.RotatedAtoms>
  151.3246  135.0827  159.9317 H   0  0  0  0  0  0  0  0  0  0  0  0  # atno 6907 bound_to 6896
  152.5249  133.9604  159.7725 H   0  0  0  0  0  0  0  0  0  0  0  0  # atno 6908 bound_to 6896
  150.9932  133.6077  159.2735 H   0  0  0  0  0  0  0  0  0  0  0  0  # atno 6909 bound_to 6896
  144.8186  139.6738  143.6110 H   0  0  0  0  0  0  0  0  0  0  0  0  # atno 7974 bound_to 7965
  154.4039  140.1305  156.4450 H   0  0  0  0  0  0  0  0  0  0  0  0  # atno 8008 bound_to 7997
  155.7422  140.3489  155.5089 H   0  0  0  0  0  0  0  0  0  0  0  0  # atno 8009 bound_to 7997
  155.9028  140.1022  157.1327 H   0  0  0  0  0  0  0  0  0  0  0  0  # atno 8010 bound_to 7997
  139.5182  144.3016  152.0373 H   0  0  0  0  0  0  0  0  0  0  0  0  # atno 10167 bound_to 10162
  157.6805  130.9958  150.2074 H   0  0  0  0  0  0  0  0  0  0  0  0  # atno 10718 bound_to 10713
  154.8289  135.3362  154.6807 H   0  0  0  0  0  0  0  0  0  0  0  0  # atno 10763 bound_to 10752
  153.7429  135.6944  153.4967 H   0  0  0  0  0  0  0  0  0  0  0  0  # atno 10764 bound_to 10752
  153.2231  135.4442  155.0462 H   0  0  0  0  0  0  0  0  0  0  0  0  # atno 10765 bound_to 10752
  140.4648  134.6221  157.4858 H   0  0  0  0  0  0  0  0  0  0  0  0  # atno 11005 bound_to 11000
  146.2491  139.6161  142.9439 LP  0  0  0  0  0  0  0  0  0  0  0  0  # atno 17320 bound_to 7965
  145.5156  141.0434  143.2464 LP  0  0  0  0  0  0  0  0  0  0  0  0  # atno 17321 bound_to 7965
  140.2463  144.4216  150.6239 LP  0  0  0  0  0  0  0  0  0  0  0  0  # atno 17342 bound_to 10162
  140.6255  143.2181  151.6604 LP  0  0  0  0  0  0  0  0  0  0  0  0  # atno 17343 bound_to 10162
  156.2752  130.3726  149.7991 LP  0  0  0  0  0  0  0  0  0  0  0  0  # atno 17370 bound_to 10713
  156.5696  130.8419  151.3352 LP  0  0  0  0  0  0  0  0  0  0  0  0  # atno 17371 bound_to 10713
  139.9922  134.6967  155.9670 LP  0  0  0  0  0  0  0  0  0  0  0  0  # atno 17394 bound_to 11000
  141.1604  133.6539  156.4301 LP  0  0  0  0  0  0  0  0  0  0  0  0  # atno 17395 bound_to 11000

$$$$
