AV-unprocessed.smi:16|AV-procd|sdf|87|dock2
  -GOLD-   2262015223D 1   1.00000     0.00000
 Structure written by MMmdl.
 60 64  0  0  0  0  0  0  0  0  2 V2000
  136.7640  138.0805  155.1937 C   0  0  0  0  0  0  0  0  0  0  0  0
  138.1447  138.1363  154.5266 C   0  0  0  0  0  0  0  0  0  0  0  0
  138.3155  139.3420  153.6735 N   0  3  1  0  0  0  0  0  0  0  0  0
  138.2252  140.6394  154.3949 C   0  0  0  0  0  0  0  0  0  0  0  0
  139.5071  140.9514  155.1834 C   0  0  0  0  0  0  0  0  0  0  0  0
  140.7375  140.9300  154.2548 C   0  0  1  0  0  0  0  0  0  0  0  0
  141.9510  141.2242  154.9473 O   0  0  0  0  0  0  0  0  0  0  0  0
  142.3954  140.1947  155.8259 C   0  0  0  0  0  0  0  0  0  0  0  0
  142.5761  138.8860  155.0466 C   0  0  0  0  0  0  0  0  0  0  0  0
  141.3484  138.5291  154.3440 N   0  0  0  0  0  0  0  0  0  0  0  0
  141.4593  137.2866  153.8169 C   0  0  0  0  0  0  0  0  0  0  0  0
  140.4013  136.4334  153.8339 N   0  0  0  0  0  0  0  0  0  0  0  0
  140.5192  135.2130  153.3020 C   0  0  0  0  0  0  0  0  0  0  0  0
  141.5810  134.6584  152.7130 N   0  0  0  0  0  0  0  0  0  0  0  0
  142.6405  135.5177  152.6842 C   0  0  0  0  0  0  0  0  0  0  0  0
  142.6617  136.8400  153.2083 C   0  0  0  0  0  0  0  0  0  0  0  0
  143.9094  137.4150  153.0085 N   0  0  0  0  0  0  0  0  0  0  0  0
  144.5904  136.4835  152.3980 C   0  0  0  0  0  0  0  0  0  0  0  0
  143.9048  135.3127  152.1580 N   0  0  0  0  0  0  0  0  0  0  0  0
  144.4153  134.1336  151.5180 C   0  0  0  0  0  0  0  0  0  0  0  0
  145.0585  134.2106  150.1332 C   0  0  0  0  0  0  0  0  0  0  0  0
  144.5258  132.7948  149.8160 C   0  0  0  0  0  0  0  0  0  0  0  0
  143.9628  132.6109  148.3971 C   0  0  0  0  0  0  0  0  0  0  0  0
  143.6351  133.8547  147.8117 O   0  0  0  0  0  0  0  0  0  0  0  0
  145.5034  131.6427  150.1255 C   0  0  0  0  0  0  0  0  0  0  0  0
  146.6421  131.6921  149.2897 O   0  0  0  0  0  0  0  0  0  0  0  0
  143.4783  133.0842  150.9164 C   0  0  0  0  0  0  0  0  0  0  0  0
  140.8493  139.6003  153.4718 C   0  0  1  0  0  0  0  0  0  0  0  0
  139.4970  139.2843  152.7691 C   0  0  0  0  0  0  0  0  0  0  0  0
  140.6062  141.7331  153.5284 H   0  0  0  0  0  0  0  0  0  0  0  0
  141.6013  139.7442  152.6942 H   0  0  0  0  0  0  0  0  0  0  0  0
  136.6379  137.1397  155.7299 H   0  0  0  0  0  0  0  0  0  0  0  0
  135.9653  138.1478  154.4544 H   0  0  0  0  0  0  0  0  0  0  0  0
  136.6247  138.8842  155.9160 H   0  0  0  0  0  0  0  0  0  0  0  0
  138.9300  138.0746  155.2795 H   0  0  0  0  0  0  0  0  0  0  0  0
  138.2440  137.2454  153.9055 H   0  0  0  0  0  0  0  0  0  0  0  0
  138.0571  141.4260  153.6581 H   0  0  0  0  0  0  0  0  0  0  0  0
  137.3589  140.6591  155.0551 H   0  0  0  0  0  0  0  0  0  0  0  0
  139.4200  141.9314  155.6529 H   0  0  0  0  0  0  0  0  0  0  0  0
  139.6104  140.2345  155.9964 H   0  0  0  0  0  0  0  0  0  0  0  0
  143.3462  140.4986  156.2638 H   0  0  0  0  0  0  0  0  0  0  0  0
  141.7044  140.0619  156.6578 H   0  0  0  0  0  0  0  0  0  0  0  0
  143.3861  138.9953  154.3235 H   0  0  0  0  0  0  0  0  0  0  0  0
  142.8672  138.0906  155.7343 H   0  0  0  0  0  0  0  0  0  0  0  0
  139.6367  134.5924  153.3552 H   0  0  0  0  0  0  0  0  0  0  0  0
  145.6206  136.6271  152.1060 H   0  0  0  0  0  0  0  0  0  0  0  0
  145.0977  133.6593  152.2251 H   0  0  0  0  0  0  0  0  0  0  0  0
  144.6117  134.9830  149.5044 H   0  0  0  0  0  0  0  0  0  0  0  0
  146.1453  134.2988  150.1448 H   0  0  0  0  0  0  0  0  0  0  0  0
  144.6654  132.0865  147.7493 H   0  0  0  0  0  0  0  0  0  0  0  0
  143.0562  132.0055  148.4165 H   0  0  0  0  0  0  0  0  0  0  0  0
  144.4314  134.3497  147.6938 H   0  0  0  0  0  0  0  0  0  0  0  0
  145.8308  131.6649  151.1652 H   0  0  0  0  0  0  0  0  0  0  0  0
  145.0275  130.6728  149.9809 H   0  0  0  0  0  0  0  0  0  0  0  0
  147.3869  131.3767  149.7785 H   0  0  0  0  0  0  0  0  0  0  0  0
  143.2610  132.2461  151.5794 H   0  0  0  0  0  0  0  0  0  0  0  0
  142.5557  133.5125  150.5217 H   0  0  0  0  0  0  0  0  0  0  0  0
  139.5169  138.3347  152.2347 H   0  0  0  0  0  0  0  0  0  0  0  0
  139.3370  140.0364  151.9955 H   0  0  0  0  0  0  0  0  0  0  0  0
  137.5181  139.3202  153.0539 H   0  0  0  0  0  0  0  0  0  0  0  0
  1  2  1  0  0  0  0
  1 32  1  0  0  0  0
  1 33  1  0  0  0  0
  1 34  1  0  0  0  0
  2  3  1  0  0  0  0
  2 35  1  0  0  0  0
  2 36  1  0  0  0  0
  3 29  1  0  0  0  0
  3  4  1  0  0  0  0
  3 60  1  0  0  0  0
  4  5  1  0  0  0  0
  4 37  1  0  0  0  0
  4 38  1  0  0  0  0
  5  6  1  0  0  0  0
  5 39  1  0  0  0  0
  5 40  1  0  0  0  0
  6 30  1  0  0  0  0
  6 28  1  0  0  0  0
  6  7  1  0  0  0  0
  7  8  1  0  0  0  0
  8  9  1  0  0  0  0
  8 41  1  0  0  0  0
  8 42  1  0  0  0  0
  9 10  1  0  0  0  0
  9 43  1  0  0  0  0
  9 44  1  0  0  0  0
 10 11  1  0  0  0  0
 10 28  1  0  0  0  0
 11 16  1  0  0  0  0
 11 12  2  0  0  0  0
 12 13  1  0  0  0  0
 13 14  2  0  0  0  0
 13 45  1  0  0  0  0
 14 15  1  0  0  0  0
 15 19  1  0  0  0  0
 15 16  2  0  0  0  0
 16 17  1  0  0  0  0
 17 18  2  0  0  0  0
 18 19  1  0  0  0  0
 18 46  1  0  0  0  0
 19 20  1  0  0  0  0
 20 27  1  0  0  0  0
 20 21  1  0  0  0  0
 20 47  1  0  0  0  0
 21 22  1  0  0  0  0
 21 48  1  0  0  0  0
 21 49  1  0  0  0  0
 22 23  1  0  0  0  0
 22 25  1  0  0  0  0
 22 27  1  0  0  0  0
 23 24  1  0  0  0  0
 23 50  1  0  0  0  0
 23 51  1  0  0  0  0
 24 52  1  0  0  0  0
 25 26  1  0  0  0  0
 25 53  1  0  0  0  0
 25 54  1  0  0  0  0
 26 55  1  0  0  0  0
 27 56  1  0  0  0  0
 27 57  1  0  0  0  0
 28 31  1  0  0  0  0
 28 29  1  0  0  0  0
 29 58  1  0  0  0  0
 29 59  1  0  0  0  0
M  CHG  1   3   1
M  END
> <s_m_source_file>
AV-unprocessed.smi

> <i_m_source_file_index>
16

> <i_lp_mmshare_version>
43012

> <i_f3d_flags>
0

> <s_epik_input>
W0NIM11bQ0gyXU4oW0NIMl1bQ0gyXTEpW0NIMl1bQ0BASF0oW0NAQEhdMTIpTihbQ0gyXVtDSDJdTzIpYyhuW2NIXW4zKWMoYzM0KW5bY0hdbjRbQ0hdKFtDSDJdNSlbQ0gyXUM1KFtDSDJdW09IXSlbQ0gyXVtPSF0=

> <s_epik_cmdline>
J2VwaWtfcHl0aG9uJywgJy1waCcsICc3LjAnLCAnLXRuJywgJzgnLCAnLW1hJywgJzIwMCcsICctbWV0YWxfYmluZGluZycsICctaW1hZScsICc8aW5maWxlLm1hZT4nLCAnLW9tYWUnLCAnPG91dGZpbGUubWFlPic=

> <r_lp_tautomer_probability>
1

> <r_epik_Ionization_Penalty>
0.0135603

> <r_epik_Ionization_Penalty_Charging>
0.0131385

> <r_epik_Ionization_Penalty_Neutral>
0.000421734

> <r_epik_State_Penalty>
0.0102091

> <r_epik_Charging_Adjusted_Penalty>
0.0233476

> <i_epik_Tot_Q>
1

> <i_epik_Tot_abs_Q>
1

> <r_epik_Metal_State_Penalty>
0.0103746

> <b_epik_Metal_Only>
0

> <s_lp_Force_Field>
OPLS_2005

> <r_lp_Energy>
65.3073

> <b_lp_Chiralities_Consistent>
1

> <s_lp_Variant>
AV-unprocessed.smi:16-1

> <Gold.Version>
5.8.1

> <Gold.Id.Protein>
6NUR|6NUR_protein|mol2

> <Gold.PLP.Fitness>
47.8295

> <Gold.PLP.PLP>
-41.5819

> <Gold.PLP.part.hbond>
-5.8847

> <Gold.PLP.part.metal>
0.0000

> <Gold.PLP.part.buried>
2.6742

> <Gold.PLP.part.nonpolar>
-36.9057

> <Gold.PLP.part.repulsive>
0.7887

> <Gold.PLP.ligand.clash>
0.1326

> <Gold.PLP.ligand.torsion>
1.6479

> <Gold.PLP.Chemscore.Hbond>
3.0000

> <Gold.PLP.Chemscore.CHOScore>
0.0000

> <Gold.PLP.Chemscore.Metal>
0.0000

> <Gold.Chemscore.Hbonds>
donor molecule, donor type, donor heavy atom, donor atom, acceptor molecule, acceptor atom, score
      L1  H    24    52       P1  7921  1.00
      L1  H    26    55       P1 10747  1.00
      P1  H 10192 10197       L1    24  0.63
      L1  C    13    45       P1 10187  0.08

> <Gold.PLP.Chemscore.Internal.Correction>
0.6760

> <Gold.Rescore>
     Score         DG    S(hbond)    S(metal)    S(lipo)     H(rot)  DE(clash)    DE(int)     intcor
      9.85     -16.28       2.78        0.00      85.62       3.33       1.25       5.18       ----

> <Gold.Chemscore.Fitness>
9.8519

> <Gold.Chemscore.DG>
-16.2816

> <Gold.Chemscore.ZeroCoef>
-5.4800

> <Gold.Chemscore.Hbond>
2.7832

> <Gold.Chemscore.Metal>
0.0000

> <Gold.Chemscore.Lipo>
85.6214

> <Gold.Chemscore.Internal_Hbond>
0.0000

> <Gold.Chemscore.DEClash>
1.2533

> <Gold.Chemscore.DEInternal>
5.1763

> <Gold.Chemscore.Rot>
3.3251

> <Gold.Chemscore.Internal.Correction>
   9.000000E+99

> <Gold.Chemscore.Hbonds>
donor molecule, donor type, donor heavy atom, donor atom, acceptor molecule, acceptor atom, score
      L1  H    24    52       P1  7921  1.00
      L1  H    26    55       P1 10747  1.00
      P1  H 10192 10197       L1    24  0.35

> <Gold.Chemscore.Hbond.Weighted>
-9.2960

> <Gold.Chemscore.Metal.Weighted>
-0.0000

> <Gold.Chemscore.Lipo.Weighted>
-10.0177

> <Gold.Chemscore.Internal_Hbond.Weighted>
0.0000

> <Gold.Chemscore.DEClash.Weighted>
1.2533

> <Gold.Chemscore.DEInternal.Weighted>
5.1763

> <Gold.Chemscore.Rot.Weighted>
8.5122

> <Gold.Chemscore.Internal.Correction.Weighted>
   9.000000E+99

> <Gold.Protein.RotatedTorsions>
[ 6907 6896 6895 6894 ] final   55.30 input  -60.11 | X-H torsion
[ 7974 7965 7964 7962 ] final -149.99 input  175.53 | X-H torsion
[ 8008 7997 7996 7995 ] final -115.03 input   59.86 | X-H torsion
[ 10167 10162 10161 10158 ] final   87.08 input  -65.29 | X-H torsion
[ 10718 10713 10712 10709 ] final   17.80 input   66.30 | X-H torsion
[ 10763 10752 10751 10750 ] final   56.55 input  -60.55 | X-H torsion
[ 11005 11000 10999 10996 ] final   60.28 input  -57.11 | X-H torsion

> <Gold.Protein.ActiveResidues>
 VAL166  LYS551  ARG553  GLY616  TRP617  ASP618  TYR619  PRO620  LYS621  CYS622 
 ASP623  PHE694  ASN695  SER759  ASP760  ASP761  ALA762  ILE779  LEU786  VAL792 
 PHE793  MET794  SER795  GLU796  ALA797  LYS798  CYS799  TRP800  GLU811  SER814 

> <Gold.Protein.RotatedAtoms>
  152.3525  134.6986  160.0231 H   0  0  0  0  0  0  0  0  0  0  0  0  # atno 6907 bound_to 6896
  151.7335  133.3313  159.3355 H   0  0  0  0  0  0  0  0  0  0  0  0  # atno 6908 bound_to 6896
  150.7549  134.6275  159.6213 H   0  0  0  0  0  0  0  0  0  0  0  0  # atno 6909 bound_to 6896
  144.7934  140.4992  143.5757 H   0  0  0  0  0  0  0  0  0  0  0  0  # atno 7974 bound_to 7965
  155.0456  140.0392  157.2525 H   0  0  0  0  0  0  0  0  0  0  0  0  # atno 8008 bound_to 7997
  154.7180  140.2706  155.6543 H   0  0  0  0  0  0  0  0  0  0  0  0  # atno 8009 bound_to 7997
  156.2808  140.2708  156.1843 H   0  0  0  0  0  0  0  0  0  0  0  0  # atno 8010 bound_to 7997
  139.8810  144.6440  150.8843 H   0  0  0  0  0  0  0  0  0  0  0  0  # atno 10167 bound_to 10162
  157.0872  130.6412  149.5840 H   0  0  0  0  0  0  0  0  0  0  0  0  # atno 10718 bound_to 10713
  152.9834  135.5672  154.5247 H   0  0  0  0  0  0  0  0  0  0  0  0  # atno 10763 bound_to 10752
  154.4729  135.2785  155.1631 H   0  0  0  0  0  0  0  0  0  0  0  0  # atno 10764 bound_to 10752
  154.3171  135.6276  153.5544 H   0  0  0  0  0  0  0  0  0  0  0  0  # atno 10765 bound_to 10752
  140.0243  134.6106  155.9595 H   0  0  0  0  0  0  0  0  0  0  0  0  # atno 11005 bound_to 11000
  145.5735  139.1485  143.3275 LP  0  0  0  0  0  0  0  0  0  0  0  0  # atno 17320 bound_to 7965
  146.2194  140.5867  142.9024 LP  0  0  0  0  0  0  0  0  0  0  0  0  # atno 17321 bound_to 7965
  140.7744  143.3586  151.1873 LP  0  0  0  0  0  0  0  0  0  0  0  0  # atno 17342 bound_to 10162
  139.7196  143.9245  152.2980 LP  0  0  0  0  0  0  0  0  0  0  0  0  # atno 17343 bound_to 10162
  155.9907  130.4960  150.7270 LP  0  0  0  0  0  0  0  0  0  0  0  0  # atno 17370 bound_to 10713
  157.4751  131.0897  151.0599 LP  0  0  0  0  0  0  0  0  0  0  0  0  # atno 17371 bound_to 10713
  141.1793  133.6544  156.4955 LP  0  0  0  0  0  0  0  0  0  0  0  0  # atno 17394 bound_to 11000
  140.4333  134.7082  157.4953 LP  0  0  0  0  0  0  0  0  0  0  0  0  # atno 17395 bound_to 11000

$$$$
