AV-unprocessed.smi:102|AV-procd|sdf|954|dock8
  -GOLD-   2262017483D 1   1.00000     0.00000
 Structure written by MMmdl.
 44 45  0  0  0  0  0  0  0  0  1 V2000
  145.9817  132.6469  151.7182 C   0  0  0  0  0  0  0  0  0  0  0  0
  146.5900  132.8217  153.1033 C   0  0  0  0  0  0  0  0  0  0  0  0
  146.6185  131.8963  153.9147 O   0  0  0  0  0  0  0  0  0  0  0  0
  147.0621  134.0622  153.3029 O   0  0  0  0  0  0  0  0  0  0  0  0
  147.6094  134.4104  154.5638 C   0  0  0  0  0  0  0  0  0  0  0  0
  148.8194  133.5130  154.8652 C   0  0  1  0  0  0  0  0  0  0  0  0
  150.0252  134.2267  154.5996 O   0  0  0  0  0  0  0  0  0  0  0  0
  150.5837  134.7518  155.7693 C   0  0  1  0  0  0  0  0  0  0  0  0
  150.6711  136.2634  155.6700 N   0  0  0  0  0  0  0  0  0  0  0  0
  149.7155  137.0289  155.0118 C   0  0  0  0  0  0  0  0  0  0  0  0
  149.7836  138.3786  154.9274 C   0  0  0  0  0  0  0  0  0  0  0  0
  148.8206  139.0514  154.2746 F   0  0  0  0  0  0  0  0  0  0  0  0
  150.8944  139.1086  155.5317 C   0  0  0  0  0  0  0  0  0  0  0  0
  151.0398  140.3291  155.5125 O   0  0  0  0  0  0  0  0  0  0  0  0
  151.8395  138.2983  156.1673 N   0  0  0  0  0  0  0  0  0  0  0  0
  151.7817  136.9068  156.2599 C   0  0  0  0  0  0  0  0  0  0  0  0
  152.6703  136.2890  156.8451 O   0  0  0  0  0  0  0  0  0  0  0  0
  149.7244  134.2694  156.9583 C   0  0  1  0  0  0  0  0  0  0  0  0
  148.8668  135.2956  157.4527 O   0  0  0  0  0  0  0  0  0  0  0  0
  149.3290  136.2110  158.3185 C   0  0  0  0  0  0  0  0  0  0  0  0
  148.2327  137.1482  158.8063 C   0  0  0  0  0  0  0  0  0  0  0  0
  150.4913  136.3190  158.7084 O   0  0  0  0  0  0  0  0  0  0  0  0
  148.8998  133.1474  156.3502 C   0  0  2  0  0  0  0  0  0  0  0  0
  149.5694  131.9088  156.5541 O   0  0  0  0  0  0  0  0  0  0  0  0
  149.7016  131.4024  157.7931 C   0  0  0  0  0  0  0  0  0  0  0  0
  150.1203  129.9383  157.7799 C   0  0  0  0  0  0  0  0  0  0  0  0
  149.5113  132.0078  158.8482 O   0  0  0  0  0  0  0  0  0  0  0  0
  152.6296  138.7590  156.5950 H   0  0  0  0  0  0  0  0  0  0  0  0
  145.2730  133.4490  151.5098 H   0  0  0  0  0  0  0  0  0  0  0  0
  145.4551  131.6946  151.6492 H   0  0  0  0  0  0  0  0  0  0  0  0
  146.7623  132.6667  150.9578 H   0  0  0  0  0  0  0  0  0  0  0  0
  147.8991  135.4613  154.5910 H   0  0  0  0  0  0  0  0  0  0  0  0
  146.8406  134.2686  155.3243 H   0  0  0  0  0  0  0  0  0  0  0  0
  148.7654  132.6200  154.2411 H   0  0  0  0  0  0  0  0  0  0  0  0
  151.6175  134.4054  155.8258 H   0  0  0  0  0  0  0  0  0  0  0  0
  148.8740  136.5540  154.5334 H   0  0  0  0  0  0  0  0  0  0  0  0
  150.3869  133.9143  157.7495 H   0  0  0  0  0  0  0  0  0  0  0  0
  147.6871  137.5668  157.9602 H   0  0  0  0  0  0  0  0  0  0  0  0
  148.6584  137.9694  159.3833 H   0  0  0  0  0  0  0  0  0  0  0  0
  147.5289  136.6082  159.4397 H   0  0  0  0  0  0  0  0  0  0  0  0
  147.9106  133.1012  156.8089 H   0  0  0  0  0  0  0  0  0  0  0  0
  151.0054  129.8017  157.1581 H   0  0  0  0  0  0  0  0  0  0  0  0
  149.3165  129.3197  157.3808 H   0  0  0  0  0  0  0  0  0  0  0  0
  150.3512  129.5964  158.7891 H   0  0  0  0  0  0  0  0  0  0  0  0
  1  2  1  0  0  0  0
  1 29  1  0  0  0  0
  1 30  1  0  0  0  0
  1 31  1  0  0  0  0
  2  3  2  0  0  0  0
  2  4  1  0  0  0  0
  4  5  1  0  0  0  0
  5  6  1  0  0  0  0
  5 32  1  0  0  0  0
  5 33  1  0  0  0  0
  6 23  1  0  0  0  0
  6  7  1  0  0  0  0
  6 34  1  0  0  0  0
  7  8  1  0  0  0  0
  8  9  1  0  0  0  0
  8 18  1  0  0  0  0
  8 35  1  0  0  0  0
  9 16  1  0  0  0  0
  9 10  1  0  0  0  0
 10 11  2  0  0  0  0
 10 36  1  0  0  0  0
 11 12  1  0  0  0  0
 11 13  1  0  0  0  0
 13 14  2  0  0  0  0
 13 15  1  0  0  0  0
 15 28  1  0  0  0  0
 15 16  1  0  0  0  0
 16 17  2  0  0  0  0
 18 19  1  0  0  0  0
 18 23  1  0  0  0  0
 18 37  1  0  0  0  0
 19 20  1  0  0  0  0
 20 21  1  0  0  0  0
 20 22  2  0  0  0  0
 21 38  1  0  0  0  0
 21 39  1  0  0  0  0
 21 40  1  0  0  0  0
 23 24  1  0  0  0  0
 23 41  1  0  0  0  0
 24 25  1  0  0  0  0
 25 26  1  0  0  0  0
 25 27  2  0  0  0  0
 26 42  1  0  0  0  0
 26 43  1  0  0  0  0
 26 44  1  0  0  0  0
M  END
> <s_m_source_file>
AV-unprocessed.smi

> <i_m_source_file_index>
102

> <i_lp_mmshare_version>
43012

> <i_f3d_flags>
0

> <s_epik_input>
W0NIM11DKD1PKU9bQ0gyXVtDQEBIXTFPW0NASF0oW0NAQEhdKE9DKD1PKVtDSDNdKVtDQEhdMU9DKD1PKVtDSDNdKW4yW2NIXWMoRiljKD1PKVtuSF1jMj1P

> <s_epik_cmdline>
J2VwaWtfcHl0aG9uJywgJy1waCcsICc3LjAnLCAnLXRuJywgJzgnLCAnLW1hJywgJzIwMCcsICctbWV0YWxfYmluZGluZycsICctaW1hZScsICc8aW5maWxlLm1hZT4nLCAnLW9tYWUnLCAnPG91dGZpbGUubWFlPic=

> <r_lp_tautomer_probability>
0.999537

> <r_epik_Ionization_Penalty>
0.058267

> <r_epik_Ionization_Penalty_Charging>
0.058267

> <r_epik_Ionization_Penalty_Neutral>
6.57791e-16

> <r_epik_State_Penalty>
0.0503774

> <r_epik_Charging_Adjusted_Penalty>
0.108644

> <i_epik_Tot_Q>
0

> <i_epik_Tot_abs_Q>
0

> <r_epik_Metal_State_Penalty>
2.6644

> <b_epik_Metal_Only>
0

> <s_epik_Chemistry_Notes>
This compound has an ester and may undergo hydrolysis at high or low pH. This compound contains an acetal/aminal-like group ( X-CH(R)-Y where X, Y are N, S, or O) that may be acid/base labile, releasing an aldehyde.

> <s_lp_Force_Field>
OPLS_2005

> <r_lp_Energy>
14.5716

> <b_lp_Chiralities_Consistent>
1

> <s_lp_Variant>
AV-unprocessed.smi:102-10

> <Gold.Version>
5.8.1

> <Gold.Id.Protein>
6NUR|6NUR_protein|mol2

> <Gold.PLP.Fitness>
36.0494

> <Gold.PLP.PLP>
-25.5588

> <Gold.PLP.part.hbond>
-4.0000

> <Gold.PLP.part.metal>
0.0000

> <Gold.PLP.part.buried>
-2.4224

> <Gold.PLP.part.nonpolar>
-20.0866

> <Gold.PLP.part.repulsive>
1.3514

> <Gold.PLP.ligand.clash>
0.0000

> <Gold.PLP.ligand.torsion>
1.6485

> <Gold.PLP.Chemscore.Hbond>
3.7920

> <Gold.PLP.Chemscore.CHOScore>
0.7720

> <Gold.PLP.Chemscore.Metal>
0.0000

> <Gold.Chemscore.Hbonds>
donor molecule, donor type, donor heavy atom, donor atom, acceptor molecule, acceptor atom, score
      P1  H  6896  6907       L1    22  0.88
      P1  H  6896  6909       L1    27  0.63
      P1  H  7989  7998       L1    14  0.67
      P1  H 10752 10765       L1    17  0.90
      L1  C    10    36       P1  7948  0.47

> <Gold.PLP.Chemscore.Internal.Correction>
0.0956

> <Gold.Rescore>
     Score         DG    S(hbond)    S(metal)    S(lipo)     H(rot)  DE(clash)    DE(int)     intcor
      4.68     -10.59       3.26        0.00      39.36       4.05       1.79       4.12       ----

> <Gold.Chemscore.Fitness>
4.6793

> <Gold.Chemscore.DG>
-10.5850

> <Gold.Chemscore.ZeroCoef>
-5.4800

> <Gold.Chemscore.Hbond>
3.2553

> <Gold.Chemscore.Metal>
0.0000

> <Gold.Chemscore.Lipo>
39.3639

> <Gold.Chemscore.Internal_Hbond>
0.0000

> <Gold.Chemscore.DEClash>
1.7855

> <Gold.Chemscore.DEInternal>
4.1202

> <Gold.Chemscore.Rot>
4.0520

> <Gold.Chemscore.Internal.Correction>
   9.000000E+99

> <Gold.Chemscore.Hbonds>
donor molecule, donor type, donor heavy atom, donor atom, acceptor molecule, acceptor atom, score
      P1  H  6896  6907       L1    22  0.85
      P1  H  6896  6909       L1    27  0.51
      P1  H  7989  7998       L1    14  0.41
      P1  H 10752 10765       L1    17  0.18

> <Gold.Chemscore.Hbond.Weighted>
-10.8726

> <Gold.Chemscore.Metal.Weighted>
-0.0000

> <Gold.Chemscore.Lipo.Weighted>
-4.6056

> <Gold.Chemscore.Internal_Hbond.Weighted>
0.0000

> <Gold.Chemscore.DEClash.Weighted>
1.7855

> <Gold.Chemscore.DEInternal.Weighted>
4.1202

> <Gold.Chemscore.Rot.Weighted>
10.3732

> <Gold.Chemscore.Internal.Correction.Weighted>
   9.000000E+99

> <Gold.Protein.RotatedTorsions>
[ 6907 6896 6895 6894 ] final  -22.52 input  -60.11 | X-H torsion
[ 7974 7965 7964 7962 ] final  100.30 input  175.53 | X-H torsion
[ 8008 7997 7996 7995 ] final -103.63 input   59.86 | X-H torsion
[ 10167 10162 10161 10158 ] final  -11.57 input  -65.29 | X-H torsion
[ 10718 10713 10712 10709 ] final   -4.68 input   66.30 | X-H torsion
[ 10763 10752 10751 10750 ] final -126.26 input  -60.55 | X-H torsion
[ 11005 11000 10999 10996 ] final   36.18 input  -57.11 | X-H torsion

> <Gold.Protein.ActiveResidues>
 VAL166  LYS551  ARG553  GLY616  TRP617  ASP618  TYR619  PRO620  LYS621  CYS622 
 ASP623  PHE694  ASN695  SER759  ASP760  ASP761  ALA762  ILE779  LEU786  VAL792 
 PHE793  MET794  SER795  GLU796  ALA797  LYS798  CYS799  TRP800  GLU811  SER814 

> <Gold.Protein.RotatedAtoms>
  151.2174  135.0505  159.8935 H   0  0  0  0  0  0  0  0  0  0  0  0  # atno 6907 bound_to 6896
  152.5419  134.0678  159.8191 H   0  0  0  0  0  0  0  0  0  0  0  0  # atno 6908 bound_to 6896
  151.0840  133.5320  159.2650 H   0  0  0  0  0  0  0  0  0  0  0  0  # atno 6909 bound_to 6896
  145.3875  139.2369  143.3370 H   0  0  0  0  0  0  0  0  0  0  0  0  # atno 7974 bound_to 7965
  154.8736  140.0422  157.1740 H   0  0  0  0  0  0  0  0  0  0  0  0  # atno 8008 bound_to 7997
  154.8712  140.2958  155.5459 H   0  0  0  0  0  0  0  0  0  0  0  0  # atno 8009 bound_to 7997
  156.2999  140.2428  156.3702 H   0  0  0  0  0  0  0  0  0  0  0  0  # atno 8010 bound_to 7997
  140.7141  143.5625  150.9180 H   0  0  0  0  0  0  0  0  0  0  0  0  # atno 10167 bound_to 10162
  156.7577  130.5259  149.5791 H   0  0  0  0  0  0  0  0  0  0  0  0  # atno 10718 bound_to 10713
  154.8744  135.4001  154.3401 H   0  0  0  0  0  0  0  0  0  0  0  0  # atno 10763 bound_to 10752
  153.4202  135.7023  153.6304 H   0  0  0  0  0  0  0  0  0  0  0  0  # atno 10764 bound_to 10752
  153.4970  135.3736  155.2491 H   0  0  0  0  0  0  0  0  0  0  0  0  # atno 10765 bound_to 10752
  140.2352  134.3480  155.7947 H   0  0  0  0  0  0  0  0  0  0  0  0  # atno 11005 bound_to 11000
  146.2813  140.4552  142.8775 LP  0  0  0  0  0  0  0  0  0  0  0  0  # atno 17320 bound_to 7965
  144.8464  140.6935  143.6196 LP  0  0  0  0  0  0  0  0  0  0  0  0  # atno 17321 bound_to 7965
  139.9350  143.6448  152.3067 LP  0  0  0  0  0  0  0  0  0  0  0  0  # atno 17342 bound_to 10162
  139.6913  144.7646  151.1434 LP  0  0  0  0  0  0  0  0  0  0  0  0  # atno 17343 bound_to 10162
  156.1359  130.6211  151.0400 LP  0  0  0  0  0  0  0  0  0  0  0  0  # atno 17370 bound_to 10713
  157.6749  131.0853  150.7521 LP  0  0  0  0  0  0  0  0  0  0  0  0  # atno 17371 bound_to 10713
  141.2215  133.7267  156.8796 LP  0  0  0  0  0  0  0  0  0  0  0  0  # atno 17394 bound_to 11000
  140.1710  134.9100  157.2833 LP  0  0  0  0  0  0  0  0  0  0  0  0  # atno 17395 bound_to 11000

$$$$
