#       Name:                AV-unprocessed.smi:3337
#       Creating user name   scv26
#       Creation time:       Fri Mar 27 19:26:19 2020


#       File generated by GOLD software.
#

@<TRIPOS>MOLECULE
AV-unprocessed.smi:3337
    50    51     1
SMALL
NO_CHARGES


@<TRIPOS>ATOM
      1 ****        -0.5598   3.8624   1.7083 C.3            1 S1                 0.0000
      2 ****        -1.2505   2.6404   2.3390 C.3            1 S1                 0.0000
      3 ****        -2.7867   2.7124   2.2614 C.3            1 S1                 0.0000
      4 ****        -3.2980   2.4427   0.8349 C.3            1 S1                 0.0000
      5 ****        -4.8322   2.4482   0.7812 C.3            1 S1                 0.0000
      6 ****        -2.7216   1.1165   0.3022 C.3            1 S1                 0.0000
      7 ****        -1.2367   1.1071   0.3565 N.4            1 S1                 1.0000
      8 ****        -0.6615  -0.0955  -0.2963 C.3            1 S1                 0.0000
      9 ****         0.7974   0.1167  -0.7469 C.3            1 S1                 0.0000
     10 ****         1.3253  -1.0638  -1.4209 N.am           1 S1                 0.0000
     11 ****         1.7143  -2.1900  -0.8020 C.2            1 S1                 0.0000
     12 ****         1.6555  -2.3361   0.4195 O.2            1 S1                 0.0000
     13 ****         2.2484  -3.3167  -1.6994 C.3            1 S1                 0.0000
     14 ****         1.8365  -4.7132  -1.1909 C.3            1 S1                 0.0000
     15 ****         3.6916  -3.1897  -1.8604 N.pl3          1 S1                 0.0000
     16 ****         4.3979  -2.6145  -2.8362 C.2            1 S1                 0.0000
     17 ****         5.7086  -2.6400  -2.6404 N.2            1 S1                 0.0000
     18 ****         5.7464  -3.2810  -1.4347 C.2            1 S1                 0.0000
     19 ****         4.5661  -3.6209  -0.9172 N.2            1 S1                 0.0000
     20 ****        -0.7421   1.3122   1.7447 C.3            1 S1                 0.0000
     21 ****        -0.7453   3.9303   0.6364 H              1 S1                 0.0000
     22 ****         0.5201   3.8162   1.8510 H              1 S1                 0.0000
     23 ****        -0.9097   4.7886   2.1649 H              1 S1                 0.0000
     24 ****        -0.9802   2.6487   3.3957 H              1 S1                 0.0000
     25 ****        -3.2109   1.9714   2.9405 H              1 S1                 0.0000
     26 ****        -3.1368   3.6831   2.6146 H              1 S1                 0.0000
     27 ****        -2.9507   3.2477   0.1863 H              1 S1                 0.0000
     28 ****        -5.2548   1.6540   1.3976 H              1 S1                 0.0000
     29 ****        -5.1906   2.3044  -0.2384 H              1 S1                 0.0000
     30 ****        -5.2334   3.3966   1.1396 H              1 S1                 0.0000
     31 ****        -3.1102   0.2732   0.8756 H              1 S1                 0.0000
     32 ****        -3.0489   0.9758  -0.7287 H              1 S1                 0.0000
     33 ****        -0.7485  -0.9489   0.3780 H              1 S1                 0.0000
     34 ****        -1.2508  -0.3431  -1.1805 H              1 S1                 0.0000
     35 ****         0.8537   0.9569  -1.4396 H              1 S1                 0.0000
     36 ****         1.4472   0.3642   0.0928 H              1 S1                 0.0000
     37 ****         1.4068  -1.0207  -2.4266 H              1 S1                 0.0000
     38 ****         1.8057  -3.1921  -2.6894 H              1 S1                 0.0000
     39 ****         0.7515  -4.8039  -1.1296 H              1 S1                 0.0000
     40 ****         2.2410  -4.9273  -0.2008 H              1 S1                 0.0000
     41 ****         2.1907  -5.4920  -1.8668 H              1 S1                 0.0000
     42 ****         3.9440  -2.1650  -3.7074 H              1 S1                 0.0000
     43 ****         6.6709  -3.4975  -0.9201 H              1 S1                 0.0000
     44 ****         0.3467   1.3012   1.7741 H              1 S1                 0.0000
     45 ****        -1.0746   0.4793   2.3665 H              1 S1                 0.0000
     46 ****        -0.9305   1.9018  -0.1865 H              1 S1                 0.0000
     47 ****         1.3061  -1.5969   0.9952 LP             1 S1                 0.0000
     48 ****         1.9571  -3.1940   0.8355 LP             1 S1                 0.0000
     49 ****         6.4531  -2.2914  -3.2097 LP             1 S1                 0.0000
     50 ****         4.3732  -4.0795  -0.0498 LP             1 S1                 0.0000
@<TRIPOS>BOND
    1    1    2 1     
    2    1   21 1     
    3    1   22 1     
    4    1   23 1     
    5    2   20 1     
    6    2    3 1     
    7    2   24 1     
    8    3    4 1     
    9    3   25 1     
   10    3   26 1     
   11    4    5 1     
   12    4    6 1     
   13    4   27 1     
   14    5   28 1     
   15    5   29 1     
   16    5   30 1     
   17    6    7 1     
   18    6   31 1     
   19    6   32 1     
   20    7    8 1     
   21    7   20 1     
   22    7   46 1     
   23    8    9 1     
   24    8   33 1     
   25    8   34 1     
   26    9   10 1     
   27    9   35 1     
   28    9   36 1     
   29   10   11 am    
   30   10   37 1     
   31   11   12 2     
   32   11   13 1     
   33   13   14 1     
   34   13   15 1     
   35   13   38 1     
   36   14   39 1     
   37   14   40 1     
   38   14   41 1     
   39   15   19 1     
   40   15   16 1     
   41   16   17 2     
   42   16   42 1     
   43   17   18 1     
   44   18   19 2     
   45   18   43 1     
   46   20   44 1     
   47   20   45 1     
   48   12   47 1     
   49   12   48 1     
   50   17   49 1     
   51   19   50 1     
@<TRIPOS>SUBSTRUCTURE
      1 S1             1
@<TRIPOS>SET
LONE_PAIRS      STATIC     ATOMS    <user>   **** ""
4 47 48 49 50
DONOR_HYDROGENS      STATIC     ATOMS    <user>   **** ""
2 46 37
ATOM$BLUE        STATIC     ATOMS    COLORGROUP SYSTEM
4 47 48 49 50
ATOM$RED        STATIC     ATOMS    COLORGROUP SYSTEM
2 46 37
