AV-unprocessed.smi:1897|AV-procd|sdf|7691|dock1
  -GOLD-   22720 9433D 1   1.00000     0.00000
 Structure written by MMmdl.
 39 41  0  0  0  0  0  0  0  0  2 V2000
  146.6238  142.0074  154.8587 C   0  0  0  0  0  0  0  0  0  0  0  0
  146.4224  140.5709  154.5152 C   0  0  0  0  0  0  0  0  0  0  0  0
  145.4706  139.8195  155.0812 N   0  0  0  0  0  0  0  0  0  0  0  0
  145.4772  138.5167  154.6046 N   0  0  0  0  0  0  0  0  0  0  0  0
  146.4432  138.3169  153.6960 C   0  0  0  0  0  0  0  0  0  0  0  0
  146.6828  137.0810  153.0262 N   0  0  0  0  0  0  0  0  0  0  0  0
  145.8964  136.0020  152.8249 C   0  0  0  0  0  0  0  0  0  0  0  0
  144.7427  135.9707  153.2494 O   0  0  0  0  0  0  0  0  0  0  0  0
  146.4434  134.9848  152.1391 N   0  0  0  0  0  0  0  0  0  0  0  0
  145.7836  133.7248  151.8142 C   0  0  1  0  0  0  0  0  0  0  0  0
  145.4102  133.6102  150.3411 C   0  0  0  0  0  0  0  0  0  0  0  0
  145.2302  132.1009  150.1710 C   0  0  0  0  0  0  0  0  0  0  0  0
  146.2117  131.4687  151.0822 N   0  3  2  0  0  0  0  0  0  0  0  0
  145.7533  130.1996  151.6986 C   0  0  0  0  0  0  0  0  0  0  0  0
  146.8447  129.6134  152.6135 C   0  0  0  0  0  0  0  0  0  0  0  0
  147.4106  130.6409  153.6161 C   0  0  0  0  0  0  0  0  0  0  0  0
  146.7266  132.0121  153.5001 C   0  0  0  0  0  0  0  0  0  0  0  0
  146.6963  132.5069  152.0360 C   0  0  2  0  0  0  0  0  0  0  0  0
  147.4218  139.7299  153.3364 S   0  0  0  0  0  0  0  0  0  0  0  0
  145.6649  142.4894  155.0518 H   0  0  0  0  0  0  0  0  0  0  0  0
  147.1147  142.5279  154.0362 H   0  0  0  0  0  0  0  0  0  0  0  0
  147.2465  142.0935  155.7492 H   0  0  0  0  0  0  0  0  0  0  0  0
  147.5983  137.0107  152.6055 H   0  0  0  0  0  0  0  0  0  0  0  0
  147.3970  135.0943  151.8230 H   0  0  0  0  0  0  0  0  0  0  0  0
  144.8679  133.6135  152.3990 H   0  0  0  0  0  0  0  0  0  0  0  0
  144.5139  134.1753  150.0832 H   0  0  0  0  0  0  0  0  0  0  0  0
  146.2279  133.9626  149.7101 H   0  0  0  0  0  0  0  0  0  0  0  0
  144.2165  131.8252  150.4668 H   0  0  0  0  0  0  0  0  0  0  0  0
  145.3759  131.7760  149.1405 H   0  0  0  0  0  0  0  0  0  0  0  0
  144.8398  130.3759  152.2693 H   0  0  0  0  0  0  0  0  0  0  0  0
  145.4998  129.4856  150.9144 H   0  0  0  0  0  0  0  0  0  0  0  0
  146.4449  128.7520  153.1497 H   0  0  0  0  0  0  0  0  0  0  0  0
  147.6611  129.2308  151.9995 H   0  0  0  0  0  0  0  0  0  0  0  0
  147.3139  130.2648  154.6353 H   0  0  0  0  0  0  0  0  0  0  0  0
  148.4803  130.7602  153.4395 H   0  0  0  0  0  0  0  0  0  0  0  0
  145.7113  131.9408  153.8926 H   0  0  0  0  0  0  0  0  0  0  0  0
  147.2424  132.7365  154.1310 H   0  0  0  0  0  0  0  0  0  0  0  0
  147.7123  132.7526  151.7222 H   0  0  0  0  0  0  0  0  0  0  0  0
  147.0148  131.2321  150.5170 H   0  0  0  0  0  0  0  0  0  0  0  0
  1  2  1  0  0  0  0
  1 20  1  0  0  0  0
  1 21  1  0  0  0  0
  1 22  1  0  0  0  0
  2 19  1  0  0  0  0
  2  3  2  0  0  0  0
  3  4  1  0  0  0  0
  4  5  2  0  0  0  0
  5  6  1  0  0  0  0
  5 19  1  0  0  0  0
  6  7  1  0  0  0  0
  6 23  1  0  0  0  0
  7  8  2  0  0  0  0
  7  9  1  0  0  0  0
  9 10  1  0  0  0  0
  9 24  1  0  0  0  0
 10 18  1  0  0  0  0
 10 11  1  0  0  0  0
 10 25  1  0  0  0  0
 11 12  1  0  0  0  0
 11 26  1  0  0  0  0
 11 27  1  0  0  0  0
 12 13  1  0  0  0  0
 12 28  1  0  0  0  0
 12 29  1  0  0  0  0
 13 18  1  0  0  0  0
 13 14  1  0  0  0  0
 13 39  1  0  0  0  0
 14 15  1  0  0  0  0
 14 30  1  0  0  0  0
 14 31  1  0  0  0  0
 15 16  1  0  0  0  0
 15 32  1  0  0  0  0
 15 33  1  0  0  0  0
 16 17  1  0  0  0  0
 16 34  1  0  0  0  0
 16 35  1  0  0  0  0
 17 18  1  0  0  0  0
 17 36  1  0  0  0  0
 17 37  1  0  0  0  0
 18 38  1  0  0  0  0
M  CHG  1  13   1
M  END
> <s_m_source_file>
AV-unprocessed.smi

> <i_m_source_file_index>
1897

> <i_lp_mmshare_version>
43012

> <i_f3d_flags>
0

> <s_epik_input>
W0NIM11jMW5uYyhzMSlbTkhdQyg9TylbTkhdW0NASF0oW0NIMl1bQ0gyXTIpW0NAQEhdKE4yMylbQ0gyXVtDSDJdW0NIMl1bQ0gyXTM=

> <s_epik_cmdline>
J2VwaWtfcHl0aG9uJywgJy1waCcsICc3LjAnLCAnLXRuJywgJzgnLCAnLW1hJywgJzIwMCcsICctbWV0YWxfYmluZGluZycsICctaW1hZScsICc8aW5maWxlLm1hZT4nLCAnLW9tYWUnLCAnPG91dGZpbGUubWFlPic=

> <r_lp_tautomer_probability>
1

> <r_epik_Ionization_Penalty>
0.00228891

> <r_epik_Ionization_Penalty_Charging>
0.00107044

> <r_epik_Ionization_Penalty_Neutral>
0.00121847

> <r_epik_State_Penalty>
-0

> <r_epik_Charging_Adjusted_Penalty>
0.00107044

> <i_epik_Tot_Q>
1

> <i_epik_Tot_abs_Q>
1

> <r_epik_Metal_State_Penalty>
0.304057

> <b_epik_Metal_Only>
0

> <s_lp_Force_Field>
OPLS_2005

> <r_lp_Energy>
41.04

> <b_lp_Chiralities_Consistent>
1

> <s_lp_Variant>
AV-unprocessed.smi:1897-8

> <Gold.Version>
5.8.1

> <Gold.Id.Protein>
6NUR|6NUR_protein|mol2

> <Gold.PLP.Fitness>
34.8808

> <Gold.PLP.PLP>
-26.5876

> <Gold.PLP.part.hbond>
-3.0000

> <Gold.PLP.part.metal>
0.0000

> <Gold.PLP.part.buried>
-2.4495

> <Gold.PLP.part.nonpolar>
-21.3375

> <Gold.PLP.part.repulsive>
0.3334

> <Gold.PLP.ligand.clash>
0.0000

> <Gold.PLP.ligand.torsion>
0.2735

> <Gold.PLP.Chemscore.Hbond>
2.9440

> <Gold.PLP.Chemscore.CHOScore>
0.0000

> <Gold.PLP.Chemscore.Metal>
0.0000

> <Gold.Chemscore.Hbonds>
donor molecule, donor type, donor heavy atom, donor atom, acceptor molecule, acceptor atom, score
      L1  H     6    23       P1  7948  1.00
      L1  H     9    24       P1  7948  0.94
      L1  H    13    39       P1 10747  1.00

> <Gold.PLP.Chemscore.Internal.Correction>
0.0081

> <Gold.Rescore>
     Score         DG    S(hbond)    S(metal)    S(lipo)     H(rot)  DE(clash)    DE(int)     intcor
     19.19     -20.73       2.87        0.00      70.17       1.00       0.16       1.38       ----

> <Gold.Chemscore.Fitness>
19.1905

> <Gold.Chemscore.DG>
-20.7322

> <Gold.Chemscore.ZeroCoef>
-5.4800

> <Gold.Chemscore.Hbond>
2.8749

> <Gold.Chemscore.Metal>
0.0000

> <Gold.Chemscore.Lipo>
70.1709

> <Gold.Chemscore.Internal_Hbond>
0.0000

> <Gold.Chemscore.DEClash>
0.1587

> <Gold.Chemscore.DEInternal>
1.3830

> <Gold.Chemscore.Rot>
1.0000

> <Gold.Chemscore.Internal.Correction>
   9.000000E+99

> <Gold.Chemscore.Hbonds>
donor molecule, donor type, donor heavy atom, donor atom, acceptor molecule, acceptor atom, score
      L1  H     6    23       P1  7948  0.99
      L1  H     9    24       P1  7948  0.82
      L1  H    13    39       P1 10747  0.92

> <Gold.Chemscore.Hbond.Weighted>
-9.6022

> <Gold.Chemscore.Metal.Weighted>
-0.0000

> <Gold.Chemscore.Lipo.Weighted>
-8.2100

> <Gold.Chemscore.Internal_Hbond.Weighted>
0.0000

> <Gold.Chemscore.DEClash.Weighted>
0.1587

> <Gold.Chemscore.DEInternal.Weighted>
1.3830

> <Gold.Chemscore.Rot.Weighted>
2.5600

> <Gold.Chemscore.Internal.Correction.Weighted>
   9.000000E+99

> <Gold.Protein.RotatedTorsions>
[ 6907 6896 6895 6894 ] final  149.05 input  -60.11 | X-H torsion
[ 7974 7965 7964 7962 ] final  -15.74 input  175.53 | X-H torsion
[ 8008 7997 7996 7995 ] final -173.42 input   59.86 | X-H torsion
[ 10167 10162 10161 10158 ] final  166.01 input  -65.29 | X-H torsion
[ 10718 10713 10712 10709 ] final   82.12 input   66.30 | X-H torsion
[ 10763 10752 10751 10750 ] final   33.20 input  -60.55 | X-H torsion
[ 11005 11000 10999 10996 ] final  136.72 input  -57.11 | X-H torsion

> <Gold.Protein.ActiveResidues>
 VAL166  LYS551  ARG553  GLY616  TRP617  ASP618  TYR619  PRO620  LYS621  CYS622 
 ASP623  PHE694  ASN695  SER759  ASP760  ASP761  ALA762  ILE779  LEU786  VAL792 
 PHE793  MET794  SER795  GLU796  ALA797  LYS798  CYS799  TRP800  GLU811  SER814 

> <Gold.Protein.RotatedAtoms>
  152.1333  133.4420  159.4730 H   0  0  0  0  0  0  0  0  0  0  0  0  # atno 6907 bound_to 6896
  150.6880  134.2394  159.4475 H   0  0  0  0  0  0  0  0  0  0  0  0  # atno 6908 bound_to 6896
  152.0280  134.9784  160.0622 H   0  0  0  0  0  0  0  0  0  0  0  0  # atno 6909 bound_to 6896
  146.2019  140.3536  142.8420 H   0  0  0  0  0  0  0  0  0  0  0  0  # atno 7974 bound_to 7965
  155.9572  140.1137  157.0926 H   0  0  0  0  0  0  0  0  0  0  0  0  # atno 8008 bound_to 7997
  154.4123  140.1189  156.5198 H   0  0  0  0  0  0  0  0  0  0  0  0  # atno 8009 bound_to 7997
  155.6766  140.3473  155.4841 H   0  0  0  0  0  0  0  0  0  0  0  0  # atno 8010 bound_to 7997
  139.4916  144.4072  151.9341 H   0  0  0  0  0  0  0  0  0  0  0  0  # atno 10167 bound_to 10162
  157.6850  131.0034  150.2328 H   0  0  0  0  0  0  0  0  0  0  0  0  # atno 10718 bound_to 10713
  153.0223  135.6393  154.1475 H   0  0  0  0  0  0  0  0  0  0  0  0  # atno 10763 bound_to 10752
  154.1208  135.2847  155.3210 H   0  0  0  0  0  0  0  0  0  0  0  0  # atno 10764 bound_to 10752
  154.6265  135.5507  153.7695 H   0  0  0  0  0  0  0  0  0  0  0  0  # atno 10765 bound_to 10752
  140.0065  134.9457  157.0186 H   0  0  0  0  0  0  0  0  0  0  0  0  # atno 11005 bound_to 11000
  144.8702  140.7262  143.6051 LP  0  0  0  0  0  0  0  0  0  0  0  0  # atno 17320 bound_to 7965
  145.3455  139.1720  143.4463 LP  0  0  0  0  0  0  0  0  0  0  0  0  # atno 17321 bound_to 7965
  140.3513  144.3086  150.5949 LP  0  0  0  0  0  0  0  0  0  0  0  0  # atno 17342 bound_to 10162
  140.5483  143.2211  151.7970 LP  0  0  0  0  0  0  0  0  0  0  0  0  # atno 17343 bound_to 10162
  156.2957  130.3751  149.7798 LP  0  0  0  0  0  0  0  0  0  0  0  0  # atno 17370 bound_to 10713
  156.5443  130.8314  151.3279 LP  0  0  0  0  0  0  0  0  0  0  0  0  # atno 17371 bound_to 10713
  140.4632  134.1462  155.7194 LP  0  0  0  0  0  0  0  0  0  0  0  0  # atno 17394 bound_to 11000
  141.1680  133.8664  157.1656 LP  0  0  0  0  0  0  0  0  0  0  0  0  # atno 17395 bound_to 11000

$$$$
