AV-unprocessed.smi:2351|AV-procd|sdf|9376|dock5
  -GOLD-   2272013 03D 1   1.00000     0.00000
 Structure written by MMmdl.
 47 49  0  0  0  0  0  0  0  0  2 V2000
  150.6753  141.9527  155.9190 O   0  0  0  0  0  0  0  0  0  0  0  0
  151.2373  141.0113  156.4773 C   0  0  0  0  0  0  0  0  0  0  0  0
  151.7782  141.0412  157.7073 N   0  0  0  0  0  0  0  0  0  0  0  0
  151.8579  142.1263  158.6235 C   0  0  0  0  0  0  0  0  0  0  0  0
  151.1523  143.3459  158.4817 C   0  0  0  0  0  0  0  0  0  0  0  0
  151.3116  144.3366  159.4716 C   0  0  0  0  0  0  0  0  0  0  0  0
  152.0987  144.1845  160.5576 N   0  0  0  0  0  0  0  0  0  0  0  0
  152.7596  143.0158  160.6961 C   0  0  0  0  0  0  0  0  0  0  0  0
  152.6700  141.9610  159.7657 C   0  0  0  0  0  0  0  0  0  0  0  0
  153.3578  140.8109  159.9673 F   0  0  0  0  0  0  0  0  0  0  0  0
  151.4029  139.8094  155.9053 N   0  0  0  0  0  0  0  0  0  0  0  0
  150.9435  139.4379  154.5669 C   0  0  2  0  0  0  0  0  0  0  0  0
  149.4102  139.3192  154.5377 C   0  0  0  0  0  0  0  0  0  0  0  0
  148.9115  138.0771  155.2993 C   0  0  0  0  0  0  0  0  0  0  0  0
  149.5436  136.8344  154.7850 N   0  3  2  0  0  0  0  0  0  0  0  0
  148.9739  135.6155  155.4149 C   0  0  0  0  0  0  0  0  0  0  0  0
  149.5674  134.3129  154.8428 C   0  0  2  0  0  0  0  0  0  0  0  0
  148.7083  133.6395  153.7899 C   0  0  0  0  0  0  0  0  0  0  0  0
  149.2532  132.2140  153.7960 C   0  0  0  0  0  0  0  0  0  0  0  0
  149.7263  131.9822  155.1200 O   0  0  0  0  0  0  0  0  0  0  0  0
  149.6863  133.1900  155.8728 C   0  0  0  0  0  0  0  0  0  0  0  0
  151.0270  136.9024  154.8653 C   0  0  0  0  0  0  0  0  0  0  0  0
  151.5700  138.1133  154.0869 C   0  0  0  0  0  0  0  0  0  0  0  0
  152.2549  140.2017  158.0019 H   0  0  0  0  0  0  0  0  0  0  0  0
  150.4905  143.5392  157.6521 H   0  0  0  0  0  0  0  0  0  0  0  0
  150.7868  145.2770  159.3902 H   0  0  0  0  0  0  0  0  0  0  0  0
  153.3784  142.9173  161.5759 H   0  0  0  0  0  0  0  0  0  0  0  0
  151.8732  139.0939  156.4403 H   0  0  0  0  0  0  0  0  0  0  0  0
  151.2356  140.2359  153.8816 H   0  0  0  0  0  0  0  0  0  0  0  0
  148.9517  140.2202  154.9474 H   0  0  0  0  0  0  0  0  0  0  0  0
  149.0770  139.2564  153.5008 H   0  0  0  0  0  0  0  0  0  0  0  0
  149.1172  138.1766  156.3661 H   0  0  0  0  0  0  0  0  0  0  0  0
  147.8282  138.0095  155.1928 H   0  0  0  0  0  0  0  0  0  0  0  0
  149.1212  135.6593  156.4950 H   0  0  0  0  0  0  0  0  0  0  0  0
  147.8946  135.5984  155.2558 H   0  0  0  0  0  0  0  0  0  0  0  0
  150.5604  134.4902  154.4290 H   0  0  0  0  0  0  0  0  0  0  0  0
  147.6606  133.6395  154.0940 H   0  0  0  0  0  0  0  0  0  0  0  0
  148.7790  134.1137  152.8105 H   0  0  0  0  0  0  0  0  0  0  0  0
  148.4997  131.4808  153.5076 H   0  0  0  0  0  0  0  0  0  0  0  0
  150.0944  132.1242  153.1077 H   0  0  0  0  0  0  0  0  0  0  0  0
  150.5679  133.2940  156.5060 H   0  0  0  0  0  0  0  0  0  0  0  0
  148.8081  133.1605  156.5197 H   0  0  0  0  0  0  0  0  0  0  0  0
  151.3365  136.9545  155.9101 H   0  0  0  0  0  0  0  0  0  0  0  0
  151.4722  135.9984  154.4521 H   0  0  0  0  0  0  0  0  0  0  0  0
  151.3507  137.9798  153.0266 H   0  0  0  0  0  0  0  0  0  0  0  0
  152.6572  138.1485  154.1627 H   0  0  0  0  0  0  0  0  0  0  0  0
  149.3049  136.7846  153.8048 H   0  0  0  0  0  0  0  0  0  0  0  0
  1  2  2  0  0  0  0
  2  3  1  0  0  0  0
  2 11  1  0  0  0  0
  3  4  1  0  0  0  0
  3 24  1  0  0  0  0
  4  9  1  0  0  0  0
  4  5  2  0  0  0  0
  5  6  1  0  0  0  0
  5 25  1  0  0  0  0
  6  7  2  0  0  0  0
  6 26  1  0  0  0  0
  7  8  1  0  0  0  0
  8  9  2  0  0  0  0
  8 27  1  0  0  0  0
  9 10  1  0  0  0  0
 11 12  1  0  0  0  0
 11 28  1  0  0  0  0
 12 23  1  0  0  0  0
 12 13  1  0  0  0  0
 12 29  1  0  0  0  0
 13 14  1  0  0  0  0
 13 30  1  0  0  0  0
 13 31  1  0  0  0  0
 14 15  1  0  0  0  0
 14 32  1  0  0  0  0
 14 33  1  0  0  0  0
 15 16  1  0  0  0  0
 15 22  1  0  0  0  0
 15 47  1  0  0  0  0
 16 17  1  0  0  0  0
 16 34  1  0  0  0  0
 16 35  1  0  0  0  0
 17 21  1  0  0  0  0
 17 18  1  0  0  0  0
 17 36  1  0  0  0  0
 18 19  1  0  0  0  0
 18 37  1  0  0  0  0
 18 38  1  0  0  0  0
 19 20  1  0  0  0  0
 19 39  1  0  0  0  0
 19 40  1  0  0  0  0
 20 21  1  0  0  0  0
 21 41  1  0  0  0  0
 21 42  1  0  0  0  0
 22 23  1  0  0  0  0
 22 43  1  0  0  0  0
 22 44  1  0  0  0  0
 23 45  1  0  0  0  0
 23 46  1  0  0  0  0
M  CHG  1  15   1
M  END
> <s_m_source_file>
AV-unprocessed.smi

> <i_m_source_file_index>
2351

> <i_lp_mmshare_version>
43012

> <i_f3d_flags>
0

> <s_epik_input>
RmMxW2NIXW5bY0hdW2NIXWMxW05IXUMoPU8pW05IXVtDSF0yW0NIMl1bQ0gyXU4oW0NIMl1bQ0gyXTIpW0NIMl1bQ0BASF0zW0NIMl1bQ0gyXU9bQ0gyXTM=

> <s_epik_cmdline>
J2VwaWtfcHl0aG9uJywgJy1waCcsICc3LjAnLCAnLXRuJywgJzgnLCAnLW1hJywgJzIwMCcsICctbWV0YWxfYmluZGluZycsICctaW1hZScsICc8aW5maWxlLm1hZT4nLCAnLW9tYWUnLCAnPG91dGZpbGUubWFlPic=

> <r_epik_Ionization_Penalty>
0.0102464

> <r_epik_Ionization_Penalty_Charging>
0.00747775

> <r_epik_Ionization_Penalty_Neutral>
0.00276864

> <r_epik_State_Penalty>
0.00558817

> <r_epik_Charging_Adjusted_Penalty>
0.0130659

> <i_epik_Tot_Q>
1

> <i_epik_Tot_abs_Q>
1

> <r_epik_Metal_State_Penalty>
-0

> <b_epik_Metal_Only>
0

> <s_lp_Force_Field>
OPLS_2005

> <r_lp_Energy>
39.3269

> <b_lp_Chiralities_Consistent>
1

> <s_lp_Variant>
AV-unprocessed.smi:2351-3

> <Gold.Version>
5.8.1

> <Gold.Id.Protein>
6NUR|6NUR_protein|mol2

> <Gold.PLP.Fitness>
47.2262

> <Gold.PLP.PLP>
-42.5193

> <Gold.PLP.part.hbond>
-1.0000

> <Gold.PLP.part.metal>
0.0000

> <Gold.PLP.part.buried>
-4.1566

> <Gold.PLP.part.nonpolar>
-37.0017

> <Gold.PLP.part.repulsive>
0.4065

> <Gold.PLP.ligand.clash>
0.0000

> <Gold.PLP.ligand.torsion>
0.6598

> <Gold.PLP.Chemscore.Hbond>
2.0000

> <Gold.PLP.Chemscore.CHOScore>
0.0000

> <Gold.PLP.Chemscore.Metal>
0.0000

> <Gold.Chemscore.Hbonds>
donor molecule, donor type, donor heavy atom, donor atom, acceptor molecule, acceptor atom, score
      L1  H    15    47       P1  7948  2.00

> <Gold.PLP.Chemscore.Internal.Correction>
0.0264

> <Gold.Rescore>
     Score         DG    S(hbond)    S(metal)    S(lipo)     H(rot)  DE(clash)    DE(int)     intcor
     15.49     -17.35       0.95        0.00     105.97       1.45       0.16       1.69       ----

> <Gold.Chemscore.Fitness>
15.4948

> <Gold.Chemscore.DG>
-17.3483

> <Gold.Chemscore.ZeroCoef>
-5.4800

> <Gold.Chemscore.Hbond>
0.9514

> <Gold.Chemscore.Metal>
0.0000

> <Gold.Chemscore.Lipo>
105.9703

> <Gold.Chemscore.Internal_Hbond>
0.0000

> <Gold.Chemscore.DEClash>
0.1642

> <Gold.Chemscore.DEInternal>
1.6893

> <Gold.Chemscore.Rot>
1.4483

> <Gold.Chemscore.Internal.Correction>
   9.000000E+99

> <Gold.Chemscore.Hbonds>
donor molecule, donor type, donor heavy atom, donor atom, acceptor molecule, acceptor atom, score
      L1  H    15    47       P1  7948  0.91

> <Gold.Chemscore.Hbond.Weighted>
-3.1775

> <Gold.Chemscore.Metal.Weighted>
-0.0000

> <Gold.Chemscore.Lipo.Weighted>
-12.3985

> <Gold.Chemscore.Internal_Hbond.Weighted>
0.0000

> <Gold.Chemscore.DEClash.Weighted>
0.1642

> <Gold.Chemscore.DEInternal.Weighted>
1.6893

> <Gold.Chemscore.Rot.Weighted>
3.7077

> <Gold.Chemscore.Internal.Correction.Weighted>
   9.000000E+99

> <Gold.Protein.RotatedTorsions>
[ 6907 6896 6895 6894 ] final   52.77 input  -60.11 | X-H torsion
[ 7974 7965 7964 7962 ] final -155.16 input  175.53 | X-H torsion
[ 8008 7997 7996 7995 ] final   37.30 input   59.86 | X-H torsion
[ 10167 10162 10161 10158 ] final -110.66 input  -65.29 | X-H torsion
[ 10718 10713 10712 10709 ] final  101.30 input   66.30 | X-H torsion
[ 10763 10752 10751 10750 ] final  -43.48 input  -60.55 | X-H torsion
[ 11005 11000 10999 10996 ] final -118.72 input  -57.11 | X-H torsion

> <Gold.Protein.ActiveResidues>
 VAL166  LYS551  ARG553  GLY616  TRP617  ASP618  TYR619  PRO620  LYS621  CYS622 
 ASP623  PHE694  ASN695  SER759  ASP760  ASP761  ALA762  ILE779  LEU786  VAL792 
 PHE793  MET794  SER795  GLU796  ALA797  LYS798  CYS799  TRP800  GLU811  SER814 

> <Gold.Protein.RotatedAtoms>
  152.3267  134.7311  160.0299 H   0  0  0  0  0  0  0  0  0  0  0  0  # atno 6907 bound_to 6896
  151.7741  133.3338  159.3461 H   0  0  0  0  0  0  0  0  0  0  0  0  # atno 6908 bound_to 6896
  150.7400  134.5923  159.6038 H   0  0  0  0  0  0  0  0  0  0  0  0  # atno 6909 bound_to 6896
  144.7653  140.4287  143.5946 H   0  0  0  0  0  0  0  0  0  0  0  0  # atno 7974 bound_to 7965
  155.2015  140.3316  155.4342 H   0  0  0  0  0  0  0  0  0  0  0  0  # atno 8008 bound_to 7997
  156.2405  140.1893  156.7051 H   0  0  0  0  0  0  0  0  0  0  0  0  # atno 8009 bound_to 7997
  154.6138  140.0605  156.9514 H   0  0  0  0  0  0  0  0  0  0  0  0  # atno 8010 bound_to 7997
  140.1420  143.4271  152.1555 H   0  0  0  0  0  0  0  0  0  0  0  0  # atno 10167 bound_to 10162
  157.6833  131.0722  150.5231 H   0  0  0  0  0  0  0  0  0  0  0  0  # atno 10718 bound_to 10713
  153.9963  135.6699  153.4756 H   0  0  0  0  0  0  0  0  0  0  0  0  # atno 10763 bound_to 10752
  153.0682  135.4989  154.8243 H   0  0  0  0  0  0  0  0  0  0  0  0  # atno 10764 bound_to 10752
  154.7079  135.3091  154.9205 H   0  0  0  0  0  0  0  0  0  0  0  0  # atno 10765 bound_to 10752
  141.0266  134.0044  157.3205 H   0  0  0  0  0  0  0  0  0  0  0  0  # atno 11005 bound_to 11000
  145.6488  139.1561  143.2873 LP  0  0  0  0  0  0  0  0  0  0  0  0  # atno 17320 bound_to 7965
  146.1755  140.6579  142.9213 LP  0  0  0  0  0  0  0  0  0  0  0  0  # atno 17321 bound_to 7965
  139.5467  144.7304  151.4561 LP  0  0  0  0  0  0  0  0  0  0  0  0  # atno 17342 bound_to 10162
  140.6754  143.8200  150.7052 LP  0  0  0  0  0  0  0  0  0  0  0  0  # atno 17343 bound_to 10162
  156.5544  130.4240  149.6092 LP  0  0  0  0  0  0  0  0  0  0  0  0  # atno 17370 bound_to 10713
  156.2875  130.7105  151.1945 LP  0  0  0  0  0  0  0  0  0  0  0  0  # atno 17371 bound_to 10713
  139.9180  135.0198  156.7955 LP  0  0  0  0  0  0  0  0  0  0  0  0  # atno 17394 bound_to 11000
  140.6481  133.9757  155.7741 LP  0  0  0  0  0  0  0  0  0  0  0  0  # atno 17395 bound_to 11000

$$$$
