AV-unprocessed.smi:261|AV-procd|sdf|1991|dock1
  -GOLD-   2262021173D 1   1.00000     0.00000
 Structure written by MMmdl.
 51 54  0  0  0  0  0  0  0  0  1 V2000
  152.5956  145.2978  158.8969 C   0  0  0  0  0  0  0  0  0  0  0  0
  153.0021  143.9455  158.7672 O   0  0  0  0  0  0  0  0  0  0  0  0
  151.9180  143.0304  158.6973 C   0  0  1  0  0  0  0  0  0  0  0  0
  151.1832  143.0589  157.3581 C   0  0  0  0  0  0  0  0  0  0  0  0
  150.5402  141.6664  157.2639 C   0  0  1  0  0  0  0  0  0  0  0  0
  150.2913  141.2772  155.7932 C   0  0  0  0  0  0  0  0  0  0  0  0
  149.5418  142.0804  155.0311 N   0  0  0  0  0  0  0  0  0  0  0  0
  150.7863  140.2451  155.3462 O   0  0  0  0  0  0  0  0  0  0  0  0
  151.4789  140.7989  157.9893 N   0  0  0  0  0  0  0  0  0  0  0  0
  151.1406  139.5516  158.4178 C   0  0  0  0  0  0  0  0  0  0  0  0
  152.1216  138.6839  158.7838 N   0  0  0  0  0  0  0  0  0  0  0  0
  151.8190  137.4571  159.2172 C   0  0  0  0  0  0  0  0  0  0  0  0
  150.6172  136.8989  159.3670 N   0  0  0  0  0  0  0  0  0  0  0  0
  149.6255  137.7630  159.0096 C   0  0  0  0  0  0  0  0  0  0  0  0
  149.7944  139.0936  158.5301 C   0  0  0  0  0  0  0  0  0  0  0  0
  148.5484  139.6632  158.2875 N   0  0  0  0  0  0  0  0  0  0  0  0
  147.6973  138.7221  158.5927 C   0  0  0  0  0  0  0  0  0  0  0  0
  148.2596  137.5482  159.0380 N   0  0  0  0  0  0  0  0  0  0  0  0
  147.5595  136.3470  159.4587 C   0  0  0  0  0  0  0  0  0  0  0  0
  146.8118  136.5344  160.7938 C   0  0  2  0  0  0  0  0  0  0  0  0
  147.6764  137.1571  161.7252 O   0  0  0  0  0  0  0  0  0  0  0  0
  146.3238  135.1976  161.3823 C   0  0  1  0  0  0  0  0  0  0  0  0
  145.5365  135.3292  162.6865 C   0  0  0  0  0  0  0  0  0  0  0  0
  144.7508  134.0379  162.6999 C   0  0  0  0  0  0  0  0  0  0  0  0
  144.4063  133.8599  161.2235 C   0  0  0  0  0  0  0  0  0  0  0  0
  145.4073  134.5650  160.4924 O   0  0  0  0  0  0  0  0  0  0  0  0
  152.4216  141.5894  158.7731 C   0  0  0  0  0  0  0  0  0  0  0  0
  151.2108  143.2006  159.5117 H   0  0  0  0  0  0  0  0  0  0  0  0
  149.5862  141.6864  157.7935 H   0  0  0  0  0  0  0  0  0  0  0  0
  153.4759  145.9366  158.9685 H   0  0  0  0  0  0  0  0  0  0  0  0
  152.0002  145.4460  159.7985 H   0  0  0  0  0  0  0  0  0  0  0  0
  152.0143  145.6267  158.0351 H   0  0  0  0  0  0  0  0  0  0  0  0
  150.4471  143.8613  157.3013 H   0  0  0  0  0  0  0  0  0  0  0  0
  151.9036  143.2086  156.5514 H   0  0  0  0  0  0  0  0  0  0  0  0
  149.3667  141.8377  154.0668 H   0  0  0  0  0  0  0  0  0  0  0  0
  149.1515  142.9244  155.4241 H   0  0  0  0  0  0  0  0  0  0  0  0
  152.6607  136.8350  159.4836 H   0  0  0  0  0  0  0  0  0  0  0  0
  146.6296  138.8610  158.5037 H   0  0  0  0  0  0  0  0  0  0  0  0
  146.8600  136.0747  158.6676 H   0  0  0  0  0  0  0  0  0  0  0  0
  148.2776  135.5291  159.5328 H   0  0  0  0  0  0  0  0  0  0  0  0
  145.9547  137.1912  160.6387 H   0  0  0  0  0  0  0  0  0  0  0  0
  147.6721  136.6509  162.5231 H   0  0  0  0  0  0  0  0  0  0  0  0
  147.1645  134.5185  161.5349 H   0  0  0  0  0  0  0  0  0  0  0  0
  146.1761  135.4475  163.5614 H   0  0  0  0  0  0  0  0  0  0  0  0
  144.8554  136.1804  162.6418 H   0  0  0  0  0  0  0  0  0  0  0  0
  145.3866  133.2186  163.0383 H   0  0  0  0  0  0  0  0  0  0  0  0
  143.8705  134.0757  163.3421 H   0  0  0  0  0  0  0  0  0  0  0  0
  144.3719  132.8090  160.9352 H   0  0  0  0  0  0  0  0  0  0  0  0
  143.4366  134.3044  160.9980 H   0  0  0  0  0  0  0  0  0  0  0  0
  153.4079  141.4974  158.3163 H   0  0  0  0  0  0  0  0  0  0  0  0
  152.4971  141.2649  159.8121 H   0  0  0  0  0  0  0  0  0  0  0  0
  1  2  1  0  0  0  0
  1 30  1  0  0  0  0
  1 31  1  0  0  0  0
  1 32  1  0  0  0  0
  2  3  1  0  0  0  0
  3 28  1  0  0  0  0
  3 27  1  0  0  0  0
  3  4  1  0  0  0  0
  4  5  1  0  0  0  0
  4 33  1  0  0  0  0
  4 34  1  0  0  0  0
  5 29  1  0  0  0  0
  5  6  1  0  0  0  0
  5  9  1  0  0  0  0
  6  7  1  0  0  0  0
  6  8  2  0  0  0  0
  7 35  1  0  0  0  0
  7 36  1  0  0  0  0
  9 10  1  0  0  0  0
  9 27  1  0  0  0  0
 10 15  1  0  0  0  0
 10 11  2  0  0  0  0
 11 12  1  0  0  0  0
 12 13  2  0  0  0  0
 12 37  1  0  0  0  0
 13 14  1  0  0  0  0
 14 18  1  0  0  0  0
 14 15  2  0  0  0  0
 15 16  1  0  0  0  0
 16 17  2  0  0  0  0
 17 18  1  0  0  0  0
 17 38  1  0  0  0  0
 18 19  1  0  0  0  0
 19 20  1  0  0  0  0
 19 39  1  0  0  0  0
 19 40  1  0  0  0  0
 20 21  1  0  0  0  0
 20 22  1  0  0  0  0
 20 41  1  0  0  0  0
 21 42  1  0  0  0  0
 22 26  1  0  0  0  0
 22 23  1  0  0  0  0
 22 43  1  0  0  0  0
 23 24  1  0  0  0  0
 23 44  1  0  0  0  0
 23 45  1  0  0  0  0
 24 25  1  0  0  0  0
 24 46  1  0  0  0  0
 24 47  1  0  0  0  0
 25 26  1  0  0  0  0
 25 48  1  0  0  0  0
 25 49  1  0  0  0  0
 27 50  1  0  0  0  0
 27 51  1  0  0  0  0
M  END
> <s_m_source_file>
AV-unprocessed.smi

> <i_m_source_file_index>
261

> <i_lp_mmshare_version>
43012

> <i_f3d_flags>
0

> <s_epik_input>
W0NIM11PW0NASF0xW0NIMl1bQ0BASF0oQyg9TylbTkgyXSlOKFtDSDJdMSljKG5bY0hdbjIpYyhjMjMpbltjSF1uM1tDSDJdW0NASF0oW09IXSlbQ0BASF00W0NIMl1bQ0gyXVtDSDJdTzQ=

> <s_epik_cmdline>
J2VwaWtfcHl0aG9uJywgJy1waCcsICc3LjAnLCAnLXRuJywgJzgnLCAnLW1hJywgJzIwMCcsICctbWV0YWxfYmluZGluZycsICctaW1hZScsICc8aW5maWxlLm1hZT4nLCAnLW9tYWUnLCAnPG91dGZpbGUubWFlPic=

> <r_lp_tautomer_probability>
1

> <r_epik_Ionization_Penalty>
0.000713824

> <r_epik_Ionization_Penalty_Charging>
0

> <r_epik_Ionization_Penalty_Neutral>
0.000713824

> <r_epik_State_Penalty>
0.000402132

> <r_epik_Charging_Adjusted_Penalty>
0.000402132

> <i_epik_Tot_Q>
0

> <i_epik_Tot_abs_Q>
0

> <r_epik_Metal_State_Penalty>
-0

> <b_epik_Metal_Only>
0

> <s_lp_Force_Field>
OPLS_2005

> <r_lp_Energy>
46.441

> <b_lp_Chiralities_Consistent>
1

> <s_lp_Variant>
AV-unprocessed.smi:261-9

> <Gold.Version>
5.8.1

> <Gold.Id.Protein>
6NUR|6NUR_protein|mol2

> <Gold.PLP.Fitness>
55.9528

> <Gold.PLP.PLP>
-45.0585

> <Gold.PLP.part.hbond>
-4.5596

> <Gold.PLP.part.metal>
0.0000

> <Gold.PLP.part.buried>
-7.1610

> <Gold.PLP.part.nonpolar>
-34.2932

> <Gold.PLP.part.repulsive>
0.2474

> <Gold.PLP.ligand.clash>
0.0000

> <Gold.PLP.ligand.torsion>
0.7693

> <Gold.PLP.Chemscore.Hbond>
3.9760

> <Gold.PLP.Chemscore.CHOScore>
0.0000

> <Gold.PLP.Chemscore.Metal>
0.0000

> <Gold.Chemscore.Hbonds>
donor molecule, donor type, donor heavy atom, donor atom, acceptor molecule, acceptor atom, score
      L1  H     7    36       P1  8028  1.00
      P1  H  6896  6908       L1    13  0.65
      P1  H  6931  6943       L1    21  1.00
      P1  H  6934  6947       L1    21  0.35
      P1  H  7989  7998       L1     8  0.76

> <Gold.PLP.Chemscore.Internal.Correction>
0.5048

> <Gold.Rescore>
     Score         DG    S(hbond)    S(metal)    S(lipo)     H(rot)  DE(clash)    DE(int)     intcor
     17.66     -19.60       3.46        0.00      91.61       3.18       0.14       1.80       ----

> <Gold.Chemscore.Fitness>
17.6563

> <Gold.Chemscore.DG>
-19.6024

> <Gold.Chemscore.ZeroCoef>
-5.4800

> <Gold.Chemscore.Hbond>
3.4589

> <Gold.Chemscore.Metal>
0.0000

> <Gold.Chemscore.Lipo>
91.6092

> <Gold.Chemscore.Internal_Hbond>
0.0000

> <Gold.Chemscore.DEClash>
0.1424

> <Gold.Chemscore.DEInternal>
1.8037

> <Gold.Chemscore.Rot>
3.1831

> <Gold.Chemscore.Internal.Correction>
   9.000000E+99

> <Gold.Chemscore.Hbonds>
donor molecule, donor type, donor heavy atom, donor atom, acceptor molecule, acceptor atom, score
      L1  H     7    36       P1  8028  0.99
      P1  H  6896  6908       L1    13  0.05
      P1  H  6931  6943       L1    21  0.43
      P1  H  6934  6947       L1    21  0.02
      P1  H  7989  7998       L1     8  0.30

> <Gold.Chemscore.Hbond.Weighted>
-11.5528

> <Gold.Chemscore.Metal.Weighted>
-0.0000

> <Gold.Chemscore.Lipo.Weighted>
-10.7183

> <Gold.Chemscore.Internal_Hbond.Weighted>
0.0000

> <Gold.Chemscore.DEClash.Weighted>
0.1424

> <Gold.Chemscore.DEInternal.Weighted>
1.8037

> <Gold.Chemscore.Rot.Weighted>
8.1486

> <Gold.Chemscore.Internal.Correction.Weighted>
   9.000000E+99

> <Gold.Protein.RotatedTorsions>
[ 6907 6896 6895 6894 ] final -130.65 input  -60.11 | X-H torsion
[ 7974 7965 7964 7962 ] final   53.06 input  175.53 | X-H torsion
[ 8008 7997 7996 7995 ] final   66.10 input   59.86 | X-H torsion
[ 10167 10162 10161 10158 ] final  -38.95 input  -65.29 | X-H torsion
[ 10718 10713 10712 10709 ] final  -60.36 input   66.30 | X-H torsion
[ 10763 10752 10751 10750 ] final   54.42 input  -60.55 | X-H torsion
[ 11005 11000 10999 10996 ] final  154.03 input  -57.11 | X-H torsion

> <Gold.Protein.ActiveResidues>
 VAL166  LYS551  ARG553  GLY616  TRP617  ASP618  TYR619  PRO620  LYS621  CYS622 
 ASP623  PHE694  ASN695  SER759  ASP760  ASP761  ALA762  ILE779  LEU786  VAL792 
 PHE793  MET794  SER795  GLU796  ALA797  LYS798  CYS799  TRP800  GLU811  SER814 

> <Gold.Protein.RotatedAtoms>
  150.9421  133.6645  159.2788 H   0  0  0  0  0  0  0  0  0  0  0  0  # atno 6907 bound_to 6896
  151.4030  135.0972  159.9571 H   0  0  0  0  0  0  0  0  0  0  0  0  # atno 6908 bound_to 6896
  152.5074  133.8911  159.7449 H   0  0  0  0  0  0  0  0  0  0  0  0  # atno 6909 bound_to 6896
  145.9750  139.4186  143.0167 H   0  0  0  0  0  0  0  0  0  0  0  0  # atno 7974 bound_to 7965
  155.6720  140.3497  155.4822 H   0  0  0  0  0  0  0  0  0  0  0  0  # atno 8008 bound_to 7997
  155.9680  140.1150  157.0860 H   0  0  0  0  0  0  0  0  0  0  0  0  # atno 8009 bound_to 7997
  154.4159  140.1162  156.5254 H   0  0  0  0  0  0  0  0  0  0  0  0  # atno 8010 bound_to 7997
  140.7078  143.3245  151.2714 H   0  0  0  0  0  0  0  0  0  0  0  0  # atno 10167 bound_to 10162
  156.0996  130.4188  150.0843 H   0  0  0  0  0  0  0  0  0  0  0  0  # atno 10718 bound_to 10713
  152.9804  135.5745  154.4902 H   0  0  0  0  0  0  0  0  0  0  0  0  # atno 10763 bound_to 10752
  154.4437  135.2776  155.1831 H   0  0  0  0  0  0  0  0  0  0  0  0  # atno 10764 bound_to 10752
  154.3489  135.6213  153.5686 H   0  0  0  0  0  0  0  0  0  0  0  0  # atno 10765 bound_to 10752
  140.1452  134.8712  157.2383 H   0  0  0  0  0  0  0  0  0  0  0  0  # atno 11005 bound_to 11000
  145.7851  140.9839  143.1078 LP  0  0  0  0  0  0  0  0  0  0  0  0  # atno 17320 bound_to 7965
  144.6846  139.9613  143.7480 LP  0  0  0  0  0  0  0  0  0  0  0  0  # atno 17321 bound_to 7965
  139.6708  144.0023  152.2752 LP  0  0  0  0  0  0  0  0  0  0  0  0  # atno 17342 bound_to 10162
  139.9621  144.6551  150.8070 LP  0  0  0  0  0  0  0  0  0  0  0  0  # atno 17343 bound_to 10162
  156.8833  130.9564  151.3597 LP  0  0  0  0  0  0  0  0  0  0  0  0  # atno 17370 bound_to 10713
  157.6164  130.8621  149.9035 LP  0  0  0  0  0  0  0  0  0  0  0  0  # atno 17371 bound_to 10713
  140.2672  134.3502  155.7386 LP  0  0  0  0  0  0  0  0  0  0  0  0  # atno 17394 bound_to 11000
  141.2191  133.7403  156.9169 LP  0  0  0  0  0  0  0  0  0  0  0  0  # atno 17395 bound_to 11000

$$$$
