#       Name:                AV-unprocessed.smi:2131
#       Creating user name   scv26
#       Creation time:       Fri Mar 27 11:44:16 2020


#       File generated by GOLD software.
#

@<TRIPOS>MOLECULE
AV-unprocessed.smi:2131
    46    48     1
SMALL
NO_CHARGES


@<TRIPOS>ATOM
      1 ****        -3.2851   6.9569   2.1074 N.1            1 S1                 0.0000
      2 ****        -3.1370   6.5523   1.0336 C.1            1 S1                 0.0000
      3 ****        -2.9486   6.0385  -0.3316 C.3            1 S1                 0.0000
      4 ****        -2.2107   4.7161  -0.3437 C.ar           1 S1                 0.0000
      5 ****        -2.9269   3.5048  -0.2879 C.ar           1 S1                 0.0000
      6 ****        -2.2383   2.2767  -0.2978 C.ar           1 S1                 0.0000
      7 ****        -0.8304   2.2379  -0.3654 C.ar           1 S1                 0.0000
      8 ****        -0.2391   0.9929  -0.3720 O.3            1 S1                 0.0000
      9 ****         1.1798   0.9208  -0.4265 C.3            1 S1                 0.0000
     10 ****         1.6040  -0.5548  -0.3960 C.3            1 S1                 0.0000
     11 ****         2.9912  -0.6307  -0.6593 O.3            1 S1                 0.0000
     12 ****         1.2922  -1.2281   0.9550 C.3            1 S1                 0.0000
     13 ****         1.6818  -2.6262   0.9816 N.pl3          1 S1                 0.0000
     14 ****         2.7494  -3.1625   1.6039 C.2            1 S1                 0.0000
     15 ****         2.9181  -4.4775   1.4993 N.2            1 S1                 0.0000
     16 ****         1.8310  -4.8378   0.7216 C.ar           1 S1                 0.0000
     17 ****         1.4235  -6.1042   0.2447 C.ar           1 S1                 0.0000
     18 ****         0.2623  -6.2300  -0.5460 C.ar           1 S1                 0.0000
     19 ****        -0.5093  -5.0949  -0.8698 C.ar           1 S1                 0.0000
     20 ****        -0.1244  -3.8228  -0.4045 C.ar           1 S1                 0.0000
     21 ****         1.0361  -3.7017   0.3822 C.ar           1 S1                 0.0000
     22 ****        -0.1158   3.4614  -0.4214 C.ar           1 S1                 0.0000
     23 ****        -0.8039   4.6904  -0.4087 C.ar           1 S1                 0.0000
     24 ****        -3.9281   5.9260  -0.7969 H              1 S1                 0.0000
     25 ****        -2.3954   6.7811  -0.9070 H              1 S1                 0.0000
     26 ****        -4.0059   3.5141  -0.2363 H              1 S1                 0.0000
     27 ****        -2.7973   1.3536  -0.2526 H              1 S1                 0.0000
     28 ****         1.5288   1.3840  -1.3512 H              1 S1                 0.0000
     29 ****         1.6287   1.4567   0.4118 H              1 S1                 0.0000
     30 ****         1.0905  -1.0865  -1.1980 H              1 S1                 0.0000
     31 ****         3.2380  -1.5421  -0.7014 H              1 S1                 0.0000
     32 ****         1.8006  -0.7070   1.7678 H              1 S1                 0.0000
     33 ****         0.2242  -1.1713   1.1687 H              1 S1                 0.0000
     34 ****         3.4440  -2.5523   2.1629 H              1 S1                 0.0000
     35 ****         2.0060  -6.9806   0.4874 H              1 S1                 0.0000
     36 ****        -0.0382  -7.2028  -0.9060 H              1 S1                 0.0000
     37 ****        -1.3969  -5.2016  -1.4761 H              1 S1                 0.0000
     38 ****        -0.7129  -2.9509  -0.6499 H              1 S1                 0.0000
     39 ****         0.9620   3.4852  -0.4744 H              1 S1                 0.0000
     40 ****        -0.2475   5.6153  -0.4490 H              1 S1                 0.0000
     41 ****        -3.4131   7.3066   3.0355 LP             1 S1                 0.0000
     42 ****        -0.5913   0.5021  -1.1689 LP             1 S1                 0.0000
     43 ****        -0.5275   0.5238   0.4627 LP             1 S1                 0.0000
     44 ****         3.4991  -0.1768   0.0729 LP             1 S1                 0.0000
     45 ****         3.1941  -0.1853  -1.5313 LP             1 S1                 0.0000
     46 ****         3.6401  -5.0541   1.8817 LP             1 S1                 0.0000
@<TRIPOS>BOND
    1    1    2 3     
    2    2    3 1     
    3    3    4 1     
    4    3   24 1     
    5    3   25 1     
    6    4   23 ar    
    7    4    5 ar    
    8    5    6 ar    
    9    5   26 1     
   10    6    7 ar    
   11    6   27 1     
   12    7    8 1     
   13    7   22 ar    
   14    8    9 1     
   15    9   10 1     
   16    9   28 1     
   17    9   29 1     
   18   10   11 1     
   19   10   12 1     
   20   10   30 1     
   21   11   31 1     
   22   12   13 1     
   23   12   32 1     
   24   12   33 1     
   25   13   21 1     
   26   13   14 1     
   27   14   15 2     
   28   14   34 1     
   29   15   16 1     
   30   16   21 ar    
   31   16   17 ar    
   32   17   18 ar    
   33   17   35 1     
   34   18   19 ar    
   35   18   36 1     
   36   19   20 ar    
   37   19   37 1     
   38   20   21 ar    
   39   20   38 1     
   40   22   23 ar    
   41   22   39 1     
   42   23   40 1     
   43    1   41 1     
   44    8   42 1     
   45    8   43 1     
   46   11   44 1     
   47   11   45 1     
   48   15   46 1     
@<TRIPOS>SUBSTRUCTURE
      1 S1             1
@<TRIPOS>SET
LONE_PAIRS      STATIC     ATOMS    <user>   **** ""
6 41 42 43 44 45 46
DONOR_HYDROGENS      STATIC     ATOMS    <user>   **** ""
1 31
ATOM$BLUE        STATIC     ATOMS    COLORGROUP SYSTEM
6 41 42 43 44 45 46
ATOM$RED        STATIC     ATOMS    COLORGROUP SYSTEM
1 31
