AV-unprocessed.smi:2124|AV-procd|sdf|8654|dock7
  -GOLD-   2272011403D 1   1.00000     0.00000
 Structure written by MMmdl.
 47 49  0  0  0  0  0  0  0  0  1 V2000
  151.0159  142.5369  156.4853 C   0  0  0  0  0  0  0  0  0  0  0  0
  150.2814  141.5161  155.6426 C   0  0  0  0  0  0  0  0  0  0  0  0
  150.7263  140.3269  155.4006 N   0  0  0  0  0  0  0  0  0  0  0  0
  149.9533  139.4662  154.6089 C   0  0  0  0  0  0  0  0  0  0  0  0
  150.5407  138.0847  154.3774 C   0  0  0  0  0  0  0  0  0  0  0  0
  148.7545  139.8587  154.0864 C   0  0  0  0  0  0  0  0  0  0  0  0
  147.8793  138.9488  153.2263 C   0  0  0  0  0  0  0  0  0  0  0  0
  146.7766  138.1860  153.9657 C   0  0  0  0  0  0  0  0  0  0  0  0
  145.8894  138.7927  154.5662 O   0  0  0  0  0  0  0  0  0  0  0  0
  146.8454  136.8475  153.9057 N   0  0  0  0  0  0  0  0  0  0  0  0
  145.8877  135.9170  154.5008 C   0  0  2  0  0  0  0  0  0  0  0  0
  146.5781  135.1591  155.6489 C   0  0  0  0  0  0  0  0  0  0  0  0
  145.3355  134.9759  153.4014 C   0  0  2  0  0  0  0  0  0  0  0  0
  146.4314  134.1405  152.6911 C   0  0  0  0  0  0  0  0  0  0  0  0
  146.1936  134.4349  151.1999 C   0  0  1  0  0  0  0  0  0  0  0  0
  144.8732  133.7852  150.7488 C   0  0  0  0  0  0  0  0  0  0  0  0
  143.8123  134.6758  151.4216 C   0  0  0  0  0  0  0  0  0  0  0  0
  144.6667  135.6941  152.2016 C   0  0  2  0  0  0  0  0  0  0  0  0
  145.8281  135.9123  151.2372 C   0  0  0  0  0  0  0  0  0  0  0  0
  148.2560  141.2182  154.3693 C   0  0  0  0  0  0  0  0  0  0  0  0
  147.1879  141.6679  153.9568 O   0  0  0  0  0  0  0  0  0  0  0  0
  149.0639  141.9765  155.1437 N   0  0  0  0  0  0  0  0  0  0  0  0
  148.7656  142.9142  155.3688 H   0  0  0  0  0  0  0  0  0  0  0  0
  151.1902  142.1406  157.4860 H   0  0  0  0  0  0  0  0  0  0  0  0
  150.4499  143.4647  156.5799 H   0  0  0  0  0  0  0  0  0  0  0  0
  151.9812  142.7699  156.0354 H   0  0  0  0  0  0  0  0  0  0  0  0
  150.8242  137.9633  153.3320 H   0  0  0  0  0  0  0  0  0  0  0  0
  149.8196  137.3086  154.6342 H   0  0  0  0  0  0  0  0  0  0  0  0
  151.4305  137.9256  154.9876 H   0  0  0  0  0  0  0  0  0  0  0  0
  147.4347  139.5296  152.4165 H   0  0  0  0  0  0  0  0  0  0  0  0
  148.5069  138.2121  152.7256 H   0  0  0  0  0  0  0  0  0  0  0  0
  147.6106  136.4390  153.3889 H   0  0  0  0  0  0  0  0  0  0  0  0
  145.0534  136.4835  154.9179 H   0  0  0  0  0  0  0  0  0  0  0  0
  145.8841  134.5125  156.1844 H   0  0  0  0  0  0  0  0  0  0  0  0
  146.9937  135.8519  156.3815 H   0  0  0  0  0  0  0  0  0  0  0  0
  147.3955  134.5387  155.2803 H   0  0  0  0  0  0  0  0  0  0  0  0
  144.6142  134.3033  153.8688 H   0  0  0  0  0  0  0  0  0  0  0  0
  147.4330  134.4692  152.9730 H   0  0  0  0  0  0  0  0  0  0  0  0
  146.3581  133.0774  152.9226 H   0  0  0  0  0  0  0  0  0  0  0  0
  147.0443  134.1860  150.5648 H   0  0  0  0  0  0  0  0  0  0  0  0
  144.7716  133.8208  149.6635 H   0  0  0  0  0  0  0  0  0  0  0  0
  144.7995  132.7421  151.0589 H   0  0  0  0  0  0  0  0  0  0  0  0
  143.2040  135.1791  150.6689 H   0  0  0  0  0  0  0  0  0  0  0  0
  143.1398  134.1104  152.0677 H   0  0  0  0  0  0  0  0  0  0  0  0
  144.1137  136.5969  152.4577 H   0  0  0  0  0  0  0  0  0  0  0  0
  146.6198  136.5453  151.6412 H   0  0  0  0  0  0  0  0  0  0  0  0
  145.5175  136.3057  150.2675 H   0  0  0  0  0  0  0  0  0  0  0  0
  1  2  1  0  0  0  0
  1 24  1  0  0  0  0
  1 25  1  0  0  0  0
  1 26  1  0  0  0  0
  2 22  1  0  0  0  0
  2  3  2  0  0  0  0
  3  4  1  0  0  0  0
  4  5  1  0  0  0  0
  4  6  2  0  0  0  0
  5 27  1  0  0  0  0
  5 28  1  0  0  0  0
  5 29  1  0  0  0  0
  6  7  1  0  0  0  0
  6 20  1  0  0  0  0
  7  8  1  0  0  0  0
  7 30  1  0  0  0  0
  7 31  1  0  0  0  0
  8  9  2  0  0  0  0
  8 10  1  0  0  0  0
 10 11  1  0  0  0  0
 10 32  1  0  0  0  0
 11 12  1  0  0  0  0
 11 13  1  0  0  0  0
 11 33  1  0  0  0  0
 12 34  1  0  0  0  0
 12 35  1  0  0  0  0
 12 36  1  0  0  0  0
 13 18  1  0  0  0  0
 13 14  1  0  0  0  0
 13 37  1  0  0  0  0
 14 15  1  0  0  0  0
 14 38  1  0  0  0  0
 14 39  1  0  0  0  0
 15 19  1  0  0  0  0
 15 16  1  0  0  0  0
 15 40  1  0  0  0  0
 16 17  1  0  0  0  0
 16 41  1  0  0  0  0
 16 42  1  0  0  0  0
 17 18  1  0  0  0  0
 17 43  1  0  0  0  0
 17 44  1  0  0  0  0
 18 19  1  0  0  0  0
 18 45  1  0  0  0  0
 19 46  1  0  0  0  0
 19 47  1  0  0  0  0
 20 21  2  0  0  0  0
 20 22  1  0  0  0  0
 22 23  1  0  0  0  0
M  END
> <s_m_source_file>
AV-unprocessed.smi

> <i_m_source_file_index>
2124

> <i_lp_mmshare_version>
43012

> <i_f3d_flags>
0

> <s_epik_input>
W0NIM11jMW5jKFtDSDNdKWMoYyg9TylbbkhdMSlbQ0gyXUMoPU8pW05IXVtDQEhdKFtDSDNdKVtDQEhdKFtDSDJdW0NASF0yMylbQ0BIXShbQ0gyXTMpW0NIMl1bQ0gyXTI=

> <s_epik_cmdline>
J2VwaWtfcHl0aG9uJywgJy1waCcsICc3LjAnLCAnLXRuJywgJzgnLCAnLW1hJywgJzIwMCcsICctbWV0YWxfYmluZGluZycsICctaW1hZScsICc8aW5maWxlLm1hZT4nLCAnLW9tYWUnLCAnPG91dGZpbGUubWFlPic=

> <r_lp_tautomer_probability>
0.839158

> <r_epik_Ionization_Penalty>
0.000383628

> <r_epik_Ionization_Penalty_Charging>
0.00035045

> <r_epik_Ionization_Penalty_Neutral>
3.31781e-05

> <r_epik_State_Penalty>
0.09125

> <r_epik_Charging_Adjusted_Penalty>
0.0916005

> <i_epik_Tot_Q>
0

> <i_epik_Tot_abs_Q>
0

> <r_epik_Metal_State_Penalty>
0.255229

> <b_epik_Metal_Only>
0

> <s_lp_Force_Field>
OPLS_2005

> <r_lp_Energy>
52.554

> <b_lp_Chiralities_Consistent>
1

> <s_lp_Variant>
AV-unprocessed.smi:2124-5

> <Gold.Version>
5.8.1

> <Gold.Id.Protein>
6NUR|6NUR_protein|mol2

> <Gold.PLP.Fitness>
38.5751

> <Gold.PLP.PLP>
-32.4583

> <Gold.PLP.part.hbond>
-3.0000

> <Gold.PLP.part.metal>
0.0000

> <Gold.PLP.part.buried>
-3.0556

> <Gold.PLP.part.nonpolar>
-27.0841

> <Gold.PLP.part.repulsive>
0.4470

> <Gold.PLP.ligand.clash>
0.0000

> <Gold.PLP.ligand.torsion>
0.3857

> <Gold.PLP.Chemscore.Hbond>
2.2876

> <Gold.PLP.Chemscore.CHOScore>
0.0000

> <Gold.PLP.Chemscore.Metal>
0.0000

> <Gold.Chemscore.Hbonds>
donor molecule, donor type, donor heavy atom, donor atom, acceptor molecule, acceptor atom, score
      L1  H    10    32       P1  7948  0.98
      L1  H    22    23       P1  8028  1.00
      P1  H  7989  7998       L1     3  0.09

> <Gold.PLP.Chemscore.Internal.Correction>
0.0253

> <Gold.Rescore>
     Score         DG    S(hbond)    S(metal)    S(lipo)     H(rot)  DE(clash)    DE(int)     intcor
     14.25     -16.37       2.00        0.00      72.25       1.65       0.71       1.41       ----

> <Gold.Chemscore.Fitness>
14.2539

> <Gold.Chemscore.DG>
-16.3687

> <Gold.Chemscore.ZeroCoef>
-5.4800

> <Gold.Chemscore.Hbond>
1.9966

> <Gold.Chemscore.Metal>
0.0000

> <Gold.Chemscore.Lipo>
72.2456

> <Gold.Chemscore.Internal_Hbond>
0.0000

> <Gold.Chemscore.DEClash>
0.7073

> <Gold.Chemscore.DEInternal>
1.4075

> <Gold.Chemscore.Rot>
1.6534

> <Gold.Chemscore.Internal.Correction>
   9.000000E+99

> <Gold.Chemscore.Hbonds>
donor molecule, donor type, donor heavy atom, donor atom, acceptor molecule, acceptor atom, score
      L1  H    10    32       P1  7948  0.90
      L1  H    22    23       P1  8028  0.99

> <Gold.Chemscore.Hbond.Weighted>
-6.6686

> <Gold.Chemscore.Metal.Weighted>
-0.0000

> <Gold.Chemscore.Lipo.Weighted>
-8.4527

> <Gold.Chemscore.Internal_Hbond.Weighted>
0.0000

> <Gold.Chemscore.DEClash.Weighted>
0.7073

> <Gold.Chemscore.DEInternal.Weighted>
1.4075

> <Gold.Chemscore.Rot.Weighted>
4.2326

> <Gold.Chemscore.Internal.Correction.Weighted>
   9.000000E+99

> <Gold.Protein.RotatedTorsions>
[ 6907 6896 6895 6894 ] final  -51.24 input  -60.11 | X-H torsion
[ 7974 7965 7964 7962 ] final  -74.58 input  175.53 | X-H torsion
[ 8008 7997 7996 7995 ] final  -29.79 input   59.86 | X-H torsion
[ 10167 10162 10161 10158 ] final -138.40 input  -65.29 | X-H torsion
[ 10718 10713 10712 10709 ] final   18.23 input   66.30 | X-H torsion
[ 10763 10752 10751 10750 ] final   -7.95 input  -60.55 | X-H torsion
[ 11005 11000 10999 10996 ] final  -36.20 input  -57.11 | X-H torsion

> <Gold.Protein.ActiveResidues>
 VAL166  LYS551  ARG553  GLY616  TRP617  ASP618  TYR619  PRO620  LYS621  CYS622 
 ASP623  PHE694  ASN695  SER759  ASP760  ASP761  ALA762  ILE779  LEU786  VAL792 
 PHE793  MET794  SER795  GLU796  ALA797  LYS798  CYS799  TRP800  GLU811  SER814 

> <Gold.Protein.RotatedAtoms>
  150.8631  134.7987  159.7097 H   0  0  0  0  0  0  0  0  0  0  0  0  # atno 6907 bound_to 6896
  152.4661  134.5068  159.9751 H   0  0  0  0  0  0  0  0  0  0  0  0  # atno 6908 bound_to 6896
  151.5169  133.3435  159.2930 H   0  0  0  0  0  0  0  0  0  0  0  0  # atno 6909 bound_to 6896
  145.6373  140.9321  143.1055 H   0  0  0  0  0  0  0  0  0  0  0  0  # atno 7974 bound_to 7965
  154.4275  140.1808  156.1304 H   0  0  0  0  0  0  0  0  0  0  0  0  # atno 8008 bound_to 7997
  156.0072  140.3354  155.6879 H   0  0  0  0  0  0  0  0  0  0  0  0  # atno 8009 bound_to 7997
  155.6161  140.0655  157.2682 H   0  0  0  0  0  0  0  0  0  0  0  0  # atno 8010 bound_to 7997
  139.8482  143.7233  152.2659 H   0  0  0  0  0  0  0  0  0  0  0  0  # atno 10167 bound_to 10162
  157.0933  130.6437  149.5854 H   0  0  0  0  0  0  0  0  0  0  0  0  # atno 10718 bound_to 10713
  153.4336  135.7012  153.6214 H   0  0  0  0  0  0  0  0  0  0  0  0  # atno 10763 bound_to 10752
  153.4619  135.3734  155.2343 H   0  0  0  0  0  0  0  0  0  0  0  0  # atno 10764 bound_to 10752
  154.8726  135.4022  154.3724 H   0  0  0  0  0  0  0  0  0  0  0  0  # atno 10765 bound_to 10752
  140.9856  133.7032  156.1759 H   0  0  0  0  0  0  0  0  0  0  0  0  # atno 11005 bound_to 11000
  144.7171  139.8159  143.7395 LP  0  0  0  0  0  0  0  0  0  0  0  0  # atno 17320 bound_to 7965
  146.1309  139.4344  143.0169 LP  0  0  0  0  0  0  0  0  0  0  0  0  # atno 17321 bound_to 7965
  139.7491  144.7539  151.0533 LP  0  0  0  0  0  0  0  0  0  0  0  0  # atno 17342 bound_to 10162
  140.7790  143.4881  150.9929 LP  0  0  0  0  0  0  0  0  0  0  0  0  # atno 17343 bound_to 10162
  155.9892  130.4939  150.7204 LP  0  0  0  0  0  0  0  0  0  0  0  0  # atno 17370 bound_to 10713
  157.4702  131.0892  151.0650 LP  0  0  0  0  0  0  0  0  0  0  0  0  # atno 17371 bound_to 10713
  140.7120  134.4451  157.5581 LP  0  0  0  0  0  0  0  0  0  0  0  0  # atno 17394 bound_to 11000
  139.8969  134.8649  156.2068 LP  0  0  0  0  0  0  0  0  0  0  0  0  # atno 17395 bound_to 11000

$$$$
