AV-unprocessed.smi:2868|AV-procd|sdf|11027|dock6
  -GOLD-   2272015493D 1   1.00000     0.00000
 Structure written by MMmdl.
 49 50  0  0  0  0  0  0  0  0  1 V2000
  146.6461  133.8670  162.4684 C   0  0  0  0  0  0  0  0  0  0  0  0
  146.8494  135.3304  162.0388 C   0  0  0  0  0  0  0  0  0  0  0  0
  145.4701  136.0108  161.9115 C   0  0  0  0  0  0  0  0  0  0  0  0
  147.7149  136.0469  163.0969 C   0  0  0  0  0  0  0  0  0  0  0  0
  147.5344  135.3014  160.7409 N   0  0  0  0  0  0  0  0  0  0  0  0
  147.9750  136.3339  159.9959 C   0  0  0  0  0  0  0  0  0  0  0  0
  147.8565  137.5072  160.3508 O   0  0  0  0  0  0  0  0  0  0  0  0
  148.5724  135.9728  158.8313 N   0  0  0  0  0  0  0  0  0  0  0  0
  148.4784  134.6603  158.1694 C   0  0  0  0  0  0  0  0  0  0  0  0
  147.5482  134.7871  156.9497 C   0  0  0  0  0  0  0  0  0  0  0  0
  148.0389  135.8852  155.9809 C   0  0  0  0  0  0  0  0  0  0  0  0
  147.0378  136.1023  154.9413 N   0  0  0  0  0  0  0  0  0  0  0  0
  146.6013  135.1722  154.0778 C   0  0  0  0  0  0  0  0  0  0  0  0
  147.0115  134.0119  154.0625 O   0  0  0  0  0  0  0  0  0  0  0  0
  145.5324  135.6174  153.0798 C   0  0  0  0  0  0  0  0  0  0  0  0
  145.3151  134.5435  152.0294 C   0  0  0  0  0  0  0  0  0  0  0  0
  144.0445  133.9617  151.8381 C   0  0  0  0  0  0  0  0  0  0  0  0
  143.8948  132.9677  150.8520 C   0  0  0  0  0  0  0  0  0  0  0  0
  145.0251  132.5972  150.0963 C   0  0  0  0  0  0  0  0  0  0  0  0
  146.2460  133.1475  150.2700 N   0  0  0  0  0  0  0  0  0  0  0  0
  146.3814  134.0993  151.2183 C   0  0  0  0  0  0  0  0  0  0  0  0
  148.3469  137.2032  156.7293 C   0  0  0  0  0  0  0  0  0  0  0  0
  149.2350  136.9522  157.9616 C   0  0  0  0  0  0  0  0  0  0  0  0
  146.1464  133.8025  163.4356 H   0  0  0  0  0  0  0  0  0  0  0  0
  147.5980  133.3416  162.5566 H   0  0  0  0  0  0  0  0  0  0  0  0
  146.0352  133.3213  161.7479 H   0  0  0  0  0  0  0  0  0  0  0  0
  144.8628  135.5362  161.1399 H   0  0  0  0  0  0  0  0  0  0  0  0
  145.5551  137.0680  161.6604 H   0  0  0  0  0  0  0  0  0  0  0  0
  144.9149  135.9501  162.8481 H   0  0  0  0  0  0  0  0  0  0  0  0
  147.2608  135.9796  164.0863 H   0  0  0  0  0  0  0  0  0  0  0  0
  147.8398  137.1068  162.8761 H   0  0  0  0  0  0  0  0  0  0  0  0
  148.7092  135.6040  163.1625 H   0  0  0  0  0  0  0  0  0  0  0  0
  147.6898  134.3804  160.3574 H   0  0  0  0  0  0  0  0  0  0  0  0
  149.4734  134.3518  157.8451 H   0  0  0  0  0  0  0  0  0  0  0  0
  148.1296  133.8587  158.8201 H   0  0  0  0  0  0  0  0  0  0  0  0
  147.4847  133.8310  156.4289 H   0  0  0  0  0  0  0  0  0  0  0  0
  146.5390  135.0188  157.2944 H   0  0  0  0  0  0  0  0  0  0  0  0
  148.9612  135.5284  155.5181 H   0  0  0  0  0  0  0  0  0  0  0  0
  146.6419  137.0288  154.8776 H   0  0  0  0  0  0  0  0  0  0  0  0
  144.5945  135.8297  153.5953 H   0  0  0  0  0  0  0  0  0  0  0  0
  145.8452  136.5463  152.6011 H   0  0  0  0  0  0  0  0  0  0  0  0
  143.1999  134.2687  152.4376 H   0  0  0  0  0  0  0  0  0  0  0  0
  142.9369  132.4998  150.6792 H   0  0  0  0  0  0  0  0  0  0  0  0
  144.9465  131.8386  149.3318 H   0  0  0  0  0  0  0  0  0  0  0  0
  147.3705  134.5174  151.3341 H   0  0  0  0  0  0  0  0  0  0  0  0
  148.8360  137.9125  156.0607 H   0  0  0  0  0  0  0  0  0  0  0  0
  147.4159  137.6733  157.0503 H   0  0  0  0  0  0  0  0  0  0  0  0
  149.4442  137.8952  158.4684 H   0  0  0  0  0  0  0  0  0  0  0  0
  150.2064  136.5650  157.6505 H   0  0  0  0  0  0  0  0  0  0  0  0
  1  2  1  0  0  0  0
  1 24  1  0  0  0  0
  1 25  1  0  0  0  0
  1 26  1  0  0  0  0
  2  3  1  0  0  0  0
  2  4  1  0  0  0  0
  2  5  1  0  0  0  0
  3 27  1  0  0  0  0
  3 28  1  0  0  0  0
  3 29  1  0  0  0  0
  4 30  1  0  0  0  0
  4 31  1  0  0  0  0
  4 32  1  0  0  0  0
  5  6  1  0  0  0  0
  5 33  1  0  0  0  0
  6  7  2  0  0  0  0
  6  8  1  0  0  0  0
  8 23  1  0  0  0  0
  8  9  1  0  0  0  0
  9 10  1  0  0  0  0
  9 34  1  0  0  0  0
  9 35  1  0  0  0  0
 10 11  1  0  0  0  0
 10 36  1  0  0  0  0
 10 37  1  0  0  0  0
 11 12  1  0  0  0  0
 11 22  1  0  0  0  0
 11 38  1  0  0  0  0
 12 13  1  0  0  0  0
 12 39  1  0  0  0  0
 13 14  2  0  0  0  0
 13 15  1  0  0  0  0
 15 16  1  0  0  0  0
 15 40  1  0  0  0  0
 15 41  1  0  0  0  0
 16 21  1  0  0  0  0
 16 17  2  0  0  0  0
 17 18  1  0  0  0  0
 17 42  1  0  0  0  0
 18 19  2  0  0  0  0
 18 43  1  0  0  0  0
 19 20  1  0  0  0  0
 19 44  1  0  0  0  0
 20 21  2  0  0  0  0
 21 45  1  0  0  0  0
 22 23  1  0  0  0  0
 22 46  1  0  0  0  0
 22 47  1  0  0  0  0
 23 48  1  0  0  0  0
 23 49  1  0  0  0  0
M  END
> <s_m_source_file>
AV-unprocessed.smi

> <i_m_source_file_index>
2868

> <i_lp_mmshare_version>
43012

> <i_f3d_flags>
0

> <s_epik_input>
W0NIM11DKFtDSDNdKShbQ0gzXSlbTkhdQyg9TylOMVtDSDJdW0NIMl1bQ0hdKFtDSDJdW0NIMl0xKVtOSF1DKD1PKVtDSDJdYzJbY0hdW2NIXVtjSF1uW2NIXTI=

> <s_epik_cmdline>
J2VwaWtfcHl0aG9uJywgJy1waCcsICc3LjAnLCAnLXRuJywgJzgnLCAnLW1hJywgJzIwMCcsICctbWV0YWxfYmluZGluZycsICctaW1hZScsICc8aW5maWxlLm1hZT4nLCAnLW9tYWUnLCAnPG91dGZpbGUubWFlPic=

> <r_epik_Ionization_Penalty>
0.00419782

> <r_epik_Ionization_Penalty_Charging>
0

> <r_epik_Ionization_Penalty_Neutral>
0.00419782

> <r_epik_State_Penalty>
0.0029617

> <r_epik_Charging_Adjusted_Penalty>
0.0029617

> <i_epik_Tot_Q>
0

> <i_epik_Tot_abs_Q>
0

> <r_epik_Metal_State_Penalty>
-0

> <b_epik_Metal_Only>
0

> <s_lp_Force_Field>
OPLS_2005

> <r_lp_Energy>
29.348

> <b_lp_Chiralities_Consistent>
1

> <s_lp_Variant>
AV-unprocessed.smi:2868-1

> <Gold.Version>
5.8.1

> <Gold.Id.Protein>
6NUR|6NUR_protein|mol2

> <Gold.PLP.Fitness>
39.5232

> <Gold.PLP.PLP>
-33.0923

> <Gold.PLP.part.hbond>
-2.0000

> <Gold.PLP.part.metal>
0.0000

> <Gold.PLP.part.buried>
-5.4932

> <Gold.PLP.part.nonpolar>
-26.2043

> <Gold.PLP.part.repulsive>
0.3470

> <Gold.PLP.ligand.clash>
0.0000

> <Gold.PLP.ligand.torsion>
0.1843

> <Gold.PLP.Chemscore.Hbond>
1.2811

> <Gold.PLP.Chemscore.CHOScore>
0.9616

> <Gold.PLP.Chemscore.Metal>
0.0000

> <Gold.Chemscore.Hbonds>
donor molecule, donor type, donor heavy atom, donor atom, acceptor molecule, acceptor atom, score
      P1  H  6931  6943       L1     7  0.51
      P1  H  6934  6947       L1     7  0.75
      L1  C    21    45       P1  7948  0.97

> <Gold.PLP.Chemscore.Internal.Correction>
0.0712

> <Gold.Rescore>
     Score         DG    S(hbond)    S(metal)    S(lipo)     H(rot)  DE(clash)    DE(int)     intcor
     12.85     -15.40       1.43        0.00      77.25       1.52       0.13       2.43       ----

> <Gold.Chemscore.Fitness>
12.8470

> <Gold.Chemscore.DG>
-15.4049

> <Gold.Chemscore.ZeroCoef>
-5.4800

> <Gold.Chemscore.Hbond>
1.4304

> <Gold.Chemscore.Metal>
0.0000

> <Gold.Chemscore.Lipo>
77.2458

> <Gold.Chemscore.Internal_Hbond>
0.0000

> <Gold.Chemscore.DEClash>
0.1317

> <Gold.Chemscore.DEInternal>
2.4261

> <Gold.Chemscore.Rot>
1.5197

> <Gold.Chemscore.Internal.Correction>
   9.000000E+99

> <Gold.Chemscore.Hbonds>
donor molecule, donor type, donor heavy atom, donor atom, acceptor molecule, acceptor atom, score
      P1  H  6931  6943       L1     7  0.49
      P1  H  6934  6947       L1     7  0.76

> <Gold.Chemscore.Hbond.Weighted>
-4.7775

> <Gold.Chemscore.Metal.Weighted>
-0.0000

> <Gold.Chemscore.Lipo.Weighted>
-9.0378

> <Gold.Chemscore.Internal_Hbond.Weighted>
0.0000

> <Gold.Chemscore.DEClash.Weighted>
0.1317

> <Gold.Chemscore.DEInternal.Weighted>
2.4261

> <Gold.Chemscore.Rot.Weighted>
3.8904

> <Gold.Chemscore.Internal.Correction.Weighted>
   9.000000E+99

> <Gold.Protein.RotatedTorsions>
[ 6907 6896 6895 6894 ] final  -41.37 input  -60.11 | X-H torsion
[ 7974 7965 7964 7962 ] final -140.40 input  175.53 | X-H torsion
[ 8008 7997 7996 7995 ] final   17.16 input   59.86 | X-H torsion
[ 10167 10162 10161 10158 ] final   59.47 input  -65.29 | X-H torsion
[ 10718 10713 10712 10709 ] final    8.12 input   66.30 | X-H torsion
[ 10763 10752 10751 10750 ] final  146.61 input  -60.55 | X-H torsion
[ 11005 11000 10999 10996 ] final   55.02 input  -57.11 | X-H torsion

> <Gold.Protein.ActiveResidues>
 VAL166  LYS551  ARG553  GLY616  TRP617  ASP618  TYR619  PRO620  LYS621  CYS622 
 ASP623  PHE694  ASN695  SER759  ASP760  ASP761  ALA762  ILE779  LEU786  VAL792 
 PHE793  MET794  SER795  GLU796  ALA797  LYS798  CYS799  TRP800  GLU811  SER814 

> <Gold.Protein.RotatedAtoms>
  150.9675  134.9053  159.7767 H   0  0  0  0  0  0  0  0  0  0  0  0  # atno 6907 bound_to 6896
  152.5178  134.3587  159.9287 H   0  0  0  0  0  0  0  0  0  0  0  0  # atno 6908 bound_to 6896
  151.3597  133.3853  159.2723 H   0  0  0  0  0  0  0  0  0  0  0  0  # atno 6909 bound_to 6896
  144.8600  140.6205  143.5334 H   0  0  0  0  0  0  0  0  0  0  0  0  # atno 7974 bound_to 7965
  154.8874  140.2982  155.5390 H   0  0  0  0  0  0  0  0  0  0  0  0  # atno 8008 bound_to 7997
  156.3021  140.2431  156.3819 H   0  0  0  0  0  0  0  0  0  0  0  0  # atno 8009 bound_to 7997
  154.8654  140.0403  157.1680 H   0  0  0  0  0  0  0  0  0  0  0  0  # atno 8010 bound_to 7997
  140.1761  144.4228  150.6637 H   0  0  0  0  0  0  0  0  0  0  0  0  # atno 10167 bound_to 10162
  156.9469  130.5882  149.5655 H   0  0  0  0  0  0  0  0  0  0  0  0  # atno 10718 bound_to 10713
  154.0247  135.2903  155.3376 H   0  0  0  0  0  0  0  0  0  0  0  0  # atno 10763 bound_to 10752
  154.7025  135.5183  153.8550 H   0  0  0  0  0  0  0  0  0  0  0  0  # atno 10764 bound_to 10752
  153.0666  135.6633  154.0465 H   0  0  0  0  0  0  0  0  0  0  0  0  # atno 10765 bound_to 10752
  140.0640  134.5563  155.9120 H   0  0  0  0  0  0  0  0  0  0  0  0  # atno 11005 bound_to 11000
  145.4330  139.1546  143.4012 LP  0  0  0  0  0  0  0  0  0  0  0  0  # atno 17320 bound_to 7965
  146.2853  140.4447  142.8760 LP  0  0  0  0  0  0  0  0  0  0  0  0  # atno 17321 bound_to 7965
  140.6550  143.2235  151.5989 LP  0  0  0  0  0  0  0  0  0  0  0  0  # atno 17342 bound_to 10162
  139.5316  144.2899  152.1161 LP  0  0  0  0  0  0  0  0  0  0  0  0  # atno 17343 bound_to 10162
  156.0380  130.5465  150.8700 LP  0  0  0  0  0  0  0  0  0  0  0  0  # atno 17370 bound_to 10713
  157.5748  131.0946  150.9363 LP  0  0  0  0  0  0  0  0  0  0  0  0  # atno 17371 bound_to 10713
  141.1985  133.6602  156.5795 LP  0  0  0  0  0  0  0  0  0  0  0  0  # atno 17394 bound_to 11000
  140.3727  134.7591  157.4609 LP  0  0  0  0  0  0  0  0  0  0  0  0  # atno 17395 bound_to 11000

$$$$
