AV-unprocessed.smi:2758|AV-procd|sdf|10622|dock5
  -GOLD-   2272015 73D 1   1.00000     0.00000
 Structure written by MMmdl.
 32 33  0  0  0  0  0  0  0  0  1 V2000
  145.9598  142.6806  154.7949 C   0  0  0  0  0  0  0  0  0  0  0  0
  147.2845  142.3317  154.4330 O   0  0  0  0  0  0  0  0  0  0  0  0
  147.8753  141.4225  155.3473 C   0  0  0  0  0  0  0  0  0  0  0  0
  149.2921  141.0718  154.8673 C   0  0  1  0  0  0  0  0  0  0  0  0
  149.3165  141.1540  153.4558 O   0  0  0  0  0  0  0  0  0  0  0  0
  150.3486  142.0334  155.4478 C   0  0  0  0  0  0  0  0  0  0  0  0
  151.2060  141.3950  156.4382 N   0  0  0  0  0  0  0  0  0  0  0  0
  151.8305  140.1933  156.3630 C   0  0  0  0  0  0  0  0  0  0  0  0
  151.7078  139.3095  155.1626 C   0  0  0  0  0  0  0  0  0  0  0  0
  152.5632  139.8512  157.4231 N   0  0  0  0  0  0  0  0  0  0  0  0
  152.4019  140.9345  158.2649 C   0  0  0  0  0  0  0  0  0  0  0  0
  152.9301  141.1843  159.5519 C   0  0  0  0  0  0  0  0  0  0  0  0
  152.6251  142.3838  160.2280 C   0  0  0  0  0  0  0  0  0  0  0  0
  151.7886  143.3482  159.6292 C   0  0  0  0  0  0  0  0  0  0  0  0
  151.2509  143.1189  158.3481 C   0  0  0  0  0  0  0  0  0  0  0  0
  151.5591  141.9202  157.6772 C   0  0  0  0  0  0  0  0  0  0  0  0
  149.5367  140.0513  155.1654 H   0  0  0  0  0  0  0  0  0  0  0  0
  145.5473  143.3686  154.0572 H   0  0  0  0  0  0  0  0  0  0  0  0
  145.9350  143.1754  155.7667 H   0  0  0  0  0  0  0  0  0  0  0  0
  145.3149  141.8019  154.8327 H   0  0  0  0  0  0  0  0  0  0  0  0
  147.8929  141.8291  156.3603 H   0  0  0  0  0  0  0  0  0  0  0  0
  147.2622  140.5200  155.3727 H   0  0  0  0  0  0  0  0  0  0  0  0
  149.6424  140.3344  153.1159 H   0  0  0  0  0  0  0  0  0  0  0  0
  150.9595  142.4560  154.6500 H   0  0  0  0  0  0  0  0  0  0  0  0
  149.8557  142.8787  155.9298 H   0  0  0  0  0  0  0  0  0  0  0  0
  152.2251  138.3640  155.3290 H   0  0  0  0  0  0  0  0  0  0  0  0
  152.1511  139.7939  154.2924 H   0  0  0  0  0  0  0  0  0  0  0  0
  150.6601  139.0940  154.9538 H   0  0  0  0  0  0  0  0  0  0  0  0
  153.5725  140.4522  160.0182 H   0  0  0  0  0  0  0  0  0  0  0  0
  153.0355  142.5649  161.2109 H   0  0  0  0  0  0  0  0  0  0  0  0
  151.5605  144.2645  160.1540 H   0  0  0  0  0  0  0  0  0  0  0  0
  150.6101  143.8551  157.8862 H   0  0  0  0  0  0  0  0  0  0  0  0
  1  2  1  0  0  0  0
  1 18  1  0  0  0  0
  1 19  1  0  0  0  0
  1 20  1  0  0  0  0
  2  3  1  0  0  0  0
  3  4  1  0  0  0  0
  3 21  1  0  0  0  0
  3 22  1  0  0  0  0
  4 17  1  0  0  0  0
  4  5  1  0  0  0  0
  4  6  1  0  0  0  0
  5 23  1  0  0  0  0
  6  7  1  0  0  0  0
  6 24  1  0  0  0  0
  6 25  1  0  0  0  0
  7 16  1  0  0  0  0
  7  8  1  0  0  0  0
  8  9  1  0  0  0  0
  8 10  2  0  0  0  0
  9 26  1  0  0  0  0
  9 27  1  0  0  0  0
  9 28  1  0  0  0  0
 10 11  1  0  0  0  0
 11 16  2  0  0  0  0
 11 12  1  0  0  0  0
 12 13  2  0  0  0  0
 12 29  1  0  0  0  0
 13 14  1  0  0  0  0
 13 30  1  0  0  0  0
 14 15  2  0  0  0  0
 14 31  1  0  0  0  0
 15 16  1  0  0  0  0
 15 32  1  0  0  0  0
M  END
> <s_m_source_file>
AV-unprocessed.smi

> <i_m_source_file_index>
2758

> <i_lp_mmshare_version>
43012

> <i_f3d_flags>
0

> <s_epik_input>
W0NIM11PW0NIMl1bQ0BASF0oW09IXSlbQ0gyXW4oYyhuMSlbQ0gzXSljKGMxMilbY0hdW2NIXVtjSF1bY0hdMg==

> <s_epik_cmdline>
J2VwaWtfcHl0aG9uJywgJy1waCcsICc3LjAnLCAnLXRuJywgJzgnLCAnLW1hJywgJzIwMCcsICctbWV0YWxfYmluZGluZycsICctaW1hZScsICc8aW5maWxlLm1hZT4nLCAnLW9tYWUnLCAnPG91dGZpbGUubWFlPic=

> <r_epik_Ionization_Penalty>
0.126985

> <r_epik_Ionization_Penalty_Charging>
0

> <r_epik_Ionization_Penalty_Neutral>
0.126985

> <r_epik_State_Penalty>
0.116428

> <r_epik_Charging_Adjusted_Penalty>
0.116428

> <i_epik_Tot_Q>
0

> <i_epik_Tot_abs_Q>
0

> <r_epik_Metal_State_Penalty>
0.000128642

> <b_epik_Metal_Only>
0

> <s_lp_Force_Field>
OPLS_2005

> <r_lp_Energy>
8.80871

> <b_lp_Chiralities_Consistent>
1

> <s_lp_Variant>
AV-unprocessed.smi:2758-1

> <Gold.Version>
5.8.1

> <Gold.Id.Protein>
6NUR|6NUR_protein|mol2

> <Gold.PLP.Fitness>
39.8819

> <Gold.PLP.PLP>
-35.3947

> <Gold.PLP.part.hbond>
-4.0000

> <Gold.PLP.part.metal>
0.0000

> <Gold.PLP.part.buried>
-3.3385

> <Gold.PLP.part.nonpolar>
-27.6594

> <Gold.PLP.part.repulsive>
0.2825

> <Gold.PLP.ligand.clash>
0.0000

> <Gold.PLP.ligand.torsion>
1.2389

> <Gold.PLP.Chemscore.Hbond>
2.3200

> <Gold.PLP.Chemscore.CHOScore>
0.0000

> <Gold.PLP.Chemscore.Metal>
0.0000

> <Gold.Chemscore.Hbonds>
donor molecule, donor type, donor heavy atom, donor atom, acceptor molecule, acceptor atom, score
      L1  H     5    23       P1  7957  0.37
      P1  H  7997  8009       L1    10  1.00
      P1  H  8011  8017       L1     5  1.00

> <Gold.PLP.Chemscore.Internal.Correction>
0.0050

> <Gold.Rescore>
     Score         DG    S(hbond)    S(metal)    S(lipo)     H(rot)  DE(clash)    DE(int)     intcor
     13.54     -16.07       1.68        0.00      87.43       2.05       0.58       1.95       ----

> <Gold.Chemscore.Fitness>
13.5424

> <Gold.Chemscore.DG>
-16.0676

> <Gold.Chemscore.ZeroCoef>
-5.4800

> <Gold.Chemscore.Hbond>
1.6794

> <Gold.Chemscore.Metal>
0.0000

> <Gold.Chemscore.Lipo>
87.4334

> <Gold.Chemscore.Internal_Hbond>
0.0000

> <Gold.Chemscore.DEClash>
0.5753

> <Gold.Chemscore.DEInternal>
1.9498

> <Gold.Chemscore.Rot>
2.0513

> <Gold.Chemscore.Internal.Correction>
   9.000000E+99

> <Gold.Chemscore.Hbonds>
donor molecule, donor type, donor heavy atom, donor atom, acceptor molecule, acceptor atom, score
      L1  H     5    23       P1  7957  0.35
      P1  H  7997  8009       L1    10  0.12
      P1  H  8011  8017       L1     5  0.58

> <Gold.Chemscore.Hbond.Weighted>
-5.6093

> <Gold.Chemscore.Metal.Weighted>
-0.0000

> <Gold.Chemscore.Lipo.Weighted>
-10.2297

> <Gold.Chemscore.Internal_Hbond.Weighted>
0.0000

> <Gold.Chemscore.DEClash.Weighted>
0.5753

> <Gold.Chemscore.DEInternal.Weighted>
1.9498

> <Gold.Chemscore.Rot.Weighted>
5.2514

> <Gold.Chemscore.Internal.Correction.Weighted>
   9.000000E+99

> <Gold.Protein.RotatedTorsions>
[ 6907 6896 6895 6894 ] final -173.97 input  -60.11 | X-H torsion
[ 7974 7965 7964 7962 ] final  144.44 input  175.53 | X-H torsion
[ 8008 7997 7996 7995 ] final  175.34 input   59.86 | X-H torsion
[ 10167 10162 10161 10158 ] final   98.73 input  -65.29 | X-H torsion
[ 10718 10713 10712 10709 ] final  134.67 input   66.30 | X-H torsion
[ 10763 10752 10751 10750 ] final    0.67 input  -60.55 | X-H torsion
[ 11005 11000 10999 10996 ] final  171.77 input  -57.11 | X-H torsion

> <Gold.Protein.ActiveResidues>
 VAL166  LYS551  ARG553  GLY616  TRP617  ASP618  TYR619  PRO620  LYS621  CYS622 
 ASP623  PHE694  ASN695  SER759  ASP760  ASP761  ALA762  ILE779  LEU786  VAL792 
 PHE793  MET794  SER795  GLU796  ALA797  LYS798  CYS799  TRP800  GLU811  SER814 

> <Gold.Protein.RotatedAtoms>
  151.5648  133.3398  159.2977 H   0  0  0  0  0  0  0  0  0  0  0  0  # atno 6907 bound_to 6896
  150.8402  134.7693  159.6937 H   0  0  0  0  0  0  0  0  0  0  0  0  # atno 6908 bound_to 6896
  152.4471  134.5479  159.9910 H   0  0  0  0  0  0  0  0  0  0  0  0  # atno 6909 bound_to 6896
  144.8836  139.5662  143.5831 H   0  0  0  0  0  0  0  0  0  0  0  0  # atno 7974 bound_to 7965
  156.0881  140.1411  156.9628 H   0  0  0  0  0  0  0  0  0  0  0  0  # atno 8008 bound_to 7997
  154.4625  140.0938  156.6979 H   0  0  0  0  0  0  0  0  0  0  0  0  # atno 8009 bound_to 7997
  155.4966  140.3449  155.4366 H   0  0  0  0  0  0  0  0  0  0  0  0  # atno 8010 bound_to 7997
  139.7682  144.6931  151.0194 H   0  0  0  0  0  0  0  0  0  0  0  0  # atno 10167 bound_to 10162
  157.4649  131.1076  150.9874 H   0  0  0  0  0  0  0  0  0  0  0  0  # atno 10718 bound_to 10713
  153.3177  135.6967  153.7058 H   0  0  0  0  0  0  0  0  0  0  0  0  # atno 10763 bound_to 10752
  153.5911  135.3480  155.2911 H   0  0  0  0  0  0  0  0  0  0  0  0  # atno 10764 bound_to 10752
  154.8590  135.4318  154.2333 H   0  0  0  0  0  0  0  0  0  0  0  0  # atno 10765 bound_to 10752
  140.3225  134.7425  157.4075 H   0  0  0  0  0  0  0  0  0  0  0  0  # atno 11005 bound_to 11000
  146.3010  139.7427  142.9091 LP  0  0  0  0  0  0  0  0  0  0  0  0  # atno 17320 bound_to 7965
  145.3910  141.0372  143.3124 LP  0  0  0  0  0  0  0  0  0  0  0  0  # atno 17321 bound_to 7965
  140.7812  143.4619  151.0266 LP  0  0  0  0  0  0  0  0  0  0  0  0  # atno 17342 bound_to 10162
  139.8303  143.7700  152.3179 LP  0  0  0  0  0  0  0  0  0  0  0  0  # atno 17343 bound_to 10162
  157.0659  130.5844  149.5394 LP  0  0  0  0  0  0  0  0  0  0  0  0  # atno 17370 bound_to 10713
  156.0046  130.5130  150.7784 LP  0  0  0  0  0  0  0  0  0  0  0  0  # atno 17371 bound_to 10713
  140.0929  134.5576  155.8426 LP  0  0  0  0  0  0  0  0  0  0  0  0  # atno 17394 bound_to 11000
  141.2083  133.6672  156.6362 LP  0  0  0  0  0  0  0  0  0  0  0  0  # atno 17395 bound_to 11000

$$$$
