AV-unprocessed.smi:2501|AV-procd|sdf|9843|dock6
  -GOLD-   2272013473D 1   1.00000     0.00000
 Structure written by MMmdl.
 43 44  0  0  0  0  0  0  0  0  1 V2000
  151.6996  144.4684  159.2286 C   0  0  0  0  0  0  0  0  0  0  0  0
  152.1863  143.0305  159.2652 C   0  0  0  0  0  0  0  0  0  0  0  0
  153.1160  142.6309  160.2501 C   0  0  0  0  0  0  0  0  0  0  0  0
  153.5993  141.3752  160.3566 N   0  0  0  0  0  0  0  0  0  0  0  0
  153.1664  140.4565  159.4689 C   0  0  0  0  0  0  0  0  0  0  0  0
  152.2415  140.7451  158.4468 C   0  0  0  0  0  0  0  0  0  0  0  0
  151.7360  142.0576  158.3382 C   0  0  0  0  0  0  0  0  0  0  0  0
  150.7375  142.3839  157.2387 C   0  0  0  0  0  0  0  0  0  0  0  0
  150.5542  141.2208  156.2538 C   0  0  0  0  0  0  0  0  0  0  0  0
  149.1445  141.0415  155.9333 N   0  0  0  0  0  0  0  0  0  0  0  0
  148.5516  141.4661  154.8057 C   0  0  0  0  0  0  0  0  0  0  0  0
  149.1762  142.0521  153.9204 O   0  0  0  0  0  0  0  0  0  0  0  0
  147.2238  141.1961  154.7244 N   0  0  0  0  0  0  0  0  0  0  0  0
  146.4548  140.3055  155.6089 C   0  0  0  0  0  0  0  0  0  0  0  0
  145.5748  141.1651  156.5366 C   0  0  0  0  0  0  0  0  0  0  0  0
  144.6534  142.1319  155.7474 C   0  0  0  0  0  0  0  0  0  0  0  0
  143.6588  141.3520  155.1063 O   0  0  0  0  0  0  0  0  0  0  0  0
  143.9205  143.1172  156.6894 C   0  0  0  0  0  0  0  0  0  0  0  0
  143.2057  143.9889  155.9770 F   0  0  0  0  0  0  0  0  0  0  0  0
  143.0889  142.4636  157.5019 F   0  0  0  0  0  0  0  0  0  0  0  0
  144.7982  143.8026  157.4240 F   0  0  0  0  0  0  0  0  0  0  0  0
  145.4489  142.8780  154.6450 C   0  0  0  0  0  0  0  0  0  0  0  0
  146.3344  141.9277  153.8155 C   0  0  0  0  0  0  0  0  0  0  0  0
  152.2333  145.0836  159.9536 H   0  0  0  0  0  0  0  0  0  0  0  0
  150.6367  144.5165  159.4663 H   0  0  0  0  0  0  0  0  0  0  0  0
  151.8559  144.9074  158.2435 H   0  0  0  0  0  0  0  0  0  0  0  0
  153.4846  143.3391  160.9776 H   0  0  0  0  0  0  0  0  0  0  0  0
  153.5695  139.4603  159.5755 H   0  0  0  0  0  0  0  0  0  0  0  0
  151.9292  139.9713  157.7608 H   0  0  0  0  0  0  0  0  0  0  0  0
  149.7790  142.6287  157.6988 H   0  0  0  0  0  0  0  0  0  0  0  0
  151.0488  143.2843  156.7089 H   0  0  0  0  0  0  0  0  0  0  0  0
  151.1240  141.4108  155.3431 H   0  0  0  0  0  0  0  0  0  0  0  0
  150.9389  140.2958  156.6851 H   0  0  0  0  0  0  0  0  0  0  0  0
  148.5757  140.5643  156.6174 H   0  0  0  0  0  0  0  0  0  0  0  0
  145.8297  139.6506  155.0002 H   0  0  0  0  0  0  0  0  0  0  0  0
  147.0717  139.6328  156.2046 H   0  0  0  0  0  0  0  0  0  0  0  0
  144.9824  140.5207  157.1872 H   0  0  0  0  0  0  0  0  0  0  0  0
  146.2273  141.7400  157.1948 H   0  0  0  0  0  0  0  0  0  0  0  0
  143.9768  141.1068  154.2507 H   0  0  0  0  0  0  0  0  0  0  0  0
  144.7691  143.4200  153.9863 H   0  0  0  0  0  0  0  0  0  0  0  0
  146.0882  143.6322  155.1054 H   0  0  0  0  0  0  0  0  0  0  0  0
  146.8781  142.4946  153.0585 H   0  0  0  0  0  0  0  0  0  0  0  0
  145.7169  141.2195  153.2613 H   0  0  0  0  0  0  0  0  0  0  0  0
  1  2  1  0  0  0  0
  1 24  1  0  0  0  0
  1 25  1  0  0  0  0
  1 26  1  0  0  0  0
  2  7  1  0  0  0  0
  2  3  2  0  0  0  0
  3  4  1  0  0  0  0
  3 27  1  0  0  0  0
  4  5  2  0  0  0  0
  5  6  1  0  0  0  0
  5 28  1  0  0  0  0
  6  7  2  0  0  0  0
  6 29  1  0  0  0  0
  7  8  1  0  0  0  0
  8  9  1  0  0  0  0
  8 30  1  0  0  0  0
  8 31  1  0  0  0  0
  9 10  1  0  0  0  0
  9 32  1  0  0  0  0
  9 33  1  0  0  0  0
 10 11  1  0  0  0  0
 10 34  1  0  0  0  0
 11 12  2  0  0  0  0
 11 13  1  0  0  0  0
 13 23  1  0  0  0  0
 13 14  1  0  0  0  0
 14 15  1  0  0  0  0
 14 35  1  0  0  0  0
 14 36  1  0  0  0  0
 15 16  1  0  0  0  0
 15 37  1  0  0  0  0
 15 38  1  0  0  0  0
 16 17  1  0  0  0  0
 16 18  1  0  0  0  0
 16 22  1  0  0  0  0
 17 39  1  0  0  0  0
 18 19  1  0  0  0  0
 18 20  1  0  0  0  0
 18 21  1  0  0  0  0
 22 23  1  0  0  0  0
 22 40  1  0  0  0  0
 22 41  1  0  0  0  0
 23 42  1  0  0  0  0
 23 43  1  0  0  0  0
M  END
> <s_m_source_file>
AV-unprocessed.smi

> <i_m_source_file_index>
2501

> <i_lp_mmshare_version>
43012

> <i_f3d_flags>
0

> <s_epik_input>
W0NIM11jMVtjSF1uW2NIXVtjSF1jMVtDSDJdW0NIMl1bTkhdQyg9TylOKFtDSDJdW0NIMl0yKVtDSDJdW0NIMl1DMihbT0hdKUMoRikoRilG

> <s_epik_cmdline>
J2VwaWtfcHl0aG9uJywgJy1waCcsICc3LjAnLCAnLXRuJywgJzgnLCAnLW1hJywgJzIwMCcsICctbWV0YWxfYmluZGluZycsICctaW1hZScsICc8aW5maWxlLm1hZT4nLCAnLW9tYWUnLCAnPG91dGZpbGUubWFlPic=

> <r_epik_Ionization_Penalty>
0.105852

> <r_epik_Ionization_Penalty_Charging>
0

> <r_epik_Ionization_Penalty_Neutral>
0.105852

> <r_epik_State_Penalty>
0.0956543

> <r_epik_Charging_Adjusted_Penalty>
0.0956543

> <i_epik_Tot_Q>
0

> <i_epik_Tot_abs_Q>
0

> <r_epik_Metal_State_Penalty>
0.0810448

> <b_epik_Metal_Only>
0

> <s_lp_Force_Field>
OPLS_2005

> <r_lp_Energy>
37.1862

> <b_lp_Chiralities_Consistent>
1

> <s_lp_Variant>
AV-unprocessed.smi:2501-1

> <Gold.Version>
5.8.1

> <Gold.Id.Protein>
6NUR|6NUR_protein|mol2

> <Gold.PLP.Fitness>
46.2054

> <Gold.PLP.PLP>
-42.7812

> <Gold.PLP.part.hbond>
-3.8182

> <Gold.PLP.part.metal>
0.0000

> <Gold.PLP.part.buried>
-4.1733

> <Gold.PLP.part.nonpolar>
-35.6540

> <Gold.PLP.part.repulsive>
0.2647

> <Gold.PLP.ligand.clash>
0.0000

> <Gold.PLP.ligand.torsion>
0.7086

> <Gold.PLP.Chemscore.Hbond>
1.5920

> <Gold.PLP.Chemscore.CHOScore>
0.0000

> <Gold.PLP.Chemscore.Metal>
0.0000

> <Gold.Chemscore.Hbonds>
donor molecule, donor type, donor heavy atom, donor atom, acceptor molecule, acceptor atom, score
      L1  H    17    39       P1 10175  0.99
      P1  H  8011  8017       L1    12  0.40

> <Gold.PLP.Chemscore.Internal.Correction>
0.0654

> <Gold.Rescore>
     Score         DG    S(hbond)    S(metal)    S(lipo)     H(rot)  DE(clash)    DE(int)     intcor
     16.65     -17.17       1.49        0.00      99.93       1.95       0.05       0.48       ----

> <Gold.Chemscore.Fitness>
16.6459

> <Gold.Chemscore.DG>
-17.1706

> <Gold.Chemscore.ZeroCoef>
-5.4800

> <Gold.Chemscore.Hbond>
1.4937

> <Gold.Chemscore.Metal>
0.0000

> <Gold.Chemscore.Lipo>
99.9336

> <Gold.Chemscore.Internal_Hbond>
0.0000

> <Gold.Chemscore.DEClash>
0.0456

> <Gold.Chemscore.DEInternal>
0.4791

> <Gold.Chemscore.Rot>
1.9495

> <Gold.Chemscore.Internal.Correction>
   9.000000E+99

> <Gold.Chemscore.Hbonds>
donor molecule, donor type, donor heavy atom, donor atom, acceptor molecule, acceptor atom, score
      L1  H    17    39       P1 10175  0.70
      P1  H  8011  8017       L1    12  0.40

> <Gold.Chemscore.Hbond.Weighted>
-4.9890

> <Gold.Chemscore.Metal.Weighted>
-0.0000

> <Gold.Chemscore.Lipo.Weighted>
-11.6922

> <Gold.Chemscore.Internal_Hbond.Weighted>
0.0000

> <Gold.Chemscore.DEClash.Weighted>
0.0456

> <Gold.Chemscore.DEInternal.Weighted>
0.4791

> <Gold.Chemscore.Rot.Weighted>
4.9907

> <Gold.Chemscore.Internal.Correction.Weighted>
   9.000000E+99

> <Gold.Protein.RotatedTorsions>
[ 6907 6896 6895 6894 ] final  134.42 input  -60.11 | X-H torsion
[ 7974 7965 7964 7962 ] final  -84.50 input  175.53 | X-H torsion
[ 8008 7997 7996 7995 ] final  -21.85 input   59.86 | X-H torsion
[ 10167 10162 10161 10158 ] final  -59.49 input  -65.29 | X-H torsion
[ 10718 10713 10712 10709 ] final    5.85 input   66.30 | X-H torsion
[ 10763 10752 10751 10750 ] final  110.20 input  -60.55 | X-H torsion
[ 11005 11000 10999 10996 ] final  107.54 input  -57.11 | X-H torsion

> <Gold.Protein.ActiveResidues>
 VAL166  LYS551  ARG553  GLY616  TRP617  ASP618  TYR619  PRO620  LYS621  CYS622 
 ASP623  PHE694  ASN695  SER759  ASP760  ASP761  ALA762  ILE779  LEU786  VAL792 
 PHE793  MET794  SER795  GLU796  ALA797  LYS798  CYS799  TRP800  GLU811  SER814 

> <Gold.Protein.RotatedAtoms>
  152.3114  133.5757  159.5683 H   0  0  0  0  0  0  0  0  0  0  0  0  # atno 6907 bound_to 6896
  150.7325  134.0146  159.3690 H   0  0  0  0  0  0  0  0  0  0  0  0  # atno 6908 bound_to 6896
  151.8039  135.0701  160.0455 H   0  0  0  0  0  0  0  0  0  0  0  0  # atno 6909 bound_to 6896
  145.5058  140.9544  143.1734 H   0  0  0  0  0  0  0  0  0  0  0  0  # atno 7974 bound_to 7965
  154.4680  140.2024  156.0068 H   0  0  0  0  0  0  0  0  0  0  0  0  # atno 8008 bound_to 7997
  156.0961  140.3251  155.7851 H   0  0  0  0  0  0  0  0  0  0  0  0  # atno 8009 bound_to 7997
  155.4875  140.0543  157.2949 H   0  0  0  0  0  0  0  0  0  0  0  0  # atno 8010 bound_to 7997
  140.6132  143.2394  151.5660 H   0  0  0  0  0  0  0  0  0  0  0  0  # atno 10167 bound_to 10162
  156.9135  130.5765  149.5647 H   0  0  0  0  0  0  0  0  0  0  0  0  # atno 10718 bound_to 10713
  153.4455  135.3756  155.2253 H   0  0  0  0  0  0  0  0  0  0  0  0  # atno 10763 bound_to 10752
  154.8755  135.3873  154.4101 H   0  0  0  0  0  0  0  0  0  0  0  0  # atno 10764 bound_to 10752
  153.4653  135.7087  153.6089 H   0  0  0  0  0  0  0  0  0  0  0  0  # atno 10765 bound_to 10752
  139.8830  134.9404  156.5835 H   0  0  0  0  0  0  0  0  0  0  0  0  # atno 11005 bound_to 11000
  144.7755  139.6640  143.7177 LP  0  0  0  0  0  0  0  0  0  0  0  0  # atno 17320 bound_to 7965
  146.2198  139.5614  142.9626 LP  0  0  0  0  0  0  0  0  0  0  0  0  # atno 17321 bound_to 7965
  139.5377  144.2734  152.1287 LP  0  0  0  0  0  0  0  0  0  0  0  0  # atno 17342 bound_to 10162
  140.1937  144.4726  150.6466 LP  0  0  0  0  0  0  0  0  0  0  0  0  # atno 17343 bound_to 10162
  156.0524  130.5591  150.9019 LP  0  0  0  0  0  0  0  0  0  0  0  0  # atno 17370 bound_to 10713
  157.5952  131.0943  150.9052 LP  0  0  0  0  0  0  0  0  0  0  0  0  # atno 17371 bound_to 10713
  140.8009  133.8506  155.8726 LP  0  0  0  0  0  0  0  0  0  0  0  0  # atno 17394 bound_to 11000
  140.9593  134.1676  157.4666 LP  0  0  0  0  0  0  0  0  0  0  0  0  # atno 17395 bound_to 11000

$$$$
