#       Name:                AV-unprocessed.smi:1254
#       Creating user name   scv26
#       Creation time:       Fri Mar 27 04:38:27 2020


#       File generated by GOLD software.
#

@<TRIPOS>MOLECULE
AV-unprocessed.smi:1254
    53    54     1
SMALL
NO_CHARGES


@<TRIPOS>ATOM
      1 ****        -4.0287   5.3145   3.1916 C.3            1 S1                 0.0000
      2 ****        -3.4949   3.9561   2.8889 C.2            1 S1                 0.0000
      3 ****        -3.6176   3.1286   1.8081 C.2            1 S1                 0.0000
      4 ****        -2.8618   1.9885   2.1910 C.2            1 S1                 0.0000
      5 ****        -2.7406   0.8704   1.3267 N.am           1 S1                 0.0000
      6 ****        -2.0784  -0.2755   1.5600 C.2            1 S1                 0.0000
      7 ****        -1.4417  -0.5332   2.5818 O.2            1 S1                 0.0000
      8 ****        -2.1887  -1.1227   0.5267 N.am           1 S1                 0.0000
      9 ****        -1.5975  -2.4566   0.4695 C.3            1 S1                 0.0000
     10 ****        -0.0656  -2.4296   0.2981 C.3            1 S1                 0.0000
     11 ****         0.3927  -1.6895  -0.9769 C.3            1 S1                 0.0000
     12 ****         1.8681  -1.7621  -1.1177 N.4            1 S1                 1.0000
     13 ****         2.3965  -1.0274  -2.2957 C.3            1 S1                 0.0000
     14 ****         2.3685   0.5077  -2.1253 C.3            1 S1                 0.0000
     15 ****         2.8398   1.1997  -3.4130 C.3            1 S1                 0.0000
     16 ****         3.2143   0.9708  -0.9270 C.3            1 S1                 0.0000
     17 ****         2.3197  -3.1731  -1.0851 C.3            1 S1                 0.0000
     18 ****         1.8032  -3.8727   0.1822 C.3            1 S1                 0.0000
     19 ****         0.3853  -3.7782   0.2329 O.3            1 S1                 0.0000
     20 ****        -2.3225   2.1108   3.3943 N.2            1 S1                 0.0000
     21 ****        -2.7270   3.3716   3.8485 O.3            1 S1                 0.0000
     22 ****        -4.2099   5.8742   2.2738 H              1 S1                 0.0000
     23 ****        -3.3253   5.8834   3.8004 H              1 S1                 0.0000
     24 ****        -4.9699   5.2452   3.7371 H              1 S1                 0.0000
     25 ****        -4.1635   3.3116   0.8944 H              1 S1                 0.0000
     26 ****        -3.2197   0.9478   0.4419 H              1 S1                 0.0000
     27 ****        -2.7350  -0.8326  -0.2712 H              1 S1                 0.0000
     28 ****        -1.8645  -3.0105   1.3711 H              1 S1                 0.0000
     29 ****        -2.0536  -2.9904  -0.3648 H              1 S1                 0.0000
     30 ****         0.3814  -1.9556   1.1738 H              1 S1                 0.0000
     31 ****        -0.0820  -2.1258  -1.8573 H              1 S1                 0.0000
     32 ****         0.0752  -0.6493  -0.9252 H              1 S1                 0.0000
     33 ****         3.4295  -1.3318  -2.4721 H              1 S1                 0.0000
     34 ****         1.8364  -1.3252  -3.1835 H              1 S1                 0.0000
     35 ****         1.3420   0.8319  -1.9570 H              1 S1                 0.0000
     36 ****         3.8716   0.9374  -3.6500 H              1 S1                 0.0000
     37 ****         2.7862   2.2848  -3.3197 H              1 S1                 0.0000
     38 ****         2.2202   0.9139  -4.2638 H              1 S1                 0.0000
     39 ****         4.2566   0.6691  -1.0363 H              1 S1                 0.0000
     40 ****         2.8431   0.5544   0.0098 H              1 S1                 0.0000
     41 ****         3.1923   2.0566  -0.8283 H              1 S1                 0.0000
     42 ****         1.9594  -3.6933  -1.9741 H              1 S1                 0.0000
     43 ****         3.4093  -3.2163  -1.1071 H              1 S1                 0.0000
     44 ****         2.0873  -4.9252   0.1722 H              1 S1                 0.0000
     45 ****         2.2432  -3.4327   1.0785 H              1 S1                 0.0000
     46 ****         2.2653  -1.3195  -0.3011 H              1 S1                 0.0000
     47 ****        -1.3891   0.1384   3.3208 LP             1 S1                 0.0000
     48 ****        -0.9771  -1.4141   2.6726 LP             1 S1                 0.0000
     49 ****         0.0053  -4.2048  -0.5879 LP             1 S1                 0.0000
     50 ****         0.0596  -4.2655   1.0431 LP             1 S1                 0.0000
     51 ****        -1.7501   1.4462   3.8746 LP             1 S1                 0.0000
     52 ****        -3.2582   3.2716   4.6898 LP             1 S1                 0.0000
     53 ****        -1.9229   3.9386   4.0275 LP             1 S1                 0.0000
@<TRIPOS>BOND
    1    1    2 1     
    2    1   22 1     
    3    1   23 1     
    4    1   24 1     
    5    2   21 1     
    6    2    3 2     
    7    3    4 1     
    8    3   25 1     
    9    4    5 1     
   10    4   20 2     
   11    5    6 am    
   12    5   26 1     
   13    6    7 2     
   14    6    8 am    
   15    8    9 1     
   16    8   27 1     
   17    9   10 1     
   18    9   28 1     
   19    9   29 1     
   20   10   19 1     
   21   10   11 1     
   22   10   30 1     
   23   11   12 1     
   24   11   31 1     
   25   11   32 1     
   26   12   13 1     
   27   12   17 1     
   28   12   46 1     
   29   13   14 1     
   30   13   33 1     
   31   13   34 1     
   32   14   15 1     
   33   14   16 1     
   34   14   35 1     
   35   15   36 1     
   36   15   37 1     
   37   15   38 1     
   38   16   39 1     
   39   16   40 1     
   40   16   41 1     
   41   17   18 1     
   42   17   42 1     
   43   17   43 1     
   44   18   19 1     
   45   18   44 1     
   46   18   45 1     
   47   20   21 1     
   48    7   47 1     
   49    7   48 1     
   50   19   49 1     
   51   19   50 1     
   52   20   51 1     
   53   21   52 1     
   54   21   53 1     
@<TRIPOS>SUBSTRUCTURE
      1 S1             1
@<TRIPOS>SET
LONE_PAIRS      STATIC     ATOMS    <user>   **** ""
7 47 48 49 50 51 52 53
DONOR_HYDROGENS      STATIC     ATOMS    <user>   **** ""
3 26 27 46
ATOM$BLUE        STATIC     ATOMS    COLORGROUP SYSTEM
7 47 48 49 50 51 52 53
ATOM$RED        STATIC     ATOMS    COLORGROUP SYSTEM
3 26 27 46
