AV-unprocessed.smi:1243|AV-procd|sdf|5219|dock3
  -GOLD-   22720 4313D 1   1.00000     0.00000
 Structure written by MMmdl.
 51 52  0  0  0  0  0  0  0  0  2 V2000
  141.3530  129.0699  157.6423 C   0  0  0  0  0  0  0  0  0  0  0  0
  141.8207  130.4140  157.6108 O   0  0  0  0  0  0  0  0  0  0  0  0
  142.6721  130.8399  158.6124 C   0  0  0  0  0  0  0  0  0  0  0  0
  143.0081  129.9621  159.5908 N   0  0  0  0  0  0  0  0  0  0  0  0
  143.8411  130.3759  160.5677 C   0  0  0  0  0  0  0  0  0  0  0  0
  144.3845  131.6725  160.6186 C   0  0  0  0  0  0  0  0  0  0  0  0
  144.0383  132.5848  159.6049 C   0  0  0  0  0  0  0  0  0  0  0  0
  143.1532  132.1697  158.5805 C   0  0  0  0  0  0  0  0  0  0  0  0
  142.7559  133.0038  157.4995 N   0  0  0  0  0  0  0  0  0  0  0  0
  143.5028  133.8719  156.7975 C   0  0  0  0  0  0  0  0  0  0  0  0
  144.6949  134.1074  156.9940 O   0  0  0  0  0  0  0  0  0  0  0  0
  142.7768  134.4757  155.8457 N   0  0  0  0  0  0  0  0  0  0  0  0
  143.2661  135.4990  154.9224 C   0  0  0  0  0  0  0  0  0  0  0  0
  143.0224  135.1532  153.4218 C   0  0  0  0  0  0  0  0  0  0  0  0
  141.5139  134.9139  153.1585 C   0  0  0  0  0  0  0  0  0  0  0  0
  143.4251  136.3591  152.5364 C   0  0  0  0  0  0  0  0  0  0  0  0
  143.8054  133.9329  153.0069 N   0  3  0  0  0  0  0  0  0  0  0  0
  145.2503  133.9301  153.3764 C   0  0  0  0  0  0  0  0  0  0  0  0
  145.8827  132.5494  153.1023 C   0  0  0  0  0  0  0  0  0  0  0  0
  145.7382  132.1394  151.7061 N   0  0  0  0  0  0  0  0  0  0  0  0
  146.5813  132.9027  150.7923 C   0  0  0  0  0  0  0  0  0  0  0  0
  144.3238  132.1508  151.3351 C   0  0  0  0  0  0  0  0  0  0  0  0
  143.6654  133.5247  151.5794 C   0  0  0  0  0  0  0  0  0  0  0  0
  140.6924  128.8985  156.7924 H   0  0  0  0  0  0  0  0  0  0  0  0
  140.7832  128.8678  158.5506 H   0  0  0  0  0  0  0  0  0  0  0  0
  142.1762  128.3578  157.5697 H   0  0  0  0  0  0  0  0  0  0  0  0
  144.0871  129.6493  161.3278 H   0  0  0  0  0  0  0  0  0  0  0  0
  145.0556  131.9596  161.4146 H   0  0  0  0  0  0  0  0  0  0  0  0
  144.4679  133.5744  159.6242 H   0  0  0  0  0  0  0  0  0  0  0  0
  141.7696  132.9872  157.2844 H   0  0  0  0  0  0  0  0  0  0  0  0
  141.8041  134.2186  155.7621 H   0  0  0  0  0  0  0  0  0  0  0  0
  142.7467  136.4180  155.1910 H   0  0  0  0  0  0  0  0  0  0  0  0
  144.3222  135.6894  155.1144 H   0  0  0  0  0  0  0  0  0  0  0  0
  140.9373  135.8364  153.2333 H   0  0  0  0  0  0  0  0  0  0  0  0
  141.0723  134.2242  153.8777 H   0  0  0  0  0  0  0  0  0  0  0  0
  141.3423  134.5139  152.1584 H   0  0  0  0  0  0  0  0  0  0  0  0
  142.7452  137.2016  152.6684 H   0  0  0  0  0  0  0  0  0  0  0  0
  143.4079  136.0986  151.4772 H   0  0  0  0  0  0  0  0  0  0  0  0
  144.4195  136.7359  152.7741 H   0  0  0  0  0  0  0  0  0  0  0  0
  145.7890  134.7098  152.8390 H   0  0  0  0  0  0  0  0  0  0  0  0
  145.3854  134.1351  154.4362 H   0  0  0  0  0  0  0  0  0  0  0  0
  146.9390  132.5544  153.3738 H   0  0  0  0  0  0  0  0  0  0  0  0
  145.4063  131.7993  153.7350 H   0  0  0  0  0  0  0  0  0  0  0  0
  146.4808  132.5182  149.7768 H   0  0  0  0  0  0  0  0  0  0  0  0
  147.6292  132.8070  151.0783 H   0  0  0  0  0  0  0  0  0  0  0  0
  146.3327  133.9631  150.7766 H   0  0  0  0  0  0  0  0  0  0  0  0
  144.2186  131.8600  150.2891 H   0  0  0  0  0  0  0  0  0  0  0  0
  143.8054  131.3893  151.9194 H   0  0  0  0  0  0  0  0  0  0  0  0
  142.6183  133.4303  151.2999 H   0  0  0  0  0  0  0  0  0  0  0  0
  144.0973  134.2750  150.9179 H   0  0  0  0  0  0  0  0  0  0  0  0
  143.3988  133.1759  153.5376 H   0  0  0  0  0  0  0  0  0  0  0  0
  1  2  1  0  0  0  0
  1 24  1  0  0  0  0
  1 25  1  0  0  0  0
  1 26  1  0  0  0  0
  2  3  1  0  0  0  0
  3  8  1  0  0  0  0
  3  4  2  0  0  0  0
  4  5  1  0  0  0  0
  5  6  2  0  0  0  0
  5 27  1  0  0  0  0
  6  7  1  0  0  0  0
  6 28  1  0  0  0  0
  7  8  2  0  0  0  0
  7 29  1  0  0  0  0
  8  9  1  0  0  0  0
  9 10  1  0  0  0  0
  9 30  1  0  0  0  0
 10 11  2  0  0  0  0
 10 12  1  0  0  0  0
 12 13  1  0  0  0  0
 12 31  1  0  0  0  0
 13 14  1  0  0  0  0
 13 32  1  0  0  0  0
 13 33  1  0  0  0  0
 14 15  1  0  0  0  0
 14 16  1  0  0  0  0
 14 17  1  0  0  0  0
 15 34  1  0  0  0  0
 15 35  1  0  0  0  0
 15 36  1  0  0  0  0
 16 37  1  0  0  0  0
 16 38  1  0  0  0  0
 16 39  1  0  0  0  0
 17 23  1  0  0  0  0
 17 18  1  0  0  0  0
 17 51  1  0  0  0  0
 18 19  1  0  0  0  0
 18 40  1  0  0  0  0
 18 41  1  0  0  0  0
 19 20  1  0  0  0  0
 19 42  1  0  0  0  0
 19 43  1  0  0  0  0
 20 21  1  0  0  0  0
 20 22  1  0  0  0  0
 21 44  1  0  0  0  0
 21 45  1  0  0  0  0
 21 46  1  0  0  0  0
 22 23  1  0  0  0  0
 22 47  1  0  0  0  0
 22 48  1  0  0  0  0
 23 49  1  0  0  0  0
 23 50  1  0  0  0  0
M  CHG  1  17   1
M  END
> <s_m_source_file>
AV-unprocessed.smi

> <i_m_source_file_index>
1243

> <i_lp_mmshare_version>
43012

> <i_f3d_flags>
0

> <s_epik_input>
W0NIM11PYzFuW2NIXVtjSF1bY0hdYzFbTkhdQyg9TylbTkhdW0NIMl1DKFtDSDNdKShbQ0gzXSlOMltDSDJdW0NIMl1OKFtDSDNdKVtDSDJdW0NIMl0y

> <s_epik_cmdline>
J2VwaWtfcHl0aG9uJywgJy1waCcsICc3LjAnLCAnLXRuJywgJzgnLCAnLW1hJywgJzIwMCcsICctbWV0YWxfYmluZGluZycsICctaW1hZScsICc8aW5maWxlLm1hZT4nLCAnLW9tYWUnLCAnPG91dGZpbGUubWFlPic=

> <r_epik_Ionization_Penalty>
0.0907124

> <r_epik_Ionization_Penalty_Charging>
0.0886444

> <r_epik_Ionization_Penalty_Neutral>
0.00206798

> <r_epik_State_Penalty>
1.00524

> <r_epik_Charging_Adjusted_Penalty>
1.09388

> <i_epik_Tot_Q>
1

> <i_epik_Tot_abs_Q>
1

> <r_epik_Metal_State_Penalty>
1.00525

> <b_epik_Metal_Only>
0

> <s_lp_Force_Field>
OPLS_2005

> <r_lp_Energy>
29.8833

> <b_lp_Chiralities_Consistent>
1

> <s_lp_Variant>
AV-unprocessed.smi:1243-2

> <Gold.Version>
5.8.1

> <Gold.Id.Protein>
6NUR|6NUR_protein|mol2

> <Gold.PLP.Fitness>
41.8546

> <Gold.PLP.PLP>
-30.7897

> <Gold.PLP.part.hbond>
-4.8122

> <Gold.PLP.part.metal>
0.0000

> <Gold.PLP.part.buried>
-5.6264

> <Gold.PLP.part.nonpolar>
-21.5163

> <Gold.PLP.part.repulsive>
0.4807

> <Gold.PLP.ligand.clash>
0.0000

> <Gold.PLP.ligand.torsion>
0.4432

> <Gold.PLP.Chemscore.Hbond>
3.9440

> <Gold.PLP.Chemscore.CHOScore>
0.0000

> <Gold.PLP.Chemscore.Metal>
0.0000

> <Gold.Chemscore.Hbonds>
donor molecule, donor type, donor heavy atom, donor atom, acceptor molecule, acceptor atom, score
      L1  H     9    30       P1 11000  0.59
      L1  H    12    31       P1 11000  0.83
      L1  H    17    51       P1 10957  2.00

> <Gold.PLP.Chemscore.Internal.Correction>
0.1193

> <Gold.Rescore>
     Score         DG    S(hbond)    S(metal)    S(lipo)     H(rot)  DE(clash)    DE(int)     intcor
     13.96     -15.34       1.87        0.00      68.49       1.72       0.04       1.34       ----

> <Gold.Chemscore.Fitness>
13.9617

> <Gold.Chemscore.DG>
-15.3386

> <Gold.Chemscore.ZeroCoef>
-5.4800

> <Gold.Chemscore.Hbond>
1.8718

> <Gold.Chemscore.Metal>
0.0000

> <Gold.Chemscore.Lipo>
68.4889

> <Gold.Chemscore.Internal_Hbond>
0.0000

> <Gold.Chemscore.DEClash>
0.0406

> <Gold.Chemscore.DEInternal>
1.3363

> <Gold.Chemscore.Rot>
1.7213

> <Gold.Chemscore.Internal.Correction>
   9.000000E+99

> <Gold.Chemscore.Hbonds>
donor molecule, donor type, donor heavy atom, donor atom, acceptor molecule, acceptor atom, score
      L1  H     9    30       P1 11000  0.06
      L1  H    12    31       P1 11000  0.46
      L1  H    17    51       P1 10957  0.90

> <Gold.Chemscore.Hbond.Weighted>
-6.2519

> <Gold.Chemscore.Metal.Weighted>
-0.0000

> <Gold.Chemscore.Lipo.Weighted>
-8.0132

> <Gold.Chemscore.Internal_Hbond.Weighted>
0.0000

> <Gold.Chemscore.DEClash.Weighted>
0.0406

> <Gold.Chemscore.DEInternal.Weighted>
1.3363

> <Gold.Chemscore.Rot.Weighted>
4.4066

> <Gold.Chemscore.Internal.Correction.Weighted>
   9.000000E+99

> <Gold.Protein.RotatedTorsions>
[ 6907 6896 6895 6894 ] final   69.40 input  -60.11 | X-H torsion
[ 7974 7965 7964 7962 ] final   60.46 input  175.53 | X-H torsion
[ 8008 7997 7996 7995 ] final -158.03 input   59.86 | X-H torsion
[ 10167 10162 10161 10158 ] final  120.31 input  -65.29 | X-H torsion
[ 10718 10713 10712 10709 ] final -150.26 input   66.30 | X-H torsion
[ 10763 10752 10751 10750 ] final    1.64 input  -60.55 | X-H torsion
[ 11005 11000 10999 10996 ] final  111.35 input  -57.11 | X-H torsion

> <Gold.Protein.ActiveResidues>
 VAL166  LYS551  ARG553  GLY616  TRP617  ASP618  TYR619  PRO620  LYS621  CYS622 
 ASP623  PHE694  ASN695  SER759  ASP760  ASP761  ALA762  ILE779  LEU786  VAL792 
 PHE793  MET794  SER795  GLU796  ALA797  LYS798  CYS799  TRP800  GLU811  SER814 

> <Gold.Protein.RotatedAtoms>
  152.4684  134.5020  159.9727 H   0  0  0  0  0  0  0  0  0  0  0  0  # atno 6907 bound_to 6896
  151.5053  133.3490  159.2883 H   0  0  0  0  0  0  0  0  0  0  0  0  # atno 6908 bound_to 6896
  150.8680  134.8076  159.7195 H   0  0  0  0  0  0  0  0  0  0  0  0  # atno 6909 bound_to 6896
  145.8958  139.3544  143.0622 H   0  0  0  0  0  0  0  0  0  0  0  0  # atno 7974 bound_to 7965
  155.7414  140.0814  157.2244 H   0  0  0  0  0  0  0  0  0  0  0  0  # atno 8008 bound_to 7997
  154.4021  140.1577  156.2675 H   0  0  0  0  0  0  0  0  0  0  0  0  # atno 8009 bound_to 7997
  155.9017  140.3409  155.6034 H   0  0  0  0  0  0  0  0  0  0  0  0  # atno 8010 bound_to 7997
  139.5990  144.7051  151.3107 H   0  0  0  0  0  0  0  0  0  0  0  0  # atno 10167 bound_to 10162
  156.4438  130.8135  151.2365 H   0  0  0  0  0  0  0  0  0  0  0  0  # atno 10718 bound_to 10713
  153.3055  135.6959  153.7163 H   0  0  0  0  0  0  0  0  0  0  0  0  # atno 10763 bound_to 10752
  153.6061  135.3453  155.2963 H   0  0  0  0  0  0  0  0  0  0  0  0  # atno 10764 bound_to 10752
  154.8562  135.4352  154.2178 H   0  0  0  0  0  0  0  0  0  0  0  0  # atno 10765 bound_to 10752
  139.8902  134.9506  156.6419 H   0  0  0  0  0  0  0  0  0  0  0  0  # atno 11005 bound_to 11000
  145.8852  140.9338  143.0580 LP  0  0  0  0  0  0  0  0  0  0  0  0  # atno 17320 bound_to 7965
  144.6733  140.0833  143.7468 LP  0  0  0  0  0  0  0  0  0  0  0  0  # atno 17321 bound_to 7965
  140.7235  143.7070  150.7800 LP  0  0  0  0  0  0  0  0  0  0  0  0  # atno 17342 bound_to 10162
  140.0642  143.5125  152.2612 LP  0  0  0  0  0  0  0  0  0  0  0  0  # atno 17343 bound_to 10162
  157.7505  131.0160  150.3526 LP  0  0  0  0  0  0  0  0  0  0  0  0  # atno 17370 bound_to 10713
  156.3889  130.3894  149.7045 LP  0  0  0  0  0  0  0  0  0  0  0  0  # atno 17371 bound_to 10713
  140.7587  133.8836  155.8401 LP  0  0  0  0  0  0  0  0  0  0  0  0  # atno 17394 bound_to 11000
  140.9940  134.1240  157.4381 LP  0  0  0  0  0  0  0  0  0  0  0  0  # atno 17395 bound_to 11000

$$$$
