AV-unprocessed.smi:2530|AV-procd|sdf|9963|dock3
  -GOLD-   2272014 03D 1   1.00000     0.00000
 Structure written by MMmdl.
 44 46  0  0  0  0  0  0  0  0  1 V2000
  151.6923  145.5308  159.4401 C   0  0  0  0  0  0  0  0  0  0  0  0
  151.9688  144.0417  159.4628 C   0  0  0  0  0  0  0  0  0  0  0  0
  152.7063  143.4744  160.5185 C   0  0  0  0  0  0  0  0  0  0  0  0
  152.9637  142.0918  160.5319 C   0  0  0  0  0  0  0  0  0  0  0  0
  152.4837  141.2603  159.4973 C   0  0  0  0  0  0  0  0  0  0  0  0
  152.8055  139.7766  159.5522 C   0  0  0  0  0  0  0  0  0  0  0  0
  151.7253  141.8232  158.4364 C   0  0  0  0  0  0  0  0  0  0  0  0
  151.1832  140.9677  157.2907 C   0  0  1  0  0  0  0  0  0  0  0  0
  150.3007  139.9669  157.7626 O   0  0  0  0  0  0  0  0  0  0  0  0
  150.4333  141.8414  156.2602 C   0  0  0  0  0  0  0  0  0  0  0  0
  149.5015  141.0612  155.4276 N   0  0  0  0  0  0  0  0  0  0  0  0
  148.1576  141.4825  155.4299 C   0  0  0  0  0  0  0  0  0  0  0  0
  147.2504  140.8742  154.7340 N   0  0  0  0  0  0  0  0  0  0  0  0
  147.5984  139.7646  153.9552 C   0  0  0  0  0  0  0  0  0  0  0  0
  146.4862  139.0727  153.1790 C   0  0  0  0  0  0  0  0  0  0  0  0
  146.3494  137.5561  153.3960 C   0  0  0  0  0  0  0  0  0  0  0  0
  146.0404  137.4345  151.8998 C   0  0  0  0  0  0  0  0  0  0  0  0
  146.7895  138.7576  151.7049 C   0  0  0  0  0  0  0  0  0  0  0  0
  148.8760  139.3161  153.9280 C   0  0  0  0  0  0  0  0  0  0  0  0
  149.9227  139.9861  154.6998 C   0  0  0  0  0  0  0  0  0  0  0  0
  151.0936  139.6069  154.6947 O   0  0  0  0  0  0  0  0  0  0  0  0
  151.4837  143.2168  158.4292 C   0  0  0  0  0  0  0  0  0  0  0  0
  152.4691  146.0800  159.9730 H   0  0  0  0  0  0  0  0  0  0  0  0
  150.7341  145.7417  159.9150 H   0  0  0  0  0  0  0  0  0  0  0  0
  151.6580  145.9032  158.4158 H   0  0  0  0  0  0  0  0  0  0  0  0
  153.0801  144.0970  161.3184 H   0  0  0  0  0  0  0  0  0  0  0  0
  153.5373  141.6714  161.3449 H   0  0  0  0  0  0  0  0  0  0  0  0
  151.8946  139.1901  159.6730 H   0  0  0  0  0  0  0  0  0  0  0  0
  153.4648  139.5433  160.3888 H   0  0  0  0  0  0  0  0  0  0  0  0
  153.3091  139.4609  158.6389 H   0  0  0  0  0  0  0  0  0  0  0  0
  152.0036  140.4411  156.8061 H   0  0  0  0  0  0  0  0  0  0  0  0
  150.6606  139.6029  158.5572 H   0  0  0  0  0  0  0  0  0  0  0  0
  149.9366  142.6752  156.7609 H   0  0  0  0  0  0  0  0  0  0  0  0
  151.1607  142.3173  155.5998 H   0  0  0  0  0  0  0  0  0  0  0  0
  147.9382  142.3480  156.0576 H   0  0  0  0  0  0  0  0  0  0  0  0
  145.5307  139.5871  153.2968 H   0  0  0  0  0  0  0  0  0  0  0  0
  147.2865  137.0649  153.6653 H   0  0  0  0  0  0  0  0  0  0  0  0
  145.5342  137.2611  154.0571 H   0  0  0  0  0  0  0  0  0  0  0  0
  146.4947  136.5745  151.4070 H   0  0  0  0  0  0  0  0  0  0  0  0
  144.9748  137.5137  151.6786 H   0  0  0  0  0  0  0  0  0  0  0  0
  146.3323  139.4407  150.9885 H   0  0  0  0  0  0  0  0  0  0  0  0
  147.8514  138.6081  151.5006 H   0  0  0  0  0  0  0  0  0  0  0  0
  149.1349  138.4539  153.3308 H   0  0  0  0  0  0  0  0  0  0  0  0
  150.9210  143.6623  157.6215 H   0  0  0  0  0  0  0  0  0  0  0  0
  1  2  1  0  0  0  0
  1 23  1  0  0  0  0
  1 24  1  0  0  0  0
  1 25  1  0  0  0  0
  2 22  1  0  0  0  0
  2  3  2  0  0  0  0
  3  4  1  0  0  0  0
  3 26  1  0  0  0  0
  4  5  2  0  0  0  0
  4 27  1  0  0  0  0
  5  6  1  0  0  0  0
  5  7  1  0  0  0  0
  6 28  1  0  0  0  0
  6 29  1  0  0  0  0
  6 30  1  0  0  0  0
  7  8  1  0  0  0  0
  7 22  2  0  0  0  0
  8  9  1  0  0  0  0
  8 10  1  0  0  0  0
  8 31  1  0  0  0  0
  9 32  1  0  0  0  0
 10 11  1  0  0  0  0
 10 33  1  0  0  0  0
 10 34  1  0  0  0  0
 11 20  1  0  0  0  0
 11 12  1  0  0  0  0
 12 13  2  0  0  0  0
 12 35  1  0  0  0  0
 13 14  1  0  0  0  0
 14 15  1  0  0  0  0
 14 19  2  0  0  0  0
 15 18  1  0  0  0  0
 15 16  1  0  0  0  0
 15 36  1  0  0  0  0
 16 17  1  0  0  0  0
 16 37  1  0  0  0  0
 16 38  1  0  0  0  0
 17 18  1  0  0  0  0
 17 39  1  0  0  0  0
 17 40  1  0  0  0  0
 18 41  1  0  0  0  0
 18 42  1  0  0  0  0
 19 20  1  0  0  0  0
 19 43  1  0  0  0  0
 20 21  2  0  0  0  0
 22 44  1  0  0  0  0
M  END
> <s_m_source_file>
AV-unprocessed.smi

> <i_m_source_file_index>
2530

> <i_lp_mmshare_version>
43012

> <i_f3d_flags>
0

> <s_epik_input>
W0NIM11jMVtjSF1bY0hdYyhbQ0gzXSljKFtjSF0xKVtDQEhdKFtPSF0pW0NIMl1uMltjSF1uYyhbY0hdYzI9TylbQ0hdM1tDSDJdW0NIMl1bQ0gyXTM=

> <s_epik_cmdline>
J2VwaWtfcHl0aG9uJywgJy1waCcsICc3LjAnLCAnLXRuJywgJzgnLCAnLW1hJywgJzIwMCcsICctbWV0YWxfYmluZGluZycsICctaW1hZScsICc8aW5maWxlLm1hZT4nLCAnLW9tYWUnLCAnPG91dGZpbGUubWFlPic=

> <r_lp_tautomer_probability>
1

> <r_epik_Ionization_Penalty>
2.57341e-05

> <r_epik_Ionization_Penalty_Charging>
5.39435e-08

> <r_epik_Ionization_Penalty_Neutral>
2.56801e-05

> <r_epik_State_Penalty>
-0

> <r_epik_Charging_Adjusted_Penalty>
5.39435e-08

> <i_epik_Tot_Q>
0

> <i_epik_Tot_abs_Q>
0

> <r_epik_Metal_State_Penalty>
-0

> <b_epik_Metal_Only>
0

> <s_lp_Force_Field>
OPLS_2005

> <r_lp_Energy>
28.9103

> <b_lp_Chiralities_Consistent>
1

> <s_lp_Variant>
AV-unprocessed.smi:2530-2

> <Gold.Version>
5.8.1

> <Gold.Id.Protein>
6NUR|6NUR_protein|mol2

> <Gold.PLP.Fitness>
51.8454

> <Gold.PLP.PLP>
-47.4868

> <Gold.PLP.part.hbond>
-1.0000

> <Gold.PLP.part.metal>
0.0000

> <Gold.PLP.part.buried>
0.2300

> <Gold.PLP.part.nonpolar>
-47.3750

> <Gold.PLP.part.repulsive>
0.1921

> <Gold.PLP.ligand.clash>
0.0000

> <Gold.PLP.ligand.torsion>
0.4310

> <Gold.PLP.Chemscore.Hbond>
0.6500

> <Gold.PLP.Chemscore.CHOScore>
0.9589

> <Gold.PLP.Chemscore.Metal>
0.0000

> <Gold.Chemscore.Hbonds>
donor molecule, donor type, donor heavy atom, donor atom, acceptor molecule, acceptor atom, score
      P1  H  7989  7998       L1    21  0.70
      L1  C    12    35       P1  8028  0.81

> <Gold.PLP.Chemscore.Internal.Correction>
0.3937

> <Gold.Rescore>
     Score         DG    S(hbond)    S(metal)    S(lipo)     H(rot)  DE(clash)    DE(int)     intcor
     16.78     -18.11       0.90        0.00     125.39       1.97       0.02       1.31       ----

> <Gold.Chemscore.Fitness>
16.7770

> <Gold.Chemscore.DG>
-18.1064

> <Gold.Chemscore.ZeroCoef>
-5.4800

> <Gold.Chemscore.Hbond>
0.8965

> <Gold.Chemscore.Metal>
0.0000

> <Gold.Chemscore.Lipo>
125.3944

> <Gold.Chemscore.Internal_Hbond>
0.0000

> <Gold.Chemscore.DEClash>
0.0200

> <Gold.Chemscore.DEInternal>
1.3095

> <Gold.Chemscore.Rot>
1.9684

> <Gold.Chemscore.Internal.Correction>
   9.000000E+99

> <Gold.Chemscore.Hbonds>
donor molecule, donor type, donor heavy atom, donor atom, acceptor molecule, acceptor atom, score
      P1  H  7989  7998       L1    21  0.07

> <Gold.Chemscore.Hbond.Weighted>
-2.9944

> <Gold.Chemscore.Metal.Weighted>
-0.0000

> <Gold.Chemscore.Lipo.Weighted>
-14.6711

> <Gold.Chemscore.Internal_Hbond.Weighted>
0.0000

> <Gold.Chemscore.DEClash.Weighted>
0.0200

> <Gold.Chemscore.DEInternal.Weighted>
1.3095

> <Gold.Chemscore.Rot.Weighted>
5.0391

> <Gold.Chemscore.Internal.Correction.Weighted>
   9.000000E+99

> <Gold.Protein.RotatedTorsions>
[ 6907 6896 6895 6894 ] final -178.83 input  -60.11 | X-H torsion
[ 7974 7965 7964 7962 ] final  -10.85 input  175.53 | X-H torsion
[ 8008 7997 7996 7995 ] final   60.28 input   59.86 | X-H torsion
[ 10167 10162 10161 10158 ] final  -77.60 input  -65.29 | X-H torsion
[ 10718 10713 10712 10709 ] final  162.22 input   66.30 | X-H torsion
[ 10763 10752 10751 10750 ] final  129.77 input  -60.55 | X-H torsion
[ 11005 11000 10999 10996 ] final  101.59 input  -57.11 | X-H torsion

> <Gold.Protein.ActiveResidues>
 VAL166  LYS551  ARG553  GLY616  TRP617  ASP618  TYR619  PRO620  LYS621  CYS622 
 ASP623  PHE694  ASN695  SER759  ASP760  ASP761  ALA762  ILE779  LEU786  VAL792 
 PHE793  MET794  SER795  GLU796  ALA797  LYS798  CYS799  TRP800  GLU811  SER814 

> <Gold.Protein.RotatedAtoms>
  151.6436  133.3324  159.3135 H   0  0  0  0  0  0  0  0  0  0  0  0  # atno 6907 bound_to 6896
  150.7995  134.7083  159.6599 H   0  0  0  0  0  0  0  0  0  0  0  0  # atno 6908 bound_to 6896
  152.4086  134.6168  160.0091 H   0  0  0  0  0  0  0  0  0  0  0  0  # atno 6909 bound_to 6896
  146.2207  140.2824  142.8363 H   0  0  0  0  0  0  0  0  0  0  0  0  # atno 7974 bound_to 7965
  155.5797  140.3491  155.4537 H   0  0  0  0  0  0  0  0  0  0  0  0  # atno 8008 bound_to 7997
  156.0382  140.1290  157.0209 H   0  0  0  0  0  0  0  0  0  0  0  0  # atno 8009 bound_to 7997
  154.4380  140.1029  156.6184 H   0  0  0  0  0  0  0  0  0  0  0  0  # atno 8010 bound_to 7997
  140.4756  143.2415  151.8138 H   0  0  0  0  0  0  0  0  0  0  0  0  # atno 10167 bound_to 10162
  157.1256  131.0503  151.2395 H   0  0  0  0  0  0  0  0  0  0  0  0  # atno 10718 bound_to 10713
  153.7471  135.3215  155.3314 H   0  0  0  0  0  0  0  0  0  0  0  0  # atno 10763 bound_to 10752
  154.8275  135.4558  154.0969 H   0  0  0  0  0  0  0  0  0  0  0  0  # atno 10764 bound_to 10752
  153.2160  135.6942  153.8138 H   0  0  0  0  0  0  0  0  0  0  0  0  # atno 10765 bound_to 10752
  139.8774  134.9189  156.4929 H   0  0  0  0  0  0  0  0  0  0  0  0  # atno 11005 bound_to 11000
  144.9187  140.7843  143.5762 LP  0  0  0  0  0  0  0  0  0  0  0  0  # atno 17320 bound_to 7965
  145.2759  139.1936  143.4816 LP  0  0  0  0  0  0  0  0  0  0  0  0  # atno 17321 bound_to 7965
  139.4825  144.4837  151.9273 LP  0  0  0  0  0  0  0  0  0  0  0  0  # atno 17342 bound_to 10162
  140.3923  144.2600  150.5899 LP  0  0  0  0  0  0  0  0  0  0  0  0  # atno 17343 bound_to 10162
  157.4438  130.7559  149.7092 LP  0  0  0  0  0  0  0  0  0  0  0  0  # atno 17370 bound_to 10713
  155.9819  130.4015  150.3446 LP  0  0  0  0  0  0  0  0  0  0  0  0  # atno 17371 bound_to 10713
  140.8645  133.8034  155.9300 LP  0  0  0  0  0  0  0  0  0  0  0  0  # atno 17394 bound_to 11000
  140.9015  134.2372  157.5038 LP  0  0  0  0  0  0  0  0  0  0  0  0  # atno 17395 bound_to 11000

$$$$
