#       Name:                AV-unprocessed.smi:2726
#       Creating user name   scv26
#       Creation time:       Fri Mar 27 14:56:20 2020


#       File generated by GOLD software.
#

@<TRIPOS>MOLECULE
AV-unprocessed.smi:2726
    45    46     1
SMALL
NO_CHARGES


@<TRIPOS>ATOM
      1 ****        -6.0247   0.3037   0.1030 C.3            1 S1                 0.0000
      2 ****        -4.7995   1.2348   0.0839 C.3            1 S1                 0.0000
      3 ****        -4.8370   2.0821  -1.2055 C.3            1 S1                 0.0000
      4 ****        -4.8394   2.1422   1.3320 C.3            1 S1                 0.0000
      5 ****        -3.6095   0.3749   0.1036 N.am           1 S1                 0.0000
      6 ****        -2.3160   0.7400   0.0981 C.2            1 S1                 0.0000
      7 ****        -1.9292   1.9080   0.0837 O.2            1 S1                 0.0000
      8 ****        -1.5124  -0.3377   0.0894 N.am           1 S1                 0.0000
      9 ****        -0.0919  -0.3785   0.0837 C.ar           1 S1                 0.0000
     10 ****         0.5313  -1.5642  -0.3608 C.ar           1 S1                 0.0000
     11 ****         1.9383  -1.6548  -0.3701 C.ar           1 S1                 0.0000
     12 ****         2.7068  -0.5557   0.0791 C.ar           1 S1                 0.0000
     13 ****         4.1082  -0.5412   0.1086 N.3            1 S1                 0.0000
     14 ****         4.7196  -1.5724   0.9304 C.3            1 S1                 0.0000
     15 ****         6.1848  -1.6301   0.4909 C.3            1 S1                 0.0000
     16 ****         6.1976  -1.0251  -0.9180 C.3            1 S1                 0.0000
     17 ****         4.7418  -0.6400  -1.1954 C.3            1 S1                 0.0000
     18 ****         2.0729   0.5568   0.5089 N.pl3          1 S1                 1.0000
     19 ****         0.7286   0.6855   0.5318 C.ar           1 S1                 0.0000
     20 ****        -6.9555   0.8716   0.0830 H              1 S1                 0.0000
     21 ****        -6.0401  -0.3176   0.9995 H              1 S1                 0.0000
     22 ****        -6.0313  -0.3636  -0.7599 H              1 S1                 0.0000
     23 ****        -4.7798   1.4538  -2.0951 H              1 S1                 0.0000
     24 ****        -4.0149   2.7962  -1.2530 H              1 S1                 0.0000
     25 ****        -5.7616   2.6565  -1.2702 H              1 S1                 0.0000
     26 ****        -5.7667   2.7148   1.3711 H              1 S1                 0.0000
     27 ****        -4.0214   2.8624   1.3436 H              1 S1                 0.0000
     28 ****        -4.7768   1.5575   2.2505 H              1 S1                 0.0000
     29 ****        -3.7981  -0.6168   0.1163 H              1 S1                 0.0000
     30 ****        -1.9729  -1.2335   0.0227 H              1 S1                 0.0000
     31 ****        -0.0628  -2.4003  -0.7003 H              1 S1                 0.0000
     32 ****         2.4148  -2.5589  -0.7195 H              1 S1                 0.0000
     33 ****         4.6292  -1.3334   1.9905 H              1 S1                 0.0000
     34 ****         4.2397  -2.5372   0.7615 H              1 S1                 0.0000
     35 ****         6.8044  -1.0290   1.1574 H              1 S1                 0.0000
     36 ****         6.5705  -2.6499   0.5099 H              1 S1                 0.0000
     37 ****         6.8352  -0.1404  -0.9370 H              1 S1                 0.0000
     38 ****         6.5759  -1.7229  -1.6656 H              1 S1                 0.0000
     39 ****         4.2584  -1.4089  -1.7996 H              1 S1                 0.0000
     40 ****         4.6736   0.3045  -1.7362 H              1 S1                 0.0000
     41 ****         0.3706   1.6277   0.9182 H              1 S1                 0.0000
     42 ****         2.6386   1.3406   0.8357 H              1 S1                 0.0000
     43 ****        -2.5941   2.6548   0.0753 LP             1 S1                 0.0000
     44 ****        -0.9499   2.1104   0.0804 LP             1 S1                 0.0000
     45 ****         4.2717   0.3591   0.5120 LP             1 S1                 0.0000
@<TRIPOS>BOND
    1    1    2 1     
    2    1   20 1     
    3    1   21 1     
    4    1   22 1     
    5    2    3 1     
    6    2    4 1     
    7    2    5 1     
    8    3   23 1     
    9    3   24 1     
   10    3   25 1     
   11    4   26 1     
   12    4   27 1     
   13    4   28 1     
   14    5    6 am    
   15    5   29 1     
   16    6    7 2     
   17    6    8 am    
   18    8    9 1     
   19    8   30 1     
   20    9   19 ar    
   21    9   10 ar    
   22   10   11 ar    
   23   10   31 1     
   24   11   12 ar    
   25   11   32 1     
   26   12   13 1     
   27   12   18 ar    
   28   13   17 1     
   29   13   14 1     
   30   14   15 1     
   31   14   33 1     
   32   14   34 1     
   33   15   16 1     
   34   15   35 1     
   35   15   36 1     
   36   16   17 1     
   37   16   37 1     
   38   16   38 1     
   39   17   39 1     
   40   17   40 1     
   41   18   19 ar    
   42   18   42 1     
   43   19   41 1     
   44    7   43 1     
   45    7   44 1     
   46   13   45 1     
@<TRIPOS>SUBSTRUCTURE
      1 S1             1
@<TRIPOS>SET
LONE_PAIRS      STATIC     ATOMS    <user>   **** ""
3 43 44 45
DONOR_HYDROGENS      STATIC     ATOMS    <user>   **** ""
3 29 30 42
ATOM$BLUE        STATIC     ATOMS    COLORGROUP SYSTEM
3 43 44 45
ATOM$RED        STATIC     ATOMS    COLORGROUP SYSTEM
3 29 30 42
