AV-unprocessed.smi:1160|AV-procd|sdf|4916|dock7
  -GOLD-   22720 3493D 1   1.00000     0.00000
 Structure written by MMmdl.
 44 45  0  0  0  0  0  0  0  0  1 V2000
  146.5146  133.3672  150.9246 C   0  0  0  0  0  0  0  0  0  0  0  0
  146.6759  132.7574  152.3192 C   0  0  0  0  0  0  0  0  0  0  0  0
  147.7264  133.4394  152.9975 O   0  0  0  0  0  0  0  0  0  0  0  0
  147.9944  133.1070  154.3122 C   0  0  0  0  0  0  0  0  0  0  0  0
  147.4881  131.9468  154.8001 N   0  0  0  0  0  0  0  0  0  0  0  0
  147.7539  131.6179  156.0807 C   0  0  0  0  0  0  0  0  0  0  0  0
  148.5370  132.4162  156.9339 C   0  0  0  0  0  0  0  0  0  0  0  0
  149.0631  133.6203  156.4305 C   0  0  0  0  0  0  0  0  0  0  0  0
  148.7804  133.9876  155.0920 C   0  0  0  0  0  0  0  0  0  0  0  0
  149.2670  135.1730  154.4734 N   0  0  0  0  0  0  0  0  0  0  0  0
  149.9220  136.2083  155.0261 C   0  0  0  0  0  0  0  0  0  0  0  0
  150.2528  136.2942  156.2082 O   0  0  0  0  0  0  0  0  0  0  0  0
  150.1611  137.1637  154.1162 N   0  0  0  0  0  0  0  0  0  0  0  0
  150.8250  138.4397  154.3688 C   0  0  0  0  0  0  0  0  0  0  0  0
  152.1806  138.1889  155.0627 C   0  0  0  0  0  0  0  0  0  0  0  0
  152.8194  139.5081  155.5316 C   0  0  0  0  0  0  0  0  0  0  0  0
  151.8735  140.2063  156.4101 N   0  0  0  0  0  0  0  0  0  0  0  0
  152.0706  140.3315  157.7446 C   0  0  0  0  0  0  0  0  0  0  0  0
  151.0061  141.0252  158.5973 C   0  0  0  0  0  0  0  0  0  0  0  0
  153.0788  139.9089  158.3109 O   0  0  0  0  0  0  0  0  0  0  0  0
  150.6617  140.6123  155.6867 C   0  0  0  0  0  0  0  0  0  0  0  0
  149.9131  139.3505  155.2199 C   0  0  0  0  0  0  0  0  0  0  0  0
  145.7210  132.8660  150.3701 H   0  0  0  0  0  0  0  0  0  0  0  0
  147.4355  133.2738  150.3484 H   0  0  0  0  0  0  0  0  0  0  0  0
  146.2629  134.4263  150.9861 H   0  0  0  0  0  0  0  0  0  0  0  0
  145.7402  132.8553  152.8719 H   0  0  0  0  0  0  0  0  0  0  0  0
  146.9064  131.6946  152.2280 H   0  0  0  0  0  0  0  0  0  0  0  0
  147.3350  130.6872  156.4335 H   0  0  0  0  0  0  0  0  0  0  0  0
  148.7336  132.1101  157.9507 H   0  0  0  0  0  0  0  0  0  0  0  0
  149.6795  134.2249  157.0769 H   0  0  0  0  0  0  0  0  0  0  0  0
  149.0141  135.2801  153.5019 H   0  0  0  0  0  0  0  0  0  0  0  0
  149.8472  137.0011  153.1706 H   0  0  0  0  0  0  0  0  0  0  0  0
  151.0297  138.9565  153.4294 H   0  0  0  0  0  0  0  0  0  0  0  0
  152.0413  137.5349  155.9251 H   0  0  0  0  0  0  0  0  0  0  0  0
  152.8572  137.6667  154.3852 H   0  0  0  0  0  0  0  0  0  0  0  0
  153.7762  139.3059  156.0145 H   0  0  0  0  0  0  0  0  0  0  0  0
  153.0496  140.1401  154.6725 H   0  0  0  0  0  0  0  0  0  0  0  0
  150.0513  140.5038  158.5253 H   0  0  0  0  0  0  0  0  0  0  0  0
  150.8715  142.0598  158.2811 H   0  0  0  0  0  0  0  0  0  0  0  0
  151.3014  141.0346  159.6470 H   0  0  0  0  0  0  0  0  0  0  0  0
  149.9934  141.2430  156.2712 H   0  0  0  0  0  0  0  0  0  0  0  0
  150.9476  141.2149  154.8235 H   0  0  0  0  0  0  0  0  0  0  0  0
  149.0284  139.6330  154.6480 H   0  0  0  0  0  0  0  0  0  0  0  0
  149.5545  138.8051  156.0944 H   0  0  0  0  0  0  0  0  0  0  0  0
  1  2  1  0  0  0  0
  1 23  1  0  0  0  0
  1 24  1  0  0  0  0
  1 25  1  0  0  0  0
  2  3  1  0  0  0  0
  2 26  1  0  0  0  0
  2 27  1  0  0  0  0
  3  4  1  0  0  0  0
  4  9  1  0  0  0  0
  4  5  2  0  0  0  0
  5  6  1  0  0  0  0
  6  7  2  0  0  0  0
  6 28  1  0  0  0  0
  7  8  1  0  0  0  0
  7 29  1  0  0  0  0
  8  9  2  0  0  0  0
  8 30  1  0  0  0  0
  9 10  1  0  0  0  0
 10 11  1  0  0  0  0
 10 31  1  0  0  0  0
 11 12  2  0  0  0  0
 11 13  1  0  0  0  0
 13 14  1  0  0  0  0
 13 32  1  0  0  0  0
 14 22  1  0  0  0  0
 14 15  1  0  0  0  0
 14 33  1  0  0  0  0
 15 16  1  0  0  0  0
 15 34  1  0  0  0  0
 15 35  1  0  0  0  0
 16 17  1  0  0  0  0
 16 36  1  0  0  0  0
 16 37  1  0  0  0  0
 17 18  1  0  0  0  0
 17 21  1  0  0  0  0
 18 19  1  0  0  0  0
 18 20  2  0  0  0  0
 19 38  1  0  0  0  0
 19 39  1  0  0  0  0
 19 40  1  0  0  0  0
 21 22  1  0  0  0  0
 21 41  1  0  0  0  0
 21 42  1  0  0  0  0
 22 43  1  0  0  0  0
 22 44  1  0  0  0  0
M  END
> <s_m_source_file>
AV-unprocessed.smi

> <i_m_source_file_index>
1160

> <i_lp_mmshare_version>
43012

> <i_f3d_flags>
0

> <s_epik_input>
W0NIM11bQ0gyXU9jMW5bY0hdW2NIXVtjSF1jMVtOSF1DKD1PKVtOSF1bQ0hdMltDSDJdW0NIMl1OKEMoPU8pW0NIM10pW0NIMl1bQ0gyXTI=

> <s_epik_cmdline>
J2VwaWtfcHl0aG9uJywgJy1waCcsICc3LjAnLCAnLXRuJywgJzgnLCAnLW1hJywgJzIwMCcsICctbWV0YWxfYmluZGluZycsICctaW1hZScsICc8aW5maWxlLm1hZT4nLCAnLW9tYWUnLCAnPG91dGZpbGUubWFlPic=

> <r_lp_tautomer_probability>
1

> <r_epik_Ionization_Penalty>
0.00011666

> <r_epik_Ionization_Penalty_Charging>
0

> <r_epik_Ionization_Penalty_Neutral>
0.00011666

> <r_epik_State_Penalty>
-0

> <r_epik_Charging_Adjusted_Penalty>
0

> <i_epik_Tot_Q>
0

> <i_epik_Tot_abs_Q>
0

> <r_epik_Metal_State_Penalty>
-0

> <b_epik_Metal_Only>
0

> <s_lp_Force_Field>
OPLS_2005

> <r_lp_Energy>
24.4955

> <b_lp_Chiralities_Consistent>
1

> <s_lp_Variant>
AV-unprocessed.smi:1160-1

> <Gold.Version>
5.8.1

> <Gold.Id.Protein>
6NUR|6NUR_protein|mol2

> <Gold.PLP.Fitness>
39.5939

> <Gold.PLP.PLP>
-31.1728

> <Gold.PLP.part.hbond>
-4.0000

> <Gold.PLP.part.metal>
0.0000

> <Gold.PLP.part.buried>
-0.7473

> <Gold.PLP.part.nonpolar>
-27.1715

> <Gold.PLP.part.repulsive>
0.3228

> <Gold.PLP.ligand.clash>
0.0000

> <Gold.PLP.ligand.torsion>
0.2998

> <Gold.PLP.Chemscore.Hbond>
3.0000

> <Gold.PLP.Chemscore.CHOScore>
0.0000

> <Gold.PLP.Chemscore.Metal>
0.0000

> <Gold.Chemscore.Hbonds>
donor molecule, donor type, donor heavy atom, donor atom, acceptor molecule, acceptor atom, score
      L1  H    10    31       P1  7948  1.00
      L1  H    13    32       P1  7948  1.00
      P1  H  7997  8008       L1    20  1.00

> <Gold.PLP.Chemscore.Internal.Correction>
0.0207

> <Gold.Rescore>
     Score         DG    S(hbond)    S(metal)    S(lipo)     H(rot)  DE(clash)    DE(int)     intcor
     15.20     -18.07       2.71        0.00      61.54       1.43       0.04       2.83       ----

> <Gold.Chemscore.Fitness>
15.2019

> <Gold.Chemscore.DG>
-18.0679

> <Gold.Chemscore.ZeroCoef>
-5.4800

> <Gold.Chemscore.Hbond>
2.7090

> <Gold.Chemscore.Metal>
0.0000

> <Gold.Chemscore.Lipo>
61.5386

> <Gold.Chemscore.Internal_Hbond>
0.0000

> <Gold.Chemscore.DEClash>
0.0386

> <Gold.Chemscore.DEInternal>
2.8274

> <Gold.Chemscore.Rot>
1.4297

> <Gold.Chemscore.Internal.Correction>
   9.000000E+99

> <Gold.Chemscore.Hbonds>
donor molecule, donor type, donor heavy atom, donor atom, acceptor molecule, acceptor atom, score
      L1  H    10    31       P1  7948  0.54
      L1  H    13    32       P1  7948  0.30
      P1  H  7997  8008       L1    20  0.67

> <Gold.Chemscore.Hbond.Weighted>
-9.0479

> <Gold.Chemscore.Metal.Weighted>
-0.0000

> <Gold.Chemscore.Lipo.Weighted>
-7.2000

> <Gold.Chemscore.Internal_Hbond.Weighted>
0.0000

> <Gold.Chemscore.DEClash.Weighted>
0.0386

> <Gold.Chemscore.DEInternal.Weighted>
2.8274

> <Gold.Chemscore.Rot.Weighted>
3.6600

> <Gold.Chemscore.Internal.Correction.Weighted>
   9.000000E+99

> <Gold.Protein.RotatedTorsions>
[ 6907 6896 6895 6894 ] final  -15.46 input  -60.11 | X-H torsion
[ 7974 7965 7964 7962 ] final  -59.49 input  175.53 | X-H torsion
[ 8008 7997 7996 7995 ] final  -88.09 input   59.86 | X-H torsion
[ 10167 10162 10161 10158 ] final -166.67 input  -65.29 | X-H torsion
[ 10718 10713 10712 10709 ] final  170.31 input   66.30 | X-H torsion
[ 10763 10752 10751 10750 ] final   71.34 input  -60.55 | X-H torsion
[ 11005 11000 10999 10996 ] final   85.71 input  -57.11 | X-H torsion

> <Gold.Protein.ActiveResidues>
 VAL166  LYS551  ARG553  GLY616  TRP617  ASP618  TYR619  PRO620  LYS621  CYS622 
 ASP623  PHE694  ASN695  SER759  ASP760  ASP761  ALA762  ILE779  LEU786  VAL792 
 PHE793  MET794  SER795  GLU796  ALA797  LYS798  CYS799  TRP800  GLU811  SER814 

> <Gold.Protein.RotatedAtoms>
  151.3236  135.0824  159.9313 H   0  0  0  0  0  0  0  0  0  0  0  0  # atno 6907 bound_to 6896
  152.5251  133.9614  159.7729 H   0  0  0  0  0  0  0  0  0  0  0  0  # atno 6908 bound_to 6896
  150.9940  133.6069  159.2734 H   0  0  0  0  0  0  0  0  0  0  0  0  # atno 6909 bound_to 6896
  145.8269  140.8505  143.0104 H   0  0  0  0  0  0  0  0  0  0  0  0  # atno 7974 bound_to 7965
  154.6708  140.0558  157.0163 H   0  0  0  0  0  0  0  0  0  0  0  0  # atno 8008 bound_to 7997
  155.1092  140.3236  155.4507 H   0  0  0  0  0  0  0  0  0  0  0  0  # atno 8009 bound_to 7997
  156.2656  140.2017  156.6216 H   0  0  0  0  0  0  0  0  0  0  0  0  # atno 8010 bound_to 7997
  139.6099  144.0835  152.1832 H   0  0  0  0  0  0  0  0  0  0  0  0  # atno 10167 bound_to 10162
  157.0099  131.0201  151.2806 H   0  0  0  0  0  0  0  0  0  0  0  0  # atno 10718 bound_to 10713
  153.0393  135.5140  154.7579 H   0  0  0  0  0  0  0  0  0  0  0  0  # atno 10763 bound_to 10752
  154.6529  135.2927  154.9966 H   0  0  0  0  0  0  0  0  0  0  0  0  # atno 10764 bound_to 10752
  154.0844  135.6659  153.4895 H   0  0  0  0  0  0  0  0  0  0  0  0  # atno 10765 bound_to 10752
  139.8964  134.8305  156.2619 H   0  0  0  0  0  0  0  0  0  0  0  0  # atno 11005 bound_to 11000
  144.6743  140.0615  143.7476 LP  0  0  0  0  0  0  0  0  0  0  0  0  # atno 17320 bound_to 7965
  145.9614  139.2803  143.1153 LP  0  0  0  0  0  0  0  0  0  0  0  0  # atno 17321 bound_to 7965
  140.0451  144.5976  150.7380 LP  0  0  0  0  0  0  0  0  0  0  0  0  # atno 17342 bound_to 10162
  140.7312  143.2691  151.3945 LP  0  0  0  0  0  0  0  0  0  0  0  0  # atno 17343 bound_to 10162
  157.5328  130.8069  149.7937 LP  0  0  0  0  0  0  0  0  0  0  0  0  # atno 17370 bound_to 10713
  156.0140  130.3821  150.2171 LP  0  0  0  0  0  0  0  0  0  0  0  0  # atno 17371 bound_to 10713
  141.0157  133.7070  156.1184 LP  0  0  0  0  0  0  0  0  0  0  0  0  # atno 17394 bound_to 11000
  140.7305  134.4259  157.5566 LP  0  0  0  0  0  0  0  0  0  0  0  0  # atno 17395 bound_to 11000

$$$$
