#       Name:                AV-unprocessed.smi:1102
#       Creating user name   scv26
#       Creation time:       Fri Mar 27 03:31:02 2020


#       File generated by GOLD software.
#

@<TRIPOS>MOLECULE
AV-unprocessed.smi:1102
    44    45     1
SMALL
NO_CHARGES


@<TRIPOS>ATOM
      1 ****        -6.2016  -0.7030  -0.3065 C.3            1 S1                 0.0000
      2 ****        -5.5064   0.0603   0.7226 N.pl3          1 S1                 0.0000
      3 ****        -6.2684   0.7111   1.7835 C.3            1 S1                 0.0000
      4 ****        -4.1063   0.2422   0.6490 C.ar           1 S1                 0.0000
      5 ****        -3.3336  -0.3691  -0.3695 C.ar           1 S1                 0.0000
      6 ****        -1.9419  -0.1569  -0.4026 C.ar           1 S1                 0.0000
      7 ****        -1.3501   0.6696   0.5797 C.ar           1 S1                 0.0000
      8 ****         0.0413   0.9458   0.6652 N.am           1 S1                 0.0000
      9 ****         0.9742   0.8550  -0.2980 C.2            1 S1                 0.0000
     10 ****         0.7641   0.5294  -1.4664 O.2            1 S1                 0.0000
     11 ****         2.1859   1.1857   0.1696 N.am           1 S1                 0.0000
     12 ****         3.4141   1.1914  -0.6170 C.3            1 S1                 0.0000
     13 ****         3.9909  -0.2251  -0.7763 C.3            1 S1                 0.0000
     14 ****         5.2674  -0.2834  -1.6131 C.3            1 S1                 0.0000
     15 ****         5.9768  -1.5273  -1.0990 C.3            1 S1                 0.0000
     16 ****         5.2430  -1.8679   0.2015 C.3            1 S1                 0.0000
     17 ****         4.4271  -0.7374   0.4728 O.3            1 S1                 0.0000
     18 ****        -2.1956   1.2214   1.5613 C.ar           1 S1                 0.0000
     19 ****        -3.5293   1.0215   1.5962 N.ar           1 S1                 0.0000
     20 ****        -5.8610  -1.7387  -0.3111 H              1 S1                 0.0000
     21 ****        -6.0231  -0.2710  -1.2917 H              1 S1                 0.0000
     22 ****        -7.2785  -0.7086  -0.1373 H              1 S1                 0.0000
     23 ****        -5.8990   0.4076   2.7636 H              1 S1                 0.0000
     24 ****        -7.3253   0.4501   1.7323 H              1 S1                 0.0000
     25 ****        -6.1867   1.7954   1.7027 H              1 S1                 0.0000
     26 ****        -3.7778  -1.0011  -1.1234 H              1 S1                 0.0000
     27 ****        -1.3604  -0.6432  -1.1698 H              1 S1                 0.0000
     28 ****         0.3563   1.3049   1.5545 H              1 S1                 0.0000
     29 ****         2.2689   1.4416   1.1426 H              1 S1                 0.0000
     30 ****         3.2228   1.6336  -1.5961 H              1 S1                 0.0000
     31 ****         4.1375   1.8387  -0.1208 H              1 S1                 0.0000
     32 ****         3.2460  -0.9021  -1.1994 H              1 S1                 0.0000
     33 ****         5.0643  -0.3215  -2.6837 H              1 S1                 0.0000
     34 ****         5.8868   0.5936  -1.4201 H              1 S1                 0.0000
     35 ****         5.9070  -2.3524  -1.8086 H              1 S1                 0.0000
     36 ****         7.0336  -1.3245  -0.9231 H              1 S1                 0.0000
     37 ****         4.6066  -2.7434   0.0646 H              1 S1                 0.0000
     38 ****         5.9247  -2.0688   1.0282 H              1 S1                 0.0000
     39 ****        -1.7925   1.8483   2.3434 H              1 S1                 0.0000
     40 ****        -0.1641   0.3060  -1.7640 LP             1 S1                 0.0000
     41 ****         1.5216   0.4882  -2.1179 LP             1 S1                 0.0000
     42 ****         3.6392  -1.0084   1.0259 LP             1 S1                 0.0000
     43 ****         4.9551  -0.0434   0.9622 LP             1 S1                 0.0000
     44 ****        -4.0856   1.4431   2.3123 LP             1 S1                 0.0000
@<TRIPOS>BOND
    1    1    2 1     
    2    1   20 1     
    3    1   21 1     
    4    1   22 1     
    5    2    3 1     
    6    2    4 1     
    7    3   23 1     
    8    3   24 1     
    9    3   25 1     
   10    4   19 ar    
   11    4    5 ar    
   12    5    6 ar    
   13    5   26 1     
   14    6    7 ar    
   15    6   27 1     
   16    7    8 1     
   17    7   18 ar    
   18    8    9 am    
   19    8   28 1     
   20    9   10 2     
   21    9   11 am    
   22   11   12 1     
   23   11   29 1     
   24   12   13 1     
   25   12   30 1     
   26   12   31 1     
   27   13   17 1     
   28   13   14 1     
   29   13   32 1     
   30   14   15 1     
   31   14   33 1     
   32   14   34 1     
   33   15   16 1     
   34   15   35 1     
   35   15   36 1     
   36   16   17 1     
   37   16   37 1     
   38   16   38 1     
   39   18   19 ar    
   40   18   39 1     
   41   10   40 1     
   42   10   41 1     
   43   17   42 1     
   44   17   43 1     
   45   19   44 1     
@<TRIPOS>SUBSTRUCTURE
      1 S1             1
@<TRIPOS>SET
LONE_PAIRS      STATIC     ATOMS    <user>   **** ""
5 40 41 42 43 44
DONOR_HYDROGENS      STATIC     ATOMS    <user>   **** ""
2 28 29
ATOM$BLUE        STATIC     ATOMS    COLORGROUP SYSTEM
5 40 41 42 43 44
ATOM$RED        STATIC     ATOMS    COLORGROUP SYSTEM
2 28 29
