#       Name:                AV-unprocessed.smi:1389
#       Creating user name   scv26
#       Creation time:       Fri Mar 27 05:27:58 2020


#       File generated by GOLD software.
#

@<TRIPOS>MOLECULE
AV-unprocessed.smi:1389
    58    60     1
SMALL
NO_CHARGES


@<TRIPOS>ATOM
      1 ****        -1.2464   4.8015   0.3503 C.3            1 S1                 0.0000
      2 ****        -1.1336   3.2584   0.3444 C.3            1 S1                 0.0000
      3 ****         0.3210   2.7462   0.1574 C.3            1 S1                 0.0000
      4 ****         0.3483   1.2832   0.0545 N.pl3          1 S1                -1.0000
      5 ****         0.1112   0.5815  -1.0860 C.2            1 S1                 0.0000
      6 ****        -0.1790   1.0281  -2.2017 O.2            1 S1                 0.0000
      7 ****         0.2335  -0.7436  -0.8994 N.am           1 S1                 0.0000
      8 ****         0.1480  -1.7792  -1.8706 C.ar           1 S1                 0.0000
      9 ****        -0.8584  -1.7593  -2.8691 C.ar           1 S1                 0.0000
     10 ****        -0.9703  -2.8312  -3.7744 C.ar           1 S1                 0.0000
     11 ****        -0.0850  -3.9165  -3.6549 C.ar           1 S1                 0.0000
     12 ****         0.8518  -3.9124  -2.6840 N.pl3          1 S1                 1.0000
     13 ****         1.0197  -2.9030  -1.7931 C.ar           1 S1                 0.0000
     14 ****         2.0530  -3.0282  -0.8368 N.3            1 S1                 0.0000
     15 ****         2.7776  -4.2855  -0.6917 C.3            1 S1                 0.0000
     16 ****         4.0163  -3.9363   0.1287 C.3            1 S1                 0.0000
     17 ****         4.3463  -2.5288  -0.3592 C.3            1 S1                 0.0000
     18 ****         2.9725  -1.9113  -0.6398 C.3            1 S1                 0.0000
     19 ****        -1.7841   2.6150   1.5289 N.4            1 S1                 1.0000
     20 ****        -1.5981   3.2875   2.8440 C.3            1 S1                 0.0000
     21 ****        -2.1687   2.4077   3.9674 C.3            1 S1                 0.0000
     22 ****        -3.5451   2.1510   3.7148 O.3            1 S1                 0.0000
     23 ****        -3.7419   1.4456   2.4951 C.3            1 S1                 0.0000
     24 ****        -3.2134   2.2807   1.3167 C.3            1 S1                 0.0000
     25 ****        -0.8917   5.2351  -0.5867 H              1 S1                 0.0000
     26 ****        -0.6770   5.2650   1.1580 H              1 S1                 0.0000
     27 ****        -2.2853   5.1126   0.4629 H              1 S1                 0.0000
     28 ****        -1.6768   2.9273  -0.5422 H              1 S1                 0.0000
     29 ****         0.7603   3.2244  -0.7190 H              1 S1                 0.0000
     30 ****         0.9234   3.0852   1.0003 H              1 S1                 0.0000
     31 ****         0.5669  -1.0234   0.0115 H              1 S1                 0.0000
     32 ****        -1.5606  -0.9420  -2.9385 H              1 S1                 0.0000
     33 ****        -1.7321  -2.8255  -4.5402 H              1 S1                 0.0000
     34 ****        -0.0994  -4.7842  -4.2984 H              1 S1                 0.0000
     35 ****         2.1665  -5.0430  -0.1999 H              1 S1                 0.0000
     36 ****         3.0815  -4.6668  -1.6675 H              1 S1                 0.0000
     37 ****         3.7677  -3.9125   1.1908 H              1 S1                 0.0000
     38 ****         4.8345  -4.6428  -0.0141 H              1 S1                 0.0000
     39 ****         4.9308  -1.9535   0.3592 H              1 S1                 0.0000
     40 ****         4.9180  -2.5887  -1.2864 H              1 S1                 0.0000
     41 ****         3.0060  -1.2458  -1.5036 H              1 S1                 0.0000
     42 ****         2.6407  -1.3317   0.2225 H              1 S1                 0.0000
     43 ****        -0.5410   3.4775   3.0316 H              1 S1                 0.0000
     44 ****        -2.1064   4.2523   2.8502 H              1 S1                 0.0000
     45 ****        -1.6173   1.4693   4.0472 H              1 S1                 0.0000
     46 ****        -2.0748   2.9160   4.9271 H              1 S1                 0.0000
     47 ****        -3.2424   0.4763   2.5387 H              1 S1                 0.0000
     48 ****        -4.8066   1.2491   2.3684 H              1 S1                 0.0000
     49 ****        -3.7946   3.1976   1.2095 H              1 S1                 0.0000
     50 ****        -3.3319   1.7124   0.3932 H              1 S1                 0.0000
     51 ****        -1.3141   1.7229   1.6033 H              1 S1                 0.0000
     52 ****         1.4786  -4.7146  -2.6219 H              1 S1                 0.0000
     53 ****         0.5565   0.7640   0.8835 LP             1 S1                 0.0000
     54 ****        -0.2626   2.0151  -2.3389 LP             1 S1                 0.0000
     55 ****        -0.3301   0.4023  -2.9669 LP             1 S1                 0.0000
     56 ****         1.3863  -3.0138  -0.0916 LP             1 S1                 0.0000
     57 ****        -4.0321   3.0230   3.6654 LP             1 S1                 0.0000
     58 ****        -3.9147   1.6049   4.4666 LP             1 S1                 0.0000
@<TRIPOS>BOND
    1    1    2 1     
    2    1   25 1     
    3    1   26 1     
    4    1   27 1     
    5    2    3 1     
    6    2   19 1     
    7    2   28 1     
    8    3    4 1     
    9    3   29 1     
   10    3   30 1     
   11    4    5 1     
   12    5    6 2     
   13    5    7 am    
   14    7    8 1     
   15    7   31 1     
   16    8   13 ar    
   17    8    9 ar    
   18    9   10 ar    
   19    9   32 1     
   20   10   11 ar    
   21   10   33 1     
   22   11   12 ar    
   23   11   34 1     
   24   12   13 ar    
   25   12   52 1     
   26   13   14 1     
   27   14   18 1     
   28   14   15 1     
   29   15   16 1     
   30   15   35 1     
   31   15   36 1     
   32   16   17 1     
   33   16   37 1     
   34   16   38 1     
   35   17   18 1     
   36   17   39 1     
   37   17   40 1     
   38   18   41 1     
   39   18   42 1     
   40   19   24 1     
   41   19   20 1     
   42   19   51 1     
   43   20   21 1     
   44   20   43 1     
   45   20   44 1     
   46   21   22 1     
   47   21   45 1     
   48   21   46 1     
   49   22   23 1     
   50   23   24 1     
   51   23   47 1     
   52   23   48 1     
   53   24   49 1     
   54   24   50 1     
   55    4   53 1     
   56    6   54 1     
   57    6   55 1     
   58   14   56 1     
   59   22   57 1     
   60   22   58 1     
@<TRIPOS>SUBSTRUCTURE
      1 S1             1
@<TRIPOS>SET
LONE_PAIRS      STATIC     ATOMS    <user>   **** ""
6 53 54 55 56 57 58
DONOR_HYDROGENS      STATIC     ATOMS    <user>   **** ""
3 31 52 51
ATOM$BLUE        STATIC     ATOMS    COLORGROUP SYSTEM
6 53 54 55 56 57 58
ATOM$RED        STATIC     ATOMS    COLORGROUP SYSTEM
3 31 52 51
