AV-unprocessed.smi:678|AV-procd|sdf|3318|dock2
  -GOLD-   22720 0283D 1   1.00000     0.00000
 Structure written by MMmdl.
 50 51  0  0  0  0  0  0  0  0  1 V2000
  153.2755  142.2041  160.9702 C   0  0  0  0  0  0  0  0  0  0  0  0
  152.5708  142.6438  159.6987 C   0  0  0  0  0  0  0  0  0  0  0  0
  152.5615  143.9370  159.3084 C   0  0  0  0  0  0  0  0  0  0  0  0
  151.8903  144.3458  158.0984 C   0  0  0  0  0  0  0  0  0  0  0  0
  151.2686  143.4072  157.3708 C   0  0  0  0  0  0  0  0  0  0  0  0
  151.2595  142.0541  157.7574 N   0  0  0  0  0  0  0  0  0  0  0  0
  150.5463  141.1129  156.8772 C   0  0  0  0  0  0  0  0  0  0  0  0
  151.4261  139.9509  156.3952 C   0  0  0  0  0  0  0  0  0  0  0  0
  152.6219  139.9033  156.6869 O   0  0  0  0  0  0  0  0  0  0  0  0
  150.8184  139.0317  155.6294 N   0  0  0  0  0  0  0  0  0  0  0  0
  151.4581  137.8536  155.0509 C   0  0  0  0  0  0  0  0  0  0  0  0
  150.9261  136.5447  155.6615 C   0  0  1  0  0  0  0  0  0  0  0  0
  150.3342  135.5715  154.6181 C   0  0  0  0  0  0  0  0  0  0  0  0
  149.9205  134.3047  155.2169 N   0  0  0  0  0  0  0  0  0  0  0  0
  149.3781  133.3636  154.2352 C   0  0  0  0  0  0  0  0  0  0  0  0
  148.9117  132.0003  154.7910 C   0  0  0  0  0  0  0  0  0  0  0  0
  150.0886  131.0320  154.9935 C   0  0  0  0  0  0  0  0  0  0  0  0
  147.8571  131.3783  153.8643 C   0  0  0  0  0  0  0  0  0  0  0  0
  151.0551  133.7222  155.9233 C   0  0  0  0  0  0  0  0  0  0  0  0
  151.6403  134.6890  156.9649 C   0  0  0  0  0  0  0  0  0  0  0  0
  152.0129  135.9052  156.3259 O   0  0  0  0  0  0  0  0  0  0  0  0
  151.8895  141.6147  158.8909 C   0  0  0  0  0  0  0  0  0  0  0  0
  151.8809  140.4245  159.2112 O   0  0  0  0  0  0  0  0  0  0  0  0
  153.7227  143.0512  161.4914 H   0  0  0  0  0  0  0  0  0  0  0  0
  154.0692  141.4929  160.7395 H   0  0  0  0  0  0  0  0  0  0  0  0
  152.5712  141.7247  161.6510 H   0  0  0  0  0  0  0  0  0  0  0  0
  153.0639  144.6836  159.9060 H   0  0  0  0  0  0  0  0  0  0  0  0
  151.8919  145.3796  157.7856 H   0  0  0  0  0  0  0  0  0  0  0  0
  150.7498  143.6276  156.4490 H   0  0  0  0  0  0  0  0  0  0  0  0
  149.6645  140.7177  157.3851 H   0  0  0  0  0  0  0  0  0  0  0  0
  150.1590  141.6301  155.9982 H   0  0  0  0  0  0  0  0  0  0  0  0
  149.8356  139.1554  155.4336 H   0  0  0  0  0  0  0  0  0  0  0  0
  151.3510  137.8386  153.9649 H   0  0  0  0  0  0  0  0  0  0  0  0
  152.5275  137.9345  155.2472 H   0  0  0  0  0  0  0  0  0  0  0  0
  150.1628  136.7881  156.4032 H   0  0  0  0  0  0  0  0  0  0  0  0
  149.4803  136.0504  154.1423 H   0  0  0  0  0  0  0  0  0  0  0  0
  151.0690  135.3875  153.8326 H   0  0  0  0  0  0  0  0  0  0  0  0
  148.5493  133.8370  153.7067 H   0  0  0  0  0  0  0  0  0  0  0  0
  150.1380  133.1695  153.4767 H   0  0  0  0  0  0  0  0  0  0  0  0
  148.4271  132.1506  155.7554 H   0  0  0  0  0  0  0  0  0  0  0  0
  150.6139  130.8451  154.0564 H   0  0  0  0  0  0  0  0  0  0  0  0
  149.7455  130.0720  155.3802 H   0  0  0  0  0  0  0  0  0  0  0  0
  150.8110  131.4294  155.7070 H   0  0  0  0  0  0  0  0  0  0  0  0
  148.2650  131.1866  152.8714 H   0  0  0  0  0  0  0  0  0  0  0  0
  146.9971  132.0387  153.7489 H   0  0  0  0  0  0  0  0  0  0  0  0
  147.4914  130.4313  154.2626 H   0  0  0  0  0  0  0  0  0  0  0  0
  150.7486  132.8015  156.4211 H   0  0  0  0  0  0  0  0  0  0  0  0
  151.8336  133.4467  155.2099 H   0  0  0  0  0  0  0  0  0  0  0  0
  150.9169  134.8907  157.7564 H   0  0  0  0  0  0  0  0  0  0  0  0
  152.5193  134.2506  157.4373 H   0  0  0  0  0  0  0  0  0  0  0  0
  1  2  1  0  0  0  0
  1 24  1  0  0  0  0
  1 25  1  0  0  0  0
  1 26  1  0  0  0  0
  2 22  1  0  0  0  0
  2  3  2  0  0  0  0
  3  4  1  0  0  0  0
  3 27  1  0  0  0  0
  4  5  2  0  0  0  0
  4 28  1  0  0  0  0
  5  6  1  0  0  0  0
  5 29  1  0  0  0  0
  6  7  1  0  0  0  0
  6 22  1  0  0  0  0
  7  8  1  0  0  0  0
  7 30  1  0  0  0  0
  7 31  1  0  0  0  0
  8  9  2  0  0  0  0
  8 10  1  0  0  0  0
 10 11  1  0  0  0  0
 10 32  1  0  0  0  0
 11 12  1  0  0  0  0
 11 33  1  0  0  0  0
 11 34  1  0  0  0  0
 12 21  1  0  0  0  0
 12 13  1  0  0  0  0
 12 35  1  0  0  0  0
 13 14  1  0  0  0  0
 13 36  1  0  0  0  0
 13 37  1  0  0  0  0
 14 15  1  0  0  0  0
 14 19  1  0  0  0  0
 15 16  1  0  0  0  0
 15 38  1  0  0  0  0
 15 39  1  0  0  0  0
 16 17  1  0  0  0  0
 16 18  1  0  0  0  0
 16 40  1  0  0  0  0
 17 41  1  0  0  0  0
 17 42  1  0  0  0  0
 17 43  1  0  0  0  0
 18 44  1  0  0  0  0
 18 45  1  0  0  0  0
 18 46  1  0  0  0  0
 19 20  1  0  0  0  0
 19 47  1  0  0  0  0
 19 48  1  0  0  0  0
 20 21  1  0  0  0  0
 20 49  1  0  0  0  0
 20 50  1  0  0  0  0
 22 23  2  0  0  0  0
M  END
> <s_m_source_file>
AV-unprocessed.smi

> <i_m_source_file_index>
678

> <i_lp_mmshare_version>
43012

> <i_f3d_flags>
0

> <s_epik_input>
W0NIM11jMVtjSF1bY0hdW2NIXW4oYzE9TylbQ0gyXUMoPU8pW05IXVtDSDJdW0NAQEhdMltDSDJdTihbQ0gyXVtDSDJdTzIpW0NIMl1bQ0hdKFtDSDNdKVtDSDNd

> <s_epik_cmdline>
J2VwaWtfcHl0aG9uJywgJy1waCcsICc3LjAnLCAnLXRuJywgJzgnLCAnLW1hJywgJzIwMCcsICctbWV0YWxfYmluZGluZycsICctaW1hZScsICc8aW5maWxlLm1hZT4nLCAnLW9tYWUnLCAnPG91dGZpbGUubWFlPic=

> <r_lp_tautomer_probability>
1

> <r_epik_Ionization_Penalty>
1.11669

> <r_epik_Ionization_Penalty_Charging>
7.32459e-07

> <r_epik_Ionization_Penalty_Neutral>
1.11669

> <r_epik_State_Penalty>
1.17516

> <r_epik_Charging_Adjusted_Penalty>
1.17516

> <i_epik_Tot_Q>
0

> <i_epik_Tot_abs_Q>
0

> <r_epik_Metal_State_Penalty>
1.17513

> <b_epik_Metal_Only>
0

> <s_lp_Force_Field>
OPLS_2005

> <r_lp_Energy>
33.1266

> <b_lp_Chiralities_Consistent>
1

> <s_lp_Variant>
AV-unprocessed.smi:678-6

> <Gold.Version>
5.8.1

> <Gold.Id.Protein>
6NUR|6NUR_protein|mol2

> <Gold.PLP.Fitness>
50.6362

> <Gold.PLP.PLP>
-43.6127

> <Gold.PLP.part.hbond>
-2.0000

> <Gold.PLP.part.metal>
0.0000

> <Gold.PLP.part.buried>
-0.1331

> <Gold.PLP.part.nonpolar>
-41.7486

> <Gold.PLP.part.repulsive>
0.1781

> <Gold.PLP.ligand.clash>
0.0000

> <Gold.PLP.ligand.torsion>
1.0374

> <Gold.PLP.Chemscore.Hbond>
2.0000

> <Gold.PLP.Chemscore.CHOScore>
1.0000

> <Gold.PLP.Chemscore.Metal>
0.0000

> <Gold.Chemscore.Hbonds>
donor molecule, donor type, donor heavy atom, donor atom, acceptor molecule, acceptor atom, score
      P1  H  7997  8009       L1     9  1.00
      P1  H 10752 10765       L1    21  1.00
      L1  C     5    29       P1  8028  1.00

> <Gold.PLP.Chemscore.Internal.Correction>
0.0984

> <Gold.Rescore>
     Score         DG    S(hbond)    S(metal)    S(lipo)     H(rot)  DE(clash)    DE(int)     intcor
     14.07     -19.53       1.79        0.00     109.04       1.82       0.22       5.24       ----

> <Gold.Chemscore.Fitness>
14.0663

> <Gold.Chemscore.DG>
-19.5332

> <Gold.Chemscore.ZeroCoef>
-5.4800

> <Gold.Chemscore.Hbond>
1.7861

> <Gold.Chemscore.Metal>
0.0000

> <Gold.Chemscore.Lipo>
109.0421

> <Gold.Chemscore.Internal_Hbond>
0.0000

> <Gold.Chemscore.DEClash>
0.2224

> <Gold.Chemscore.DEInternal>
5.2444

> <Gold.Chemscore.Rot>
1.8243

> <Gold.Chemscore.Internal.Correction>
   9.000000E+99

> <Gold.Chemscore.Hbonds>
donor molecule, donor type, donor heavy atom, donor atom, acceptor molecule, acceptor atom, score
      P1  H  7997  8009       L1     9  0.99
      P1  H 10752 10765       L1    21  0.33

> <Gold.Chemscore.Hbond.Weighted>
-5.9655

> <Gold.Chemscore.Metal.Weighted>
-0.0000

> <Gold.Chemscore.Lipo.Weighted>
-12.7579

> <Gold.Chemscore.Internal_Hbond.Weighted>
0.0000

> <Gold.Chemscore.DEClash.Weighted>
0.2224

> <Gold.Chemscore.DEInternal.Weighted>
5.2444

> <Gold.Chemscore.Rot.Weighted>
4.6703

> <Gold.Chemscore.Internal.Correction.Weighted>
   9.000000E+99

> <Gold.Protein.RotatedTorsions>
[ 6907 6896 6895 6894 ] final  -57.02 input  -60.11 | X-H torsion
[ 7974 7965 7964 7962 ] final   14.37 input  175.53 | X-H torsion
[ 8008 7997 7996 7995 ] final -159.24 input   59.86 | X-H torsion
[ 10167 10162 10161 10158 ] final   31.72 input  -65.29 | X-H torsion
[ 10718 10713 10712 10709 ] final   11.66 input   66.30 | X-H torsion
[ 10763 10752 10751 10750 ] final -147.52 input  -60.55 | X-H torsion
[ 11005 11000 10999 10996 ] final -178.24 input  -57.11 | X-H torsion

> <Gold.Protein.ActiveResidues>
 VAL166  LYS551  ARG553  GLY616  TRP617  ASP618  TYR619  PRO620  LYS621  CYS622 
 ASP623  PHE694  ASN695  SER759  ASP760  ASP761  ALA762  ILE779  LEU786  VAL792 
 PHE793  MET794  SER795  GLU796  ALA797  LYS798  CYS799  TRP800  GLU811  SER814 

> <Gold.Protein.RotatedAtoms>
  150.8120  134.7280  159.6695 H   0  0  0  0  0  0  0  0  0  0  0  0  # atno 6907 bound_to 6896
  152.4239  134.5900  159.9981 H   0  0  0  0  0  0  0  0  0  0  0  0  # atno 6908 bound_to 6896
  151.6107  133.3310  159.3103 H   0  0  0  0  0  0  0  0  0  0  0  0  # atno 6909 bound_to 6896
  146.2307  139.9052  142.8533 H   0  0  0  0  0  0  0  0  0  0  0  0  # atno 7974 bound_to 7965
  155.7596  140.0837  157.2161 H   0  0  0  0  0  0  0  0  0  0  0  0  # atno 8008 bound_to 7997
  154.4004  140.1545  156.2874 H   0  0  0  0  0  0  0  0  0  0  0  0  # atno 8009 bound_to 7997
  155.8852  140.3418  155.5919 H   0  0  0  0  0  0  0  0  0  0  0  0  # atno 8010 bound_to 7997
  140.4564  144.0972  150.6202 H   0  0  0  0  0  0  0  0  0  0  0  0  # atno 10167 bound_to 10162
  156.9988  130.6071  149.5694 H   0  0  0  0  0  0  0  0  0  0  0  0  # atno 10718 bound_to 10713
  154.8281  135.3358  154.6831 H   0  0  0  0  0  0  0  0  0  0  0  0  # atno 10763 bound_to 10752
  153.7454  135.6943  153.4962 H   0  0  0  0  0  0  0  0  0  0  0  0  # atno 10764 bound_to 10752
  153.2214  135.4447  155.0444 H   0  0  0  0  0  0  0  0  0  0  0  0  # atno 10765 bound_to 10752
  140.4320  134.6510  157.4716 H   0  0  0  0  0  0  0  0  0  0  0  0  # atno 11005 bound_to 11000
  145.2284  140.9963  143.4005 LP  0  0  0  0  0  0  0  0  0  0  0  0  # atno 17320 bound_to 7965
  144.9551  139.4040  143.6383 LP  0  0  0  0  0  0  0  0  0  0  0  0  # atno 17321 bound_to 7965
  140.4146  143.2640  151.9790 LP  0  0  0  0  0  0  0  0  0  0  0  0  # atno 17342 bound_to 10162
  139.4801  144.5885  151.7813 LP  0  0  0  0  0  0  0  0  0  0  0  0  # atno 17343 bound_to 10162
  156.0179  130.5273  150.8189 LP  0  0  0  0  0  0  0  0  0  0  0  0  # atno 17370 bound_to 10713
  157.5405  131.0940  150.9833 LP  0  0  0  0  0  0  0  0  0  0  0  0  # atno 17371 bound_to 10713
  140.0128  134.6665  155.9355 LP  0  0  0  0  0  0  0  0  0  0  0  0  # atno 17394 bound_to 11000
  141.1741  133.6539  156.4764 LP  0  0  0  0  0  0  0  0  0  0  0  0  # atno 17395 bound_to 11000

$$$$
