AV-unprocessed.smi:1721|AV-procd|sdf|6940|dock3
  -GOLD-   22720 8143D 1   1.00000     0.00000
 Structure written by MMmdl.
 44 46  0  0  0  0  0  0  0  0  2 V2000
  151.8466  138.3410  154.6449 C   0  0  0  0  0  0  0  0  0  0  0  0
  150.4755  138.1900  154.2929 O   0  0  0  0  0  0  0  0  0  0  0  0
  149.6485  139.2948  154.3688 C   0  0  0  0  0  0  0  0  0  0  0  0
  150.1907  140.4789  154.7493 N   0  0  0  0  0  0  0  0  0  0  0  0
  149.3871  141.5587  154.8262 C   0  0  0  0  0  0  0  0  0  0  0  0
  148.0127  141.5168  154.5312 C   0  0  0  0  0  0  0  0  0  0  0  0
  147.4476  140.2903  154.1356 C   0  0  0  0  0  0  0  0  0  0  0  0
  148.2781  139.1450  154.0484 C   0  0  0  0  0  0  0  0  0  0  0  0
  147.8299  137.8480  153.6648 N   0  0  0  0  0  0  0  0  0  0  0  0
  146.6257  137.2708  153.8183 C   0  0  0  0  0  0  0  0  0  0  0  0
  145.6415  137.7862  154.3462 O   0  0  0  0  0  0  0  0  0  0  0  0
  146.6214  136.0282  153.3151 N   0  0  0  0  0  0  0  0  0  0  0  0
  145.4733  135.1258  153.3145 C   0  0  1  0  0  0  0  0  0  0  0  0
  144.1487  135.8410  152.9966 C   0  0  0  0  0  0  0  0  0  0  0  0
  143.3385  134.8420  152.1469 C   0  0  0  0  0  0  0  0  0  0  0  0
  144.1636  133.6204  152.0862 N   0  3  1  0  0  0  0  0  0  0  0  0
  143.9484  132.7173  150.9348 C   0  0  0  0  0  0  0  0  0  0  0  0
  144.8337  131.4656  151.0985 C   0  0  0  0  0  0  0  0  0  0  0  0
  146.3136  131.8370  151.3225 C   0  0  0  0  0  0  0  0  0  0  0  0
  146.4649  132.8506  152.4734 C   0  0  0  0  0  0  0  0  0  0  0  0
  145.5595  134.0666  152.2124 C   0  0  2  0  0  0  0  0  0  0  0  0
  152.3551  137.3840  154.5298 H   0  0  0  0  0  0  0  0  0  0  0  0
  151.9599  138.6525  155.6843 H   0  0  0  0  0  0  0  0  0  0  0  0
  152.3488  139.0615  153.9979 H   0  0  0  0  0  0  0  0  0  0  0  0
  149.8533  142.4830  155.1336 H   0  0  0  0  0  0  0  0  0  0  0  0
  147.4042  142.4058  154.6075 H   0  0  0  0  0  0  0  0  0  0  0  0
  146.3936  140.2660  153.9136 H   0  0  0  0  0  0  0  0  0  0  0  0
  148.5279  137.2845  153.2011 H   0  0  0  0  0  0  0  0  0  0  0  0
  147.4738  135.6830  152.8981 H   0  0  0  0  0  0  0  0  0  0  0  0
  145.3716  134.6338  154.2844 H   0  0  0  0  0  0  0  0  0  0  0  0
  143.6221  136.1182  153.9105 H   0  0  0  0  0  0  0  0  0  0  0  0
  144.3174  136.7558  152.4261 H   0  0  0  0  0  0  0  0  0  0  0  0
  142.3620  134.6250  152.5805 H   0  0  0  0  0  0  0  0  0  0  0  0
  143.1831  135.2428  151.1440 H   0  0  0  0  0  0  0  0  0  0  0  0
  142.8973  132.4312  150.8850 H   0  0  0  0  0  0  0  0  0  0  0  0
  144.1873  133.2361  150.0049 H   0  0  0  0  0  0  0  0  0  0  0  0
  144.4782  130.8822  151.9490 H   0  0  0  0  0  0  0  0  0  0  0  0
  144.7378  130.8222  150.2234 H   0  0  0  0  0  0  0  0  0  0  0  0
  146.8988  130.9411  151.5321 H   0  0  0  0  0  0  0  0  0  0  0  0
  146.7220  132.2656  150.4064 H   0  0  0  0  0  0  0  0  0  0  0  0
  146.1998  132.3802  153.4213 H   0  0  0  0  0  0  0  0  0  0  0  0
  147.5062  133.1618  152.5571 H   0  0  0  0  0  0  0  0  0  0  0  0
  145.8574  134.5462  151.2770 H   0  0  0  0  0  0  0  0  0  0  0  0
  143.9570  133.0942  152.9234 H   0  0  0  0  0  0  0  0  0  0  0  0
  1  2  1  0  0  0  0
  1 22  1  0  0  0  0
  1 23  1  0  0  0  0
  1 24  1  0  0  0  0
  2  3  1  0  0  0  0
  3  8  1  0  0  0  0
  3  4  2  0  0  0  0
  4  5  1  0  0  0  0
  5  6  2  0  0  0  0
  5 25  1  0  0  0  0
  6  7  1  0  0  0  0
  6 26  1  0  0  0  0
  7  8  2  0  0  0  0
  7 27  1  0  0  0  0
  8  9  1  0  0  0  0
  9 10  1  0  0  0  0
  9 28  1  0  0  0  0
 10 11  2  0  0  0  0
 10 12  1  0  0  0  0
 12 13  1  0  0  0  0
 12 29  1  0  0  0  0
 13 21  1  0  0  0  0
 13 14  1  0  0  0  0
 13 30  1  0  0  0  0
 14 15  1  0  0  0  0
 14 31  1  0  0  0  0
 14 32  1  0  0  0  0
 15 16  1  0  0  0  0
 15 33  1  0  0  0  0
 15 34  1  0  0  0  0
 16 21  1  0  0  0  0
 16 17  1  0  0  0  0
 16 44  1  0  0  0  0
 17 18  1  0  0  0  0
 17 35  1  0  0  0  0
 17 36  1  0  0  0  0
 18 19  1  0  0  0  0
 18 37  1  0  0  0  0
 18 38  1  0  0  0  0
 19 20  1  0  0  0  0
 19 39  1  0  0  0  0
 19 40  1  0  0  0  0
 20 21  1  0  0  0  0
 20 41  1  0  0  0  0
 20 42  1  0  0  0  0
 21 43  1  0  0  0  0
M  CHG  1  16   1
M  END
> <s_m_source_file>
AV-unprocessed.smi

> <i_m_source_file_index>
1721

> <i_lp_mmshare_version>
43012

> <i_f3d_flags>
0

> <s_epik_input>
W0NIM11PYzFuW2NIXVtjSF1bY0hdYzFbTkhdQyg9TylbTkhdW0NASF0oW0NIMl1bQ0gyXTIpW0NAQEhdKE4yMylbQ0gyXVtDSDJdW0NIMl1bQ0gyXTM=

> <s_epik_cmdline>
J2VwaWtfcHl0aG9uJywgJy1waCcsICc3LjAnLCAnLXRuJywgJzgnLCAnLW1hJywgJzIwMCcsICctbWV0YWxfYmluZGluZycsICctaW1hZScsICc8aW5maWxlLm1hZT4nLCAnLW9tYWUnLCAnPG91dGZpbGUubWFlPic=

> <r_lp_tautomer_probability>
1

> <r_epik_Ionization_Penalty>
0.00104793

> <r_epik_Ionization_Penalty_Charging>
0.000974069

> <r_epik_Ionization_Penalty_Neutral>
7.38649e-05

> <r_epik_State_Penalty>
0.000633842

> <r_epik_Charging_Adjusted_Penalty>
0.00160791

> <i_epik_Tot_Q>
1

> <i_epik_Tot_abs_Q>
1

> <r_epik_Metal_State_Penalty>
-0

> <b_epik_Metal_Only>
0

> <s_lp_Force_Field>
OPLS_2005

> <r_lp_Energy>
37.3569

> <b_lp_Chiralities_Consistent>
1

> <s_lp_Variant>
AV-unprocessed.smi:1721-6

> <Gold.Version>
5.8.1

> <Gold.Id.Protein>
6NUR|6NUR_protein|mol2

> <Gold.PLP.Fitness>
44.9766

> <Gold.PLP.PLP>
-34.5374

> <Gold.PLP.part.hbond>
-3.0000

> <Gold.PLP.part.metal>
0.0000

> <Gold.PLP.part.buried>
-4.3053

> <Gold.PLP.part.nonpolar>
-27.3156

> <Gold.PLP.part.repulsive>
0.4498

> <Gold.PLP.ligand.clash>
0.0000

> <Gold.PLP.ligand.torsion>
0.4927

> <Gold.PLP.Chemscore.Hbond>
2.8720

> <Gold.PLP.Chemscore.CHOScore>
0.9324

> <Gold.PLP.Chemscore.Metal>
0.0000

> <Gold.Chemscore.Hbonds>
donor molecule, donor type, donor heavy atom, donor atom, acceptor molecule, acceptor atom, score
      L1  H     9    28       P1  7948  0.98
      L1  H    12    29       P1  7948  0.86
      P1  H  7989  7998       L1     4  0.96
      L1  C     5    25       P1  8028  1.00

> <Gold.PLP.Chemscore.Internal.Correction>
0.0113

> <Gold.Rescore>
     Score         DG    S(hbond)    S(metal)    S(lipo)     H(rot)  DE(clash)    DE(int)     intcor
     18.16     -18.38       2.21        0.00      74.62       1.25       0.00       0.23       ----

> <Gold.Chemscore.Fitness>
18.1553

> <Gold.Chemscore.DG>
-18.3832

> <Gold.Chemscore.ZeroCoef>
-5.4800

> <Gold.Chemscore.Hbond>
2.2054

> <Gold.Chemscore.Metal>
0.0000

> <Gold.Chemscore.Lipo>
74.6199

> <Gold.Chemscore.Internal_Hbond>
0.0000

> <Gold.Chemscore.DEClash>
0.0000

> <Gold.Chemscore.DEInternal>
0.2278

> <Gold.Chemscore.Rot>
1.2474

> <Gold.Chemscore.Internal.Correction>
   9.000000E+99

> <Gold.Chemscore.Hbonds>
donor molecule, donor type, donor heavy atom, donor atom, acceptor molecule, acceptor atom, score
      L1  H     9    28       P1  7948  0.93
      L1  H    12    29       P1  7948  0.85
      P1  H  7989  7998       L1     4  0.36

> <Gold.Chemscore.Hbond.Weighted>
-7.3661

> <Gold.Chemscore.Metal.Weighted>
-0.0000

> <Gold.Chemscore.Lipo.Weighted>
-8.7305

> <Gold.Chemscore.Internal_Hbond.Weighted>
0.0000

> <Gold.Chemscore.DEClash.Weighted>
0.0000

> <Gold.Chemscore.DEInternal.Weighted>
0.2278

> <Gold.Chemscore.Rot.Weighted>
3.1934

> <Gold.Chemscore.Internal.Correction.Weighted>
   9.000000E+99

> <Gold.Protein.RotatedTorsions>
[ 6907 6896 6895 6894 ] final   68.21 input  -60.11 | X-H torsion
[ 7974 7965 7964 7962 ] final  130.74 input  175.53 | X-H torsion
[ 8008 7997 7996 7995 ] final  165.69 input   59.86 | X-H torsion
[ 10167 10162 10161 10158 ] final -102.29 input  -65.29 | X-H torsion
[ 10718 10713 10712 10709 ] final -176.43 input   66.30 | X-H torsion
[ 10763 10752 10751 10750 ] final  -81.05 input  -60.55 | X-H torsion
[ 11005 11000 10999 10996 ] final   36.77 input  -57.11 | X-H torsion

> <Gold.Protein.ActiveResidues>
 VAL166  LYS551  ARG553  GLY616  TRP617  ASP618  TYR619  PRO620  LYS621  CYS622 
 ASP623  PHE694  ASN695  SER759  ASP760  ASP761  ALA762  ILE779  LEU786  VAL792 
 PHE793  MET794  SER795  GLU796  ALA797  LYS798  CYS799  TRP800  GLU811  SER814 

> <Gold.Protein.RotatedAtoms>
  152.4605  134.5196  159.9778 H   0  0  0  0  0  0  0  0  0  0  0  0  # atno 6907 bound_to 6896
  151.5246  133.3454  159.2915 H   0  0  0  0  0  0  0  0  0  0  0  0  # atno 6908 bound_to 6896
  150.8565  134.7936  159.7112 H   0  0  0  0  0  0  0  0  0  0  0  0  # atno 6909 bound_to 6896
  145.0147  139.4187  143.5227 H   0  0  0  0  0  0  0  0  0  0  0  0  # atno 7974 bound_to 7965
  156.1780  140.1663  156.8326 H   0  0  0  0  0  0  0  0  0  0  0  0  # atno 8008 bound_to 7997
  154.5328  140.0753  156.8409 H   0  0  0  0  0  0  0  0  0  0  0  0  # atno 8009 bound_to 7997
  155.3371  140.3382  155.4241 H   0  0  0  0  0  0  0  0  0  0  0  0  # atno 8010 bound_to 7997
  140.2322  143.3598  152.0876 H   0  0  0  0  0  0  0  0  0  0  0  0  # atno 10167 bound_to 10162
  156.8146  130.9598  151.3114 H   0  0  0  0  0  0  0  0  0  0  0  0  # atno 10718 bound_to 10713
  154.5587  135.5640  153.6988 H   0  0  0  0  0  0  0  0  0  0  0  0  # atno 10763 bound_to 10752
  153.0011  135.6268  154.2274 H   0  0  0  0  0  0  0  0  0  0  0  0  # atno 10764 bound_to 10752
  154.2211  135.2869  155.2904 H   0  0  0  0  0  0  0  0  0  0  0  0  # atno 10765 bound_to 10752
  140.2292  134.3547  155.7971 H   0  0  0  0  0  0  0  0  0  0  0  0  # atno 11005 bound_to 11000
  146.3476  139.9611  142.8717 LP  0  0  0  0  0  0  0  0  0  0  0  0  # atno 17320 bound_to 7965
  145.1976  140.9840  143.4174 LP  0  0  0  0  0  0  0  0  0  0  0  0  # atno 17321 bound_to 7965
  139.5106  144.6887  151.5819 LP  0  0  0  0  0  0  0  0  0  0  0  0  # atno 17342 bound_to 10162
  140.6176  143.9318  150.6501 LP  0  0  0  0  0  0  0  0  0  0  0  0  # atno 17343 bound_to 10162
  157.6488  130.8867  149.9592 LP  0  0  0  0  0  0  0  0  0  0  0  0  # atno 17370 bound_to 10713
  156.1024  130.3655  150.0194 LP  0  0  0  0  0  0  0  0  0  0  0  0  # atno 17371 bound_to 10713
  141.2219  133.7236  156.8704 LP  0  0  0  0  0  0  0  0  0  0  0  0  # atno 17394 bound_to 11000
  140.1768  134.9061  157.2900 LP  0  0  0  0  0  0  0  0  0  0  0  0  # atno 17395 bound_to 11000

$$$$
