AV-unprocessed.smi:483|AV-procd|sdf|2685|dock2
  -GOLD-   2262023113D 1   1.00000     0.00000
 Structure written by MMmdl.
 44 44  0  0  0  0  0  0  0  0  1 V2000
  144.3982  133.2755  150.0985 C   0  0  0  0  0  0  0  0  0  0  0  0
  143.9584  132.0404  150.8916 C   0  0  0  0  0  0  0  0  0  0  0  0
  145.0142  131.5951  151.9164 C   0  0  0  0  0  0  0  0  0  0  0  0
  145.3979  132.6879  152.8022 N   0  0  0  0  0  0  0  0  0  0  0  0
  146.6419  133.1728  152.9349 C   0  0  0  0  0  0  0  0  0  0  0  0
  147.6057  132.7402  152.3004 O   0  0  0  0  0  0  0  0  0  0  0  0
  146.8134  134.3384  153.9228 C   0  0  2  0  0  0  0  0  0  0  0  0
  146.0034  135.5326  153.3911 C   0  0  0  0  0  0  0  0  0  0  0  0
  148.2160  134.7442  154.0025 N   0  0  0  0  0  0  0  0  0  0  0  0
  148.9963  134.6265  155.0883 C   0  0  0  0  0  0  0  0  0  0  0  0
  148.5996  134.1557  156.1554 O   0  0  0  0  0  0  0  0  0  0  0  0
  150.4505  135.0923  154.9280 C   0  0  0  0  0  0  0  0  0  0  0  0
  150.6452  136.5086  155.2715 N   0  0  0  0  0  0  0  0  0  0  0  0
  149.7523  137.3663  154.6583 N   0  0  0  0  0  0  0  0  0  0  0  0
  149.8077  138.6437  154.8476 C   0  0  0  0  0  0  0  0  0  0  0  0
  148.7905  139.4791  154.1176 C   0  0  0  0  0  0  0  0  0  0  0  0
  150.8240  139.2000  155.7355 C   0  0  0  0  0  0  0  0  0  0  0  0
  150.8409  140.7108  155.9246 C   0  0  0  0  0  0  0  0  0  0  0  0
  151.6955  138.3478  156.3309 C   0  0  0  0  0  0  0  0  0  0  0  0
  152.7273  138.8008  157.2071 C   0  0  0  0  0  0  0  0  0  0  0  0
  153.5777  139.1661  157.9028 N   0  0  0  0  0  0  0  0  0  0  0  0
  151.6430  136.9001  156.1156 C   0  0  0  0  0  0  0  0  0  0  0  0
  152.4201  136.0996  156.6387 O   0  0  0  0  0  0  0  0  0  0  0  0
  143.6331  133.5675  149.3789 H   0  0  0  0  0  0  0  0  0  0  0  0
  145.3185  133.0824  149.5466 H   0  0  0  0  0  0  0  0  0  0  0  0
  144.5746  134.1243  150.7596 H   0  0  0  0  0  0  0  0  0  0  0  0
  143.0182  132.2608  151.3987 H   0  0  0  0  0  0  0  0  0  0  0  0
  143.7513  131.2237  150.1989 H   0  0  0  0  0  0  0  0  0  0  0  0
  144.6172  130.7866  152.5309 H   0  0  0  0  0  0  0  0  0  0  0  0
  145.8951  131.1959  151.4104 H   0  0  0  0  0  0  0  0  0  0  0  0
  144.6653  133.1027  153.3599 H   0  0  0  0  0  0  0  0  0  0  0  0
  146.4460  134.0565  154.9117 H   0  0  0  0  0  0  0  0  0  0  0  0
  144.9422  135.2904  153.3195 H   0  0  0  0  0  0  0  0  0  0  0  0
  146.3408  135.8463  152.4018 H   0  0  0  0  0  0  0  0  0  0  0  0
  146.0941  136.3914  154.0571 H   0  0  0  0  0  0  0  0  0  0  0  0
  148.6255  135.1286  153.1634 H   0  0  0  0  0  0  0  0  0  0  0  0
  151.0770  134.4607  155.5603 H   0  0  0  0  0  0  0  0  0  0  0  0
  150.7874  134.9063  153.9062 H   0  0  0  0  0  0  0  0  0  0  0  0
  148.0950  139.9409  154.8186 H   0  0  0  0  0  0  0  0  0  0  0  0
  148.2050  138.8841  153.4148 H   0  0  0  0  0  0  0  0  0  0  0  0
  149.2755  140.2727  153.5486 H   0  0  0  0  0  0  0  0  0  0  0  0
  151.5248  141.0181  156.7151 H   0  0  0  0  0  0  0  0  0  0  0  0
  149.8510  141.0805  156.1942 H   0  0  0  0  0  0  0  0  0  0  0  0
  151.1543  141.2044  155.0040 H   0  0  0  0  0  0  0  0  0  0  0  0
  1  2  1  0  0  0  0
  1 24  1  0  0  0  0
  1 25  1  0  0  0  0
  1 26  1  0  0  0  0
  2  3  1  0  0  0  0
  2 27  1  0  0  0  0
  2 28  1  0  0  0  0
  3  4  1  0  0  0  0
  3 29  1  0  0  0  0
  3 30  1  0  0  0  0
  4  5  1  0  0  0  0
  4 31  1  0  0  0  0
  5  6  2  0  0  0  0
  5  7  1  0  0  0  0
  7  8  1  0  0  0  0
  7  9  1  0  0  0  0
  7 32  1  0  0  0  0
  8 33  1  0  0  0  0
  8 34  1  0  0  0  0
  8 35  1  0  0  0  0
  9 10  1  0  0  0  0
  9 36  1  0  0  0  0
 10 11  2  0  0  0  0
 10 12  1  0  0  0  0
 12 13  1  0  0  0  0
 12 37  1  0  0  0  0
 12 38  1  0  0  0  0
 13 22  1  0  0  0  0
 13 14  1  0  0  0  0
 14 15  2  0  0  0  0
 15 16  1  0  0  0  0
 15 17  1  0  0  0  0
 16 39  1  0  0  0  0
 16 40  1  0  0  0  0
 16 41  1  0  0  0  0
 17 18  1  0  0  0  0
 17 19  2  0  0  0  0
 18 42  1  0  0  0  0
 18 43  1  0  0  0  0
 18 44  1  0  0  0  0
 19 20  1  0  0  0  0
 19 22  1  0  0  0  0
 20 21  3  0  0  0  0
 22 23  2  0  0  0  0
M  END
> <s_m_source_file>
AV-unprocessed.smi

> <i_m_source_file_index>
483

> <i_lp_mmshare_version>
43012

> <i_f3d_flags>
0

> <s_epik_input>
W0NIM11bQ0gyXVtDSDJdW05IXUMoPU8pW0NASF0oW0NIM10pW05IXUMoPU8pW0NIMl1uMW5jKFtDSDNdKWMoW0NIM10pYyhDI04pYzE9Tw==

> <s_epik_cmdline>
J2VwaWtfcHl0aG9uJywgJy1waCcsICc3LjAnLCAnLXRuJywgJzgnLCAnLW1hJywgJzIwMCcsICctbWV0YWxfYmluZGluZycsICctaW1hZScsICc8aW5maWxlLm1hZT4nLCAnLW9tYWUnLCAnPG91dGZpbGUubWFlPic=

> <r_lp_tautomer_probability>
1

> <r_epik_Ionization_Penalty>
5.96698e-08

> <r_epik_Ionization_Penalty_Charging>
1.88177e-11

> <r_epik_Ionization_Penalty_Neutral>
5.9651e-08

> <r_epik_State_Penalty>
-0

> <r_epik_Charging_Adjusted_Penalty>
1.88177e-11

> <i_epik_Tot_Q>
0

> <i_epik_Tot_abs_Q>
0

> <r_epik_Metal_State_Penalty>
-0

> <b_epik_Metal_Only>
0

> <s_lp_Force_Field>
OPLS_2005

> <r_lp_Energy>
17.9954

> <b_lp_Chiralities_Consistent>
1

> <s_lp_Variant>
AV-unprocessed.smi:483-1

> <Gold.Version>
5.8.1

> <Gold.Id.Protein>
6NUR|6NUR_protein|mol2

> <Gold.PLP.Fitness>
37.6799

> <Gold.PLP.PLP>
-29.6695

> <Gold.PLP.part.hbond>
-3.0000

> <Gold.PLP.part.metal>
0.0000

> <Gold.PLP.part.buried>
-3.4785

> <Gold.PLP.part.nonpolar>
-24.7742

> <Gold.PLP.part.repulsive>
0.9446

> <Gold.PLP.ligand.clash>
0.0000

> <Gold.PLP.ligand.torsion>
0.5499

> <Gold.PLP.Chemscore.Hbond>
3.0000

> <Gold.PLP.Chemscore.CHOScore>
0.0000

> <Gold.PLP.Chemscore.Metal>
0.0000

> <Gold.Chemscore.Hbonds>
donor molecule, donor type, donor heavy atom, donor atom, acceptor molecule, acceptor atom, score
      L1  H     9    36       P1  7948  1.00
      P1  H  7997  8009       L1    21  1.00
      P1  H 10752 10764       L1    23  1.00

> <Gold.PLP.Chemscore.Internal.Correction>
0.1103

> <Gold.Rescore>
     Score         DG    S(hbond)    S(metal)    S(lipo)     H(rot)  DE(clash)    DE(int)     intcor
     15.43     -16.05       2.86        0.00      60.69       2.38       0.04       0.58       ----

> <Gold.Chemscore.Fitness>
15.4343

> <Gold.Chemscore.DG>
-16.0486

> <Gold.Chemscore.ZeroCoef>
-5.4800

> <Gold.Chemscore.Hbond>
2.8613

> <Gold.Chemscore.Metal>
0.0000

> <Gold.Chemscore.Lipo>
60.6909

> <Gold.Chemscore.Internal_Hbond>
0.0000

> <Gold.Chemscore.DEClash>
0.0354

> <Gold.Chemscore.DEInternal>
0.5789

> <Gold.Chemscore.Rot>
2.3785

> <Gold.Chemscore.Internal.Correction>
   9.000000E+99

> <Gold.Chemscore.Hbonds>
donor molecule, donor type, donor heavy atom, donor atom, acceptor molecule, acceptor atom, score
      L1  H     9    36       P1  7948  0.74
      P1  H  7997  8009       L1    21  0.87
      P1  H 10752 10764       L1    23  0.26

> <Gold.Chemscore.Hbond.Weighted>
-9.5568

> <Gold.Chemscore.Metal.Weighted>
-0.0000

> <Gold.Chemscore.Lipo.Weighted>
-7.1008

> <Gold.Chemscore.Internal_Hbond.Weighted>
0.0000

> <Gold.Chemscore.DEClash.Weighted>
0.0354

> <Gold.Chemscore.DEInternal.Weighted>
0.5789

> <Gold.Chemscore.Rot.Weighted>
6.0890

> <Gold.Chemscore.Internal.Correction.Weighted>
   9.000000E+99

> <Gold.Protein.RotatedTorsions>
[ 6907 6896 6895 6894 ] final  164.95 input  -60.11 | X-H torsion
[ 7974 7965 7964 7962 ] final  -37.14 input  175.53 | X-H torsion
[ 8008 7997 7996 7995 ] final  142.79 input   59.86 | X-H torsion
[ 10167 10162 10161 10158 ] final  132.31 input  -65.29 | X-H torsion
[ 10718 10713 10712 10709 ] final -161.15 input   66.30 | X-H torsion
[ 10763 10752 10751 10750 ] final  -22.03 input  -60.55 | X-H torsion
[ 11005 11000 10999 10996 ] final -133.93 input  -57.11 | X-H torsion

> <Gold.Protein.ActiveResidues>
 VAL166  LYS551  ARG553  GLY616  TRP617  ASP618  TYR619  PRO620  LYS621  CYS622 
 ASP623  PHE694  ASN695  SER759  ASP760  ASP761  ALA762  ILE779  LEU786  VAL792 
 PHE793  MET794  SER795  GLU796  ALA797  LYS798  CYS799  TRP800  GLU811  SER814 

> <Gold.Protein.RotatedAtoms>
  151.9020  133.3540  159.3833 H   0  0  0  0  0  0  0  0  0  0  0  0  # atno 6907 bound_to 6896
  150.7078  134.4819  159.5483 H   0  0  0  0  0  0  0  0  0  0  0  0  # atno 6908 bound_to 6896
  152.2409  134.8230  160.0511 H   0  0  0  0  0  0  0  0  0  0  0  0  # atno 6909 bound_to 6896
  146.0600  140.6361  142.9001 H   0  0  0  0  0  0  0  0  0  0  0  0  # atno 7974 bound_to 7965
  156.2943  140.2279  156.4786 H   0  0  0  0  0  0  0  0  0  0  0  0  # atno 8008 bound_to 7997
  154.7873  140.0456  157.1195 H   0  0  0  0  0  0  0  0  0  0  0  0  # atno 8009 bound_to 7997
  154.9687  140.3064  155.5001 H   0  0  0  0  0  0  0  0  0  0  0  0  # atno 8010 bound_to 7997
  139.5345  144.6668  151.4833 H   0  0  0  0  0  0  0  0  0  0  0  0  # atno 10167 bound_to 10162
  156.5922  130.8775  151.2893 H   0  0  0  0  0  0  0  0  0  0  0  0  # atno 10718 bound_to 10713
  153.6455  135.6983  153.5226 H   0  0  0  0  0  0  0  0  0  0  0  0  # atno 10763 bound_to 10752
  153.2748  135.4204  155.1021 H   0  0  0  0  0  0  0  0  0  0  0  0  # atno 10764 bound_to 10752
  154.8489  135.3587  154.6000 H   0  0  0  0  0  0  0  0  0  0  0  0  # atno 10765 bound_to 10752
  140.9036  134.1659  157.4442 H   0  0  0  0  0  0  0  0  0  0  0  0  # atno 11005 bound_to 11000
  144.7170  140.4243  143.7037 LP  0  0  0  0  0  0  0  0  0  0  0  0  # atno 17320 bound_to 7965
  145.6576  139.1575  143.2826 LP  0  0  0  0  0  0  0  0  0  0  0  0  # atno 17321 bound_to 7965
  140.6544  143.8630  150.6819 LP  0  0  0  0  0  0  0  0  0  0  0  0  # atno 17342 bound_to 10162
  140.2005  143.3963  152.1795 LP  0  0  0  0  0  0  0  0  0  0  0  0  # atno 17343 bound_to 10162
  157.7301  130.9680  150.1816 LP  0  0  0  0  0  0  0  0  0  0  0  0  # atno 17370 bound_to 10713
  156.2540  130.3703  149.8202 LP  0  0  0  0  0  0  0  0  0  0  0  0  # atno 17371 bound_to 10713
  139.8746  134.9908  156.5518 LP  0  0  0  0  0  0  0  0  0  0  0  0  # atno 17394 bound_to 11000
  140.8199  133.8362  155.8886 LP  0  0  0  0  0  0  0  0  0  0  0  0  # atno 17395 bound_to 11000

$$$$
