AV-unprocessed.smi:103|AV-procd|sdf|990|dock4
  -GOLD-   2262017563D 1   1.00000     0.00000
 Structure written by MMmdl.
 53 55  0  0  0  0  0  0  0  0  1 V2000
  150.3407  132.7118  155.6591 C   0  0  0  0  0  0  0  0  0  0  0  0
  149.6199  132.7669  157.0000 C   0  0  0  0  0  0  0  0  0  0  0  0
  150.1043  132.2495  158.0067 O   0  0  0  0  0  0  0  0  0  0  0  0
  148.4483  133.4216  156.9282 O   0  0  0  0  0  0  0  0  0  0  0  0
  147.5368  133.3790  158.0160 C   0  0  0  0  0  0  0  0  0  0  0  0
  147.6939  134.6502  158.8604 C   0  0  1  0  0  0  0  0  0  0  0  0
  147.5520  135.7824  157.9986 O   0  0  0  0  0  0  0  0  0  0  0  0
  146.5710  136.6493  158.4717 C   0  0  1  0  0  0  0  0  0  0  0  0
  145.8335  137.2316  157.3096 N   0  0  0  0  0  0  0  0  0  0  0  0
  145.7434  138.5444  156.8919 C   0  0  0  0  0  0  0  0  0  0  0  0
  146.5524  139.9557  157.6375 S   0  0  0  0  0  0  0  0  0  0  0  0
  146.2660  141.2650  156.3789 C   0  0  0  0  0  0  0  0  0  0  0  0
  145.8035  140.2845  158.8606 O   0  0  0  0  0  0  0  0  0  0  0  0
  147.9897  139.6507  157.7019 O   0  0  0  0  0  0  0  0  0  0  0  0
  145.0805  138.7634  155.7885 N   0  0  0  0  0  0  0  0  0  0  0  0
  144.6187  137.5010  155.4435 C   0  0  0  0  0  0  0  0  0  0  0  0
  143.8235  136.9977  154.3832 C   0  0  0  0  0  0  0  0  0  0  0  0
  143.3220  137.7744  153.4133 N   0  0  0  0  0  0  0  0  0  0  0  0
  143.5576  135.6710  154.3468 N   0  0  0  0  0  0  0  0  0  0  0  0
  144.0470  134.8746  155.3026 C   0  0  0  0  0  0  0  0  0  0  0  0
  144.8044  135.2003  156.3531 N   0  0  0  0  0  0  0  0  0  0  0  0
  145.0733  136.5381  156.3893 C   0  0  0  0  0  0  0  0  0  0  0  0
  145.6380  135.8307  159.3543 C   0  0  2  0  0  0  0  0  0  0  0  0
  145.0171  136.6523  160.3334 O   0  0  0  0  0  0  0  0  0  0  0  0
  144.4992  136.1052  161.4430 C   0  0  0  0  0  0  0  0  0  0  0  0
  143.9653  137.1536  162.4094 C   0  0  0  0  0  0  0  0  0  0  0  0
  144.4418  134.9026  161.6997 O   0  0  0  0  0  0  0  0  0  0  0  0
  146.5827  134.7737  159.9231 C   0  0  2  0  0  0  0  0  0  0  0  0
  147.0280  134.9856  161.2717 O   0  0  0  0  0  0  0  0  0  0  0  0
  147.5121  136.1546  161.7526 C   0  0  0  0  0  0  0  0  0  0  0  0
  147.7769  136.0884  163.2504 C   0  0  0  0  0  0  0  0  0  0  0  0
  147.7378  137.1804  161.1134 O   0  0  0  0  0  0  0  0  0  0  0  0
  150.3529  131.6898  155.2809 H   0  0  0  0  0  0  0  0  0  0  0  0
  151.3704  133.0517  155.7702 H   0  0  0  0  0  0  0  0  0  0  0  0
  149.8462  133.3463  154.9231 H   0  0  0  0  0  0  0  0  0  0  0  0
  146.5029  133.2828  157.6833 H   0  0  0  0  0  0  0  0  0  0  0  0
  147.7608  132.4982  158.6182 H   0  0  0  0  0  0  0  0  0  0  0  0
  148.6845  134.6565  159.3154 H   0  0  0  0  0  0  0  0  0  0  0  0
  147.0442  137.4872  158.9764 H   0  0  0  0  0  0  0  0  0  0  0  0
  146.7131  142.1985  156.7193 H   0  0  0  0  0  0  0  0  0  0  0  0
  145.1943  141.4053  156.2393 H   0  0  0  0  0  0  0  0  0  0  0  0
  146.7184  140.9702  155.4324 H   0  0  0  0  0  0  0  0  0  0  0  0
  143.5067  138.7672  153.4184 H   0  0  0  0  0  0  0  0  0  0  0  0
  142.7595  137.3662  152.6806 H   0  0  0  0  0  0  0  0  0  0  0  0
  143.7990  133.8270  155.2128 H   0  0  0  0  0  0  0  0  0  0  0  0
  144.9026  135.3495  158.7074 H   0  0  0  0  0  0  0  0  0  0  0  0
  143.0622  137.6125  162.0065 H   0  0  0  0  0  0  0  0  0  0  0  0
  144.7086  137.9343  162.5716 H   0  0  0  0  0  0  0  0  0  0  0  0
  143.7248  136.7004  163.3711 H   0  0  0  0  0  0  0  0  0  0  0  0
  146.0308  133.8347  159.9716 H   0  0  0  0  0  0  0  0  0  0  0  0
  148.4695  135.2782  163.4781 H   0  0  0  0  0  0  0  0  0  0  0  0
  146.8467  135.9128  163.7907 H   0  0  0  0  0  0  0  0  0  0  0  0
  148.2107  137.0237  163.6047 H   0  0  0  0  0  0  0  0  0  0  0  0
  1  2  1  0  0  0  0
  1 33  1  0  0  0  0
  1 34  1  0  0  0  0
  1 35  1  0  0  0  0
  2  3  2  0  0  0  0
  2  4  1  0  0  0  0
  4  5  1  0  0  0  0
  5  6  1  0  0  0  0
  5 36  1  0  0  0  0
  5 37  1  0  0  0  0
  6 28  1  0  0  0  0
  6  7  1  0  0  0  0
  6 38  1  0  0  0  0
  7  8  1  0  0  0  0
  8  9  1  0  0  0  0
  8 23  1  0  0  0  0
  8 39  1  0  0  0  0
  9 22  1  0  0  0  0
  9 10  1  0  0  0  0
 10 11  1  0  0  0  0
 10 15  2  0  0  0  0
 11 12  1  0  0  0  0
 11 13  2  0  0  0  0
 11 14  2  0  0  0  0
 12 40  1  0  0  0  0
 12 41  1  0  0  0  0
 12 42  1  0  0  0  0
 15 16  1  0  0  0  0
 16 22  2  0  0  0  0
 16 17  1  0  0  0  0
 17 18  1  0  0  0  0
 17 19  2  0  0  0  0
 18 43  1  0  0  0  0
 18 44  1  0  0  0  0
 19 20  1  0  0  0  0
 20 21  2  0  0  0  0
 20 45  1  0  0  0  0
 21 22  1  0  0  0  0
 23 24  1  0  0  0  0
 23 28  1  0  0  0  0
 23 46  1  0  0  0  0
 24 25  1  0  0  0  0
 25 26  1  0  0  0  0
 25 27  2  0  0  0  0
 26 47  1  0  0  0  0
 26 48  1  0  0  0  0
 26 49  1  0  0  0  0
 28 29  1  0  0  0  0
 28 50  1  0  0  0  0
 29 30  1  0  0  0  0
 30 31  1  0  0  0  0
 30 32  2  0  0  0  0
 31 51  1  0  0  0  0
 31 52  1  0  0  0  0
 31 53  1  0  0  0  0
M  END
> <s_m_source_file>
AV-unprocessed.smi

> <i_m_source_file_index>
103

> <i_lp_mmshare_version>
43012

> <i_f3d_flags>
0

> <s_epik_input>
W0NIM11DKD1PKU9bQ0gyXVtDQEBIXTFPW0NASF0oW0NAQEhdKE9DKD1PKVtDSDNdKVtDQEhdMU9DKD1PKVtDSDNdKW4oYyhuMilTKD1PKSg9TylbQ0gzXSljKGMyMyluW2NIXW5jM1tOSDJd

> <s_epik_cmdline>
J2VwaWtfcHl0aG9uJywgJy1waCcsICc3LjAnLCAnLXRuJywgJzgnLCAnLW1hJywgJzIwMCcsICctbWV0YWxfYmluZGluZycsICctaW1hZScsICc8aW5maWxlLm1hZT4nLCAnLW9tYWUnLCAnPG91dGZpbGUubWFlPic=

> <r_lp_tautomer_probability>
1

> <r_epik_Ionization_Penalty>
1.51338e-05

> <r_epik_Ionization_Penalty_Charging>
0

> <r_epik_Ionization_Penalty_Neutral>
1.51338e-05

> <r_epik_State_Penalty>
-0

> <r_epik_Charging_Adjusted_Penalty>
0

> <i_epik_Tot_Q>
0

> <i_epik_Tot_abs_Q>
0

> <r_epik_Metal_State_Penalty>
-0

> <b_epik_Metal_Only>
0

> <s_epik_Chemistry_Notes>
This compound has an ester and may undergo hydrolysis at high or low pH. This compound contains an acetal/aminal-like group ( X-CH(R)-Y where X, Y are N, S, or O) that may be acid/base labile, releasing an aldehyde.

> <s_lp_Force_Field>
OPLS_2005

> <r_lp_Energy>
20.3067

> <b_lp_Chiralities_Consistent>
1

> <s_lp_Variant>
AV-unprocessed.smi:103-14

> <Gold.Version>
5.8.1

> <Gold.Id.Protein>
6NUR|6NUR_protein|mol2

> <Gold.PLP.Fitness>
36.7640

> <Gold.PLP.PLP>
-23.5861

> <Gold.PLP.part.hbond>
-5.2218

> <Gold.PLP.part.metal>
0.0000

> <Gold.PLP.part.buried>
-4.7251

> <Gold.PLP.part.nonpolar>
-13.3922

> <Gold.PLP.part.repulsive>
0.1419

> <Gold.PLP.ligand.clash>
0.0000

> <Gold.PLP.ligand.torsion>
1.9627

> <Gold.PLP.Chemscore.Hbond>
3.9017

> <Gold.PLP.Chemscore.CHOScore>
1.0000

> <Gold.PLP.Chemscore.Metal>
0.0000

> <Gold.Chemscore.Hbonds>
donor molecule, donor type, donor heavy atom, donor atom, acceptor molecule, acceptor atom, score
      L1  H    18    43       P1 10175  0.99
      P1  H  6896  6909       L1     3  1.00
      P1  H  6931  6943       L1    32  0.94
      P1  H  6934  6946       L1    13  0.14
      P1  H  6934  6947       L1    32  0.85
      L1  C    20    45       P1 10957  1.00

> <Gold.PLP.Chemscore.Internal.Correction>
2.3984

> <Gold.Rescore>
     Score         DG    S(hbond)    S(metal)    S(lipo)     H(rot)  DE(clash)    DE(int)     intcor
      2.52     -10.65       3.80        0.00      28.50       4.25       0.03       8.09       ----

> <Gold.Chemscore.Fitness>
2.5205

> <Gold.Chemscore.DG>
-10.6480

> <Gold.Chemscore.ZeroCoef>
-5.4800

> <Gold.Chemscore.Hbond>
3.8031

> <Gold.Chemscore.Metal>
0.0000

> <Gold.Chemscore.Lipo>
28.4970

> <Gold.Chemscore.Internal_Hbond>
0.0000

> <Gold.Chemscore.DEClash>
0.0331

> <Gold.Chemscore.DEInternal>
8.0944

> <Gold.Chemscore.Rot>
4.2456

> <Gold.Chemscore.Internal.Correction>
   9.000000E+99

> <Gold.Chemscore.Hbonds>
donor molecule, donor type, donor heavy atom, donor atom, acceptor molecule, acceptor atom, score
      L1  H    18    43       P1 10175  0.94
      P1  H  6896  6909       L1     3  0.79
      P1  H  6931  6943       L1    32  0.78
      P1  H  6934  6946       L1    13  0.14
      P1  H  6934  6947       L1    32  0.84

> <Gold.Chemscore.Hbond.Weighted>
-12.7025

> <Gold.Chemscore.Metal.Weighted>
-0.0000

> <Gold.Chemscore.Lipo.Weighted>
-3.3341

> <Gold.Chemscore.Internal_Hbond.Weighted>
0.0000

> <Gold.Chemscore.DEClash.Weighted>
0.0331

> <Gold.Chemscore.DEInternal.Weighted>
8.0944

> <Gold.Chemscore.Rot.Weighted>
10.8687

> <Gold.Chemscore.Internal.Correction.Weighted>
   9.000000E+99

> <Gold.Protein.RotatedTorsions>
[ 6907 6896 6895 6894 ] final  -11.83 input  -60.11 | X-H torsion
[ 7974 7965 7964 7962 ] final -110.58 input  175.53 | X-H torsion
[ 8008 7997 7996 7995 ] final  -94.28 input   59.86 | X-H torsion
[ 10167 10162 10161 10158 ] final -105.96 input  -65.29 | X-H torsion
[ 10718 10713 10712 10709 ] final   55.25 input   66.30 | X-H torsion
[ 10763 10752 10751 10750 ] final  -48.42 input  -60.55 | X-H torsion
[ 11005 11000 10999 10996 ] final  157.47 input  -57.11 | X-H torsion

> <Gold.Protein.ActiveResidues>
 VAL166  LYS551  ARG553  GLY616  TRP617  ASP618  TYR619  PRO620  LYS621  CYS622 
 ASP623  PHE694  ASN695  SER759  ASP760  ASP761  ALA762  ILE779  LEU786  VAL792 
 PHE793  MET794  SER795  GLU796  ALA797  LYS798  CYS799  TRP800  GLU811  SER814 

> <Gold.Protein.RotatedAtoms>
  151.3800  135.0938  159.9492 H   0  0  0  0  0  0  0  0  0  0  0  0  # atno 6907 bound_to 6896
  152.5111  133.9081  159.7484 H   0  0  0  0  0  0  0  0  0  0  0  0  # atno 6908 bound_to 6896
  150.9512  133.6492  159.2800 H   0  0  0  0  0  0  0  0  0  0  0  0  # atno 6909 bound_to 6896
  145.1665  140.8905  143.3560 H   0  0  0  0  0  0  0  0  0  0  0  0  # atno 7974 bound_to 7965
  154.7464  140.0491  157.0856 H   0  0  0  0  0  0  0  0  0  0  0  0  # atno 8008 bound_to 7997
  155.0112  140.3136  155.4809 H   0  0  0  0  0  0  0  0  0  0  0  0  # atno 8009 bound_to 7997
  156.2876  140.2184  156.5227 H   0  0  0  0  0  0  0  0  0  0  0  0  # atno 8010 bound_to 7997
  140.1929  143.3878  152.1192 H   0  0  0  0  0  0  0  0  0  0  0  0  # atno 10167 bound_to 10162
  157.5329  130.8643  149.8712 H   0  0  0  0  0  0  0  0  0  0  0  0  # atno 10718 bound_to 10713
  154.0775  135.6596  153.4833 H   0  0  0  0  0  0  0  0  0  0  0  0  # atno 10763 bound_to 10752
  153.0368  135.5172  154.7506 H   0  0  0  0  0  0  0  0  0  0  0  0  # atno 10764 bound_to 10752
  154.6591  135.3012  154.9857 H   0  0  0  0  0  0  0  0  0  0  0  0  # atno 10765 bound_to 10752
  140.1773  134.8501  157.2761 H   0  0  0  0  0  0  0  0  0  0  0  0  # atno 11005 bound_to 11000
  145.0276  139.3369  143.6041 LP  0  0  0  0  0  0  0  0  0  0  0  0  # atno 17320 bound_to 7965
  146.3475  139.9601  142.8718 LP  0  0  0  0  0  0  0  0  0  0  0  0  # atno 17321 bound_to 7965
  139.5248  144.7089  151.5269 LP  0  0  0  0  0  0  0  0  0  0  0  0  # atno 17342 bound_to 10162
  140.6444  143.8825  150.6722 LP  0  0  0  0  0  0  0  0  0  0  0  0  # atno 17343 bound_to 10162
  156.0436  130.3733  150.1373 LP  0  0  0  0  0  0  0  0  0  0  0  0  # atno 17370 bound_to 10713
  156.9557  130.9789  151.3489 LP  0  0  0  0  0  0  0  0  0  0  0  0  # atno 17371 bound_to 10713
  140.2308  134.3911  155.7523 LP  0  0  0  0  0  0  0  0  0  0  0  0  # atno 17394 bound_to 11000
  141.2221  133.7214  156.8637 LP  0  0  0  0  0  0  0  0  0  0  0  0  # atno 17395 bound_to 11000

$$$$
