AV-unprocessed.smi:91|AV-procd|sdf|834|dock7
  -GOLD-   2262017263D 1   1.00000     0.00000
 Structure written by MMmdl.
 60 63  0  0  0  0  0  0  0  0  1 V2000
  153.4789  135.2903  164.4131 C   0  0  0  0  0  0  0  0  0  0  0  0
  153.2676  136.6314  164.0012 O   0  0  0  0  0  0  0  0  0  0  0  0
  154.3941  137.2356  163.3785 C   0  0  0  0  0  0  0  0  0  0  0  0
  154.4049  137.0374  161.8522 C   0  0  1  0  0  0  0  0  0  0  0  0
  153.1349  137.5985  161.1876 C   0  0  0  0  0  0  0  0  0  0  0  0
  153.2614  137.5472  159.7355 N   0  0  0  0  0  0  0  0  0  0  0  0
  152.1038  137.6348  159.0307 C   0  0  0  0  0  0  0  0  0  0  0  0
  151.0217  136.9877  159.5371 N   0  0  0  0  0  0  0  0  0  0  0  0
  149.8504  137.0173  158.8962 C   0  0  0  0  0  0  0  0  0  0  0  0
  149.5415  137.6291  157.7525 N   0  0  0  0  0  0  0  0  0  0  0  0
  150.6181  138.2890  157.2392 C   0  0  0  0  0  0  0  0  0  0  0  0
  151.9267  138.3415  157.8021 C   0  0  0  0  0  0  0  0  0  0  0  0
  152.7495  139.1129  156.9867 N   0  0  0  0  0  0  0  0  0  0  0  0
  151.9787  139.4862  156.0032 C   0  0  0  0  0  0  0  0  0  0  0  0
  150.6760  139.0526  156.0862 N   0  0  0  0  0  0  0  0  0  0  0  0
  149.6115  139.3181  155.1345 C   0  0  0  0  0  0  0  0  0  0  0  0
  149.1759  140.8045  155.0312 C   0  0  2  0  0  0  0  0  0  0  0  0
  149.3922  141.4534  156.4201 C   0  0  0  0  0  0  0  0  0  0  0  0
  150.2905  142.5423  156.3637 O   0  0  0  0  0  0  0  0  0  0  0  0
  147.7162  140.9813  154.5091 C   0  0  2  0  0  0  0  0  0  0  0  0
  147.3936  142.3398  153.8826 C   0  0  0  0  0  0  0  0  0  0  0  0
  145.9350  142.6203  154.2556 C   0  0  0  0  0  0  0  0  0  0  0  0
  145.4884  141.4511  154.9221 O   0  0  0  0  0  0  0  0  0  0  0  0
  146.6136  140.8856  155.5681 C   0  0  0  0  0  0  0  0  0  0  0  0
  154.4553  138.2149  159.2329 C   0  0  0  0  0  0  0  0  0  0  0  0
  155.7269  137.6726  159.9212 C   0  0  0  0  0  0  0  0  0  0  0  0
  156.0737  136.2444  159.4483 C   0  0  0  0  0  0  0  0  0  0  0  0
  156.9128  138.6030  159.6241 C   0  0  0  0  0  0  0  0  0  0  0  0
  155.5503  137.7214  161.3415 O   0  0  0  0  0  0  0  0  0  0  0  0
  152.5933  134.9296  164.9360 H   0  0  0  0  0  0  0  0  0  0  0  0
  154.3242  135.2146  165.0984 H   0  0  0  0  0  0  0  0  0  0  0  0
  153.6529  134.6272  163.5660 H   0  0  0  0  0  0  0  0  0  0  0  0
  154.3595  138.3028  163.5997 H   0  0  0  0  0  0  0  0  0  0  0  0
  155.3179  136.8630  163.8237 H   0  0  0  0  0  0  0  0  0  0  0  0
  154.4980  135.9752  161.6329 H   0  0  0  0  0  0  0  0  0  0  0  0
  152.2673  137.0366  161.5341 H   0  0  0  0  0  0  0  0  0  0  0  0
  152.9796  138.6359  161.4871 H   0  0  0  0  0  0  0  0  0  0  0  0
  149.0457  136.4728  159.3680 H   0  0  0  0  0  0  0  0  0  0  0  0
  152.3386  140.1044  155.1935 H   0  0  0  0  0  0  0  0  0  0  0  0
  149.9259  138.9559  154.1547 H   0  0  0  0  0  0  0  0  0  0  0  0
  148.7627  138.6996  155.4294 H   0  0  0  0  0  0  0  0  0  0  0  0
  149.8534  141.2993  154.3340 H   0  0  0  0  0  0  0  0  0  0  0  0
  148.4445  141.7770  156.8515 H   0  0  0  0  0  0  0  0  0  0  0  0
  149.8247  140.7361  157.1182 H   0  0  0  0  0  0  0  0  0  0  0  0
  149.8273  143.2979  156.0359 H   0  0  0  0  0  0  0  0  0  0  0  0
  147.5144  140.2078  153.7662 H   0  0  0  0  0  0  0  0  0  0  0  0
  148.0301  143.1300  154.2821 H   0  0  0  0  0  0  0  0  0  0  0  0
  147.5214  142.3207  152.8008 H   0  0  0  0  0  0  0  0  0  0  0  0
  145.8693  143.4720  154.9342 H   0  0  0  0  0  0  0  0  0  0  0  0
  145.3139  142.8306  153.3848 H   0  0  0  0  0  0  0  0  0  0  0  0
  146.4102  139.8602  155.8778 H   0  0  0  0  0  0  0  0  0  0  0  0
  146.8558  141.4764  156.4533 H   0  0  0  0  0  0  0  0  0  0  0  0
  154.5384  138.0842  158.1531 H   0  0  0  0  0  0  0  0  0  0  0  0
  154.3587  139.2842  159.4260 H   0  0  0  0  0  0  0  0  0  0  0  0
  156.3298  136.2369  158.3885 H   0  0  0  0  0  0  0  0  0  0  0  0
  155.2447  135.5488  159.5757 H   0  0  0  0  0  0  0  0  0  0  0  0
  156.9280  135.8457  159.9959 H   0  0  0  0  0  0  0  0  0  0  0  0
  157.1174  138.6561  158.5543 H   0  0  0  0  0  0  0  0  0  0  0  0
  157.8206  138.2562  160.1191 H   0  0  0  0  0  0  0  0  0  0  0  0
  156.7165  139.6172  159.9736 H   0  0  0  0  0  0  0  0  0  0  0  0
  1  2  1  0  0  0  0
  1 30  1  0  0  0  0
  1 31  1  0  0  0  0
  1 32  1  0  0  0  0
  2  3  1  0  0  0  0
  3  4  1  0  0  0  0
  3 33  1  0  0  0  0
  3 34  1  0  0  0  0
  4 29  1  0  0  0  0
  4  5  1  0  0  0  0
  4 35  1  0  0  0  0
  5  6  1  0  0  0  0
  5 36  1  0  0  0  0
  5 37  1  0  0  0  0
  6  7  1  0  0  0  0
  6 25  1  0  0  0  0
  7 12  1  0  0  0  0
  7  8  2  0  0  0  0
  8  9  1  0  0  0  0
  9 10  2  0  0  0  0
  9 38  1  0  0  0  0
 10 11  1  0  0  0  0
 11 15  1  0  0  0  0
 11 12  2  0  0  0  0
 12 13  1  0  0  0  0
 13 14  2  0  0  0  0
 14 15  1  0  0  0  0
 14 39  1  0  0  0  0
 15 16  1  0  0  0  0
 16 17  1  0  0  0  0
 16 40  1  0  0  0  0
 16 41  1  0  0  0  0
 17 18  1  0  0  0  0
 17 20  1  0  0  0  0
 17 42  1  0  0  0  0
 18 19  1  0  0  0  0
 18 43  1  0  0  0  0
 18 44  1  0  0  0  0
 19 45  1  0  0  0  0
 20 24  1  0  0  0  0
 20 21  1  0  0  0  0
 20 46  1  0  0  0  0
 21 22  1  0  0  0  0
 21 47  1  0  0  0  0
 21 48  1  0  0  0  0
 22 23  1  0  0  0  0
 22 49  1  0  0  0  0
 22 50  1  0  0  0  0
 23 24  1  0  0  0  0
 24 51  1  0  0  0  0
 24 52  1  0  0  0  0
 25 26  1  0  0  0  0
 25 53  1  0  0  0  0
 25 54  1  0  0  0  0
 26 27  1  0  0  0  0
 26 28  1  0  0  0  0
 26 29  1  0  0  0  0
 27 55  1  0  0  0  0
 27 56  1  0  0  0  0
 27 57  1  0  0  0  0
 28 58  1  0  0  0  0
 28 59  1  0  0  0  0
 28 60  1  0  0  0  0
M  END
> <s_m_source_file>
AV-unprocessed.smi

> <i_m_source_file_index>
91

> <i_lp_mmshare_version>
43012

> <i_f3d_flags>
0

> <s_epik_input>
W0NIM11PW0NIMl1bQ0BASF0oTzEpW0NIMl1OKFtDSDJdQzEoW0NIM10pW0NIM10pYyhuW2NIXW4yKWMoYzIzKW5bY0hdbjNbQ0gyXVtDQEhdKFtDSDJdW09IXSlbQ0BASF00W0NIMl1bQ0gyXU9bQ0gyXTQ=

> <s_epik_cmdline>
J2VwaWtfcHl0aG9uJywgJy1waCcsICc3LjAnLCAnLXRuJywgJzgnLCAnLW1hJywgJzIwMCcsICctbWV0YWxfYmluZGluZycsICctaW1hZScsICc8aW5maWxlLm1hZT4nLCAnLW9tYWUnLCAnPG91dGZpbGUubWFlPic=

> <r_lp_tautomer_probability>
1

> <r_epik_Ionization_Penalty>
8.63591e-05

> <r_epik_Ionization_Penalty_Charging>
0

> <r_epik_Ionization_Penalty_Neutral>
8.63591e-05

> <r_epik_State_Penalty>
-0

> <r_epik_Charging_Adjusted_Penalty>
0

> <i_epik_Tot_Q>
0

> <i_epik_Tot_abs_Q>
0

> <r_epik_Metal_State_Penalty>
-0

> <b_epik_Metal_Only>
0

> <s_lp_Force_Field>
OPLS_2005

> <r_lp_Energy>
49.706

> <b_lp_Chiralities_Consistent>
1

> <s_lp_Variant>
AV-unprocessed.smi:91-2

> <Gold.Version>
5.8.1

> <Gold.Id.Protein>
6NUR|6NUR_protein|mol2

> <Gold.PLP.Fitness>
43.5159

> <Gold.PLP.PLP>
-38.0356

> <Gold.PLP.part.hbond>
-3.0000

> <Gold.PLP.part.metal>
0.0000

> <Gold.PLP.part.buried>
-7.7156

> <Gold.PLP.part.nonpolar>
-28.8598

> <Gold.PLP.part.repulsive>
0.1958

> <Gold.PLP.ligand.clash>
0.0000

> <Gold.PLP.ligand.torsion>
2.0409

> <Gold.PLP.Chemscore.Hbond>
3.0000

> <Gold.PLP.Chemscore.CHOScore>
0.0000

> <Gold.PLP.Chemscore.Metal>
0.0000

> <Gold.Chemscore.Hbonds>
donor molecule, donor type, donor heavy atom, donor atom, acceptor molecule, acceptor atom, score
      L1  H    19    45       P1  8028  1.00
      P1  H  6896  6909       L1     8  1.00
      P1  H  7997  8010       L1    13  1.00

> <Gold.PLP.Chemscore.Internal.Correction>
0.5620

> <Gold.Rescore>
     Score         DG    S(hbond)    S(metal)    S(lipo)     H(rot)  DE(clash)    DE(int)     intcor
     11.99     -15.38       2.48        0.00      80.25       3.03       0.00       3.40       ----

> <Gold.Chemscore.Fitness>
11.9868

> <Gold.Chemscore.DG>
-15.3831

> <Gold.Chemscore.ZeroCoef>
-5.4800

> <Gold.Chemscore.Hbond>
2.4752

> <Gold.Chemscore.Metal>
0.0000

> <Gold.Chemscore.Lipo>
80.2466

> <Gold.Chemscore.Internal_Hbond>
0.0000

> <Gold.Chemscore.DEClash>
0.0000

> <Gold.Chemscore.DEInternal>
3.3963

> <Gold.Chemscore.Rot>
3.0284

> <Gold.Chemscore.Internal.Correction>
   9.000000E+99

> <Gold.Chemscore.Hbonds>
donor molecule, donor type, donor heavy atom, donor atom, acceptor molecule, acceptor atom, score
      L1  H    19    45       P1  8028  1.00
      P1  H  6896  6909       L1     8  0.55
      P1  H  7997  8010       L1    13  0.45

> <Gold.Chemscore.Hbond.Weighted>
-8.2671

> <Gold.Chemscore.Metal.Weighted>
-0.0000

> <Gold.Chemscore.Lipo.Weighted>
-9.3889

> <Gold.Chemscore.Internal_Hbond.Weighted>
0.0000

> <Gold.Chemscore.DEClash.Weighted>
0.0000

> <Gold.Chemscore.DEInternal.Weighted>
3.3963

> <Gold.Chemscore.Rot.Weighted>
7.7528

> <Gold.Chemscore.Internal.Correction.Weighted>
   9.000000E+99

> <Gold.Protein.RotatedTorsions>
[ 6907 6896 6895 6894 ] final  113.72 input  -60.11 | X-H torsion
[ 7974 7965 7964 7962 ] final  -38.81 input  175.53 | X-H torsion
[ 8008 7997 7996 7995 ] final   57.20 input   59.86 | X-H torsion
[ 10167 10162 10161 10158 ] final   40.03 input  -65.29 | X-H torsion
[ 10718 10713 10712 10709 ] final  -96.76 input   66.30 | X-H torsion
[ 10763 10752 10751 10750 ] final -116.29 input  -60.55 | X-H torsion
[ 11005 11000 10999 10996 ] final   38.30 input  -57.11 | X-H torsion

> <Gold.Protein.ActiveResidues>
 VAL166  LYS551  ARG553  GLY616  TRP617  ASP618  TYR619  PRO620  LYS621  CYS622 
 ASP623  PHE694  ASN695  SER759  ASP760  ASP761  ALA762  ILE779  LEU786  VAL792 
 PHE793  MET794  SER795  GLU796  ALA797  LYS798  CYS799  TRP800  GLU811  SER814 

> <Gold.Protein.RotatedAtoms>
  152.4844  133.8336  159.7115 H   0  0  0  0  0  0  0  0  0  0  0  0  # atno 6907 bound_to 6896
  150.8919  133.7222  159.2909 H   0  0  0  0  0  0  0  0  0  0  0  0  # atno 6908 bound_to 6896
  151.4692  135.1048  159.9799 H   0  0  0  0  0  0  0  0  0  0  0  0  # atno 6909 bound_to 6896
  146.0453  140.6554  142.9067 H   0  0  0  0  0  0  0  0  0  0  0  0  # atno 7974 bound_to 7965
  155.5299  140.3482  155.4424 H   0  0  0  0  0  0  0  0  0  0  0  0  # atno 8008 bound_to 7997
  156.0725  140.1366  156.9837 H   0  0  0  0  0  0  0  0  0  0  0  0  # atno 8009 bound_to 7997
  154.4536  140.0962  156.6666 H   0  0  0  0  0  0  0  0  0  0  0  0  # atno 8010 bound_to 7997
  140.3782  144.2015  150.6131 H   0  0  0  0  0  0  0  0  0  0  0  0  # atno 10167 bound_to 10162
  156.0069  130.5165  150.6274 H   0  0  0  0  0  0  0  0  0  0  0  0  # atno 10718 bound_to 10713
  154.8514  135.4351  154.1798 H   0  0  0  0  0  0  0  0  0  0  0  0  # atno 10763 bound_to 10752
  153.2892  135.6960  153.7316 H   0  0  0  0  0  0  0  0  0  0  0  0  # atno 10764 bound_to 10752
  153.6490  135.3454  155.3069 H   0  0  0  0  0  0  0  0  0  0  0  0  # atno 10765 bound_to 10752
  140.2140  134.3720  155.8035 H   0  0  0  0  0  0  0  0  0  0  0  0  # atno 11005 bound_to 11000
  144.7095  140.3983  143.7092 LP  0  0  0  0  0  0  0  0  0  0  0  0  # atno 17320 bound_to 7965
  145.6816  139.1619  143.2698 LP  0  0  0  0  0  0  0  0  0  0  0  0  # atno 17321 bound_to 7965
  140.4965  143.2331  151.8742 LP  0  0  0  0  0  0  0  0  0  0  0  0  # atno 17342 bound_to 10162
  139.4797  144.5108  151.8935 LP  0  0  0  0  0  0  0  0  0  0  0  0  # atno 17343 bound_to 10162
  157.4078  131.0819  151.1249 LP  0  0  0  0  0  0  0  0  0  0  0  0  # atno 17370 bound_to 10713
  157.1890  130.6343  149.5698 LP  0  0  0  0  0  0  0  0  0  0  0  0  # atno 17371 bound_to 10713
  141.2225  133.7158  156.8466 LP  0  0  0  0  0  0  0  0  0  0  0  0  # atno 17394 bound_to 11000
  140.1920  134.8959  157.3071 LP  0  0  0  0  0  0  0  0  0  0  0  0  # atno 17395 bound_to 11000

$$$$
