AV-unprocessed.smi:749|AV-procd|sdf|3587|dock2
  -GOLD-   22720 0583D 1   1.00000     0.00000
 Structure written by MMmdl.
 42 43  0  0  0  0  0  0  0  0  2 V2000
  151.6636  145.4939  159.7944 C   0  0  0  0  0  0  0  0  0  0  0  0
  151.8596  144.0595  159.5789 N   0  0  0  0  0  0  0  0  0  0  0  0
  151.4254  143.5671  158.2625 C   0  0  0  0  0  0  0  0  0  0  0  0
  151.9572  142.1685  157.9057 C   0  0  2  0  0  0  0  0  0  0  0  0
  151.2351  141.6506  156.7476 N   0  0  0  0  0  0  0  0  0  0  0  0
  151.5390  140.5435  156.0417 C   0  0  0  0  0  0  0  0  0  0  0  0
  152.5125  139.8709  156.3790 O   0  0  0  0  0  0  0  0  0  0  0  0
  150.7441  140.2269  154.9849 N   0  5  0  0  0  0  0  0  0  0  0  0
  149.5505  139.6243  155.1279 C   0  0  0  0  0  0  0  0  0  0  0  0
  148.6690  139.2618  154.0740 C   0  0  0  0  0  0  0  0  0  0  0  0
  147.6069  138.6983  154.7263 C   0  0  0  0  0  0  0  0  0  0  0  0
  146.3040  138.1084  154.2640 C   0  0  0  0  0  0  0  0  0  0  0  0
  146.2073  136.6195  154.6525 C   0  0  0  0  0  0  0  0  0  0  0  0
  146.1927  138.2184  152.7319 C   0  0  0  0  0  0  0  0  0  0  0  0
  145.1254  138.8573  154.9140 C   0  0  0  0  0  0  0  0  0  0  0  0
  147.8320  138.7089  156.0698 O   0  0  0  0  0  0  0  0  0  0  0  0
  149.0785  139.2948  156.3174 N   0  0  0  0  0  0  0  0  0  0  0  0
  151.7978  141.2354  159.1106 C   0  0  0  0  0  0  0  0  0  0  0  0
  152.5714  141.7812  160.3166 C   0  0  0  0  0  0  0  0  0  0  0  0
  152.3361  143.2769  160.5776 C   0  0  0  0  0  0  0  0  0  0  0  0
  152.6225  143.7235  161.6890 O   0  0  0  0  0  0  0  0  0  0  0  0
  152.6187  145.9854  159.9839 H   0  0  0  0  0  0  0  0  0  0  0  0
  151.0118  145.6716  160.6510 H   0  0  0  0  0  0  0  0  0  0  0  0
  151.2063  145.9813  158.9324 H   0  0  0  0  0  0  0  0  0  0  0  0
  150.3340  143.5562  158.2663 H   0  0  0  0  0  0  0  0  0  0  0  0
  151.7256  144.2706  157.4845 H   0  0  0  0  0  0  0  0  0  0  0  0
  153.0173  142.2565  157.6597 H   0  0  0  0  0  0  0  0  0  0  0  0
  150.4269  142.1767  156.4492 H   0  0  0  0  0  0  0  0  0  0  0  0
  148.7951  139.4033  153.0111 H   0  0  0  0  0  0  0  0  0  0  0  0
  145.2631  136.1828  154.3251 H   0  0  0  0  0  0  0  0  0  0  0  0
  146.2713  136.4853  155.7330 H   0  0  0  0  0  0  0  0  0  0  0  0
  147.0103  136.0363  154.2001 H   0  0  0  0  0  0  0  0  0  0  0  0
  147.0133  137.6965  152.2380 H   0  0  0  0  0  0  0  0  0  0  0  0
  146.2210  139.2579  152.4028 H   0  0  0  0  0  0  0  0  0  0  0  0
  145.2602  137.7860  152.3676 H   0  0  0  0  0  0  0  0  0  0  0  0
  144.1671  138.4414  154.6007 H   0  0  0  0  0  0  0  0  0  0  0  0
  145.1257  139.9141  154.6444 H   0  0  0  0  0  0  0  0  0  0  0  0
  145.1708  138.7970  156.0021 H   0  0  0  0  0  0  0  0  0  0  0  0
  150.7423  141.1281  159.3650 H   0  0  0  0  0  0  0  0  0  0  0  0
  152.1613  140.2356  158.8699 H   0  0  0  0  0  0  0  0  0  0  0  0
  152.3134  141.2121  161.2103 H   0  0  0  0  0  0  0  0  0  0  0  0
  153.6406  141.6394  160.1550 H   0  0  0  0  0  0  0  0  0  0  0  0
  1  2  1  0  0  0  0
  1 22  1  0  0  0  0
  1 23  1  0  0  0  0
  1 24  1  0  0  0  0
  2 20  1  0  0  0  0
  2  3  1  0  0  0  0
  3  4  1  0  0  0  0
  3 25  1  0  0  0  0
  3 26  1  0  0  0  0
  4  5  1  0  0  0  0
  4 18  1  0  0  0  0
  4 27  1  0  0  0  0
  5  6  1  0  0  0  0
  5 28  1  0  0  0  0
  6  7  2  0  0  0  0
  6  8  1  0  0  0  0
  8  9  1  0  0  0  0
  9 17  2  0  0  0  0
  9 10  1  0  0  0  0
 10 11  2  0  0  0  0
 10 29  1  0  0  0  0
 11 12  1  0  0  0  0
 11 16  1  0  0  0  0
 12 13  1  0  0  0  0
 12 14  1  0  0  0  0
 12 15  1  0  0  0  0
 13 30  1  0  0  0  0
 13 31  1  0  0  0  0
 13 32  1  0  0  0  0
 14 33  1  0  0  0  0
 14 34  1  0  0  0  0
 14 35  1  0  0  0  0
 15 36  1  0  0  0  0
 15 37  1  0  0  0  0
 15 38  1  0  0  0  0
 16 17  1  0  0  0  0
 18 19  1  0  0  0  0
 18 39  1  0  0  0  0
 18 40  1  0  0  0  0
 19 20  1  0  0  0  0
 19 41  1  0  0  0  0
 19 42  1  0  0  0  0
 20 21  2  0  0  0  0
M  CHG  1   8  -1
M  END
> <s_m_source_file>
AV-unprocessed.smi

> <i_m_source_file_index>
749

> <i_lp_mmshare_version>
43012

> <i_f3d_flags>
0

> <s_epik_input>
Tz1DMVtDSDJdW0NIMl1bQ0BASF0oW0NIMl1OMVtDSDNdKVtOSF1DKD1PKVtOSF1jMltjSF1jKG9uMilDKFtDSDNdKShbQ0gzXSlbQ0gzXQ==

> <s_epik_cmdline>
J2VwaWtfcHl0aG9uJywgJy1waCcsICc3LjAnLCAnLXRuJywgJzgnLCAnLW1hJywgJzIwMCcsICctbWV0YWxfYmluZGluZycsICctaW1hZScsICc8aW5maWxlLm1hZT4nLCAnLW9tYWUnLCAnPG91dGZpbGUubWFlPic=

> <r_lp_tautomer_probability>
1

> <r_epik_Ionization_Penalty>
6.47858

> <r_epik_Ionization_Penalty_Charging>
6.47844

> <r_epik_Ionization_Penalty_Neutral>
0.000138814

> <r_epik_State_Penalty>
6.47843

> <r_epik_Charging_Adjusted_Penalty>
12.9569

> <i_epik_Tot_Q>
-1

> <i_epik_Tot_abs_Q>
1

> <r_epik_Metal_State_Penalty>
2.40644

> <b_epik_Metal_Only>
1

> <s_lp_Force_Field>
OPLS_2005

> <r_lp_Energy>
10.0372

> <b_lp_Chiralities_Consistent>
1

> <s_lp_Variant>
AV-unprocessed.smi:749-4

> <Gold.Version>
5.8.1

> <Gold.Id.Protein>
6NUR|6NUR_protein|mol2

> <Gold.PLP.Fitness>
38.3922

> <Gold.PLP.PLP>
-33.9849

> <Gold.PLP.part.hbond>
-2.0000

> <Gold.PLP.part.metal>
0.0000

> <Gold.PLP.part.buried>
-4.4556

> <Gold.PLP.part.nonpolar>
-27.1558

> <Gold.PLP.part.repulsive>
0.2869

> <Gold.PLP.ligand.clash>
0.0000

> <Gold.PLP.ligand.torsion>
0.8097

> <Gold.PLP.Chemscore.Hbond>
2.0000

> <Gold.PLP.Chemscore.CHOScore>
0.0000

> <Gold.PLP.Chemscore.Metal>
0.0000

> <Gold.Chemscore.Hbonds>
donor molecule, donor type, donor heavy atom, donor atom, acceptor molecule, acceptor atom, score
      P1  H  7989  7998       L1     8  1.00
      P1  H  7997  8010       L1     7  1.00

> <Gold.PLP.Chemscore.Internal.Correction>
0.0268

> <Gold.Rescore>
     Score         DG    S(hbond)    S(metal)    S(lipo)     H(rot)  DE(clash)    DE(int)     intcor
     15.87     -16.75       1.91        0.00      68.39       1.22       0.10       0.78       ----

> <Gold.Chemscore.Fitness>
15.8717

> <Gold.Chemscore.DG>
-16.7515

> <Gold.Chemscore.ZeroCoef>
-5.4800

> <Gold.Chemscore.Hbond>
1.9139

> <Gold.Chemscore.Metal>
0.0000

> <Gold.Chemscore.Lipo>
68.3922

> <Gold.Chemscore.Internal_Hbond>
0.0000

> <Gold.Chemscore.DEClash>
0.1000

> <Gold.Chemscore.DEInternal>
0.7798

> <Gold.Chemscore.Rot>
1.2198

> <Gold.Chemscore.Internal.Correction>
   9.000000E+99

> <Gold.Chemscore.Hbonds>
donor molecule, donor type, donor heavy atom, donor atom, acceptor molecule, acceptor atom, score
      P1  H  7989  7998       L1     8  0.50
      P1  H  7997  8010       L1     7  1.00

> <Gold.Chemscore.Hbond.Weighted>
-6.3923

> <Gold.Chemscore.Metal.Weighted>
-0.0000

> <Gold.Chemscore.Lipo.Weighted>
-8.0019

> <Gold.Chemscore.Internal_Hbond.Weighted>
0.0000

> <Gold.Chemscore.DEClash.Weighted>
0.1000

> <Gold.Chemscore.DEInternal.Weighted>
0.7798

> <Gold.Chemscore.Rot.Weighted>
3.1228

> <Gold.Chemscore.Internal.Correction.Weighted>
   9.000000E+99

> <Gold.Protein.RotatedTorsions>
[ 6907 6896 6895 6894 ] final  116.13 input  -60.11 | X-H torsion
[ 7974 7965 7964 7962 ] final  174.44 input  175.53 | X-H torsion
[ 8008 7997 7996 7995 ] final   77.11 input   59.86 | X-H torsion
[ 10167 10162 10161 10158 ] final -140.90 input  -65.29 | X-H torsion
[ 10718 10713 10712 10709 ] final -151.74 input   66.30 | X-H torsion
[ 10763 10752 10751 10750 ] final -105.51 input  -60.55 | X-H torsion
[ 11005 11000 10999 10996 ] final   50.57 input  -57.11 | X-H torsion

> <Gold.Protein.ActiveResidues>
 VAL166  LYS551  ARG553  GLY616  TRP617  ASP618  TYR619  PRO620  LYS621  CYS622 
 ASP623  PHE694  ASN695  SER759  ASP760  ASP761  ALA762  ILE779  LEU786  VAL792 
 PHE793  MET794  SER795  GLU796  ALA797  LYS798  CYS799  TRP800  GLU811  SER814 

> <Gold.Protein.RotatedAtoms>
  152.4697  133.8003  159.6948 H   0  0  0  0  0  0  0  0  0  0  0  0  # atno 6907 bound_to 6896
  150.8680  133.7537  159.2977 H   0  0  0  0  0  0  0  0  0  0  0  0  # atno 6908 bound_to 6896
  151.5081  135.1067  159.9898 H   0  0  0  0  0  0  0  0  0  0  0  0  # atno 6909 bound_to 6896
  144.7221  139.9798  143.6438 H   0  0  0  0  0  0  0  0  0  0  0  0  # atno 7974 bound_to 7965
  155.8369  140.3464  155.5607 H   0  0  0  0  0  0  0  0  0  0  0  0  # atno 8008 bound_to 7997
  155.8182  140.0909  157.1884 H   0  0  0  0  0  0  0  0  0  0  0  0  # atno 8009 bound_to 7997
  154.4004  140.1435  156.3456 H   0  0  0  0  0  0  0  0  0  0  0  0  # atno 8010 bound_to 7997
  139.8237  143.7540  152.2666 H   0  0  0  0  0  0  0  0  0  0  0  0  # atno 10167 bound_to 10162
  156.4633  130.8223  151.2454 H   0  0  0  0  0  0  0  0  0  0  0  0  # atno 10718 bound_to 10713
  154.7951  135.4746  154.0143 H   0  0  0  0  0  0  0  0  0  0  0  0  # atno 10763 bound_to 10752
  153.1691  135.6822  153.8640 H   0  0  0  0  0  0  0  0  0  0  0  0  # atno 10764 bound_to 10752
  153.8228  135.3202  155.3389 H   0  0  0  0  0  0  0  0  0  0  0  0  # atno 10765 bound_to 10752
  140.1006  134.5086  155.8766 H   0  0  0  0  0  0  0  0  0  0  0  0  # atno 11005 bound_to 11000
  146.0497  139.3499  143.0647 LP  0  0  0  0  0  0  0  0  0  0  0  0  # atno 17320 bound_to 7965
  145.8231  140.9669  143.0888 LP  0  0  0  0  0  0  0  0  0  0  0  0  # atno 17321 bound_to 7965
  139.7726  144.7471  151.0203 LP  0  0  0  0  0  0  0  0  0  0  0  0  # atno 17342 bound_to 10162
  140.7811  143.4628  151.0253 LP  0  0  0  0  0  0  0  0  0  0  0  0  # atno 17343 bound_to 10162
  157.7496  131.0100  150.3289 LP  0  0  0  0  0  0  0  0  0  0  0  0  # atno 17370 bound_to 10713
  156.3694  130.3861  149.7187 LP  0  0  0  0  0  0  0  0  0  0  0  0  # atno 17371 bound_to 10713
  141.2104  133.6695  156.6511 LP  0  0  0  0  0  0  0  0  0  0  0  0  # atno 17394 bound_to 11000
  140.3225  134.7996  157.4263 LP  0  0  0  0  0  0  0  0  0  0  0  0  # atno 17395 bound_to 11000

$$$$
