AV-unprocessed.smi:1830|AV-procd|sdf|7438|dock5
  -GOLD-   22720 9123D 1   1.00000     0.00000
 Structure written by MMmdl.
 53 56  0  0  0  0  0  0  0  0  2 V2000
  150.2020  133.9896  155.8444 O   0  0  0  0  0  0  0  0  0  0  0  0
  149.6963  134.5898  154.8972 C   0  0  0  0  0  0  0  0  0  0  0  0
  149.8059  135.9137  154.7172 N   0  0  0  0  0  0  0  0  0  0  0  0
  150.5459  136.8318  155.5778 C   0  0  0  0  0  0  0  0  0  0  0  0
  151.0218  138.0635  154.7809 C   0  0  2  0  0  0  0  0  0  0  0  0
  151.8876  139.0337  155.6225 C   0  0  0  0  0  0  0  0  0  0  0  0
  151.0142  139.7946  156.5356 N   0  3  1  0  0  0  0  0  0  0  0  0
  151.6384  140.7804  157.4357 C   0  0  0  0  0  0  0  0  0  0  0  0
  150.5152  141.7840  157.7650 C   0  0  0  0  0  0  0  0  0  0  0  0
  149.3254  141.3863  156.8731 C   0  0  0  0  0  0  0  0  0  0  0  0
  149.9728  140.5155  155.8009 C   0  0  2  0  0  0  0  0  0  0  0  0
  149.0870  139.5039  155.0651 C   0  0  0  0  0  0  0  0  0  0  0  0
  149.9196  138.7569  154.1730 O   0  0  0  0  0  0  0  0  0  0  0  0
  148.9607  134.0314  153.9204 N   0  0  0  0  0  0  0  0  0  0  0  0
  148.5537  132.6740  153.7584 C   0  0  0  0  0  0  0  0  0  0  0  0
  149.2002  131.5830  154.3911 C   0  0  0  0  0  0  0  0  0  0  0  0
  148.7286  130.2776  154.1615 C   0  0  0  0  0  0  0  0  0  0  0  0
  147.6303  130.1043  153.3014 C   0  0  0  0  0  0  0  0  0  0  0  0
  147.0131  131.1284  152.6788 N   0  0  0  0  0  0  0  0  0  0  0  0
  147.4641  132.3884  152.8946 C   0  0  0  0  0  0  0  0  0  0  0  0
  146.8100  133.4367  152.2223 N   0  0  0  0  0  0  0  0  0  0  0  0
  146.0994  134.3792  153.0697 C   0  0  0  0  0  0  0  0  0  0  0  0
  145.2092  135.1799  152.1177 C   0  0  0  0  0  0  0  0  0  0  0  0
  144.9992  134.2571  150.9110 C   0  0  0  0  0  0  0  0  0  0  0  0
  145.8643  133.0252  151.1971 C   0  0  0  0  0  0  0  0  0  0  0  0
  149.3523  136.3175  153.9104 H   0  0  0  0  0  0  0  0  0  0  0  0
  149.9029  137.1204  156.4086 H   0  0  0  0  0  0  0  0  0  0  0  0
  151.4098  136.3402  156.0278 H   0  0  0  0  0  0  0  0  0  0  0  0
  151.6439  137.6964  153.9635 H   0  0  0  0  0  0  0  0  0  0  0  0
  152.6444  138.4914  156.1904 H   0  0  0  0  0  0  0  0  0  0  0  0
  152.4161  139.7269  154.9662 H   0  0  0  0  0  0  0  0  0  0  0  0
  152.0424  140.2972  158.3259 H   0  0  0  0  0  0  0  0  0  0  0  0
  152.4567  141.2893  156.9238 H   0  0  0  0  0  0  0  0  0  0  0  0
  150.2399  141.7510  158.8197 H   0  0  0  0  0  0  0  0  0  0  0  0
  150.8434  142.8003  157.5436 H   0  0  0  0  0  0  0  0  0  0  0  0
  148.6083  140.8018  157.4515 H   0  0  0  0  0  0  0  0  0  0  0  0
  148.8007  142.2471  156.4571 H   0  0  0  0  0  0  0  0  0  0  0  0
  150.4511  141.1701  155.0686 H   0  0  0  0  0  0  0  0  0  0  0  0
  148.5688  138.8437  155.7611 H   0  0  0  0  0  0  0  0  0  0  0  0
  148.3205  140.0196  154.4865 H   0  0  0  0  0  0  0  0  0  0  0  0
  148.5733  134.6713  153.2424 H   0  0  0  0  0  0  0  0  0  0  0  0
  150.0539  131.7126  155.0368 H   0  0  0  0  0  0  0  0  0  0  0  0
  149.2011  129.4285  154.6325 H   0  0  0  0  0  0  0  0  0  0  0  0
  147.2408  129.1168  153.1023 H   0  0  0  0  0  0  0  0  0  0  0  0
  145.4862  133.8515  153.8015 H   0  0  0  0  0  0  0  0  0  0  0  0
  146.7923  135.0241  153.6110 H   0  0  0  0  0  0  0  0  0  0  0  0
  144.2708  135.4745  152.5887 H   0  0  0  0  0  0  0  0  0  0  0  0
  145.7222  136.0887  151.8008 H   0  0  0  0  0  0  0  0  0  0  0  0
  143.9519  133.9822  150.7821 H   0  0  0  0  0  0  0  0  0  0  0  0
  145.3269  134.7541  149.9969 H   0  0  0  0  0  0  0  0  0  0  0  0
  146.3840  132.6840  150.3012 H   0  0  0  0  0  0  0  0  0  0  0  0
  145.2399  132.2054  151.5552 H   0  0  0  0  0  0  0  0  0  0  0  0
  150.5393  139.1277  157.1270 H   0  0  0  0  0  0  0  0  0  0  0  0
  1  2  2  0  0  0  0
  2  3  1  0  0  0  0
  2 14  1  0  0  0  0
  3  4  1  0  0  0  0
  3 26  1  0  0  0  0
  4  5  1  0  0  0  0
  4 27  1  0  0  0  0
  4 28  1  0  0  0  0
  5 13  1  0  0  0  0
  5  6  1  0  0  0  0
  5 29  1  0  0  0  0
  6  7  1  0  0  0  0
  6 30  1  0  0  0  0
  6 31  1  0  0  0  0
  7 11  1  0  0  0  0
  7  8  1  0  0  0  0
  7 53  1  0  0  0  0
  8  9  1  0  0  0  0
  8 32  1  0  0  0  0
  8 33  1  0  0  0  0
  9 10  1  0  0  0  0
  9 34  1  0  0  0  0
  9 35  1  0  0  0  0
 10 11  1  0  0  0  0
 10 36  1  0  0  0  0
 10 37  1  0  0  0  0
 11 12  1  0  0  0  0
 11 38  1  0  0  0  0
 12 13  1  0  0  0  0
 12 39  1  0  0  0  0
 12 40  1  0  0  0  0
 14 15  1  0  0  0  0
 14 41  1  0  0  0  0
 15 20  1  0  0  0  0
 15 16  2  0  0  0  0
 16 17  1  0  0  0  0
 16 42  1  0  0  0  0
 17 18  2  0  0  0  0
 17 43  1  0  0  0  0
 18 19  1  0  0  0  0
 18 44  1  0  0  0  0
 19 20  2  0  0  0  0
 20 21  1  0  0  0  0
 21 25  1  0  0  0  0
 21 22  1  0  0  0  0
 22 23  1  0  0  0  0
 22 45  1  0  0  0  0
 22 46  1  0  0  0  0
 23 24  1  0  0  0  0
 23 47  1  0  0  0  0
 23 48  1  0  0  0  0
 24 25  1  0  0  0  0
 24 49  1  0  0  0  0
 24 50  1  0  0  0  0
 25 51  1  0  0  0  0
 25 52  1  0  0  0  0
M  CHG  1   7   1
M  END
> <s_m_source_file>
AV-unprocessed.smi

> <i_m_source_file_index>
1830

> <i_lp_mmshare_version>
43012

> <i_f3d_flags>
0

> <s_epik_input>
W0NIMl0xW0NIMl1bQ0gyXVtDQEhdKE4xMilbQ0gyXU9bQ0BASF0oW0NIMl0yKVtDSDJdW05IXUMoPU8pW05IXWMzW2NIXVtjSF1bY0hdbmMzTjRbQ0gyXVtDSDJdW0NIMl1bQ0gyXTQ=

> <s_epik_cmdline>
J2VwaWtfcHl0aG9uJywgJy1waCcsICc3LjAnLCAnLXRuJywgJzgnLCAnLW1hJywgJzIwMCcsICctbWV0YWxfYmluZGluZycsICctaW1hZScsICc8aW5maWxlLm1hZT4nLCAnLW9tYWUnLCAnPG91dGZpbGUubWFlPic=

> <r_lp_tautomer_probability>
1

> <r_epik_Ionization_Penalty>
0.193547

> <r_epik_Ionization_Penalty_Charging>
0.10673

> <r_epik_Ionization_Penalty_Neutral>
0.0868166

> <r_epik_State_Penalty>
0.173595

> <r_epik_Charging_Adjusted_Penalty>
0.280326

> <i_epik_Tot_Q>
1

> <i_epik_Tot_abs_Q>
1

> <r_epik_Metal_State_Penalty>
0.164683

> <b_epik_Metal_Only>
0

> <s_lp_Force_Field>
OPLS_2005

> <r_lp_Energy>
70.9361

> <b_lp_Chiralities_Consistent>
1

> <s_lp_Variant>
AV-unprocessed.smi:1830-7

> <Gold.Version>
5.8.1

> <Gold.Id.Protein>
6NUR|6NUR_protein|mol2

> <Gold.PLP.Fitness>
46.7366

> <Gold.PLP.PLP>
-41.6390

> <Gold.PLP.part.hbond>
-2.3431

> <Gold.PLP.part.metal>
0.0000

> <Gold.PLP.part.buried>
-5.6628

> <Gold.PLP.part.nonpolar>
-35.1960

> <Gold.PLP.part.repulsive>
2.2342

> <Gold.PLP.ligand.clash>
0.0000

> <Gold.PLP.ligand.torsion>
0.3973

> <Gold.PLP.Chemscore.Hbond>
1.9500

> <Gold.PLP.Chemscore.CHOScore>
0.0000

> <Gold.PLP.Chemscore.Metal>
0.0000

> <Gold.Chemscore.Hbonds>
donor molecule, donor type, donor heavy atom, donor atom, acceptor molecule, acceptor atom, score
      L1  H     3    26       P1  7948  0.86
      L1  H    14    41       P1  7948  0.80

> <Gold.PLP.Chemscore.Internal.Correction>
0.0423

> <Gold.Rescore>
     Score         DG    S(hbond)    S(metal)    S(lipo)     H(rot)  DE(clash)    DE(int)     intcor
     14.88     -17.17       1.45        0.00      89.32       1.41       0.04       2.24       ----

> <Gold.Chemscore.Fitness>
14.8844

> <Gold.Chemscore.DG>
-17.1694

> <Gold.Chemscore.ZeroCoef>
-5.4800

> <Gold.Chemscore.Hbond>
1.4492

> <Gold.Chemscore.Metal>
0.0000

> <Gold.Chemscore.Lipo>
89.3180

> <Gold.Chemscore.Internal_Hbond>
0.0000

> <Gold.Chemscore.DEClash>
0.0423

> <Gold.Chemscore.DEInternal>
2.2427

> <Gold.Chemscore.Rot>
1.4067

> <Gold.Chemscore.Internal.Correction>
   9.000000E+99

> <Gold.Chemscore.Hbonds>
donor molecule, donor type, donor heavy atom, donor atom, acceptor molecule, acceptor atom, score
      L1  H     3    26       P1  7948  0.69
      L1  H    14    41       P1  7948  0.34

> <Gold.Chemscore.Hbond.Weighted>
-4.8403

> <Gold.Chemscore.Metal.Weighted>
-0.0000

> <Gold.Chemscore.Lipo.Weighted>
-10.4502

> <Gold.Chemscore.Internal_Hbond.Weighted>
0.0000

> <Gold.Chemscore.DEClash.Weighted>
0.0423

> <Gold.Chemscore.DEInternal.Weighted>
2.2427

> <Gold.Chemscore.Rot.Weighted>
3.6011

> <Gold.Chemscore.Internal.Correction.Weighted>
   9.000000E+99

> <Gold.Protein.RotatedTorsions>
[ 6907 6896 6895 6894 ] final   21.64 input  -60.11 | X-H torsion
[ 7974 7965 7964 7962 ] final    1.64 input  175.53 | X-H torsion
[ 8008 7997 7996 7995 ] final  -67.90 input   59.86 | X-H torsion
[ 10167 10162 10161 10158 ] final -157.51 input  -65.29 | X-H torsion
[ 10718 10713 10712 10709 ] final   52.28 input   66.30 | X-H torsion
[ 10763 10752 10751 10750 ] final -150.53 input  -60.55 | X-H torsion
[ 11005 11000 10999 10996 ] final   67.36 input  -57.11 | X-H torsion

> <Gold.Protein.ActiveResidues>
 VAL166  LYS551  ARG553  GLY616  TRP617  ASP618  TYR619  PRO620  LYS621  CYS622 
 ASP623  PHE694  ASN695  SER759  ASP760  ASP761  ALA762  ILE779  LEU786  VAL792 
 PHE793  MET794  SER795  GLU796  ALA797  LYS798  CYS799  TRP800  GLU811  SER814 

> <Gold.Protein.RotatedAtoms>
  151.9149  135.0323  160.0517 H   0  0  0  0  0  0  0  0  0  0  0  0  # atno 6907 bound_to 6896
  152.2248  133.5007  159.5191 H   0  0  0  0  0  0  0  0  0  0  0  0  # atno 6908 bound_to 6896
  150.7009  134.1211  159.4078 H   0  0  0  0  0  0  0  0  0  0  0  0  # atno 6909 bound_to 6896
  146.2441  140.0957  142.8350 H   0  0  0  0  0  0  0  0  0  0  0  0  # atno 7974 bound_to 7965
  154.4831  140.0883  156.7423 H   0  0  0  0  0  0  0  0  0  0  0  0  # atno 8008 bound_to 7997
  155.4420  140.3454  155.4273 H   0  0  0  0  0  0  0  0  0  0  0  0  # atno 8009 bound_to 7997
  156.1221  140.1477  156.9178 H   0  0  0  0  0  0  0  0  0  0  0  0  # atno 8010 bound_to 7997
  139.6765  143.9654  152.2313 H   0  0  0  0  0  0  0  0  0  0  0  0  # atno 10167 bound_to 10162
  157.5060  130.8469  149.8375 H   0  0  0  0  0  0  0  0  0  0  0  0  # atno 10718 bound_to 10713
  154.8113  135.3282  154.7296 H   0  0  0  0  0  0  0  0  0  0  0  0  # atno 10763 bound_to 10752
  153.7945  135.6908  153.4870 H   0  0  0  0  0  0  0  0  0  0  0  0  # atno 10764 bound_to 10752
  153.1895  135.4556  155.0077 H   0  0  0  0  0  0  0  0  0  0  0  0  # atno 10765 bound_to 10752
  139.9776  134.6797  156.0325 H   0  0  0  0  0  0  0  0  0  0  0  0  # atno 11005 bound_to 11000
  145.0612  140.9089  143.4937 LP  0  0  0  0  0  0  0  0  0  0  0  0  # atno 17320 bound_to 7965
  145.1073  139.2781  143.5655 LP  0  0  0  0  0  0  0  0  0  0  0  0  # atno 17321 bound_to 7965
  139.9433  144.6668  150.8245 LP  0  0  0  0  0  0  0  0  0  0  0  0  # atno 17342 bound_to 10162
  140.7637  143.3230  151.2579 LP  0  0  0  0  0  0  0  0  0  0  0  0  # atno 17343 bound_to 10162
  156.0258  130.3780  150.1827 LP  0  0  0  0  0  0  0  0  0  0  0  0  # atno 17370 bound_to 10713
  157.0016  130.9924  151.3389 LP  0  0  0  0  0  0  0  0  0  0  0  0  # atno 17371 bound_to 10713
  141.1451  133.6557  156.3844 LP  0  0  0  0  0  0  0  0  0  0  0  0  # atno 17394 bound_to 11000
  140.5163  134.6347  157.5302 LP  0  0  0  0  0  0  0  0  0  0  0  0  # atno 17395 bound_to 11000

$$$$
