AV-unprocessed.smi:3011|AV-procd|sdf|11458|dock5
  -GOLD-   2272016393D 1   1.00000     0.00000
 Structure written by MMmdl.
 46 48  0  0  0  0  0  0  0  0  1 V2000
  153.0706  142.4329  162.0870 C   0  0  0  0  0  0  0  0  0  0  0  0
  152.6266  141.9196  160.8398 O   0  0  0  0  0  0  0  0  0  0  0  0
  152.2670  142.8140  159.8530 C   0  0  0  0  0  0  0  0  0  0  0  0
  152.4069  144.2193  159.9804 C   0  0  0  0  0  0  0  0  0  0  0  0
  152.0307  145.0735  158.9282 C   0  0  0  0  0  0  0  0  0  0  0  0
  151.5131  144.5352  157.7383 C   0  0  0  0  0  0  0  0  0  0  0  0
  151.3698  143.1428  157.6006 C   0  0  0  0  0  0  0  0  0  0  0  0
  151.7431  142.2722  158.6560 C   0  0  0  0  0  0  0  0  0  0  0  0
  151.6208  140.8996  158.5909 O   0  0  0  0  0  0  0  0  0  0  0  0
  150.9859  140.3308  157.4543 C   0  0  0  0  0  0  0  0  0  0  0  0
  149.5738  139.8600  157.8293 C   0  0  0  0  0  0  0  0  0  0  0  0
  148.8700  139.2591  156.7037 N   0  0  0  0  0  0  0  0  0  0  0  0
  148.5896  137.9507  156.4591 C   0  0  0  0  0  0  0  0  0  0  0  0
  148.9826  136.8327  157.3917 C   0  0  1  0  0  0  0  0  0  0  0  0
  148.3851  137.0131  158.7947 C   0  0  0  0  0  0  0  0  0  0  0  0
  148.5364  135.5713  156.8108 N   0  0  0  0  0  0  0  0  0  0  0  0
  148.7967  134.3677  157.3353 C   0  0  0  0  0  0  0  0  0  0  0  0
  149.4434  134.2096  158.3675 O   0  0  0  0  0  0  0  0  0  0  0  0
  147.9620  137.7049  155.3057 N   0  0  0  0  0  0  0  0  0  0  0  0
  147.7884  138.9649  154.7722 C   0  0  0  0  0  0  0  0  0  0  0  0
  147.1751  139.3748  153.5668 C   0  0  0  0  0  0  0  0  0  0  0  0
  147.1131  140.7421  153.2267 C   0  0  0  0  0  0  0  0  0  0  0  0
  147.6631  141.7158  154.0849 C   0  0  0  0  0  0  0  0  0  0  0  0
  148.2810  141.3275  155.2894 C   0  0  0  0  0  0  0  0  0  0  0  0
  148.3405  139.9610  155.6243 C   0  0  0  0  0  0  0  0  0  0  0  0
  153.2997  141.6029  162.7550 H   0  0  0  0  0  0  0  0  0  0  0  0
  152.3000  143.0378  162.5666 H   0  0  0  0  0  0  0  0  0  0  0  0
  153.9795  143.0251  161.9739 H   0  0  0  0  0  0  0  0  0  0  0  0
  152.8042  144.6697  160.8773 H   0  0  0  0  0  0  0  0  0  0  0  0
  152.1416  146.1426  159.0343 H   0  0  0  0  0  0  0  0  0  0  0  0
  151.2243  145.1904  156.9296 H   0  0  0  0  0  0  0  0  0  0  0  0
  150.9656  142.7679  156.6732 H   0  0  0  0  0  0  0  0  0  0  0  0
  150.9237  141.0575  156.6431 H   0  0  0  0  0  0  0  0  0  0  0  0
  151.5660  139.4780  157.0985 H   0  0  0  0  0  0  0  0  0  0  0  0
  149.6439  139.1126  158.6199 H   0  0  0  0  0  0  0  0  0  0  0  0
  148.9835  140.6731  158.2501 H   0  0  0  0  0  0  0  0  0  0  0  0
  150.0644  136.7974  157.5104 H   0  0  0  0  0  0  0  0  0  0  0  0
  148.6963  137.9623  159.2314 H   0  0  0  0  0  0  0  0  0  0  0  0
  148.7093  136.2164  159.4647 H   0  0  0  0  0  0  0  0  0  0  0  0
  147.2949  137.0032  158.7716 H   0  0  0  0  0  0  0  0  0  0  0  0
  148.0093  135.6182  155.9511 H   0  0  0  0  0  0  0  0  0  0  0  0
  148.3639  133.5542  156.7326 H   0  0  0  0  0  0  0  0  0  0  0  0
  146.7512  138.6356  152.9033 H   0  0  0  0  0  0  0  0  0  0  0  0
  146.6416  141.0450  152.3033 H   0  0  0  0  0  0  0  0  0  0  0  0
  147.6112  142.7611  153.8178 H   0  0  0  0  0  0  0  0  0  0  0  0
  148.7027  142.0723  155.9477 H   0  0  0  0  0  0  0  0  0  0  0  0
  1  2  1  0  0  0  0
  1 26  1  0  0  0  0
  1 27  1  0  0  0  0
  1 28  1  0  0  0  0
  2  3  1  0  0  0  0
  3  8  1  0  0  0  0
  3  4  2  0  0  0  0
  4  5  1  0  0  0  0
  4 29  1  0  0  0  0
  5  6  2  0  0  0  0
  5 30  1  0  0  0  0
  6  7  1  0  0  0  0
  6 31  1  0  0  0  0
  7  8  2  0  0  0  0
  7 32  1  0  0  0  0
  8  9  1  0  0  0  0
  9 10  1  0  0  0  0
 10 11  1  0  0  0  0
 10 33  1  0  0  0  0
 10 34  1  0  0  0  0
 11 12  1  0  0  0  0
 11 35  1  0  0  0  0
 11 36  1  0  0  0  0
 12 25  1  0  0  0  0
 12 13  1  0  0  0  0
 13 14  1  0  0  0  0
 13 19  2  0  0  0  0
 14 15  1  0  0  0  0
 14 16  1  0  0  0  0
 14 37  1  0  0  0  0
 15 38  1  0  0  0  0
 15 39  1  0  0  0  0
 15 40  1  0  0  0  0
 16 17  1  0  0  0  0
 16 41  1  0  0  0  0
 17 18  2  0  0  0  0
 17 42  1  0  0  0  0
 19 20  1  0  0  0  0
 20 25  2  0  0  0  0
 20 21  1  0  0  0  0
 21 22  2  0  0  0  0
 21 43  1  0  0  0  0
 22 23  1  0  0  0  0
 22 44  1  0  0  0  0
 23 24  2  0  0  0  0
 23 45  1  0  0  0  0
 24 25  1  0  0  0  0
 24 46  1  0  0  0  0
M  END
> <s_m_source_file>
AV-unprocessed.smi

> <i_m_source_file_index>
3011

> <i_lp_mmshare_version>
43012

> <i_f3d_flags>
0

> <s_epik_input>
W0NIM11PYzFbY0hdW2NIXVtjSF1bY0hdYzFPW0NIMl1bQ0gyXW4oYyhuMilbQ0BIXShbQ0gzXSlbTkhdW0NIXT1PKWMoYzIzKVtjSF1bY0hdW2NIXVtjSF0z

> <s_epik_cmdline>
J2VwaWtfcHl0aG9uJywgJy1waCcsICc3LjAnLCAnLXRuJywgJzgnLCAnLW1hJywgJzIwMCcsICctbWV0YWxfYmluZGluZycsICctaW1hZScsICc8aW5maWxlLm1hZT4nLCAnLW9tYWUnLCAnPG91dGZpbGUubWFlPic=

> <r_lp_tautomer_probability>
1

> <r_epik_Ionization_Penalty>
0.0924205

> <r_epik_Ionization_Penalty_Charging>
0

> <r_epik_Ionization_Penalty_Neutral>
0.0924205

> <r_epik_State_Penalty>
0.0827154

> <r_epik_Charging_Adjusted_Penalty>
0.0827154

> <i_epik_Tot_Q>
0

> <i_epik_Tot_abs_Q>
0

> <r_epik_Metal_State_Penalty>
0.071464

> <b_epik_Metal_Only>
0

> <s_lp_Force_Field>
OPLS_2005

> <r_lp_Energy>
16.1318

> <b_lp_Chiralities_Consistent>
1

> <s_lp_Variant>
AV-unprocessed.smi:3011-2

> <Gold.Version>
5.8.1

> <Gold.Id.Protein>
6NUR|6NUR_protein|mol2

> <Gold.PLP.Fitness>
45.1090

> <Gold.PLP.PLP>
-43.1001

> <Gold.PLP.part.hbond>
-1.0000

> <Gold.PLP.part.metal>
0.0000

> <Gold.PLP.part.buried>
-7.7165

> <Gold.PLP.part.nonpolar>
-34.9438

> <Gold.PLP.part.repulsive>
0.0940

> <Gold.PLP.ligand.clash>
0.0000

> <Gold.PLP.ligand.torsion>
0.5506

> <Gold.PLP.Chemscore.Hbond>
1.0000

> <Gold.PLP.Chemscore.CHOScore>
0.0000

> <Gold.PLP.Chemscore.Metal>
0.0000

> <Gold.Chemscore.Hbonds>
donor molecule, donor type, donor heavy atom, donor atom, acceptor molecule, acceptor atom, score
      P1  H  6896  6909       L1    18  1.00

> <Gold.PLP.Chemscore.Internal.Correction>
0.1100

> <Gold.Rescore>
     Score         DG    S(hbond)    S(metal)    S(lipo)     H(rot)  DE(clash)    DE(int)     intcor
     16.55     -17.15       1.00        0.00     127.92       2.59       0.05       0.56       ----

> <Gold.Chemscore.Fitness>
16.5480

> <Gold.Chemscore.DG>
-17.1529

> <Gold.Chemscore.ZeroCoef>
-5.4800

> <Gold.Chemscore.Hbond>
1.0000

> <Gold.Chemscore.Metal>
0.0000

> <Gold.Chemscore.Lipo>
127.9226

> <Gold.Chemscore.Internal_Hbond>
0.0000

> <Gold.Chemscore.DEClash>
0.0458

> <Gold.Chemscore.DEInternal>
0.5591

> <Gold.Chemscore.Rot>
2.5914

> <Gold.Chemscore.Internal.Correction>
   9.000000E+99

> <Gold.Chemscore.Hbonds>
donor molecule, donor type, donor heavy atom, donor atom, acceptor molecule, acceptor atom, score
      P1  H  6896  6909       L1    18  0.98

> <Gold.Chemscore.Hbond.Weighted>
-3.3400

> <Gold.Chemscore.Metal.Weighted>
-0.0000

> <Gold.Chemscore.Lipo.Weighted>
-14.9669

> <Gold.Chemscore.Internal_Hbond.Weighted>
0.0000

> <Gold.Chemscore.DEClash.Weighted>
0.0458

> <Gold.Chemscore.DEInternal.Weighted>
0.5591

> <Gold.Chemscore.Rot.Weighted>
6.6340

> <Gold.Chemscore.Internal.Correction.Weighted>
   9.000000E+99

> <Gold.Protein.RotatedTorsions>
[ 6907 6896 6895 6894 ] final   11.76 input  -60.11 | X-H torsion
[ 7974 7965 7964 7962 ] final   56.02 input  175.53 | X-H torsion
[ 8008 7997 7996 7995 ] final  -74.59 input   59.86 | X-H torsion
[ 10167 10162 10161 10158 ] final -100.60 input  -65.29 | X-H torsion
[ 10718 10713 10712 10709 ] final -103.28 input   66.30 | X-H torsion
[ 10763 10752 10751 10750 ] final  -81.86 input  -60.55 | X-H torsion
[ 11005 11000 10999 10996 ] final   20.62 input  -57.11 | X-H torsion

> <Gold.Protein.ActiveResidues>
 VAL166  LYS551  ARG553  GLY616  TRP617  ASP618  TYR619  PRO620  LYS621  CYS622 
 ASP623  PHE694  ASN695  SER759  ASP760  ASP761  ALA762  ILE779  LEU786  VAL792 
 PHE793  MET794  SER795  GLU796  ALA797  LYS798  CYS799  TRP800  GLU811  SER814 

> <Gold.Protein.RotatedAtoms>
  151.7595  135.0813  160.0343 H   0  0  0  0  0  0  0  0  0  0  0  0  # atno 6907 bound_to 6896
  152.3362  133.6010  159.5853 H   0  0  0  0  0  0  0  0  0  0  0  0  # atno 6908 bound_to 6896
  150.7452  133.9708  159.3587 H   0  0  0  0  0  0  0  0  0  0  0  0  # atno 6909 bound_to 6896
  145.9443  139.3915  143.0345 H   0  0  0  0  0  0  0  0  0  0  0  0  # atno 7974 bound_to 7965
  154.5344  140.0759  156.8401 H   0  0  0  0  0  0  0  0  0  0  0  0  # atno 8008 bound_to 7997
  155.3309  140.3401  155.4221 H   0  0  0  0  0  0  0  0  0  0  0  0  # atno 8009 bound_to 7997
  156.1813  140.1653  156.8255 H   0  0  0  0  0  0  0  0  0  0  0  0  # atno 8010 bound_to 7997
  140.2502  143.3478  152.0722 H   0  0  0  0  0  0  0  0  0  0  0  0  # atno 10167 bound_to 10162
  156.0259  130.5460  150.7230 H   0  0  0  0  0  0  0  0  0  0  0  0  # atno 10718 bound_to 10713
  154.5688  135.5611  153.7075 H   0  0  0  0  0  0  0  0  0  0  0  0  # atno 10763 bound_to 10752
  153.0041  135.6292  154.2143 H   0  0  0  0  0  0  0  0  0  0  0  0  # atno 10764 bound_to 10752
  154.2083  135.2875  155.2947 H   0  0  0  0  0  0  0  0  0  0  0  0  # atno 10765 bound_to 10752
  140.4006  134.1722  155.7664 H   0  0  0  0  0  0  0  0  0  0  0  0  # atno 11005 bound_to 11000
  145.8258  140.9656  143.0875 LP  0  0  0  0  0  0  0  0  0  0  0  0  # atno 17320 bound_to 7965
  144.6784  140.0099  143.7484 LP  0  0  0  0  0  0  0  0  0  0  0  0  # atno 17321 bound_to 7965
  139.5049  144.6784  151.6071 LP  0  0  0  0  0  0  0  0  0  0  0  0  # atno 17342 bound_to 10162
  140.6046  143.9547  150.6410 LP  0  0  0  0  0  0  0  0  0  0  0  0  # atno 17343 bound_to 10162
  157.4841  131.0905  151.0502 LP  0  0  0  0  0  0  0  0  0  0  0  0  # atno 17370 bound_to 10713
  157.0927  130.5949  149.5443 LP  0  0  0  0  0  0  0  0  0  0  0  0  # atno 17371 bound_to 10713
  141.1858  133.8315  157.1091 LP  0  0  0  0  0  0  0  0  0  0  0  0  # atno 17394 bound_to 11000
  140.0339  134.9888  157.0834 LP  0  0  0  0  0  0  0  0  0  0  0  0  # atno 17395 bound_to 11000

$$$$
