AV-unprocessed.smi:2583|AV-procd|sdf|10140|dock3
  -GOLD-   2272014153D 1   1.00000     0.00000
 Structure written by MMmdl.
 54 56  0  0  0  0  0  0  0  0  2 V2000
  153.6102  141.4829  160.0865 C   0  0  0  0  0  0  0  0  0  0  0  0
  152.8313  142.4712  159.2438 C   0  0  0  0  0  0  0  0  0  0  0  0
  152.8837  143.8547  159.5104 C   0  0  0  0  0  0  0  0  0  0  0  0
  152.2174  144.7742  158.7812 N   0  0  0  0  0  0  0  0  0  0  0  0
  151.4599  144.3376  157.7527 C   0  0  0  0  0  0  0  0  0  0  0  0
  151.3200  142.9774  157.4053 C   0  0  0  0  0  0  0  0  0  0  0  0
  150.4965  142.6565  156.2924 N   0  0  0  0  0  0  0  0  0  0  0  0
  150.3632  141.4762  155.6634 C   0  0  0  0  0  0  0  0  0  0  0  0
  150.9642  140.4418  155.9530 O   0  0  0  0  0  0  0  0  0  0  0  0
  149.4619  141.5531  154.6739 N   0  0  0  0  0  0  0  0  0  0  0  0
  149.0635  140.4412  153.8156 C   0  0  0  0  0  0  0  0  0  0  0  0
  147.7097  140.7346  153.1648 C   0  0  0  0  0  0  0  0  0  0  0  0
  147.2214  139.5309  152.3403 C   0  0  0  0  0  0  0  0  0  0  0  0
  147.0732  138.3220  153.1688 N   0  0  0  0  0  0  0  0  0  0  0  0
  146.5281  137.1922  152.3804 C   0  0  2  0  0  0  0  0  0  0  0  0
  144.9804  137.1951  152.2839 C   0  0  0  0  0  0  0  0  0  0  0  0
  144.3187  136.8767  153.6369 C   0  0  0  0  0  0  0  0  0  0  0  0
  144.7736  135.5652  154.1599 N   0  3  2  0  0  0  0  0  0  0  0  0
  144.0927  135.1941  155.4188 C   0  0  0  0  0  0  0  0  0  0  0  0
  146.2509  135.4857  154.2709 C   0  0  0  0  0  0  0  0  0  0  0  0
  146.9253  135.7942  152.9218 C   0  0  0  0  0  0  0  0  0  0  0  0
  148.3906  137.9994  153.7427 C   0  0  0  0  0  0  0  0  0  0  0  0
  148.9338  139.1413  154.6183 C   0  0  0  0  0  0  0  0  0  0  0  0
  152.0375  142.0246  158.1684 C   0  0  0  0  0  0  0  0  0  0  0  0
  154.1737  141.9879  160.8717 H   0  0  0  0  0  0  0  0  0  0  0  0
  154.3134  140.9276  159.4655 H   0  0  0  0  0  0  0  0  0  0  0  0
  152.9319  140.7710  160.5576 H   0  0  0  0  0  0  0  0  0  0  0  0
  153.4798  144.2368  160.3262 H   0  0  0  0  0  0  0  0  0  0  0  0
  150.9426  145.1022  157.1915 H   0  0  0  0  0  0  0  0  0  0  0  0
  149.8808  143.3949  155.9843 H   0  0  0  0  0  0  0  0  0  0  0  0
  149.0140  142.4420  154.5062 H   0  0  0  0  0  0  0  0  0  0  0  0
  149.8074  140.3083  153.0276 H   0  0  0  0  0  0  0  0  0  0  0  0
  146.9682  140.9764  153.9279 H   0  0  0  0  0  0  0  0  0  0  0  0
  147.7887  141.6115  152.5213 H   0  0  0  0  0  0  0  0  0  0  0  0
  146.2718  139.8291  151.9046 H   0  0  0  0  0  0  0  0  0  0  0  0
  147.9063  139.3360  151.5136 H   0  0  0  0  0  0  0  0  0  0  0  0
  146.9305  137.2851  151.3703 H   0  0  0  0  0  0  0  0  0  0  0  0
  144.5757  138.1131  151.8642 H   0  0  0  0  0  0  0  0  0  0  0  0
  144.6806  136.4262  151.5704 H   0  0  0  0  0  0  0  0  0  0  0  0
  144.5439  137.6612  154.3612 H   0  0  0  0  0  0  0  0  0  0  0  0
  143.2348  136.8599  153.5156 H   0  0  0  0  0  0  0  0  0  0  0  0
  144.3325  135.8986  156.2163 H   0  0  0  0  0  0  0  0  0  0  0  0
  144.3944  134.1969  155.7405 H   0  0  0  0  0  0  0  0  0  0  0  0
  143.0108  135.1860  155.2831 H   0  0  0  0  0  0  0  0  0  0  0  0
  146.6017  136.1795  155.0365 H   0  0  0  0  0  0  0  0  0  0  0  0
  146.5343  134.4843  154.5972 H   0  0  0  0  0  0  0  0  0  0  0  0
  146.5996  135.0433  152.2007 H   0  0  0  0  0  0  0  0  0  0  0  0
  148.0014  135.6461  152.9821 H   0  0  0  0  0  0  0  0  0  0  0  0
  148.3318  137.1298  154.3920 H   0  0  0  0  0  0  0  0  0  0  0  0
  149.0984  137.7619  152.9467 H   0  0  0  0  0  0  0  0  0  0  0  0
  149.9029  138.8543  155.0279 H   0  0  0  0  0  0  0  0  0  0  0  0
  148.2706  139.2914  155.4717 H   0  0  0  0  0  0  0  0  0  0  0  0
  152.0058  140.9697  157.9446 H   0  0  0  0  0  0  0  0  0  0  0  0
  144.5020  134.8750  153.4744 H   0  0  0  0  0  0  0  0  0  0  0  0
  1  2  1  0  0  0  0
  1 25  1  0  0  0  0
  1 26  1  0  0  0  0
  1 27  1  0  0  0  0
  2 24  1  0  0  0  0
  2  3  2  0  0  0  0
  3  4  1  0  0  0  0
  3 28  1  0  0  0  0
  4  5  2  0  0  0  0
  5  6  1  0  0  0  0
  5 29  1  0  0  0  0
  6  7  1  0  0  0  0
  6 24  2  0  0  0  0
  7  8  1  0  0  0  0
  7 30  1  0  0  0  0
  8  9  2  0  0  0  0
  8 10  1  0  0  0  0
 10 11  1  0  0  0  0
 10 31  1  0  0  0  0
 11 23  1  0  0  0  0
 11 12  1  0  0  0  0
 11 32  1  0  0  0  0
 12 13  1  0  0  0  0
 12 33  1  0  0  0  0
 12 34  1  0  0  0  0
 13 14  1  0  0  0  0
 13 35  1  0  0  0  0
 13 36  1  0  0  0  0
 14 15  1  0  0  0  0
 14 22  1  0  0  0  0
 15 21  1  0  0  0  0
 15 16  1  0  0  0  0
 15 37  1  0  0  0  0
 16 17  1  0  0  0  0
 16 38  1  0  0  0  0
 16 39  1  0  0  0  0
 17 18  1  0  0  0  0
 17 40  1  0  0  0  0
 17 41  1  0  0  0  0
 18 19  1  0  0  0  0
 18 20  1  0  0  0  0
 18 54  1  0  0  0  0
 19 42  1  0  0  0  0
 19 43  1  0  0  0  0
 19 44  1  0  0  0  0
 20 21  1  0  0  0  0
 20 45  1  0  0  0  0
 20 46  1  0  0  0  0
 21 47  1  0  0  0  0
 21 48  1  0  0  0  0
 22 23  1  0  0  0  0
 22 49  1  0  0  0  0
 22 50  1  0  0  0  0
 23 51  1  0  0  0  0
 23 52  1  0  0  0  0
 24 53  1  0  0  0  0
M  CHG  1  18   1
M  END
> <s_m_source_file>
AV-unprocessed.smi

> <i_m_source_file_index>
2583

> <i_lp_mmshare_version>
43012

> <i_f3d_flags>
0

> <s_epik_input>
W0NIM11jMVtjSF1uW2NIXWMoW2NIXTEpW05IXUMoPU8pW05IXVtDSF0yW0NIMl1bQ0gyXU4oW0NIMl1bQ0gyXTIpW0NIXTNbQ0gyXVtDSDJdTihbQ0gzXSlbQ0gyXVtDSDJdMw==

> <s_epik_cmdline>
J2VwaWtfcHl0aG9uJywgJy1waCcsICc3LjAnLCAnLXRuJywgJzgnLCAnLW1hJywgJzIwMCcsICctbWV0YWxfYmluZGluZycsICctaW1hZScsICc8aW5maWxlLm1hZT4nLCAnLW9tYWUnLCAnPG91dGZpbGUubWFlPic=

> <r_epik_Ionization_Penalty>
1.01912

> <r_epik_Ionization_Penalty_Charging>
0.000974969

> <r_epik_Ionization_Penalty_Neutral>
1.01814

> <r_epik_State_Penalty>
1.10721

> <r_epik_Charging_Adjusted_Penalty>
1.10819

> <i_epik_Tot_Q>
1

> <i_epik_Tot_abs_Q>
1

> <r_epik_Metal_State_Penalty>
1.10135

> <b_epik_Metal_Only>
0

> <s_lp_Force_Field>
OPLS_2005

> <r_lp_Energy>
36.2524

> <b_lp_Chiralities_Consistent>
1

> <s_lp_Variant>
AV-unprocessed.smi:2583-6

> <Gold.Version>
5.8.1

> <Gold.Id.Protein>
6NUR|6NUR_protein|mol2

> <Gold.PLP.Fitness>
40.4598

> <Gold.PLP.PLP>
-36.4745

> <Gold.PLP.part.hbond>
-1.0000

> <Gold.PLP.part.metal>
0.0000

> <Gold.PLP.part.buried>
-2.6472

> <Gold.PLP.part.nonpolar>
-33.7385

> <Gold.PLP.part.repulsive>
0.4967

> <Gold.PLP.ligand.clash>
0.0000

> <Gold.PLP.ligand.torsion>
0.8913

> <Gold.PLP.Chemscore.Hbond>
1.0000

> <Gold.PLP.Chemscore.CHOScore>
0.9214

> <Gold.PLP.Chemscore.Metal>
0.0000

> <Gold.Chemscore.Hbonds>
donor molecule, donor type, donor heavy atom, donor atom, acceptor molecule, acceptor atom, score
      L1  H     7    30       P1  8028  1.00
      L1  C     5    29       P1  8028  0.91

> <Gold.PLP.Chemscore.Internal.Correction>
0.0036

> <Gold.Rescore>
     Score         DG    S(hbond)    S(metal)    S(lipo)     H(rot)  DE(clash)    DE(int)     intcor
     16.35     -20.67       1.59        0.00     110.54       1.20       0.80       3.51       ----

> <Gold.Chemscore.Fitness>
16.3507

> <Gold.Chemscore.DG>
-20.6662

> <Gold.Chemscore.ZeroCoef>
-5.4800

> <Gold.Chemscore.Hbond>
1.5924

> <Gold.Chemscore.Metal>
0.0000

> <Gold.Chemscore.Lipo>
110.5360

> <Gold.Chemscore.Internal_Hbond>
0.0000

> <Gold.Chemscore.DEClash>
0.8034

> <Gold.Chemscore.DEInternal>
3.5121

> <Gold.Chemscore.Rot>
1.1974

> <Gold.Chemscore.Internal.Correction>
   9.000000E+99

> <Gold.Chemscore.Hbonds>
donor molecule, donor type, donor heavy atom, donor atom, acceptor molecule, acceptor atom, score
      L1  H     7    30       P1  8028  1.00

> <Gold.Chemscore.Hbond.Weighted>
-5.3187

> <Gold.Chemscore.Metal.Weighted>
-0.0000

> <Gold.Chemscore.Lipo.Weighted>
-12.9327

> <Gold.Chemscore.Internal_Hbond.Weighted>
0.0000

> <Gold.Chemscore.DEClash.Weighted>
0.8034

> <Gold.Chemscore.DEInternal.Weighted>
3.5121

> <Gold.Chemscore.Rot.Weighted>
3.0652

> <Gold.Chemscore.Internal.Correction.Weighted>
   9.000000E+99

> <Gold.Protein.RotatedTorsions>
[ 6907 6896 6895 6894 ] final  -77.44 input  -60.11 | X-H torsion
[ 7974 7965 7964 7962 ] final  -30.32 input  175.53 | X-H torsion
[ 8008 7997 7996 7995 ] final  -41.27 input   59.86 | X-H torsion
[ 10167 10162 10161 10158 ] final   13.62 input  -65.29 | X-H torsion
[ 10718 10713 10712 10709 ] final -100.56 input   66.30 | X-H torsion
[ 10763 10752 10751 10750 ] final   -7.41 input  -60.55 | X-H torsion
[ 11005 11000 10999 10996 ] final   83.11 input  -57.11 | X-H torsion

> <Gold.Protein.ActiveResidues>
 VAL166  LYS551  ARG553  GLY616  TRP617  ASP618  TYR619  PRO620  LYS621  CYS622 
 ASP623  PHE694  ASN695  SER759  ASP760  ASP761  ALA762  ILE779  LEU786  VAL792 
 PHE793  MET794  SER795  GLU796  ALA797  LYS798  CYS799  TRP800  GLU811  SER814 

> <Gold.Protein.RotatedAtoms>
  150.6999  134.4422  159.5297 H   0  0  0  0  0  0  0  0  0  0  0  0  # atno 6907 bound_to 6896
  152.2130  134.8481  160.0504 H   0  0  0  0  0  0  0  0  0  0  0  0  # atno 6908 bound_to 6896
  151.9360  133.3589  159.3984 H   0  0  0  0  0  0  0  0  0  0  0  0  # atno 6909 bound_to 6896
  146.1152  140.5525  142.8760 H   0  0  0  0  0  0  0  0  0  0  0  0  # atno 7974 bound_to 7965
  154.4005  140.1503  156.3164 H   0  0  0  0  0  0  0  0  0  0  0  0  # atno 8008 bound_to 7997
  155.8569  140.3455  155.5709 H   0  0  0  0  0  0  0  0  0  0  0  0  # atno 8009 bound_to 7997
  155.7923  140.0858  157.1993 H   0  0  0  0  0  0  0  0  0  0  0  0  # atno 8010 bound_to 7997
  140.5990  143.8642  150.6947 H   0  0  0  0  0  0  0  0  0  0  0  0  # atno 10167 bound_to 10162
  156.0167  130.5333  150.6835 H   0  0  0  0  0  0  0  0  0  0  0  0  # atno 10718 bound_to 10713
  153.4260  135.7011  153.6262 H   0  0  0  0  0  0  0  0  0  0  0  0  # atno 10763 bound_to 10752
  153.4697  135.3717  155.2384 H   0  0  0  0  0  0  0  0  0  0  0  0  # atno 10764 bound_to 10752
  154.8724  135.4040  154.3636 H   0  0  0  0  0  0  0  0  0  0  0  0  # atno 10765 bound_to 10752
  139.9041  134.8121  156.2265 H   0  0  0  0  0  0  0  0  0  0  0  0  # atno 11005 bound_to 11000
  144.7546  140.5276  143.6778 LP  0  0  0  0  0  0  0  0  0  0  0  0  # atno 17320 bound_to 7965
  145.5582  139.1478  143.3356 LP  0  0  0  0  0  0  0  0  0  0  0  0  # atno 17321 bound_to 7965
  140.2184  143.3828  152.1663 LP  0  0  0  0  0  0  0  0  0  0  0  0  # atno 17342 bound_to 10162
  139.5278  144.7123  151.5165 LP  0  0  0  0  0  0  0  0  0  0  0  0  # atno 17343 bound_to 10162
  157.4532  131.0875  151.0824 LP  0  0  0  0  0  0  0  0  0  0  0  0  # atno 17370 bound_to 10713
  157.1333  130.6111  149.5535 LP  0  0  0  0  0  0  0  0  0  0  0  0  # atno 17371 bound_to 10713
  141.0372  133.6957  156.1534 LP  0  0  0  0  0  0  0  0  0  0  0  0  # atno 17394 bound_to 11000
  140.7009  134.4565  157.5586 LP  0  0  0  0  0  0  0  0  0  0  0  0  # atno 17395 bound_to 11000

$$$$
