AV-unprocessed.smi:3258|AV-procd|sdf|12470|dock6
  -GOLD-   2272018373D 1   1.00000     0.00000
 Structure written by MMmdl.
 38 39  0  0  0  0  0  0  0  0  1 V2000
  144.0321  135.1413  153.0264 C   0  0  0  0  0  0  0  0  0  0  0  0
  144.9309  136.0428  152.1642 C   0  0  2  0  0  0  0  0  0  0  0  0
  145.1087  135.5248  150.7200 C   0  0  0  0  0  0  0  0  0  0  0  0
  145.0868  134.0756  150.6374 N   0  0  0  0  0  0  0  0  0  0  0  0
  143.9952  133.2347  150.6887 C   0  0  0  0  0  0  0  0  0  0  0  0
  144.4611  131.9566  150.5721 C   0  0  0  0  0  0  0  0  0  0  0  0
  145.8693  132.1204  150.4497 C   0  0  0  0  0  0  0  0  0  0  0  0
  146.2410  133.3898  150.4874 N   0  0  0  0  0  0  0  0  0  0  0  0
  146.2322  136.1812  152.8121 N   0  0  0  0  0  0  0  0  0  0  0  0
  146.4277  136.5910  154.0735 C   0  0  0  0  0  0  0  0  0  0  0  0
  145.5210  136.9026  154.8459 O   0  0  0  0  0  0  0  0  0  0  0  0
  147.7304  136.6278  154.3875 N   0  0  0  0  0  0  0  0  0  0  0  0
  148.2772  137.0398  155.6766 C   0  0  0  0  0  0  0  0  0  0  0  0
  149.5608  137.8759  155.5161 C   0  0  1  0  0  0  0  0  0  0  0  0
  150.6911  137.1921  154.7703 C   0  0  0  0  0  0  0  0  0  0  0  0
  151.5629  138.3749  154.3589 C   0  0  0  0  0  0  0  0  0  0  0  0
  150.6767  139.4802  154.2039 O   0  0  0  0  0  0  0  0  0  0  0  0
  149.3752  139.1313  154.6649 C   0  0  0  0  0  0  0  0  0  0  0  0
  143.0192  135.0872  152.6269 H   0  0  0  0  0  0  0  0  0  0  0  0
  143.9560  135.5226  154.0452 H   0  0  0  0  0  0  0  0  0  0  0  0
  144.4237  134.1249  153.0789 H   0  0  0  0  0  0  0  0  0  0  0  0
  144.4592  137.0266  152.1238 H   0  0  0  0  0  0  0  0  0  0  0  0
  144.3136  135.9065  150.0782 H   0  0  0  0  0  0  0  0  0  0  0  0
  146.0474  135.8896  150.2993 H   0  0  0  0  0  0  0  0  0  0  0  0
  142.9899  133.6128  150.8044 H   0  0  0  0  0  0  0  0  0  0  0  0
  143.8841  131.0438  150.5736 H   0  0  0  0  0  0  0  0  0  0  0  0
  146.6274  131.3597  150.3345 H   0  0  0  0  0  0  0  0  0  0  0  0
  147.0426  135.9498  152.2564 H   0  0  0  0  0  0  0  0  0  0  0  0
  148.3962  136.3527  153.6801 H   0  0  0  0  0  0  0  0  0  0  0  0
  147.5318  137.5845  156.2586 H   0  0  0  0  0  0  0  0  0  0  0  0
  148.5023  136.1359  156.2429 H   0  0  0  0  0  0  0  0  0  0  0  0
  149.9237  138.1767  156.5005 H   0  0  0  0  0  0  0  0  0  0  0  0
  151.2289  136.4623  155.3761 H   0  0  0  0  0  0  0  0  0  0  0  0
  150.3090  136.6843  153.8835 H   0  0  0  0  0  0  0  0  0  0  0  0
  152.2777  138.6134  155.1474 H   0  0  0  0  0  0  0  0  0  0  0  0
  152.1216  138.1800  153.4434 H   0  0  0  0  0  0  0  0  0  0  0  0
  148.7485  138.9209  153.7970 H   0  0  0  0  0  0  0  0  0  0  0  0
  148.9176  139.9499  155.2209 H   0  0  0  0  0  0  0  0  0  0  0  0
  1  2  1  0  0  0  0
  1 19  1  0  0  0  0
  1 20  1  0  0  0  0
  1 21  1  0  0  0  0
  2  3  1  0  0  0  0
  2  9  1  0  0  0  0
  2 22  1  0  0  0  0
  3  4  1  0  0  0  0
  3 23  1  0  0  0  0
  3 24  1  0  0  0  0
  4  8  1  0  0  0  0
  4  5  1  0  0  0  0
  5  6  2  0  0  0  0
  5 25  1  0  0  0  0
  6  7  1  0  0  0  0
  6 26  1  0  0  0  0
  7  8  2  0  0  0  0
  7 27  1  0  0  0  0
  9 10  1  0  0  0  0
  9 28  1  0  0  0  0
 10 11  2  0  0  0  0
 10 12  1  0  0  0  0
 12 13  1  0  0  0  0
 12 29  1  0  0  0  0
 13 14  1  0  0  0  0
 13 30  1  0  0  0  0
 13 31  1  0  0  0  0
 14 18  1  0  0  0  0
 14 15  1  0  0  0  0
 14 32  1  0  0  0  0
 15 16  1  0  0  0  0
 15 33  1  0  0  0  0
 15 34  1  0  0  0  0
 16 17  1  0  0  0  0
 16 35  1  0  0  0  0
 16 36  1  0  0  0  0
 17 18  1  0  0  0  0
 18 37  1  0  0  0  0
 18 38  1  0  0  0  0
M  END
> <s_m_source_file>
AV-unprocessed.smi

> <i_m_source_file_index>
3258

> <i_lp_mmshare_version>
43012

> <i_f3d_flags>
0

> <s_epik_input>
bjFbY0hdW2NIXVtjSF1uMVtDSDJdW0NAQEhdKFtDSDNdKVtOSF1DKD1PKVtOSF1bQ0gyXVtDQEBIXTJbQ0gyXVtDSDJdT1tDSDJdMg==

> <s_epik_cmdline>
J2VwaWtfcHl0aG9uJywgJy1waCcsICc3LjAnLCAnLXRuJywgJzgnLCAnLW1hJywgJzIwMCcsICctbWV0YWxfYmluZGluZycsICctaW1hZScsICc8aW5maWxlLm1hZT4nLCAnLW9tYWUnLCAnPG91dGZpbGUubWFlPic=

> <r_lp_tautomer_probability>
1

> <r_epik_Ionization_Penalty>
6.85079e-05

> <r_epik_Ionization_Penalty_Charging>
0

> <r_epik_Ionization_Penalty_Neutral>
6.85079e-05

> <r_epik_State_Penalty>
-0

> <r_epik_Charging_Adjusted_Penalty>
0

> <i_epik_Tot_Q>
0

> <i_epik_Tot_abs_Q>
0

> <r_epik_Metal_State_Penalty>
-0

> <b_epik_Metal_Only>
0

> <s_lp_Force_Field>
OPLS_2005

> <r_lp_Energy>
15.6708

> <b_lp_Chiralities_Consistent>
1

> <s_lp_Variant>
AV-unprocessed.smi:3258-3

> <Gold.Version>
5.8.1

> <Gold.Id.Protein>
6NUR|6NUR_protein|mol2

> <Gold.PLP.Fitness>
43.1176

> <Gold.PLP.PLP>
-29.5634

> <Gold.PLP.part.hbond>
-3.0000

> <Gold.PLP.part.metal>
0.0000

> <Gold.PLP.part.buried>
-5.4805

> <Gold.PLP.part.nonpolar>
-21.8837

> <Gold.PLP.part.repulsive>
0.4165

> <Gold.PLP.ligand.clash>
0.0000

> <Gold.PLP.ligand.torsion>
0.7435

> <Gold.PLP.Chemscore.Hbond>
3.0000

> <Gold.PLP.Chemscore.CHOScore>
2.0000

> <Gold.PLP.Chemscore.Metal>
0.0000

> <Gold.Chemscore.Hbonds>
donor molecule, donor type, donor heavy atom, donor atom, acceptor molecule, acceptor atom, score
      L1  H     9    28       P1  7948  1.00
      L1  H    12    29       P1  7948  1.00
      P1  H  7989  7998       L1    17  1.00
      L1  C     5    25       P1 10186  1.00
      L1  C     7    27       P1 10747  1.00

> <Gold.PLP.Chemscore.Internal.Correction>
0.0411

> <Gold.Rescore>
     Score         DG    S(hbond)    S(metal)    S(lipo)     H(rot)  DE(clash)    DE(int)     intcor
     16.25     -18.28       2.89        0.00      67.93       1.87       0.10       1.93       ----

> <Gold.Chemscore.Fitness>
16.2511

> <Gold.Chemscore.DG>
-18.2831

> <Gold.Chemscore.ZeroCoef>
-5.4800

> <Gold.Chemscore.Hbond>
2.8888

> <Gold.Chemscore.Metal>
0.0000

> <Gold.Chemscore.Lipo>
67.9302

> <Gold.Chemscore.Internal_Hbond>
0.0000

> <Gold.Chemscore.DEClash>
0.1027

> <Gold.Chemscore.DEInternal>
1.9293

> <Gold.Chemscore.Rot>
1.8724

> <Gold.Chemscore.Internal.Correction>
   9.000000E+99

> <Gold.Chemscore.Hbonds>
donor molecule, donor type, donor heavy atom, donor atom, acceptor molecule, acceptor atom, score
      L1  H     9    28       P1  7948  0.93
      L1  H    12    29       P1  7948  0.96
      P1  H  7989  7998       L1    17  0.65

> <Gold.Chemscore.Hbond.Weighted>
-9.6485

> <Gold.Chemscore.Metal.Weighted>
-0.0000

> <Gold.Chemscore.Lipo.Weighted>
-7.9478

> <Gold.Chemscore.Internal_Hbond.Weighted>
0.0000

> <Gold.Chemscore.DEClash.Weighted>
0.1027

> <Gold.Chemscore.DEInternal.Weighted>
1.9293

> <Gold.Chemscore.Rot.Weighted>
4.7933

> <Gold.Chemscore.Internal.Correction.Weighted>
   9.000000E+99

> <Gold.Protein.RotatedTorsions>
[ 6907 6896 6895 6894 ] final   34.73 input  -60.11 | X-H torsion
[ 7974 7965 7964 7962 ] final  -72.92 input  175.53 | X-H torsion
[ 8008 7997 7996 7995 ] final -102.81 input   59.86 | X-H torsion
[ 10167 10162 10161 10158 ] final -151.31 input  -65.29 | X-H torsion
[ 10718 10713 10712 10709 ] final   37.31 input   66.30 | X-H torsion
[ 10763 10752 10751 10750 ] final  -44.27 input  -60.55 | X-H torsion
[ 11005 11000 10999 10996 ] final  -51.03 input  -57.11 | X-H torsion

> <Gold.Protein.ActiveResidues>
 VAL166  LYS551  ARG553  GLY616  TRP617  ASP618  TYR619  PRO620  LYS621  CYS622 
 ASP623  PHE694  ASN695  SER759  ASP760  ASP761  ALA762  ILE779  LEU786  VAL792 
 PHE793  MET794  SER795  GLU796  ALA797  LYS798  CYS799  TRP800  GLU811  SER814 

> <Gold.Protein.RotatedAtoms>
  152.1064  134.9305  160.0567 H   0  0  0  0  0  0  0  0  0  0  0  0  # atno 6907 bound_to 6896
  152.0499  133.4010  159.4381 H   0  0  0  0  0  0  0  0  0  0  0  0  # atno 6908 bound_to 6896
  150.6841  134.3240  159.4842 H   0  0  0  0  0  0  0  0  0  0  0  0  # atno 6909 bound_to 6896
  145.6588  140.9259  143.0945 H   0  0  0  0  0  0  0  0  0  0  0  0  # atno 7974 bound_to 7965
  154.8619  140.0426  157.1671 H   0  0  0  0  0  0  0  0  0  0  0  0  # atno 8008 bound_to 7997
  154.8830  140.2975  155.5393 H   0  0  0  0  0  0  0  0  0  0  0  0  # atno 8009 bound_to 7997
  156.2998  140.2407  156.3836 H   0  0  0  0  0  0  0  0  0  0  0  0  # atno 8010 bound_to 7997
  139.7279  143.8855  152.2525 H   0  0  0  0  0  0  0  0  0  0  0  0  # atno 10167 bound_to 10162
  157.3453  130.7570  149.6940 H   0  0  0  0  0  0  0  0  0  0  0  0  # atno 10718 bound_to 10713
  154.0094  135.6683  153.4764 H   0  0  0  0  0  0  0  0  0  0  0  0  # atno 10763 bound_to 10752
  153.0627  135.5018  154.8127 H   0  0  0  0  0  0  0  0  0  0  0  0  # atno 10764 bound_to 10752
  154.7005  135.3078  154.9312 H   0  0  0  0  0  0  0  0  0  0  0  0  # atno 10765 bound_to 10752
  141.0848  133.6645  156.3817 H   0  0  0  0  0  0  0  0  0  0  0  0  # atno 11005 bound_to 11000
  144.7096  139.8422  143.7419 LP  0  0  0  0  0  0  0  0  0  0  0  0  # atno 17320 bound_to 7965
  146.1142  139.4151  143.0268 LP  0  0  0  0  0  0  0  0  0  0  0  0  # atno 17321 bound_to 7965
  139.8769  144.7038  150.8922 LP  0  0  0  0  0  0  0  0  0  0  0  0  # atno 17342 bound_to 10162
  140.7766  143.3692  151.1681 LP  0  0  0  0  0  0  0  0  0  0  0  0  # atno 17343 bound_to 10162
  155.9713  130.4156  150.4189 LP  0  0  0  0  0  0  0  0  0  0  0  0  # atno 17370 bound_to 10713
  157.2243  131.0489  151.2529 LP  0  0  0  0  0  0  0  0  0  0  0  0  # atno 17371 bound_to 10713
  140.5386  134.6142  157.5373 LP  0  0  0  0  0  0  0  0  0  0  0  0  # atno 17394 bound_to 11000
  139.9666  134.7363  156.0127 LP  0  0  0  0  0  0  0  0  0  0  0  0  # atno 17395 bound_to 11000

$$$$
