AV-unprocessed.smi:2884|AV-procd|sdf|11083|dock10
  -GOLD-   2272015553D 1   1.00000     0.00000
 Structure written by MMmdl.
 42 43  0  0  0  0  0  0  0  0  1 V2000
  153.0360  137.9610  155.7344 C   0  0  0  0  0  0  0  0  0  0  0  0
  152.2922  139.0105  154.8982 C   0  0  0  0  0  0  0  0  0  0  0  0
  151.0669  139.5845  155.6196 C   0  0  0  0  0  0  0  0  0  0  0  0
  150.3652  140.4241  154.7099 O   0  0  0  0  0  0  0  0  0  0  0  0
  148.9361  140.5013  154.7798 C   0  0  0  0  0  0  0  0  0  0  0  0
  148.5011  139.0904  154.3112 C   0  0  0  0  0  0  0  0  0  0  0  0
  148.4343  138.1405  155.4152 N   0  0  0  0  0  0  0  0  0  0  0  0
  149.1569  136.9747  155.6370 C   0  0  0  0  0  0  0  0  0  0  0  0
  150.1819  136.4814  154.7229 C   0  0  0  0  0  0  0  0  0  0  0  0
  150.8424  135.3946  154.9341 N   0  0  0  0  0  0  0  0  0  0  0  0
  150.5709  134.6743  156.0713 N   0  0  0  0  0  0  0  0  0  0  0  0
  149.6646  134.9872  157.0267 C   0  0  0  0  0  0  0  0  0  0  0  0
  149.5012  134.2740  158.0147 O   0  0  0  0  0  0  0  0  0  0  0  0
  148.9275  136.2286  156.7534 C   0  0  0  0  0  0  0  0  0  0  0  0
  147.7291  136.7171  157.9053 Cl  0  0  0  0  0  0  0  0  0  0  0  0
  148.4017  140.8332  156.2032 C   0  0  0  0  0  0  0  0  0  0  0  0
  146.8723  141.0031  156.2333 C   0  0  0  0  0  0  0  0  0  0  0  0
  146.4145  142.0731  155.2302 C   0  0  0  0  0  0  0  0  0  0  0  0
  146.9128  141.7619  153.8104 C   0  0  0  0  0  0  0  0  0  0  0  0
  148.4415  141.5763  153.7782 C   0  0  0  0  0  0  0  0  0  0  0  0
  151.1237  133.8353  156.1720 H   0  0  0  0  0  0  0  0  0  0  0  0
  153.9089  137.5861  155.1997 H   0  0  0  0  0  0  0  0  0  0  0  0
  152.3956  137.1080  155.9619 H   0  0  0  0  0  0  0  0  0  0  0  0
  153.3803  138.3821  156.6796 H   0  0  0  0  0  0  0  0  0  0  0  0
  152.9784  139.8229  154.6574 H   0  0  0  0  0  0  0  0  0  0  0  0
  151.9868  138.5744  153.9462 H   0  0  0  0  0  0  0  0  0  0  0  0
  150.4371  138.7625  155.9602 H   0  0  0  0  0  0  0  0  0  0  0  0
  151.3917  140.1417  156.4974 H   0  0  0  0  0  0  0  0  0  0  0  0
  147.5595  139.1286  153.7699 H   0  0  0  0  0  0  0  0  0  0  0  0
  149.2323  138.7047  153.6001 H   0  0  0  0  0  0  0  0  0  0  0  0
  147.6371  138.2823  156.0200 H   0  0  0  0  0  0  0  0  0  0  0  0
  150.3716  137.0832  153.8363 H   0  0  0  0  0  0  0  0  0  0  0  0
  148.7091  140.0733  156.9218 H   0  0  0  0  0  0  0  0  0  0  0  0
  148.8277  141.7717  156.5571 H   0  0  0  0  0  0  0  0  0  0  0  0
  146.3803  140.0567  156.0134 H   0  0  0  0  0  0  0  0  0  0  0  0
  146.5540  141.2822  157.2381 H   0  0  0  0  0  0  0  0  0  0  0  0
  145.3267  142.1473  155.2354 H   0  0  0  0  0  0  0  0  0  0  0  0
  146.7913  143.0481  155.5416 H   0  0  0  0  0  0  0  0  0  0  0  0
  146.4163  140.8673  153.4342 H   0  0  0  0  0  0  0  0  0  0  0  0
  146.6272  142.5701  153.1363 H   0  0  0  0  0  0  0  0  0  0  0  0
  148.8971  142.5395  154.0046 H   0  0  0  0  0  0  0  0  0  0  0  0
  148.7618  141.3239  152.7669 H   0  0  0  0  0  0  0  0  0  0  0  0
  1  2  1  0  0  0  0
  1 22  1  0  0  0  0
  1 23  1  0  0  0  0
  1 24  1  0  0  0  0
  2  3  1  0  0  0  0
  2 25  1  0  0  0  0
  2 26  1  0  0  0  0
  3  4  1  0  0  0  0
  3 27  1  0  0  0  0
  3 28  1  0  0  0  0
  4  5  1  0  0  0  0
  5 20  1  0  0  0  0
  5  6  1  0  0  0  0
  5 16  1  0  0  0  0
  6  7  1  0  0  0  0
  6 29  1  0  0  0  0
  6 30  1  0  0  0  0
  7  8  1  0  0  0  0
  7 31  1  0  0  0  0
  8 14  2  0  0  0  0
  8  9  1  0  0  0  0
  9 10  2  0  0  0  0
  9 32  1  0  0  0  0
 10 11  1  0  0  0  0
 11 21  1  0  0  0  0
 11 12  1  0  0  0  0
 12 13  2  0  0  0  0
 12 14  1  0  0  0  0
 14 15  1  0  0  0  0
 16 17  1  0  0  0  0
 16 33  1  0  0  0  0
 16 34  1  0  0  0  0
 17 18  1  0  0  0  0
 17 35  1  0  0  0  0
 17 36  1  0  0  0  0
 18 19  1  0  0  0  0
 18 37  1  0  0  0  0
 18 38  1  0  0  0  0
 19 20  1  0  0  0  0
 19 39  1  0  0  0  0
 19 40  1  0  0  0  0
 20 41  1  0  0  0  0
 20 42  1  0  0  0  0
M  END
> <s_m_source_file>
AV-unprocessed.smi

> <i_m_source_file_index>
2884

> <i_lp_mmshare_version>
43012

> <i_f3d_flags>
0

> <s_epik_input>
W0NIMl0xW0NIMl1bQ0gyXVtDSDJdW0NIMl1DMShPW0NIMl1bQ0gyXVtDSDNdKVtDSDJdW05IXWMyW2NIXW5bbkhdYyg9TyljMkNs

> <s_epik_cmdline>
J2VwaWtfcHl0aG9uJywgJy1waCcsICc3LjAnLCAnLXRuJywgJzgnLCAnLW1hJywgJzIwMCcsICctbWV0YWxfYmluZGluZycsICctaW1hZScsICc8aW5maWxlLm1hZT4nLCAnLW9tYWUnLCAnPG91dGZpbGUubWFlPic=

> <r_lp_tautomer_probability>
0.986175

> <r_epik_Ionization_Penalty>
0.00111508

> <r_epik_Ionization_Penalty_Charging>
0.00108742

> <r_epik_Ionization_Penalty_Neutral>
2.7657e-05

> <r_epik_State_Penalty>
0.00620319

> <r_epik_Charging_Adjusted_Penalty>
0.00729061

> <i_epik_Tot_Q>
0

> <i_epik_Tot_abs_Q>
0

> <r_epik_Metal_State_Penalty>
0.300009

> <b_epik_Metal_Only>
0

> <s_lp_Force_Field>
OPLS_2005

> <r_lp_Energy>
35.8934

> <b_lp_Chiralities_Consistent>
1

> <s_lp_Variant>
AV-unprocessed.smi:2884-1

> <Gold.Version>
5.8.1

> <Gold.Id.Protein>
6NUR|6NUR_protein|mol2

> <Gold.PLP.Fitness>
34.4007

> <Gold.PLP.PLP>
-25.2860

> <Gold.PLP.part.hbond>
-3.0000

> <Gold.PLP.part.metal>
0.0000

> <Gold.PLP.part.buried>
-0.6534

> <Gold.PLP.part.nonpolar>
-21.8179

> <Gold.PLP.part.repulsive>
0.3671

> <Gold.PLP.ligand.clash>
0.0000

> <Gold.PLP.ligand.torsion>
0.7172

> <Gold.PLP.Chemscore.Hbond>
2.9680

> <Gold.PLP.Chemscore.CHOScore>
0.5397

> <Gold.PLP.Chemscore.Metal>
0.0000

> <Gold.Chemscore.Hbonds>
donor molecule, donor type, donor heavy atom, donor atom, acceptor molecule, acceptor atom, score
      P1  H  6896  6909       L1    13  1.00
      P1  H  7989  7998       L1     4  1.00
      P1  H 10752 10763       L1    10  0.67
      L1  C     9    32       P1  7948  0.52
      L1  C     9    32       P1  7949  0.20

> <Gold.PLP.Chemscore.Internal.Correction>
0.0259

> <Gold.Rescore>
     Score         DG    S(hbond)    S(metal)    S(lipo)     H(rot)  DE(clash)    DE(int)     intcor
     15.82     -17.25       2.52        0.00      67.39       1.77       0.51       0.92       ----

> <Gold.Chemscore.Fitness>
15.8162

> <Gold.Chemscore.DG>
-17.2498

> <Gold.Chemscore.ZeroCoef>
-5.4800

> <Gold.Chemscore.Hbond>
2.5170

> <Gold.Chemscore.Metal>
0.0000

> <Gold.Chemscore.Lipo>
67.3905

> <Gold.Chemscore.Internal_Hbond>
0.0000

> <Gold.Chemscore.DEClash>
0.5097

> <Gold.Chemscore.DEInternal>
0.9239

> <Gold.Chemscore.Rot>
1.7663

> <Gold.Chemscore.Internal.Correction>
   9.000000E+99

> <Gold.Chemscore.Hbonds>
donor molecule, donor type, donor heavy atom, donor atom, acceptor molecule, acceptor atom, score
      P1  H  6896  6909       L1    13  0.99
      P1  H  7989  7998       L1     4  0.43
      P1  H 10752 10763       L1    10  0.49

> <Gold.Chemscore.Hbond.Weighted>
-8.4068

> <Gold.Chemscore.Metal.Weighted>
-0.0000

> <Gold.Chemscore.Lipo.Weighted>
-7.8847

> <Gold.Chemscore.Internal_Hbond.Weighted>
0.0000

> <Gold.Chemscore.DEClash.Weighted>
0.5097

> <Gold.Chemscore.DEInternal.Weighted>
0.9239

> <Gold.Chemscore.Rot.Weighted>
4.5216

> <Gold.Chemscore.Internal.Correction.Weighted>
   9.000000E+99

> <Gold.Protein.RotatedTorsions>
[ 6907 6896 6895 6894 ] final    7.82 input  -60.11 | X-H torsion
[ 7974 7965 7964 7962 ] final  143.12 input  175.53 | X-H torsion
[ 8008 7997 7996 7995 ] final   11.08 input   59.86 | X-H torsion
[ 10167 10162 10161 10158 ] final  142.23 input  -65.29 | X-H torsion
[ 10718 10713 10712 10709 ] final   54.48 input   66.30 | X-H torsion
[ 10763 10752 10751 10750 ] final   47.94 input  -60.55 | X-H torsion
[ 11005 11000 10999 10996 ] final  179.70 input  -57.11 | X-H torsion

> <Gold.Protein.ActiveResidues>
 VAL166  LYS551  ARG553  GLY616  TRP617  ASP618  TYR619  PRO620  LYS621  CYS622 
 ASP623  PHE694  ASN695  SER759  ASP760  ASP761  ALA762  ILE779  LEU786  VAL792 
 PHE793  MET794  SER795  GLU796  ALA797  LYS798  CYS799  TRP800  GLU811  SER814 

> <Gold.Protein.RotatedAtoms>
  151.6961  135.0938  160.0242 H   0  0  0  0  0  0  0  0  0  0  0  0  # atno 6907 bound_to 6896
  152.3749  133.6463  159.6124 H   0  0  0  0  0  0  0  0  0  0  0  0  # atno 6908 bound_to 6896
  150.7701  133.9126  159.3415 H   0  0  0  0  0  0  0  0  0  0  0  0  # atno 6909 bound_to 6896
  144.8948  139.5506  143.5781 H   0  0  0  0  0  0  0  0  0  0  0  0  # atno 7974 bound_to 7965
  154.8021  140.2854  155.5914 H   0  0  0  0  0  0  0  0  0  0  0  0  # atno 8008 bound_to 7997
  156.2978  140.2584  156.2821 H   0  0  0  0  0  0  0  0  0  0  0  0  # atno 8009 bound_to 7997
  154.9546  140.0378  157.2150 H   0  0  0  0  0  0  0  0  0  0  0  0  # atno 8010 bound_to 7997
  139.4999  144.6120  151.6249 H   0  0  0  0  0  0  0  0  0  0  0  0  # atno 10167 bound_to 10162
  157.5261  130.8598  149.8623 H   0  0  0  0  0  0  0  0  0  0  0  0  # atno 10718 bound_to 10713
  152.9795  135.5960  154.3845 H   0  0  0  0  0  0  0  0  0  0  0  0  # atno 10763 bound_to 10752
  154.3506  135.2767  155.2376 H   0  0  0  0  0  0  0  0  0  0  0  0  # atno 10764 bound_to 10752
  154.4417  135.6011  153.6188 H   0  0  0  0  0  0  0  0  0  0  0  0  # atno 10765 bound_to 10752
  140.4090  134.6709  157.4604 H   0  0  0  0  0  0  0  0  0  0  0  0  # atno 11005 bound_to 11000
  146.3075  139.7630  142.9045 LP  0  0  0  0  0  0  0  0  0  0  0  0  # atno 17320 bound_to 7965
  145.3719  141.0344  143.3226 LP  0  0  0  0  0  0  0  0  0  0  0  0  # atno 17321 bound_to 7965
  140.5798  143.9966  150.6262 LP  0  0  0  0  0  0  0  0  0  0  0  0  # atno 17342 bound_to 10162
  140.3111  143.3197  152.0878 LP  0  0  0  0  0  0  0  0  0  0  0  0  # atno 17343 bound_to 10162
  156.0388  130.3744  150.1490 LP  0  0  0  0  0  0  0  0  0  0  0  0  # atno 17370 bound_to 10713
  156.9677  130.9825  151.3465 LP  0  0  0  0  0  0  0  0  0  0  0  0  # atno 17371 bound_to 10713
  140.0281  134.6447  155.9144 LP  0  0  0  0  0  0  0  0  0  0  0  0  # atno 17394 bound_to 11000
  141.1828  133.6549  156.5092 LP  0  0  0  0  0  0  0  0  0  0  0  0  # atno 17395 bound_to 11000

$$$$
