AV-unprocessed.smi:99|AV-procd|sdf|883|dock9
  -GOLD-   2262017363D 1   1.00000     0.00000
 Structure written by MMmdl.
 52 55  0  0  0  0  0  0  0  0  2 V2000
  144.3923  138.1125  155.2279 O   0  0  0  0  0  0  0  0  0  0  0  0
  145.2059  137.6796  154.4089 C   0  0  0  0  0  0  0  0  0  0  0  0
  146.5363  137.9043  154.4809 O   0  0  0  0  0  0  0  0  0  0  0  0
  147.0984  138.7168  155.5062 C   0  0  0  0  0  0  0  0  0  0  0  0
  147.6607  140.0317  154.9386 C   0  0  2  0  0  0  0  0  0  0  0  0
  149.0474  139.8918  154.6382 O   0  0  0  0  0  0  0  0  0  0  0  0
  149.7615  141.0381  155.0094 C   0  0  2  0  0  0  0  0  0  0  0  0
  150.7075  140.6446  156.1374 N   0  0  0  0  0  0  0  0  0  0  0  0
  150.5281  141.0552  157.4520 C   0  0  0  0  0  0  0  0  0  0  0  0
  151.3352  140.6283  158.4445 C   0  0  0  0  0  0  0  0  0  0  0  0
  152.4159  139.6979  158.1405 C   0  0  0  0  0  0  0  0  0  0  0  0
  153.1513  139.3206  159.0506 O   0  0  0  0  0  0  0  0  0  0  0  0
  152.5572  139.2815  156.8506 N   0  5  0  0  0  0  0  0  0  0  0  0
  151.7374  139.7057  155.8449 C   0  0  0  0  0  0  0  0  0  0  0  0
  151.8484  139.3100  154.6842 O   0  0  0  0  0  0  0  0  0  0  0  0
  148.7282  142.1169  155.3816 C   0  0  1  0  0  0  0  0  0  0  0  0
  148.3968  142.8816  154.2372 O   0  0  0  0  0  0  0  0  0  0  0  0
  147.5662  141.2514  155.8521 C   0  0  1  0  0  0  0  0  0  0  0  0
  146.3052  141.9082  155.8198 O   0  0  0  0  0  0  0  0  0  0  0  0
  145.9788  142.8116  156.7689 C   0  0  0  0  0  0  0  0  0  0  0  0
  146.3987  142.7690  157.9274 O   0  0  0  0  0  0  0  0  0  0  0  0
  145.0508  143.8669  156.2704 C   0  0  0  0  0  0  0  0  0  0  0  0
  144.8008  143.9704  154.8819 C   0  0  0  0  0  0  0  0  0  0  0  0
  143.9345  144.9613  154.3807 C   0  0  0  0  0  0  0  0  0  0  0  0
  143.3070  145.8607  155.2621 C   0  0  0  0  0  0  0  0  0  0  0  0
  143.5463  145.7676  156.6455 C   0  0  0  0  0  0  0  0  0  0  0  0
  144.4126  144.7773  157.1486 C   0  0  0  0  0  0  0  0  0  0  0  0
  144.8270  136.8230  153.2494 C   0  0  0  0  0  0  0  0  0  0  0  0
  143.6303  136.0718  153.3056 C   0  0  0  0  0  0  0  0  0  0  0  0
  143.2553  135.2391  152.2333 C   0  0  0  0  0  0  0  0  0  0  0  0
  144.0726  135.1482  151.0915 C   0  0  0  0  0  0  0  0  0  0  0  0
  145.2638  135.8933  151.0222 C   0  0  0  0  0  0  0  0  0  0  0  0
  145.6404  136.7267  152.0933 C   0  0  0  0  0  0  0  0  0  0  0  0
  146.3066  138.9463  156.2195 H   0  0  0  0  0  0  0  0  0  0  0  0
  147.8679  138.1851  156.0675 H   0  0  0  0  0  0  0  0  0  0  0  0
  147.1571  140.2584  153.9978 H   0  0  0  0  0  0  0  0  0  0  0  0
  150.4181  141.3758  154.2055 H   0  0  0  0  0  0  0  0  0  0  0  0
  149.7353  141.7299  157.7273 H   0  0  0  0  0  0  0  0  0  0  0  0
  151.1742  140.9597  159.4598 H   0  0  0  0  0  0  0  0  0  0  0  0
  149.1028  142.8075  156.1363 H   0  0  0  0  0  0  0  0  0  0  0  0
  147.5444  142.6096  153.9330 H   0  0  0  0  0  0  0  0  0  0  0  0
  147.7719  140.9253  156.8683 H   0  0  0  0  0  0  0  0  0  0  0  0
  145.2724  143.2922  154.1852 H   0  0  0  0  0  0  0  0  0  0  0  0
  143.7524  145.0315  153.3184 H   0  0  0  0  0  0  0  0  0  0  0  0
  142.6434  146.6210  154.8773 H   0  0  0  0  0  0  0  0  0  0  0  0
  143.0653  146.4577  157.3230 H   0  0  0  0  0  0  0  0  0  0  0  0
  144.5754  144.7346  158.2157 H   0  0  0  0  0  0  0  0  0  0  0  0
  142.9903  136.1202  154.1748 H   0  0  0  0  0  0  0  0  0  0  0  0
  142.3409  134.6673  152.2892 H   0  0  0  0  0  0  0  0  0  0  0  0
  143.7879  134.5062  150.2709 H   0  0  0  0  0  0  0  0  0  0  0  0
  145.8959  135.8201  150.1495 H   0  0  0  0  0  0  0  0  0  0  0  0
  146.5668  137.2760  152.0111 H   0  0  0  0  0  0  0  0  0  0  0  0
  1  2  2  0  0  0  0
  2  3  1  0  0  0  0
  2 28  1  0  0  0  0
  3  4  1  0  0  0  0
  4  5  1  0  0  0  0
  4 34  1  0  0  0  0
  4 35  1  0  0  0  0
  5 18  1  0  0  0  0
  5  6  1  0  0  0  0
  5 36  1  0  0  0  0
  6  7  1  0  0  0  0
  7  8  1  0  0  0  0
  7 16  1  0  0  0  0
  7 37  1  0  0  0  0
  8 14  1  0  0  0  0
  8  9  1  0  0  0  0
  9 10  2  0  0  0  0
  9 38  1  0  0  0  0
 10 11  1  0  0  0  0
 10 39  1  0  0  0  0
 11 12  2  0  0  0  0
 11 13  1  0  0  0  0
 13 14  1  0  0  0  0
 14 15  2  0  0  0  0
 16 17  1  0  0  0  0
 16 18  1  0  0  0  0
 16 40  1  0  0  0  0
 17 41  1  0  0  0  0
 18 19  1  0  0  0  0
 18 42  1  0  0  0  0
 19 20  1  0  0  0  0
 20 21  2  0  0  0  0
 20 22  1  0  0  0  0
 22 27  1  0  0  0  0
 22 23  2  0  0  0  0
 23 24  1  0  0  0  0
 23 43  1  0  0  0  0
 24 25  2  0  0  0  0
 24 44  1  0  0  0  0
 25 26  1  0  0  0  0
 25 45  1  0  0  0  0
 26 27  2  0  0  0  0
 26 46  1  0  0  0  0
 27 47  1  0  0  0  0
 28 33  1  0  0  0  0
 28 29  2  0  0  0  0
 29 30  1  0  0  0  0
 29 48  1  0  0  0  0
 30 31  2  0  0  0  0
 30 49  1  0  0  0  0
 31 32  1  0  0  0  0
 31 50  1  0  0  0  0
 32 33  2  0  0  0  0
 32 51  1  0  0  0  0
 33 52  1  0  0  0  0
M  CHG  1  13  -1
M  END
> <s_m_source_file>
AV-unprocessed.smi

> <i_m_source_file_index>
99

> <i_lp_mmshare_version>
43012

> <i_f3d_flags>
0

> <s_epik_input>
W2NIXTFbY0hdW2NIXVtjSF1bY0hdYzFDKD1PKU9bQ0gyXVtDQEBIXTJPW0NAQEhdKG4zW2NIXVtjSF1jKD1PKVtuSF1jMz1PKVtDQEBIXShbT0hdKVtDQEhdMk9DKD1PKWM0W2NIXVtjSF1bY0hdW2NIXVtjSF00

> <s_epik_cmdline>
J2VwaWtfcHl0aG9uJywgJy1waCcsICc3LjAnLCAnLXRuJywgJzgnLCAnLW1hJywgJzIwMCcsICctbWV0YWxfYmluZGluZycsICctaW1hZScsICc8aW5maWxlLm1hZT4nLCAnLW9tYWUnLCAnPG91dGZpbGUubWFlPic=

> <r_lp_tautomer_probability>
1

> <r_epik_Ionization_Penalty>
2.89159

> <r_epik_Ionization_Penalty_Charging>
2.1077e-08

> <r_epik_Ionization_Penalty_Neutral>
2.89159

> <r_epik_State_Penalty>
2.88671

> <r_epik_Charging_Adjusted_Penalty>
2.88671

> <i_epik_Tot_Q>
-1

> <i_epik_Tot_abs_Q>
1

> <r_epik_Metal_State_Penalty>
0.0727308

> <b_epik_Metal_Only>
1

> <s_epik_Chemistry_Notes>
This compound has an ester and may undergo hydrolysis at high or low pH. This compound contains an acetal/aminal-like group ( X-CH(R)-Y where X, Y are N, S, or O) that may be acid/base labile, releasing an aldehyde.

> <s_lp_Force_Field>
OPLS_2005

> <r_lp_Energy>
45.2738

> <b_lp_Chiralities_Consistent>
1

> <s_lp_Variant>
AV-unprocessed.smi:99-19

> <Gold.Version>
5.8.1

> <Gold.Id.Protein>
6NUR|6NUR_protein|mol2

> <Gold.PLP.Fitness>
52.9218

> <Gold.PLP.PLP>
-44.0927

> <Gold.PLP.part.hbond>
-4.5732

> <Gold.PLP.part.metal>
0.0000

> <Gold.PLP.part.buried>
-2.9256

> <Gold.PLP.part.nonpolar>
-37.2535

> <Gold.PLP.part.repulsive>
0.6126

> <Gold.PLP.ligand.clash>
0.0000

> <Gold.PLP.ligand.torsion>
1.6918

> <Gold.PLP.Chemscore.Hbond>
3.9920

> <Gold.PLP.Chemscore.CHOScore>
0.0000

> <Gold.PLP.Chemscore.Metal>
0.0000

> <Gold.Chemscore.Hbonds>
donor molecule, donor type, donor heavy atom, donor atom, acceptor molecule, acceptor atom, score
      P1  H  7989  7998       L1    15  1.00
      P1  H  7997  8010       L1    13  2.00
      P1  H  8022  8030       L1    17  1.00

> <Gold.PLP.Chemscore.Internal.Correction>
0.2366

> <Gold.Rescore>
     Score         DG    S(hbond)    S(metal)    S(lipo)     H(rot)  DE(clash)    DE(int)     intcor
      9.99     -15.06       2.35        0.00      83.45       3.13       1.90       3.18       ----

> <Gold.Chemscore.Fitness>
9.9906

> <Gold.Chemscore.DG>
-15.0623

> <Gold.Chemscore.ZeroCoef>
-5.4800

> <Gold.Chemscore.Hbond>
2.3483

> <Gold.Chemscore.Metal>
0.0000

> <Gold.Chemscore.Lipo>
83.4480

> <Gold.Chemscore.Internal_Hbond>
0.0000

> <Gold.Chemscore.DEClash>
1.8951

> <Gold.Chemscore.DEInternal>
3.1766

> <Gold.Chemscore.Rot>
3.1346

> <Gold.Chemscore.Internal.Correction>
   9.000000E+99

> <Gold.Chemscore.Hbonds>
donor molecule, donor type, donor heavy atom, donor atom, acceptor molecule, acceptor atom, score
      P1  H  7989  7998       L1    15  0.61
      P1  H  7997  8010       L1    13  0.11
      P1  H  8022  8030       L1    17  0.48

> <Gold.Chemscore.Hbond.Weighted>
-7.8435

> <Gold.Chemscore.Metal.Weighted>
-0.0000

> <Gold.Chemscore.Lipo.Weighted>
-9.7634

> <Gold.Chemscore.Internal_Hbond.Weighted>
0.0000

> <Gold.Chemscore.DEClash.Weighted>
1.8951

> <Gold.Chemscore.DEInternal.Weighted>
3.1766

> <Gold.Chemscore.Rot.Weighted>
8.0246

> <Gold.Chemscore.Internal.Correction.Weighted>
   9.000000E+99

> <Gold.Protein.RotatedTorsions>
[ 6907 6896 6895 6894 ] final  -59.99 input  -60.11 | X-H torsion
[ 7974 7965 7964 7962 ] final -145.65 input  175.53 | X-H torsion
[ 8008 7997 7996 7995 ] final   73.83 input   59.86 | X-H torsion
[ 10167 10162 10161 10158 ] final   21.07 input  -65.29 | X-H torsion
[ 10718 10713 10712 10709 ] final  -63.60 input   66.30 | X-H torsion
[ 10763 10752 10751 10750 ] final   73.52 input  -60.55 | X-H torsion
[ 11005 11000 10999 10996 ] final   40.05 input  -57.11 | X-H torsion

> <Gold.Protein.ActiveResidues>
 VAL166  LYS551  ARG553  GLY616  TRP617  ASP618  TYR619  PRO620  LYS621  CYS622 
 ASP623  PHE694  ASN695  SER759  ASP760  ASP761  ALA762  ILE779  LEU786  VAL792 
 PHE793  MET794  SER795  GLU796  ALA797  LYS798  CYS799  TRP800  GLU811  SER814 

> <Gold.Protein.RotatedAtoms>
  150.7889  134.6896  159.6488 H   0  0  0  0  0  0  0  0  0  0  0  0  # atno 6907 bound_to 6896
  152.3991  134.6314  160.0086 H   0  0  0  0  0  0  0  0  0  0  0  0  # atno 6908 bound_to 6896
  151.6590  133.3281  159.3206 H   0  0  0  0  0  0  0  0  0  0  0  0  # atno 6909 bound_to 6896
  144.8213  140.5556  143.5577 H   0  0  0  0  0  0  0  0  0  0  0  0  # atno 7974 bound_to 7965
  155.7894  140.3479  155.5341 H   0  0  0  0  0  0  0  0  0  0  0  0  # atno 8008 bound_to 7997
  155.8649  140.0977  157.1609 H   0  0  0  0  0  0  0  0  0  0  0  0  # atno 8009 bound_to 7997
  154.4014  140.1351  156.3993 H   0  0  0  0  0  0  0  0  0  0  0  0  # atno 8010 bound_to 7997
  140.5455  143.9602  150.6545 H   0  0  0  0  0  0  0  0  0  0  0  0  # atno 10167 bound_to 10162
  156.0781  130.4223  150.1300 H   0  0  0  0  0  0  0  0  0  0  0  0  # atno 10718 bound_to 10713
  153.0527  135.5060  154.7906 H   0  0  0  0  0  0  0  0  0  0  0  0  # atno 10763 bound_to 10752
  154.6756  135.2960  154.9686 H   0  0  0  0  0  0  0  0  0  0  0  0  # atno 10764 bound_to 10752
  154.0490  135.6706  153.4851 H   0  0  0  0  0  0  0  0  0  0  0  0  # atno 10765 bound_to 10752
  140.1969  134.3918  155.8117 H   0  0  0  0  0  0  0  0  0  0  0  0  # atno 11005 bound_to 11000
  145.5099  139.1480  143.3610 LP  0  0  0  0  0  0  0  0  0  0  0  0  # atno 17320 bound_to 7965
  146.2518  140.5240  142.8890 LP  0  0  0  0  0  0  0  0  0  0  0  0  # atno 17321 bound_to 7965
  140.3014  143.3258  152.0968 LP  0  0  0  0  0  0  0  0  0  0  0  0  # atno 17342 bound_to 10162
  139.5005  144.6694  151.6278 LP  0  0  0  0  0  0  0  0  0  0  0  0  # atno 17343 bound_to 10162
  156.9337  130.9722  151.3528 LP  0  0  0  0  0  0  0  0  0  0  0  0  # atno 17370 bound_to 10713
  157.5886  130.8427  149.8625 LP  0  0  0  0  0  0  0  0  0  0  0  0  # atno 17371 bound_to 10713
  141.2227  133.7074  156.8190 LP  0  0  0  0  0  0  0  0  0  0  0  0  # atno 17394 bound_to 11000
  140.2098  134.8836  157.3261 LP  0  0  0  0  0  0  0  0  0  0  0  0  # atno 17395 bound_to 11000

$$$$
