AV-unprocessed.smi:766|AV-procd|sdf|3651|dock2
  -GOLD-   22720 1 53D 1   1.00000     0.00000
 Structure written by MMmdl.
 47 49  0  0  0  0  0  0  0  0  2 V2000
  153.4071  142.4243  161.4768 C   0  0  0  0  0  0  0  0  0  0  0  0
  152.7406  142.1135  160.1482 C   0  0  0  0  0  0  0  0  0  0  0  0
  153.0941  140.9295  159.4621 C   0  0  0  0  0  0  0  0  0  0  0  0
  152.4949  140.6026  158.2259 C   0  0  0  0  0  0  0  0  0  0  0  0
  152.6849  139.5122  157.3945 N   0  0  0  0  0  0  0  0  0  0  0  0
  151.8397  139.7797  156.4035 C   0  0  0  0  0  0  0  0  0  0  0  0
  151.1218  140.9159  156.4954 N   0  0  0  0  0  0  0  0  0  0  0  0
  150.1416  141.4164  155.5488 C   0  0  0  0  0  0  0  0  0  0  0  0
  150.0384  140.5336  154.2902 C   0  0  2  0  0  0  0  0  0  0  0  0
  149.2867  141.2117  153.3013 O   0  0  0  0  0  0  0  0  0  0  0  0
  149.3683  139.1823  154.5854 C   0  0  0  0  0  0  0  0  0  0  0  0
  148.6000  138.7053  153.4189 N   0  3  0  0  0  0  0  0  0  0  0  0
  147.1356  138.8277  153.5632 C   0  0  0  0  0  0  0  0  0  0  0  0
  146.4262  138.7924  152.1996 C   0  0  0  0  0  0  0  0  0  0  0  0
  145.5539  137.6399  152.0586 N   0  0  0  0  0  0  0  0  0  0  0  0
  145.7201  136.5336  151.2519 C   0  0  0  0  0  0  0  0  0  0  0  0
  144.6455  135.7165  151.4570 C   0  0  0  0  0  0  0  0  0  0  0  0
  143.8669  136.4160  152.4206 C   0  0  0  0  0  0  0  0  0  0  0  0
  144.4123  137.5680  152.7775 N   0  0  0  0  0  0  0  0  0  0  0  0
  151.5255  141.5002  157.6906 C   0  0  0  0  0  0  0  0  0  0  0  0
  151.1677  142.6825  158.3616 C   0  0  0  0  0  0  0  0  0  0  0  0
  151.7759  142.9940  159.5955 C   0  0  0  0  0  0  0  0  0  0  0  0
  151.3819  144.2728  160.3128 C   0  0  0  0  0  0  0  0  0  0  0  0
  154.0643  141.6132  161.7919 H   0  0  0  0  0  0  0  0  0  0  0  0
  152.6596  142.5688  162.2572 H   0  0  0  0  0  0  0  0  0  0  0  0
  154.0069  143.3313  161.3989 H   0  0  0  0  0  0  0  0  0  0  0  0
  153.8303  140.2596  159.8814 H   0  0  0  0  0  0  0  0  0  0  0  0
  151.7332  139.1087  155.5635 H   0  0  0  0  0  0  0  0  0  0  0  0
  149.1773  141.4642  156.0561 H   0  0  0  0  0  0  0  0  0  0  0  0
  150.4040  142.4407  155.2797 H   0  0  0  0  0  0  0  0  0  0  0  0
  151.0407  140.3582  153.8964 H   0  0  0  0  0  0  0  0  0  0  0  0
  149.6166  140.9700  152.4490 H   0  0  0  0  0  0  0  0  0  0  0  0
  150.1307  138.4380  154.8198 H   0  0  0  0  0  0  0  0  0  0  0  0
  148.7159  139.2578  155.4567 H   0  0  0  0  0  0  0  0  0  0  0  0
  148.8909  139.2321  152.6073 H   0  0  0  0  0  0  0  0  0  0  0  0
  146.7599  138.0276  154.2026 H   0  0  0  0  0  0  0  0  0  0  0  0
  146.9122  139.7694  154.0660 H   0  0  0  0  0  0  0  0  0  0  0  0
  145.8210  139.6916  152.0776 H   0  0  0  0  0  0  0  0  0  0  0  0
  147.1514  138.7933  151.3843 H   0  0  0  0  0  0  0  0  0  0  0  0
  146.5788  136.4201  150.6067 H   0  0  0  0  0  0  0  0  0  0  0  0
  144.4470  134.7624  150.9915 H   0  0  0  0  0  0  0  0  0  0  0  0
  142.9283  136.1235  152.8676 H   0  0  0  0  0  0  0  0  0  0  0  0
  150.4305  143.3434  157.9305 H   0  0  0  0  0  0  0  0  0  0  0  0
  150.6785  144.8598  159.7217 H   0  0  0  0  0  0  0  0  0  0  0  0
  152.2583  144.8933  160.5006 H   0  0  0  0  0  0  0  0  0  0  0  0
  150.9078  144.0431  161.2672 H   0  0  0  0  0  0  0  0  0  0  0  0
  148.8234  137.7323  153.2625 H   0  0  0  0  0  0  0  0  0  0  0  0
  1  2  1  0  0  0  0
  1 24  1  0  0  0  0
  1 25  1  0  0  0  0
  1 26  1  0  0  0  0
  2 22  1  0  0  0  0
  2  3  2  0  0  0  0
  3  4  1  0  0  0  0
  3 27  1  0  0  0  0
  4 20  2  0  0  0  0
  4  5  1  0  0  0  0
  5  6  2  0  0  0  0
  6  7  1  0  0  0  0
  6 28  1  0  0  0  0
  7  8  1  0  0  0  0
  7 20  1  0  0  0  0
  8  9  1  0  0  0  0
  8 29  1  0  0  0  0
  8 30  1  0  0  0  0
  9 10  1  0  0  0  0
  9 11  1  0  0  0  0
  9 31  1  0  0  0  0
 10 32  1  0  0  0  0
 11 12  1  0  0  0  0
 11 33  1  0  0  0  0
 11 34  1  0  0  0  0
 12 13  1  0  0  0  0
 12 35  1  0  0  0  0
 12 47  1  0  0  0  0
 13 14  1  0  0  0  0
 13 36  1  0  0  0  0
 13 37  1  0  0  0  0
 14 15  1  0  0  0  0
 14 38  1  0  0  0  0
 14 39  1  0  0  0  0
 15 19  1  0  0  0  0
 15 16  1  0  0  0  0
 16 17  2  0  0  0  0
 16 40  1  0  0  0  0
 17 18  1  0  0  0  0
 17 41  1  0  0  0  0
 18 19  2  0  0  0  0
 18 42  1  0  0  0  0
 20 21  1  0  0  0  0
 21 22  2  0  0  0  0
 21 43  1  0  0  0  0
 22 23  1  0  0  0  0
 23 44  1  0  0  0  0
 23 45  1  0  0  0  0
 23 46  1  0  0  0  0
M  CHG  1  12   1
M  END
> <s_m_source_file>
AV-unprocessed.smi

> <i_m_source_file_index>
766

> <i_lp_mmshare_version>
43012

> <i_f3d_flags>
0

> <s_epik_input>
W0NIM11jKFtjSF0xKWMoW0NIM10pW2NIXWMoYzEyKW4oW2NIXW4yKVtDSDJdW0NASF0oW09IXSlbQ0gyXVtOSF1bQ0gyXVtDSDJdbjNbY0hdW2NIXVtjSF1uMw==

> <s_epik_cmdline>
J2VwaWtfcHl0aG9uJywgJy1waCcsICc3LjAnLCAnLXRuJywgJzgnLCAnLW1hJywgJzIwMCcsICctbWV0YWxfYmluZGluZycsICctaW1hZScsICc8aW5maWxlLm1hZT4nLCAnLW9tYWUnLCAnPG91dGZpbGUubWFlPic=

> <r_lp_tautomer_probability>
1

> <r_epik_Ionization_Penalty>
0.127222

> <r_epik_Ionization_Penalty_Charging>
0.043815

> <r_epik_Ionization_Penalty_Neutral>
0.0834074

> <r_epik_State_Penalty>
0.115563

> <r_epik_Charging_Adjusted_Penalty>
0.159378

> <i_epik_Tot_Q>
1

> <i_epik_Tot_abs_Q>
1

> <r_epik_Metal_State_Penalty>
0.102594

> <b_epik_Metal_Only>
0

> <s_lp_Force_Field>
OPLS_2005

> <r_lp_Energy>
9.49244

> <b_lp_Chiralities_Consistent>
1

> <s_lp_Variant>
AV-unprocessed.smi:766-1

> <Gold.Version>
5.8.1

> <Gold.Id.Protein>
6NUR|6NUR_protein|mol2

> <Gold.PLP.Fitness>
63.8274

> <Gold.PLP.PLP>
-50.1411

> <Gold.PLP.part.hbond>
-5.7534

> <Gold.PLP.part.metal>
0.0000

> <Gold.PLP.part.buried>
-0.4665

> <Gold.PLP.part.nonpolar>
-44.6884

> <Gold.PLP.part.repulsive>
0.2670

> <Gold.PLP.ligand.clash>
0.0000

> <Gold.PLP.ligand.torsion>
1.4018

> <Gold.PLP.Chemscore.Hbond>
4.7280

> <Gold.PLP.Chemscore.CHOScore>
0.6983

> <Gold.PLP.Chemscore.Metal>
0.0000

> <Gold.Chemscore.Hbonds>
donor molecule, donor type, donor heavy atom, donor atom, acceptor molecule, acceptor atom, score
      L1  H    10    32       P1  7957  1.00
      L1  H    12    35       P1  7957  1.00
      L1  H    12    47       P1  7948  1.75
      P1  H  7997  8009       L1     5  0.85
      L1  C    16    40       P1  7948  0.54

> <Gold.PLP.Chemscore.Internal.Correction>
0.2110

> <Gold.Rescore>
     Score         DG    S(hbond)    S(metal)    S(lipo)     H(rot)  DE(clash)    DE(int)     intcor
     19.37     -22.37       2.88        0.00     126.45       2.93       1.55       1.45       ----

> <Gold.Chemscore.Fitness>
19.3652

> <Gold.Chemscore.DG>
-22.3681

> <Gold.Chemscore.ZeroCoef>
-5.4800

> <Gold.Chemscore.Hbond>
2.8750

> <Gold.Chemscore.Metal>
0.0000

> <Gold.Chemscore.Lipo>
126.4546

> <Gold.Chemscore.Internal_Hbond>
0.0000

> <Gold.Chemscore.DEClash>
1.5541

> <Gold.Chemscore.DEInternal>
1.4487

> <Gold.Chemscore.Rot>
2.9335

> <Gold.Chemscore.Internal.Correction>
   9.000000E+99

> <Gold.Chemscore.Hbonds>
donor molecule, donor type, donor heavy atom, donor atom, acceptor molecule, acceptor atom, score
      L1  H    10    32       P1  7957  0.94
      L1  H    12    35       P1  7957  1.00
      L1  H    12    47       P1  7948  0.81
      P1  H  7997  8009       L1     5  0.04

> <Gold.Chemscore.Hbond.Weighted>
-9.6026

> <Gold.Chemscore.Metal.Weighted>
-0.0000

> <Gold.Chemscore.Lipo.Weighted>
-14.7952

> <Gold.Chemscore.Internal_Hbond.Weighted>
0.0000

> <Gold.Chemscore.DEClash.Weighted>
1.5541

> <Gold.Chemscore.DEInternal.Weighted>
1.4487

> <Gold.Chemscore.Rot.Weighted>
7.5097

> <Gold.Chemscore.Internal.Correction.Weighted>
   9.000000E+99

> <Gold.Protein.RotatedTorsions>
[ 6907 6896 6895 6894 ] final  -31.55 input  -60.11 | X-H torsion
[ 7974 7965 7964 7962 ] final  154.30 input  175.53 | X-H torsion
[ 8008 7997 7996 7995 ] final -178.47 input   59.86 | X-H torsion
[ 10167 10162 10161 10158 ] final -126.61 input  -65.29 | X-H torsion
[ 10718 10713 10712 10709 ] final  -39.92 input   66.30 | X-H torsion
[ 10763 10752 10751 10750 ] final   -3.55 input  -60.55 | X-H torsion
[ 11005 11000 10999 10996 ] final  -18.10 input  -57.11 | X-H torsion

> <Gold.Protein.ActiveResidues>
 VAL166  LYS551  ARG553  GLY616  TRP617  ASP618  TYR619  PRO620  LYS621  CYS622 
 ASP623  PHE694  ASN695  SER759  ASP760  ASP761  ALA762  ILE779  LEU786  VAL792 
 PHE793  MET794  SER795  GLU796  ALA797  LYS798  CYS799  TRP800  GLU811  SER814 

> <Gold.Protein.RotatedAtoms>
  151.0905  134.9913  159.8400 H   0  0  0  0  0  0  0  0  0  0  0  0  # atno 6907 bound_to 6896
  152.5428  134.2071  159.8745 H   0  0  0  0  0  0  0  0  0  0  0  0  # atno 6908 bound_to 6896
  151.2107  133.4514  159.2631 H   0  0  0  0  0  0  0  0  0  0  0  0  # atno 6909 bound_to 6896
  144.8098  139.6915  143.6146 H   0  0  0  0  0  0  0  0  0  0  0  0  # atno 7974 bound_to 7965
  156.0192  140.1257  157.0374 H   0  0  0  0  0  0  0  0  0  0  0  0  # atno 8008 bound_to 7997
  154.4305  140.1072  156.6010 H   0  0  0  0  0  0  0  0  0  0  0  0  # atno 8009 bound_to 7997
  155.5968  140.3470  155.4584 H   0  0  0  0  0  0  0  0  0  0  0  0  # atno 8010 bound_to 7997
  139.9697  143.5859  152.2417 H   0  0  0  0  0  0  0  0  0  0  0  0  # atno 10167 bound_to 10162
  156.2871  130.4224  149.8277 H   0  0  0  0  0  0  0  0  0  0  0  0  # atno 10718 bound_to 10713
  153.3729  135.6995  153.6624 H   0  0  0  0  0  0  0  0  0  0  0  0  # atno 10763 bound_to 10752
  153.5267  135.3601  155.2657 H   0  0  0  0  0  0  0  0  0  0  0  0  # atno 10764 bound_to 10752
  154.8683  135.4171  154.3011 H   0  0  0  0  0  0  0  0  0  0  0  0  # atno 10765 bound_to 10752
  140.8234  133.8051  155.9683 H   0  0  0  0  0  0  0  0  0  0  0  0  # atno 11005 bound_to 11000
  146.2395  139.5972  142.9501 LP  0  0  0  0  0  0  0  0  0  0  0  0  # atno 17320 bound_to 7965
  145.5352  141.0424  143.2361 LP  0  0  0  0  0  0  0  0  0  0  0  0  # atno 17321 bound_to 7965
  139.6491  144.7660  151.2184 LP  0  0  0  0  0  0  0  0  0  0  0  0  # atno 17342 bound_to 10162
  140.7526  143.6190  150.8531 LP  0  0  0  0  0  0  0  0  0  0  0  0  # atno 17343 bound_to 10162
  156.5703  130.8422  151.3354 LP  0  0  0  0  0  0  0  0  0  0  0  0  # atno 17370 bound_to 10713
  157.7332  130.9726  150.1964 LP  0  0  0  0  0  0  0  0  0  0  0  0  # atno 17371 bound_to 10713
  140.9075  134.2302  157.5006 LP  0  0  0  0  0  0  0  0  0  0  0  0  # atno 17394 bound_to 11000
  139.8707  134.9735  156.4811 LP  0  0  0  0  0  0  0  0  0  0  0  0  # atno 17395 bound_to 11000

$$$$
