#       Name:                AV-unprocessed.smi:738
#       Creating user name   scv26
#       Creation time:       Fri Mar 27 00:53:21 2020


#       File generated by GOLD software.
#

@<TRIPOS>MOLECULE
AV-unprocessed.smi:738
    41    43     1
SMALL
NO_CHARGES


@<TRIPOS>ATOM
      1 ****        -5.4239  -1.2352  -0.7500 N.am           1 S1                 0.0000
      2 ****        -4.8829  -0.0319  -0.5352 C.2            1 S1                 0.0000
      3 ****        -5.5643   0.9694  -0.3235 O.2            1 S1                 0.0000
      4 ****        -3.3832   0.0239  -0.4995 C.ar           1 S1                 0.0000
      5 ****        -2.7186   0.9798   0.2988 C.ar           1 S1                 0.0000
      6 ****        -1.3754   1.0952   0.3598 N.ar           1 S1                 0.0000
      7 ****        -0.6153   0.2589  -0.3872 C.ar           1 S1                 0.0000
      8 ****         0.7829   0.4054  -0.3255 N.3            1 S1                 0.0000
      9 ****         1.2766   1.2702  -1.3874 C.3            1 S1                 0.0000
     10 ****         2.8033   1.1526  -1.4797 C.3            1 S1                 0.0000
     11 ****         3.3929   1.5011  -0.2307 O.3            1 S1                 0.0000
     12 ****         2.9045   0.7620   0.8910 C.3            1 S1                 0.0000
     13 ****         3.3746  -0.6974   0.9794 C.3            1 S1                 0.0000
     14 ****         2.2951  -1.4226   1.7979 C.3            1 S1                 0.0000
     15 ****         1.1482  -0.4198   2.0069 C.3            1 S1                 0.0000
     16 ****         1.3707   0.7063   0.9832 C.3            1 S1                 0.0000
     17 ****        -1.1860  -0.7239  -1.2315 C.ar           1 S1                 0.0000
     18 ****        -0.2062  -1.7904  -2.1769 Cl             1 S1                 0.0000
     19 ****        -2.5885  -0.8377  -1.2876 C.ar           1 S1                 0.0000
     20 ****        -6.4286  -1.3331  -0.7791 H              1 S1                 0.0000
     21 ****        -4.8309  -2.0423  -0.8774 H              1 S1                 0.0000
     22 ****        -3.2746   1.6736   0.9127 H              1 S1                 0.0000
     23 ****         0.8271   0.9985  -2.3432 H              1 S1                 0.0000
     24 ****         0.9898   2.3018  -1.1786 H              1 S1                 0.0000
     25 ****         3.0968   0.1469  -1.7805 H              1 S1                 0.0000
     26 ****         3.1843   1.8289  -2.2449 H              1 S1                 0.0000
     27 ****         3.2721   1.2724   1.7824 H              1 S1                 0.0000
     28 ****         3.4367  -1.1555  -0.0068 H              1 S1                 0.0000
     29 ****         4.3624  -0.7769   1.4340 H              1 S1                 0.0000
     30 ****         1.9417  -2.2990   1.2536 H              1 S1                 0.0000
     31 ****         2.6850  -1.7702   2.7550 H              1 S1                 0.0000
     32 ****         0.1664  -0.8898   1.9450 H              1 S1                 0.0000
     33 ****         1.2301   0.0008   3.0098 H              1 S1                 0.0000
     34 ****         0.9776   1.6569   1.3467 H              1 S1                 0.0000
     35 ****        -3.0391  -1.5790  -1.9317 H              1 S1                 0.0000
     36 ****        -6.5619   0.9011  -0.3075 LP             1 S1                 0.0000
     37 ****        -5.1210   1.8520  -0.1673 LP             1 S1                 0.0000
     38 ****        -0.9493   1.7849   0.9453 LP             1 S1                 0.0000
     39 ****         1.1210  -0.5221  -0.4849 LP             1 S1                 0.0000
     40 ****         3.2173   2.4713  -0.0640 LP             1 S1                 0.0000
     41 ****         4.3787   1.3477  -0.2987 LP             1 S1                 0.0000
@<TRIPOS>BOND
    1    1    2 am    
    2    1   20 1     
    3    1   21 1     
    4    2    3 2     
    5    2    4 1     
    6    4   19 ar    
    7    4    5 ar    
    8    5    6 ar    
    9    5   22 1     
   10    6    7 ar    
   11    7    8 1     
   12    7   17 ar    
   13    8   16 1     
   14    8    9 1     
   15    9   10 1     
   16    9   23 1     
   17    9   24 1     
   18   10   11 1     
   19   10   25 1     
   20   10   26 1     
   21   11   12 1     
   22   12   16 1     
   23   12   13 1     
   24   12   27 1     
   25   13   14 1     
   26   13   28 1     
   27   13   29 1     
   28   14   15 1     
   29   14   30 1     
   30   14   31 1     
   31   15   16 1     
   32   15   32 1     
   33   15   33 1     
   34   16   34 1     
   35   17   18 1     
   36   17   19 ar    
   37   19   35 1     
   38    3   36 1     
   39    3   37 1     
   40    6   38 1     
   41    8   39 1     
   42   11   40 1     
   43   11   41 1     
@<TRIPOS>SUBSTRUCTURE
      1 S1             1
@<TRIPOS>SET
LONE_PAIRS      STATIC     ATOMS    <user>   **** ""
6 36 37 38 39 40 41
DONOR_HYDROGENS      STATIC     ATOMS    <user>   **** ""
2 20 21
ATOM$BLUE        STATIC     ATOMS    COLORGROUP SYSTEM
6 36 37 38 39 40 41
ATOM$RED        STATIC     ATOMS    COLORGROUP SYSTEM
2 20 21
