AV-unprocessed.smi:2034|AV-procd|sdf|8264|dock4
  -GOLD-   2272010533D 1   1.00000     0.00000
 Structure written by MMmdl.
 50 52  0  0  0  0  0  0  0  0  1 V2000
  153.6322  141.3469  160.8040 C   0  0  0  0  0  0  0  0  0  0  0  0
  153.2569  141.9592  159.4506 C   0  0  1  0  0  0  0  0  0  0  0  0
  152.2659  141.0745  158.6713 C   0  0  0  0  0  0  0  0  0  0  0  0
  151.8441  141.7423  157.4428 N   0  0  0  0  0  0  0  0  0  0  0  0
  151.1778  140.9319  156.4976 C   0  0  0  0  0  0  0  0  0  0  0  0
  151.8318  139.8125  155.9309 C   0  0  0  0  0  0  0  0  0  0  0  0
  151.1500  139.0164  154.9910 C   0  0  0  0  0  0  0  0  0  0  0  0
  149.8276  139.3636  154.6288 C   0  0  0  0  0  0  0  0  0  0  0  0
  149.0246  138.6392  153.7053 N   0  0  0  0  0  0  0  0  0  0  0  0
  147.6910  138.6700  153.5390 C   0  0  0  0  0  0  0  0  0  0  0  0
  146.9024  139.3422  154.2027 O   0  0  0  0  0  0  0  0  0  0  0  0
  147.3087  137.8519  152.5489 N   0  0  0  0  0  0  0  0  0  0  0  0
  145.9321  137.6638  152.1055 C   0  0  0  0  0  0  0  0  0  0  0  0
  145.4856  136.2007  152.2581 C   0  0  2  0  0  0  0  0  0  0  0  0
  145.4258  135.4363  150.9372 C   0  0  0  0  0  0  0  0  0  0  0  0
  144.4265  134.3497  151.2607 C   0  0  0  0  0  0  0  0  0  0  0  0
  143.4233  135.0997  152.1320 C   0  0  0  0  0  0  0  0  0  0  0  0
  144.1611  136.1319  152.7821 O   0  0  0  0  0  0  0  0  0  0  0  0
  149.2585  140.4924  155.2507 C   0  0  0  0  0  0  0  0  0  0  0  0
  149.9088  141.2587  156.1511 N   0  0  0  0  0  0  0  0  0  0  0  0
  151.3404  143.0960  157.6668 C   0  0  0  0  0  0  0  0  0  0  0  0
  152.3577  143.9223  158.4760 C   0  0  1  0  0  0  0  0  0  0  0  0
  151.8166  145.3095  158.8373 C   0  0  0  0  0  0  0  0  0  0  0  0
  152.6641  143.2335  159.6853 O   0  0  0  0  0  0  0  0  0  0  0  0
  154.0998  140.3704  160.6767 H   0  0  0  0  0  0  0  0  0  0  0  0
  152.7530  141.2174  161.4358 H   0  0  0  0  0  0  0  0  0  0  0  0
  154.3357  141.9855  161.3386 H   0  0  0  0  0  0  0  0  0  0  0  0
  154.1690  142.0910  158.8658 H   0  0  0  0  0  0  0  0  0  0  0  0
  152.7347  140.1129  158.4685 H   0  0  0  0  0  0  0  0  0  0  0  0
  151.3828  140.8734  159.2795 H   0  0  0  0  0  0  0  0  0  0  0  0
  152.8476  139.5599  156.1949 H   0  0  0  0  0  0  0  0  0  0  0  0
  151.6556  138.1568  154.5807 H   0  0  0  0  0  0  0  0  0  0  0  0
  149.5256  137.9862  153.1207 H   0  0  0  0  0  0  0  0  0  0  0  0
  148.0203  137.3344  152.0541 H   0  0  0  0  0  0  0  0  0  0  0  0
  145.2874  138.3159  152.6954 H   0  0  0  0  0  0  0  0  0  0  0  0
  145.8298  137.9841  151.0672 H   0  0  0  0  0  0  0  0  0  0  0  0
  146.1463  135.6662  152.9430 H   0  0  0  0  0  0  0  0  0  0  0  0
  145.0400  136.0722  150.1389 H   0  0  0  0  0  0  0  0  0  0  0  0
  146.3965  135.0476  150.6274 H   0  0  0  0  0  0  0  0  0  0  0  0
  143.9734  133.9033  150.3752 H   0  0  0  0  0  0  0  0  0  0  0  0
  144.9077  133.5581  151.8365 H   0  0  0  0  0  0  0  0  0  0  0  0
  142.6538  135.5633  151.5143 H   0  0  0  0  0  0  0  0  0  0  0  0
  142.9309  134.4473  152.8533 H   0  0  0  0  0  0  0  0  0  0  0  0
  148.2483  140.7958  155.0176 H   0  0  0  0  0  0  0  0  0  0  0  0
  151.1524  143.5900  156.7125 H   0  0  0  0  0  0  0  0  0  0  0  0
  150.3897  143.0411  158.1993 H   0  0  0  0  0  0  0  0  0  0  0  0
  153.2731  144.0484  157.8948 H   0  0  0  0  0  0  0  0  0  0  0  0
  151.5758  145.8824  157.9416 H   0  0  0  0  0  0  0  0  0  0  0  0
  152.5519  145.8771  159.4079 H   0  0  0  0  0  0  0  0  0  0  0  0
  150.9117  145.2351  159.4410 H   0  0  0  0  0  0  0  0  0  0  0  0
  1  2  1  0  0  0  0
  1 25  1  0  0  0  0
  1 26  1  0  0  0  0
  1 27  1  0  0  0  0
  2 24  1  0  0  0  0
  2  3  1  0  0  0  0
  2 28  1  0  0  0  0
  3  4  1  0  0  0  0
  3 29  1  0  0  0  0
  3 30  1  0  0  0  0
  4  5  1  0  0  0  0
  4 21  1  0  0  0  0
  5 20  1  0  0  0  0
  5  6  2  0  0  0  0
  6  7  1  0  0  0  0
  6 31  1  0  0  0  0
  7  8  2  0  0  0  0
  7 32  1  0  0  0  0
  8  9  1  0  0  0  0
  8 19  1  0  0  0  0
  9 10  1  0  0  0  0
  9 33  1  0  0  0  0
 10 11  2  0  0  0  0
 10 12  1  0  0  0  0
 12 13  1  0  0  0  0
 12 34  1  0  0  0  0
 13 14  1  0  0  0  0
 13 35  1  0  0  0  0
 13 36  1  0  0  0  0
 14 18  1  0  0  0  0
 14 15  1  0  0  0  0
 14 37  1  0  0  0  0
 15 16  1  0  0  0  0
 15 38  1  0  0  0  0
 15 39  1  0  0  0  0
 16 17  1  0  0  0  0
 16 40  1  0  0  0  0
 16 41  1  0  0  0  0
 17 18  1  0  0  0  0
 17 42  1  0  0  0  0
 17 43  1  0  0  0  0
 19 20  2  0  0  0  0
 19 44  1  0  0  0  0
 21 22  1  0  0  0  0
 21 45  1  0  0  0  0
 21 46  1  0  0  0  0
 22 23  1  0  0  0  0
 22 24  1  0  0  0  0
 22 47  1  0  0  0  0
 23 48  1  0  0  0  0
 23 49  1  0  0  0  0
 23 50  1  0  0  0  0
M  END
> <s_m_source_file>
AV-unprocessed.smi

> <i_m_source_file_index>
2034

> <i_lp_mmshare_version>
43012

> <i_f3d_flags>
0

> <s_epik_input>
W0NIM11bQ0BASF0xW0NIMl1OKFtDSDJdW0NASF0oTzEpW0NIM10pYzJbY0hdW2NIXWMoW2NIXW4yKVtOSF1DKD1PKVtOSF1bQ0gyXVtDQEBIXTNbQ0gyXVtDSDJdW0NIMl1PMw==

> <s_epik_cmdline>
J2VwaWtfcHl0aG9uJywgJy1waCcsICc3LjAnLCAnLXRuJywgJzgnLCAnLW1hJywgJzIwMCcsICctbWV0YWxfYmluZGluZycsICctaW1hZScsICc8aW5maWxlLm1hZT4nLCAnLW9tYWUnLCAnPG91dGZpbGUubWFlPic=

> <r_lp_tautomer_probability>
1

> <r_epik_Ionization_Penalty>
0.00268225

> <r_epik_Ionization_Penalty_Charging>
0

> <r_epik_Ionization_Penalty_Neutral>
0.00268225

> <r_epik_State_Penalty>
0.00184408

> <r_epik_Charging_Adjusted_Penalty>
0.00184408

> <i_epik_Tot_Q>
0

> <i_epik_Tot_abs_Q>
0

> <r_epik_Metal_State_Penalty>
-0

> <b_epik_Metal_Only>
0

> <s_lp_Force_Field>
OPLS_2005

> <r_lp_Energy>
33.1724

> <b_lp_Chiralities_Consistent>
1

> <s_lp_Variant>
AV-unprocessed.smi:2034-2

> <Gold.Version>
5.8.1

> <Gold.Id.Protein>
6NUR|6NUR_protein|mol2

> <Gold.PLP.Fitness>
51.7937

> <Gold.PLP.PLP>
-49.3499

> <Gold.PLP.part.hbond>
-2.7928

> <Gold.PLP.part.metal>
0.0000

> <Gold.PLP.part.buried>
-4.9624

> <Gold.PLP.part.nonpolar>
-43.6593

> <Gold.PLP.part.repulsive>
0.4867

> <Gold.PLP.ligand.clash>
0.0000

> <Gold.PLP.ligand.torsion>
0.9689

> <Gold.PLP.Chemscore.Hbond>
1.3430

> <Gold.PLP.Chemscore.CHOScore>
0.0000

> <Gold.PLP.Chemscore.Metal>
0.0000

> <Gold.Chemscore.Hbonds>
donor molecule, donor type, donor heavy atom, donor atom, acceptor molecule, acceptor atom, score
      L1  H     9    33       P1  7948  0.43
      L1  H    12    34       P1  7948  0.76

> <Gold.PLP.Chemscore.Internal.Correction>
0.3525

> <Gold.Rescore>
     Score         DG    S(hbond)    S(metal)    S(lipo)     H(rot)  DE(clash)    DE(int)     intcor
     19.13     -21.51       1.92        0.00     112.05       1.37       0.15       2.23       ----

> <Gold.Chemscore.Fitness>
19.1343

> <Gold.Chemscore.DG>
-21.5133

> <Gold.Chemscore.ZeroCoef>
-5.4800

> <Gold.Chemscore.Hbond>
1.9225

> <Gold.Chemscore.Metal>
0.0000

> <Gold.Chemscore.Lipo>
112.0500

> <Gold.Chemscore.Internal_Hbond>
0.0000

> <Gold.Chemscore.DEClash>
0.1494

> <Gold.Chemscore.DEInternal>
2.2296

> <Gold.Chemscore.Rot>
1.3663

> <Gold.Chemscore.Internal.Correction>
   9.000000E+99

> <Gold.Chemscore.Hbonds>
donor molecule, donor type, donor heavy atom, donor atom, acceptor molecule, acceptor atom, score
      L1  H     9    33       P1  7948  0.37
      L1  H    12    34       P1  7948  0.74

> <Gold.Chemscore.Hbond.Weighted>
-6.4211

> <Gold.Chemscore.Metal.Weighted>
-0.0000

> <Gold.Chemscore.Lipo.Weighted>
-13.1098

> <Gold.Chemscore.Internal_Hbond.Weighted>
0.0000

> <Gold.Chemscore.DEClash.Weighted>
0.1494

> <Gold.Chemscore.DEInternal.Weighted>
2.2296

> <Gold.Chemscore.Rot.Weighted>
3.4977

> <Gold.Chemscore.Internal.Correction.Weighted>
   9.000000E+99

> <Gold.Protein.RotatedTorsions>
[ 6907 6896 6895 6894 ] final  128.55 input  -60.11 | X-H torsion
[ 7974 7965 7964 7962 ] final  -56.37 input  175.53 | X-H torsion
[ 8008 7997 7996 7995 ] final   41.18 input   59.86 | X-H torsion
[ 10167 10162 10161 10158 ] final -117.75 input  -65.29 | X-H torsion
[ 10718 10713 10712 10709 ] final  -77.18 input   66.30 | X-H torsion
[ 10763 10752 10751 10750 ] final  -79.24 input  -60.55 | X-H torsion
[ 11005 11000 10999 10996 ] final  -50.80 input  -57.11 | X-H torsion

> <Gold.Protein.ActiveResidues>
 VAL166  LYS551  ARG553  GLY616  TRP617  ASP618  TYR619  PRO620  LYS621  CYS622 
 ASP623  PHE694  ASN695  SER759  ASP760  ASP761  ALA762  ILE779  LEU786  VAL792 
 PHE793  MET794  SER795  GLU796  ALA797  LYS798  CYS799  TRP800  GLU811  SER814 

> <Gold.Protein.RotatedAtoms>
  152.3709  133.6417  159.6085 H   0  0  0  0  0  0  0  0  0  0  0  0  # atno 6907 bound_to 6896
  150.7668  133.9272  159.3425 H   0  0  0  0  0  0  0  0  0  0  0  0  # atno 6908 bound_to 6896
  151.7095  135.0916  160.0316 H   0  0  0  0  0  0  0  0  0  0  0  0  # atno 6909 bound_to 6896
  145.8634  140.8269  142.9925 H   0  0  0  0  0  0  0  0  0  0  0  0  # atno 7974 bound_to 7965
  155.2653  140.3362  155.4269 H   0  0  0  0  0  0  0  0  0  0  0  0  # atno 8008 bound_to 7997
  156.2157  140.1788  156.7637 H   0  0  0  0  0  0  0  0  0  0  0  0  # atno 8009 bound_to 7997
  154.5749  140.0663  156.9004 H   0  0  0  0  0  0  0  0  0  0  0  0  # atno 8010 bound_to 7997
  140.0650  143.4932  152.2011 H   0  0  0  0  0  0  0  0  0  0  0  0  # atno 10167 bound_to 10162
  156.0153  130.4484  150.3305 H   0  0  0  0  0  0  0  0  0  0  0  0  # atno 10718 bound_to 10713
  154.5361  135.5702  153.6800 H   0  0  0  0  0  0  0  0  0  0  0  0  # atno 10763 bound_to 10752
  152.9951  135.6216  154.2564 H   0  0  0  0  0  0  0  0  0  0  0  0  # atno 10764 bound_to 10752
  154.2492  135.2859  155.2803 H   0  0  0  0  0  0  0  0  0  0  0  0  # atno 10765 bound_to 10752
  141.0836  133.6647  156.3784 H   0  0  0  0  0  0  0  0  0  0  0  0  # atno 11005 bound_to 11000
  144.6726  140.1130  143.7454 LP  0  0  0  0  0  0  0  0  0  0  0  0  # atno 17320 bound_to 7965
  145.9221  139.2552  143.1375 LP  0  0  0  0  0  0  0  0  0  0  0  0  # atno 17321 bound_to 7965
  139.5871  144.7535  151.3494 LP  0  0  0  0  0  0  0  0  0  0  0  0  # atno 17342 bound_to 10162
  140.7153  143.7281  150.7644 LP  0  0  0  0  0  0  0  0  0  0  0  0  # atno 17343 bound_to 10162
  157.1403  131.0295  151.2930 LP  0  0  0  0  0  0  0  0  0  0  0  0  # atno 17370 bound_to 10713
  157.4477  130.7580  149.7124 LP  0  0  0  0  0  0  0  0  0  0  0  0  # atno 17371 bound_to 10713
  140.5413  134.6117  157.5380 LP  0  0  0  0  0  0  0  0  0  0  0  0  # atno 17394 bound_to 11000
  139.9652  134.7385  156.0153 LP  0  0  0  0  0  0  0  0  0  0  0  0  # atno 17395 bound_to 11000

$$$$
