#       Name:                AV-unprocessed.smi:1229
#       Creating user name   scv26
#       Creation time:       Fri Mar 27 04:22:17 2020


#       File generated by GOLD software.
#

@<TRIPOS>MOLECULE
AV-unprocessed.smi:1229
    51    52     1
SMALL
NO_CHARGES


@<TRIPOS>ATOM
      1 ****        -3.6927   4.6364   0.9074 C.3            1 S1                 0.0000
      2 ****        -3.6312   4.1701  -0.5383 C.ar           1 S1                 0.0000
      3 ****        -4.1213   5.0145  -1.5573 C.ar           1 S1                 0.0000
      4 ****        -4.0665   4.5812  -2.8931 C.ar           1 S1                 0.0000
      5 ****        -3.5189   3.3139  -3.1552 C.ar           1 S1                 0.0000
      6 ****        -3.0475   2.5008  -2.1879 N.ar           1 S1                 0.0000
      7 ****        -3.0947   2.9031  -0.8928 C.ar           1 S1                 0.0000
      8 ****        -2.6160   2.0973   0.1790 N.am           1 S1                 0.0000
      9 ****        -2.0665   0.8714   0.1215 C.2            1 S1                 0.0000
     10 ****        -1.8895   0.2141  -0.9049 O.2            1 S1                 0.0000
     11 ****        -1.7192   0.4345   1.3412 N.am           1 S1                 0.0000
     12 ****        -1.1136  -0.8641   1.6203 C.3            1 S1                 0.0000
     13 ****         0.3784  -0.9065   1.2279 C.3            1 S1                 0.0000
     14 ****         1.1237  -0.3054   2.2684 O.3            1 S1                 0.0000
     15 ****         0.8814  -2.3555   1.0705 C.3            1 S1                 0.0000
     16 ****         2.2863  -2.4207   0.5915 N.4            1 S1                 1.0000
     17 ****         2.9683  -3.6730   1.0101 C.3            1 S1                 0.0000
     18 ****         4.4589  -3.6486   0.6312 C.3            1 S1                 0.0000
     19 ****         4.6411  -3.4047  -0.8723 C.3            1 S1                 0.0000
     20 ****         3.9008  -2.1272  -1.2888 C.3            1 S1                 0.0000
     21 ****         2.4216  -2.1871  -0.8718 C.3            1 S1                 0.0000
     22 ****        -4.1127   5.6398   0.9829 H              1 S1                 0.0000
     23 ****        -2.6949   4.6576   1.3464 H              1 S1                 0.0000
     24 ****        -4.3177   3.9657   1.4977 H              1 S1                 0.0000
     25 ****        -4.5359   5.9836  -1.3212 H              1 S1                 0.0000
     26 ****        -4.4340   5.2037  -3.6954 H              1 S1                 0.0000
     27 ****        -3.4565   2.9426  -4.1673 H              1 S1                 0.0000
     28 ****        -2.7008   2.5077   1.0970 H              1 S1                 0.0000
     29 ****        -1.8991   1.0342   2.1334 H              1 S1                 0.0000
     30 ****        -1.2493  -1.1097   2.6745 H              1 S1                 0.0000
     31 ****        -1.6687  -1.6213   1.0634 H              1 S1                 0.0000
     32 ****         0.5404  -0.3497   0.3057 H              1 S1                 0.0000
     33 ****         0.8232   0.5845   2.3769 H              1 S1                 0.0000
     34 ****         0.7907  -2.8592   2.0346 H              1 S1                 0.0000
     35 ****         0.2452  -2.9110   0.3794 H              1 S1                 0.0000
     36 ****         2.8790  -3.7984   2.0900 H              1 S1                 0.0000
     37 ****         2.4745  -4.5294   0.5482 H              1 S1                 0.0000
     38 ****         4.9671  -2.8643   1.1942 H              1 S1                 0.0000
     39 ****         4.9318  -4.5891   0.9158 H              1 S1                 0.0000
     40 ****         5.7008  -3.3244  -1.1168 H              1 S1                 0.0000
     41 ****         4.2538  -4.2557  -1.4341 H              1 S1                 0.0000
     42 ****         4.3767  -1.2602  -0.8282 H              1 S1                 0.0000
     43 ****         3.9791  -1.9866  -2.3673 H              1 S1                 0.0000
     44 ****         1.9121  -2.9832  -1.4174 H              1 S1                 0.0000
     45 ****         1.9377  -1.2538  -1.1568 H              1 S1                 0.0000
     46 ****         2.7730  -1.6680   1.0576 H              1 S1                 0.0000
     47 ****        -2.6656   1.6071  -2.4236 LP             1 S1                 0.0000
     48 ****        -2.1636   0.5874  -1.7912 LP             1 S1                 0.0000
     49 ****        -1.4716  -0.6929  -0.8520 LP             1 S1                 0.0000
     50 ****         2.0953  -0.3069   2.0318 LP             1 S1                 0.0000
     51 ****         0.9869  -0.8137   3.1186 LP             1 S1                 0.0000
@<TRIPOS>BOND
    1    1    2 1     
    2    1   22 1     
    3    1   23 1     
    4    1   24 1     
    5    2    7 ar    
    6    2    3 ar    
    7    3    4 ar    
    8    3   25 1     
    9    4    5 ar    
   10    4   26 1     
   11    5    6 ar    
   12    5   27 1     
   13    6    7 ar    
   14    7    8 1     
   15    8    9 am    
   16    8   28 1     
   17    9   10 2     
   18    9   11 am    
   19   11   12 1     
   20   11   29 1     
   21   12   13 1     
   22   12   30 1     
   23   12   31 1     
   24   13   14 1     
   25   13   15 1     
   26   13   32 1     
   27   14   33 1     
   28   15   16 1     
   29   15   34 1     
   30   15   35 1     
   31   16   21 1     
   32   16   17 1     
   33   16   46 1     
   34   17   18 1     
   35   17   36 1     
   36   17   37 1     
   37   18   19 1     
   38   18   38 1     
   39   18   39 1     
   40   19   20 1     
   41   19   40 1     
   42   19   41 1     
   43   20   21 1     
   44   20   42 1     
   45   20   43 1     
   46   21   44 1     
   47   21   45 1     
   48    6   47 1     
   49   10   48 1     
   50   10   49 1     
   51   14   50 1     
   52   14   51 1     
@<TRIPOS>SUBSTRUCTURE
      1 S1             1
@<TRIPOS>SET
LONE_PAIRS      STATIC     ATOMS    <user>   **** ""
5 47 48 49 50 51
DONOR_HYDROGENS      STATIC     ATOMS    <user>   **** ""
4 28 29 33 46
ATOM$BLUE        STATIC     ATOMS    COLORGROUP SYSTEM
5 47 48 49 50 51
ATOM$RED        STATIC     ATOMS    COLORGROUP SYSTEM
4 28 29 33 46
