#       Name:                AV-unprocessed.smi:2379
#       Creating user name   scv26
#       Creation time:       Fri Mar 27 13:08:39 2020


#       File generated by GOLD software.
#

@<TRIPOS>MOLECULE
AV-unprocessed.smi:2379
    58    60     1
SMALL
NO_CHARGES


@<TRIPOS>ATOM
      1 ****        -7.0372   1.9436   0.5131 C.3            1 S1                 0.0000
      2 ****        -6.1959   0.6850   0.5424 C.ar           1 S1                 0.0000
      3 ****        -6.7330  -0.5253   1.0197 C.ar           1 S1                 0.0000
      4 ****        -5.9040  -1.6640   1.0261 C.ar           1 S1                 0.0000
      5 ****        -6.4161  -2.9965   1.5303 C.3            1 S1                 0.0000
      6 ****        -4.6232  -1.6452   0.5988 N.ar           1 S1                 0.0000
      7 ****        -4.0947  -0.4847   0.1378 C.ar           1 S1                 0.0000
      8 ****        -2.7585  -0.3588  -0.3272 N.am           1 S1                 0.0000
      9 ****        -1.8280  -1.3221  -0.4485 C.2            1 S1                 0.0000
     10 ****        -2.0007  -2.5162  -0.2030 O.2            1 S1                 0.0000
     11 ****        -0.6621  -0.8201  -0.8822 N.am           1 S1                 0.0000
     12 ****         0.5486  -1.5976  -1.1470 C.3            1 S1                 0.0000
     13 ****         1.2585  -2.0287   0.1520 C.3            1 S1                 0.0000
     14 ****         1.9118  -0.8387   0.8761 C.3            1 S1                 0.0000
     15 ****         2.8554  -0.1180  -0.0176 N.4            1 S1                 1.0000
     16 ****         3.6153   0.9448   0.6917 C.3            1 S1                 0.0000
     17 ****         5.0880   1.0186   0.2403 C.3            1 S1                 0.0000
     18 ****         5.3354   1.6815  -1.1068 C.3            1 S1                 0.0000
     19 ****         6.7536   2.2481  -0.9865 C.3            1 S1                 0.0000
     20 ****         7.1222   2.1103   0.3813 O.3            1 S1                 0.0000
     21 ****         5.9520   1.8877   1.1500 C.3            1 S1                 0.0000
     22 ****         2.1725   0.3688  -1.2454 C.3            1 S1                 0.0000
     23 ****         1.5237  -0.7916  -2.0223 C.3            1 S1                 0.0000
     24 ****        -4.8578   0.7039   0.0986 C.ar           1 S1                 0.0000
     25 ****        -8.0896   1.7031   0.3594 H              1 S1                 0.0000
     26 ****        -6.7205   2.6045  -0.2944 H              1 S1                 0.0000
     27 ****        -6.9414   2.4815   1.4562 H              1 S1                 0.0000
     28 ****        -7.7527  -0.5787   1.3727 H              1 S1                 0.0000
     29 ****        -7.5014  -2.9880   1.6338 H              1 S1                 0.0000
     30 ****        -5.9812  -3.2227   2.5039 H              1 S1                 0.0000
     31 ****        -6.1483  -3.7963   0.8390 H              1 S1                 0.0000
     32 ****        -2.4794   0.5739  -0.5923 H              1 S1                 0.0000
     33 ****        -0.6150   0.1718  -1.0638 H              1 S1                 0.0000
     34 ****         0.2547  -2.4910  -1.7013 H              1 S1                 0.0000
     35 ****         0.5661  -2.5394   0.8219 H              1 S1                 0.0000
     36 ****         2.0300  -2.7603  -0.0919 H              1 S1                 0.0000
     37 ****         1.1498  -0.1477   1.2401 H              1 S1                 0.0000
     38 ****         2.4451  -1.2116   1.7514 H              1 S1                 0.0000
     39 ****         3.1171   1.9107   0.5948 H              1 S1                 0.0000
     40 ****         3.6197   0.7240   1.7602 H              1 S1                 0.0000
     41 ****         5.5188   0.0157   0.2279 H              1 S1                 0.0000
     42 ****         5.2410   0.9837  -1.9395 H              1 S1                 0.0000
     43 ****         4.6307   2.4986  -1.2683 H              1 S1                 0.0000
     44 ****         7.4621   1.7028  -1.6104 H              1 S1                 0.0000
     45 ****         6.7814   3.2978  -1.2808 H              1 S1                 0.0000
     46 ****         5.4688   2.8438   1.3590 H              1 S1                 0.0000
     47 ****         6.1854   1.4050   2.0994 H              1 S1                 0.0000
     48 ****         1.4185   1.1089  -0.9737 H              1 S1                 0.0000
     49 ****         2.8807   0.8747  -1.8984 H              1 S1                 0.0000
     50 ****         2.3080  -1.4556  -2.3886 H              1 S1                 0.0000
     51 ****         1.0123  -0.4113  -2.9075 H              1 S1                 0.0000
     52 ****        -4.4234   1.6225  -0.2686 H              1 S1                 0.0000
     53 ****         3.5361  -0.8047  -0.3097 H              1 S1                 0.0000
     54 ****        -4.0704  -2.4782   0.6221 LP             1 S1                 0.0000
     55 ****        -2.8926  -2.8373   0.1154 LP             1 S1                 0.0000
     56 ****        -1.2490  -3.1649  -0.3220 LP             1 S1                 0.0000
     57 ****         7.5752   2.9455   0.6930 LP             1 S1                 0.0000
     58 ****         7.7450   1.3348   0.4850 LP             1 S1                 0.0000
@<TRIPOS>BOND
    1    1    2 1     
    2    1   25 1     
    3    1   26 1     
    4    1   27 1     
    5    2   24 ar    
    6    2    3 ar    
    7    3    4 ar    
    8    3   28 1     
    9    4    5 1     
   10    4    6 ar    
   11    5   29 1     
   12    5   30 1     
   13    5   31 1     
   14    6    7 ar    
   15    7    8 1     
   16    7   24 ar    
   17    8    9 am    
   18    8   32 1     
   19    9   10 2     
   20    9   11 am    
   21   11   12 1     
   22   11   33 1     
   23   12   23 1     
   24   12   13 1     
   25   12   34 1     
   26   13   14 1     
   27   13   35 1     
   28   13   36 1     
   29   14   15 1     
   30   14   37 1     
   31   14   38 1     
   32   15   16 1     
   33   15   22 1     
   34   15   53 1     
   35   16   17 1     
   36   16   39 1     
   37   16   40 1     
   38   17   21 1     
   39   17   18 1     
   40   17   41 1     
   41   18   19 1     
   42   18   42 1     
   43   18   43 1     
   44   19   20 1     
   45   19   44 1     
   46   19   45 1     
   47   20   21 1     
   48   21   46 1     
   49   21   47 1     
   50   22   23 1     
   51   22   48 1     
   52   22   49 1     
   53   23   50 1     
   54   23   51 1     
   55   24   52 1     
   56    6   54 1     
   57   10   55 1     
   58   10   56 1     
   59   20   57 1     
   60   20   58 1     
@<TRIPOS>SUBSTRUCTURE
      1 S1             1
@<TRIPOS>SET
LONE_PAIRS      STATIC     ATOMS    <user>   **** ""
5 54 55 56 57 58
DONOR_HYDROGENS      STATIC     ATOMS    <user>   **** ""
3 32 33 53
ATOM$BLUE        STATIC     ATOMS    COLORGROUP SYSTEM
5 54 55 56 57 58
ATOM$RED        STATIC     ATOMS    COLORGROUP SYSTEM
3 32 33 53
