AV-unprocessed.smi:2583|AV-procd|sdf|10138|dock1
  -GOLD-   2272014153D 1   1.00000     0.00000
 Structure written by MMmdl.
 55 57  0  0  0  0  0  0  0  0  3 V2000
  153.3304  142.3393  161.3089 C   0  0  0  0  0  0  0  0  0  0  0  0
  152.4210  143.2091  160.4665 C   0  0  0  0  0  0  0  0  0  0  0  0
  152.1503  144.5446  160.8292 C   0  0  0  0  0  0  0  0  0  0  0  0
  151.3366  145.3537  160.1190 N   0  0  0  0  0  0  0  0  0  0  0  0
  150.7637  144.8531  159.0039 C   0  0  0  0  0  0  0  0  0  0  0  0
  150.9759  143.5387  158.5369 C   0  0  0  0  0  0  0  0  0  0  0  0
  150.2971  143.1321  157.3562 N   0  0  0  0  0  0  0  0  0  0  0  0
  150.4593  142.0014  156.6479 C   0  0  0  0  0  0  0  0  0  0  0  0
  151.2906  141.1263  156.8884 O   0  0  0  0  0  0  0  0  0  0  0  0
  149.6051  141.9501  155.6147 N   0  0  0  0  0  0  0  0  0  0  0  0
  149.5150  140.8673  154.6377 C   0  0  2  0  0  0  0  0  0  0  0  0
  148.1689  140.9317  153.8931 C   0  0  0  0  0  0  0  0  0  0  0  0
  147.9921  139.7142  152.9645 C   0  0  0  0  0  0  0  0  0  0  0  0
  148.1050  138.4246  153.7059 N   0  3  2  0  0  0  0  0  0  0  0  0
  146.9391  138.0897  154.5974 C   0  0  2  0  0  0  0  0  0  0  0  0
  147.1016  136.7465  155.3500 C   0  0  0  0  0  0  0  0  0  0  0  0
  147.0688  135.5433  154.3893 C   0  0  0  0  0  0  0  0  0  0  0  0
  145.8059  135.5165  153.6089 N   0  3  2  0  0  0  0  0  0  0  0  0
  145.7157  134.3341  152.7252 C   0  0  0  0  0  0  0  0  0  0  0  0
  145.5626  136.7864  152.8793 C   0  0  0  0  0  0  0  0  0  0  0  0
  145.5941  137.9923  153.8373 C   0  0  0  0  0  0  0  0  0  0  0  0
  149.4479  138.3477  154.3505 C   0  0  0  0  0  0  0  0  0  0  0  0
  149.6781  139.5069  155.3391 C   0  0  0  0  0  0  0  0  0  0  0  0
  151.8198  142.6958  159.2998 C   0  0  0  0  0  0  0  0  0  0  0  0
  153.7372  142.8933  162.1555 H   0  0  0  0  0  0  0  0  0  0  0  0
  154.1636  141.9717  160.7097 H   0  0  0  0  0  0  0  0  0  0  0  0
  152.7797  141.4811  161.6955 H   0  0  0  0  0  0  0  0  0  0  0  0
  152.5914  144.9756  161.7160 H   0  0  0  0  0  0  0  0  0  0  0  0
  150.1163  145.5283  158.4635 H   0  0  0  0  0  0  0  0  0  0  0  0
  149.6417  143.8031  156.9828 H   0  0  0  0  0  0  0  0  0  0  0  0
  148.9653  142.7222  155.4971 H   0  0  0  0  0  0  0  0  0  0  0  0
  150.3124  140.9557  153.8974 H   0  0  0  0  0  0  0  0  0  0  0  0
  147.3438  140.9824  154.6041 H   0  0  0  0  0  0  0  0  0  0  0  0
  148.1175  141.8494  153.3057 H   0  0  0  0  0  0  0  0  0  0  0  0
  147.0659  139.7869  152.3992 H   0  0  0  0  0  0  0  0  0  0  0  0
  148.7762  139.7357  152.2062 H   0  0  0  0  0  0  0  0  0  0  0  0
  146.8451  138.8784  155.3433 H   0  0  0  0  0  0  0  0  0  0  0  0
  147.9941  136.7226  155.9725 H   0  0  0  0  0  0  0  0  0  0  0  0
  146.2790  136.6420  156.0591 H   0  0  0  0  0  0  0  0  0  0  0  0
  147.9222  135.5754  153.7104 H   0  0  0  0  0  0  0  0  0  0  0  0
  147.1567  134.6191  154.9621 H   0  0  0  0  0  0  0  0  0  0  0  0
  146.4948  134.3542  151.9620 H   0  0  0  0  0  0  0  0  0  0  0  0
  144.7474  134.3007  152.2246 H   0  0  0  0  0  0  0  0  0  0  0  0
  145.8244  133.4141  153.3005 H   0  0  0  0  0  0  0  0  0  0  0  0
  146.3069  136.9084  152.0910 H   0  0  0  0  0  0  0  0  0  0  0  0
  144.5896  136.7382  152.3891 H   0  0  0  0  0  0  0  0  0  0  0  0
  144.7894  137.8739  154.5648 H   0  0  0  0  0  0  0  0  0  0  0  0
  145.3448  138.9110  153.3104 H   0  0  0  0  0  0  0  0  0  0  0  0
  149.6247  137.3860  154.8264 H   0  0  0  0  0  0  0  0  0  0  0  0
  150.2020  138.4037  153.5641 H   0  0  0  0  0  0  0  0  0  0  0  0
  150.6795  139.4312  155.7647 H   0  0  0  0  0  0  0  0  0  0  0  0
  148.9859  139.4261  156.1779 H   0  0  0  0  0  0  0  0  0  0  0  0
  152.0032  141.6692  159.0233 H   0  0  0  0  0  0  0  0  0  0  0  0
  148.1077  137.7061  152.9963 H   0  0  0  0  0  0  0  0  0  0  0  0
  145.0569  135.4250  154.2808 H   0  0  0  0  0  0  0  0  0  0  0  0
  1  2  1  0  0  0  0
  1 25  1  0  0  0  0
  1 26  1  0  0  0  0
  1 27  1  0  0  0  0
  2 24  1  0  0  0  0
  2  3  2  0  0  0  0
  3  4  1  0  0  0  0
  3 28  1  0  0  0  0
  4  5  2  0  0  0  0
  5  6  1  0  0  0  0
  5 29  1  0  0  0  0
  6  7  1  0  0  0  0
  6 24  2  0  0  0  0
  7  8  1  0  0  0  0
  7 30  1  0  0  0  0
  8  9  2  0  0  0  0
  8 10  1  0  0  0  0
 10 11  1  0  0  0  0
 10 31  1  0  0  0  0
 11 23  1  0  0  0  0
 11 12  1  0  0  0  0
 11 32  1  0  0  0  0
 12 13  1  0  0  0  0
 12 33  1  0  0  0  0
 12 34  1  0  0  0  0
 13 14  1  0  0  0  0
 13 35  1  0  0  0  0
 13 36  1  0  0  0  0
 14 15  1  0  0  0  0
 14 22  1  0  0  0  0
 14 54  1  0  0  0  0
 15 21  1  0  0  0  0
 15 16  1  0  0  0  0
 15 37  1  0  0  0  0
 16 17  1  0  0  0  0
 16 38  1  0  0  0  0
 16 39  1  0  0  0  0
 17 18  1  0  0  0  0
 17 40  1  0  0  0  0
 17 41  1  0  0  0  0
 18 19  1  0  0  0  0
 18 20  1  0  0  0  0
 18 55  1  0  0  0  0
 19 42  1  0  0  0  0
 19 43  1  0  0  0  0
 19 44  1  0  0  0  0
 20 21  1  0  0  0  0
 20 45  1  0  0  0  0
 20 46  1  0  0  0  0
 21 47  1  0  0  0  0
 21 48  1  0  0  0  0
 22 23  1  0  0  0  0
 22 49  1  0  0  0  0
 22 50  1  0  0  0  0
 23 51  1  0  0  0  0
 23 52  1  0  0  0  0
 24 53  1  0  0  0  0
M  CHG  1  14   1
M  CHG  1  18   1
M  END
> <s_m_source_file>
AV-unprocessed.smi

> <i_m_source_file_index>
2583

> <i_lp_mmshare_version>
43012

> <i_f3d_flags>
0

> <s_epik_input>
W0NIM11jMVtjSF1uW2NIXWMoW2NIXTEpW05IXUMoPU8pW05IXVtDSF0yW0NIMl1bQ0gyXU4oW0NIMl1bQ0gyXTIpW0NIXTNbQ0gyXVtDSDJdTihbQ0gzXSlbQ0gyXVtDSDJdMw==

> <s_epik_cmdline>
J2VwaWtfcHl0aG9uJywgJy1waCcsICc3LjAnLCAnLXRuJywgJzgnLCAnLW1hJywgJzIwMCcsICctbWV0YWxfYmluZGluZycsICctaW1hZScsICc8aW5maWxlLm1hZT4nLCAnLW9tYWUnLCAnPG91dGZpbGUubWFlPic=

> <r_epik_Ionization_Penalty>
0.188357

> <r_epik_Ionization_Penalty_Charging>
0.180787

> <r_epik_Ionization_Penalty_Neutral>
0.00756971

> <r_epik_State_Penalty>
0.157948

> <r_epik_Charging_Adjusted_Penalty>
0.338735

> <i_epik_Tot_Q>
2

> <i_epik_Tot_abs_Q>
2

> <r_epik_Metal_State_Penalty>
0.153874

> <b_epik_Metal_Only>
0

> <s_lp_Force_Field>
OPLS_2005

> <r_lp_Energy>
50.7645

> <b_lp_Chiralities_Consistent>
1

> <s_lp_Variant>
AV-unprocessed.smi:2583-4

> <Gold.Version>
5.8.1

> <Gold.Id.Protein>
6NUR|6NUR_protein|mol2

> <Gold.PLP.Fitness>
51.4954

> <Gold.PLP.PLP>
-37.5931

> <Gold.PLP.part.hbond>
-3.0000

> <Gold.PLP.part.metal>
0.0000

> <Gold.PLP.part.buried>
-1.1057

> <Gold.PLP.part.nonpolar>
-33.8703

> <Gold.PLP.part.repulsive>
0.3753

> <Gold.PLP.ligand.clash>
0.0000

> <Gold.PLP.ligand.torsion>
0.3181

> <Gold.PLP.Chemscore.Hbond>
3.8320

> <Gold.PLP.Chemscore.CHOScore>
0.9989

> <Gold.PLP.Chemscore.Metal>
0.0000

> <Gold.Chemscore.Hbonds>
donor molecule, donor type, donor heavy atom, donor atom, acceptor molecule, acceptor atom, score
      L1  H     7    30       P1  8028  1.00
      L1  H    10    31       P1  8028  0.83
      L1  H    14    54       P1  7948  1.98
      L1  C     5    29       P1  8029  0.99

> <Gold.PLP.Chemscore.Internal.Correction>
0.0458

> <Gold.Rescore>
     Score         DG    S(hbond)    S(metal)    S(lipo)     H(rot)  DE(clash)    DE(int)     intcor
     20.10     -25.36       2.73        0.00     118.40       1.21       2.25       3.01       ----

> <Gold.Chemscore.Fitness>
20.1019

> <Gold.Chemscore.DG>
-25.3570

> <Gold.Chemscore.ZeroCoef>
-5.4800

> <Gold.Chemscore.Hbond>
2.7305

> <Gold.Chemscore.Metal>
0.0000

> <Gold.Chemscore.Lipo>
118.3980

> <Gold.Chemscore.Internal_Hbond>
0.0000

> <Gold.Chemscore.DEClash>
2.2453

> <Gold.Chemscore.DEInternal>
3.0098

> <Gold.Chemscore.Rot>
1.2092

> <Gold.Chemscore.Internal.Correction>
   9.000000E+99

> <Gold.Chemscore.Hbonds>
donor molecule, donor type, donor heavy atom, donor atom, acceptor molecule, acceptor atom, score
      L1  H     7    30       P1  8028  0.88
      L1  H    10    31       P1  8028  0.80
      L1  H    14    54       P1  7948  0.90

> <Gold.Chemscore.Hbond.Weighted>
-9.1199

> <Gold.Chemscore.Metal.Weighted>
-0.0000

> <Gold.Chemscore.Lipo.Weighted>
-13.8526

> <Gold.Chemscore.Internal_Hbond.Weighted>
0.0000

> <Gold.Chemscore.DEClash.Weighted>
2.2453

> <Gold.Chemscore.DEInternal.Weighted>
3.0098

> <Gold.Chemscore.Rot.Weighted>
3.0955

> <Gold.Chemscore.Internal.Correction.Weighted>
   9.000000E+99

> <Gold.Protein.RotatedTorsions>
[ 6907 6896 6895 6894 ] final -133.20 input  -60.11 | X-H torsion
[ 7974 7965 7964 7962 ] final -168.46 input  175.53 | X-H torsion
[ 8008 7997 7996 7995 ] final   57.31 input   59.86 | X-H torsion
[ 10167 10162 10161 10158 ] final  -29.69 input  -65.29 | X-H torsion
[ 10718 10713 10712 10709 ] final   80.82 input   66.30 | X-H torsion
[ 10763 10752 10751 10750 ] final  157.91 input  -60.55 | X-H torsion
[ 11005 11000 10999 10996 ] final -142.08 input  -57.11 | X-H torsion

> <Gold.Protein.ActiveResidues>
 VAL166  LYS551  ARG553  GLY616  TRP617  ASP618  TYR619  PRO620  LYS621  CYS622 
 ASP623  PHE694  ASN695  SER759  ASP760  ASP761  ALA762  ILE779  LEU786  VAL792 
 PHE793  MET794  SER795  GLU796  ALA797  LYS798  CYS799  TRP800  GLU811  SER814 

> <Gold.Protein.RotatedAtoms>
  150.9713  133.6341  159.2737 H   0  0  0  0  0  0  0  0  0  0  0  0  # atno 6907 bound_to 6896
  151.3629  135.0906  159.9450 H   0  0  0  0  0  0  0  0  0  0  0  0  # atno 6908 bound_to 6896
  152.5183  133.9282  159.7622 H   0  0  0  0  0  0  0  0  0  0  0  0  # atno 6909 bound_to 6896
  144.7203  140.2367  143.6297 H   0  0  0  0  0  0  0  0  0  0  0  0  # atno 7974 bound_to 7965
  155.5317  140.3482  155.4427 H   0  0  0  0  0  0  0  0  0  0  0  0  # atno 8008 bound_to 7997
  156.0714  140.1364  156.9851 H   0  0  0  0  0  0  0  0  0  0  0  0  # atno 8009 bound_to 7997
  154.4530  140.0965  156.6649 H   0  0  0  0  0  0  0  0  0  0  0  0  # atno 8010 bound_to 7997
  140.7258  143.3909  151.1432 H   0  0  0  0  0  0  0  0  0  0  0  0  # atno 10167 bound_to 10162
  157.6816  130.9976  150.2135 H   0  0  0  0  0  0  0  0  0  0  0  0  # atno 10718 bound_to 10713
  154.2077  135.2787  155.2969 H   0  0  0  0  0  0  0  0  0  0  0  0  # atno 10763 bound_to 10752
  154.5804  135.5591  153.7183 H   0  0  0  0  0  0  0  0  0  0  0  0  # atno 10764 bound_to 10752
  153.0072  135.6343  154.2216 H   0  0  0  0  0  0  0  0  0  0  0  0  # atno 10765 bound_to 10752
  140.8260  134.2574  157.4879 H   0  0  0  0  0  0  0  0  0  0  0  0  # atno 11005 bound_to 11000
  145.8359  139.2107  143.1856 LP  0  0  0  0  0  0  0  0  0  0  0  0  # atno 17320 bound_to 7965
  146.0390  140.8184  142.9838 LP  0  0  0  0  0  0  0  0  0  0  0  0  # atno 17321 bound_to 7965
  139.7513  143.8774  152.3077 LP  0  0  0  0  0  0  0  0  0  0  0  0  # atno 17342 bound_to 10162
  139.8628  144.7108  150.9079 LP  0  0  0  0  0  0  0  0  0  0  0  0  # atno 17343 bound_to 10162
  156.2801  130.3732  149.7943 LP  0  0  0  0  0  0  0  0  0  0  0  0  # atno 17370 bound_to 10713
  156.5634  130.8393  151.3335 LP  0  0  0  0  0  0  0  0  0  0  0  0  # atno 17371 bound_to 10713
  139.8706  134.9561  156.4226 LP  0  0  0  0  0  0  0  0  0  0  0  0  # atno 17394 bound_to 11000
  140.9048  133.7753  155.9723 LP  0  0  0  0  0  0  0  0  0  0  0  0  # atno 17395 bound_to 11000

$$$$
