AV-unprocessed.smi:8|AV-procd|sdf|47|dock2
  -GOLD-   2262015163D 1   1.00000     0.00000
 Structure written by MMmdl.
 33 34  0  0  0  0  0  0  0  0  2 V2000
  149.4999  136.4749  156.3068 C   0  0  0  0  0  0  0  0  0  0  0  0
  150.6208  135.4853  155.9595 C   0  0  0  0  0  0  0  0  0  0  0  0
  150.0845  134.1526  155.6538 N   0  0  0  0  0  0  0  0  0  0  0  0
  149.1283  134.0585  154.6298 C   0  0  0  0  0  0  0  0  0  0  0  0
  148.5608  132.8881  154.2728 C   0  0  0  0  0  0  0  0  0  0  0  0
  147.5251  132.7974  153.1598 C   0  0  0  0  0  0  0  0  0  0  0  0
  146.8567  134.0646  152.8844 N   0  0  0  0  0  0  0  0  0  0  0  0
  145.7023  134.0511  152.0868 C   0  0  0  0  0  0  0  0  0  0  0  0
  145.2866  132.8757  151.5567 N   0  0  0  0  0  0  0  0  0  0  0  0
  144.1880  132.8996  150.7994 C   0  0  0  0  0  0  0  0  0  0  0  0
  143.4422  133.9671  150.5082 N   0  0  0  0  0  0  0  0  0  0  0  0
  143.8420  135.1457  151.0308 C   0  0  0  0  0  0  0  0  0  0  0  0
  144.9890  135.2496  151.8465 C   0  0  0  0  0  0  0  0  0  0  0  0
  145.4283  136.5862  152.4153 C   0  0  0  0  0  0  0  0  0  0  0  0
  148.9989  131.6833  154.9863 C   0  0  0  0  0  0  0  0  0  0  0  0
  148.5188  130.5888  154.6920 O   0  0  0  0  0  0  0  0  0  0  0  0
  149.9385  131.8265  155.9659 N   0  5  0  0  0  0  0  0  0  0  0  0
  150.4909  133.0286  156.3135 C   0  0  0  0  0  0  0  0  0  0  0  0
  151.3418  133.1309  157.1977 O   0  0  0  0  0  0  0  0  0  0  0  0
  149.9103  137.4565  156.5441 H   0  0  0  0  0  0  0  0  0  0  0  0
  148.9274  136.1356  157.1707 H   0  0  0  0  0  0  0  0  0  0  0  0
  148.8078  136.5977  155.4732 H   0  0  0  0  0  0  0  0  0  0  0  0
  151.2078  135.8670  155.1225 H   0  0  0  0  0  0  0  0  0  0  0  0
  151.3225  135.4235  156.7926 H   0  0  0  0  0  0  0  0  0  0  0  0
  148.8788  134.9966  154.1557 H   0  0  0  0  0  0  0  0  0  0  0  0
  147.9848  132.4084  152.2504 H   0  0  0  0  0  0  0  0  0  0  0  0
  146.7685  132.0679  153.4497 H   0  0  0  0  0  0  0  0  0  0  0  0
  147.4736  134.8514  152.7400 H   0  0  0  0  0  0  0  0  0  0  0  0
  143.8683  131.9568  150.3808 H   0  0  0  0  0  0  0  0  0  0  0  0
  143.2416  136.0115  150.7931 H   0  0  0  0  0  0  0  0  0  0  0  0
  144.7673  137.3897  152.0893 H   0  0  0  0  0  0  0  0  0  0  0  0
  146.4403  136.8249  152.0859 H   0  0  0  0  0  0  0  0  0  0  0  0
  145.4169  136.5574  153.5051 H   0  0  0  0  0  0  0  0  0  0  0  0
  1  2  1  0  0  0  0
  1 20  1  0  0  0  0
  1 21  1  0  0  0  0
  1 22  1  0  0  0  0
  2  3  1  0  0  0  0
  2 23  1  0  0  0  0
  2 24  1  0  0  0  0
  3 18  1  0  0  0  0
  3  4  1  0  0  0  0
  4  5  2  0  0  0  0
  4 25  1  0  0  0  0
  5  6  1  0  0  0  0
  5 15  1  0  0  0  0
  6  7  1  0  0  0  0
  6 26  1  0  0  0  0
  6 27  1  0  0  0  0
  7  8  1  0  0  0  0
  7 28  1  0  0  0  0
  8 13  1  0  0  0  0
  8  9  2  0  0  0  0
  9 10  1  0  0  0  0
 10 11  2  0  0  0  0
 10 29  1  0  0  0  0
 11 12  1  0  0  0  0
 12 13  2  0  0  0  0
 12 30  1  0  0  0  0
 13 14  1  0  0  0  0
 14 31  1  0  0  0  0
 14 32  1  0  0  0  0
 14 33  1  0  0  0  0
 15 16  2  0  0  0  0
 15 17  1  0  0  0  0
 17 18  1  0  0  0  0
 18 19  2  0  0  0  0
M  CHG  1  17  -1
M  END
> <s_m_source_file>
AV-unprocessed.smi

> <i_m_source_file_index>
8

> <i_lp_mmshare_version>
43012

> <i_f3d_flags>
0

> <s_epik_input>
W0NIM11bQ0gyXW4xW2NIXWMoYyg9TylbbkhdYzE9TylbQ0gyXVtOSF1jMm5bY0hdbltjSF1jMltDSDNd

> <s_epik_cmdline>
J2VwaWtfcHl0aG9uJywgJy1waCcsICc3LjAnLCAnLXRuJywgJzgnLCAnLW1hJywgJzIwMCcsICctbWV0YWxfYmluZGluZycsICctaW1hZScsICc8aW5maWxlLm1hZT4nLCAnLW9tYWUnLCAnPG91dGZpbGUubWFlPic=

> <r_lp_tautomer_probability>
0.999537

> <r_epik_Ionization_Penalty>
4.00162

> <r_epik_Ionization_Penalty_Charging>
4.85554e-07

> <r_epik_Ionization_Penalty_Neutral>
4.00162

> <r_epik_State_Penalty>
4.01059

> <r_epik_Charging_Adjusted_Penalty>
4.01059

> <i_epik_Tot_Q>
-1

> <i_epik_Tot_abs_Q>
1

> <r_epik_Metal_State_Penalty>
0.642438

> <b_epik_Metal_Only>
1

> <s_lp_Force_Field>
OPLS_2005

> <r_lp_Energy>
12.8082

> <b_lp_Chiralities_Consistent>
1

> <s_lp_Variant>
AV-unprocessed.smi:8-3

> <Gold.Version>
5.8.1

> <Gold.Id.Protein>
6NUR|6NUR_protein|mol2

> <Gold.PLP.Fitness>
41.5658

> <Gold.PLP.PLP>
-30.9835

> <Gold.PLP.part.hbond>
-2.0000

> <Gold.PLP.part.metal>
0.0000

> <Gold.PLP.part.buried>
-5.6591

> <Gold.PLP.part.nonpolar>
-25.0896

> <Gold.PLP.part.repulsive>
0.6010

> <Gold.PLP.ligand.clash>
0.0000

> <Gold.PLP.ligand.torsion>
0.3668

> <Gold.PLP.Chemscore.Hbond>
1.7680

> <Gold.PLP.Chemscore.CHOScore>
2.0000

> <Gold.PLP.Chemscore.Metal>
0.0000

> <Gold.Chemscore.Hbonds>
donor molecule, donor type, donor heavy atom, donor atom, acceptor molecule, acceptor atom, score
      L1  H     7    28       P1  7948  0.63
      P1  H  6896  6909       L1    19  0.78
      L1  C     4    25       P1  7948  0.88
      L1  C    12    30       P1 10171  0.32

> <Gold.PLP.Chemscore.Internal.Correction>
0.0120

> <Gold.Rescore>
     Score         DG    S(hbond)    S(metal)    S(lipo)     H(rot)  DE(clash)    DE(int)     intcor
      9.81     -10.70       1.85        0.00      37.50       2.09       0.13       0.76       ----

> <Gold.Chemscore.Fitness>
9.8082

> <Gold.Chemscore.DG>
-10.7033

> <Gold.Chemscore.ZeroCoef>
-5.4800

> <Gold.Chemscore.Hbond>
1.8502

> <Gold.Chemscore.Metal>
0.0000

> <Gold.Chemscore.Lipo>
37.5016

> <Gold.Chemscore.Internal_Hbond>
0.0000

> <Gold.Chemscore.DEClash>
0.1334

> <Gold.Chemscore.DEInternal>
0.7617

> <Gold.Chemscore.Rot>
2.0876

> <Gold.Chemscore.Internal.Correction>
   9.000000E+99

> <Gold.Chemscore.Hbonds>
donor molecule, donor type, donor heavy atom, donor atom, acceptor molecule, acceptor atom, score
      L1  H     7    28       P1  7948  0.61
      P1  H  6896  6909       L1    19  0.73

> <Gold.Chemscore.Hbond.Weighted>
-6.1798

> <Gold.Chemscore.Metal.Weighted>
-0.0000

> <Gold.Chemscore.Lipo.Weighted>
-4.3877

> <Gold.Chemscore.Internal_Hbond.Weighted>
0.0000

> <Gold.Chemscore.DEClash.Weighted>
0.1334

> <Gold.Chemscore.DEInternal.Weighted>
0.7617

> <Gold.Chemscore.Rot.Weighted>
5.3442

> <Gold.Chemscore.Internal.Correction.Weighted>
   9.000000E+99

> <Gold.Protein.RotatedTorsions>
[ 6907 6896 6895 6894 ] final  -46.80 input  -60.11 | X-H torsion
[ 7974 7965 7964 7962 ] final   92.01 input  175.53 | X-H torsion
[ 8008 7997 7996 7995 ] final   78.35 input   59.86 | X-H torsion
[ 10167 10162 10161 10158 ] final  -34.93 input  -65.29 | X-H torsion
[ 10718 10713 10712 10709 ] final  132.52 input   66.30 | X-H torsion
[ 10763 10752 10751 10750 ] final   95.39 input  -60.55 | X-H torsion
[ 11005 11000 10999 10996 ] final  129.42 input  -57.11 | X-H torsion

> <Gold.Protein.ActiveResidues>
 VAL166  LYS551  ARG553  GLY616  TRP617  ASP618  TYR619  PRO620  LYS621  CYS622 
 ASP623  PHE694  ASN695  SER759  ASP760  ASP761  ALA762  ILE779  LEU786  VAL792 
 PHE793  MET794  SER795  GLU796  ALA797  LYS798  CYS799  TRP800  GLU811  SER814 

> <Gold.Protein.RotatedAtoms>
  150.9075  134.8490  159.7402 H   0  0  0  0  0  0  0  0  0  0  0  0  # atno 6907 bound_to 6896
  152.4926  134.4409  159.9553 H   0  0  0  0  0  0  0  0  0  0  0  0  # atno 6908 bound_to 6896
  151.4455  133.3592  159.2823 H   0  0  0  0  0  0  0  0  0  0  0  0  # atno 6909 bound_to 6896
  145.4980  139.2276  143.2793 H   0  0  0  0  0  0  0  0  0  0  0  0  # atno 7974 bound_to 7965
  155.8545  140.3456  155.5715 H   0  0  0  0  0  0  0  0  0  0  0  0  # atno 8008 bound_to 7997
  155.8001  140.0884  157.1981 H   0  0  0  0  0  0  0  0  0  0  0  0  # atno 8009 bound_to 7997
  154.4009  140.1467  156.3252 H   0  0  0  0  0  0  0  0  0  0  0  0  # atno 8010 bound_to 7997
  140.7175  143.3513  151.2151 H   0  0  0  0  0  0  0  0  0  0  0  0  # atno 10167 bound_to 10162
  157.4863  131.1088  150.9615 H   0  0  0  0  0  0  0  0  0  0  0  0  # atno 10718 bound_to 10713
  153.2526  135.4256  155.0813 H   0  0  0  0  0  0  0  0  0  0  0  0  # atno 10763 bound_to 10752
  154.8388  135.3429  154.6491 H   0  0  0  0  0  0  0  0  0  0  0  0  # atno 10764 bound_to 10752
  153.6912  135.7033  153.5146 H   0  0  0  0  0  0  0  0  0  0  0  0  # atno 10765 bound_to 10752
  139.9614  134.9601  156.9145 H   0  0  0  0  0  0  0  0  0  0  0  0  # atno 11005 bound_to 11000
  146.2243  140.5779  142.9003 LP  0  0  0  0  0  0  0  0  0  0  0  0  # atno 17320 bound_to 7965
  144.7796  140.5812  143.6614 LP  0  0  0  0  0  0  0  0  0  0  0  0  # atno 17321 bound_to 7965
  139.7044  143.9480  152.2920 LP  0  0  0  0  0  0  0  0  0  0  0  0  # atno 17342 bound_to 10162
  139.9184  144.6815  150.8488 LP  0  0  0  0  0  0  0  0  0  0  0  0  # atno 17343 bound_to 10162
  157.0332  130.5719  149.5346 LP  0  0  0  0  0  0  0  0  0  0  0  0  # atno 17370 bound_to 10713
  156.0149  130.5242  150.8103 LP  0  0  0  0  0  0  0  0  0  0  0  0  # atno 17371 bound_to 10713
  140.5492  134.0644  155.7364 LP  0  0  0  0  0  0  0  0  0  0  0  0  # atno 17394 bound_to 11000
  141.1291  133.9332  157.2572 LP  0  0  0  0  0  0  0  0  0  0  0  0  # atno 17395 bound_to 11000

$$$$
