AV-unprocessed.smi:157|AV-procd|sdf|1312|dock9
  -GOLD-   2262019 03D 1   1.00000     0.00000
 Structure written by MMmdl.
 36 38  0  0  0  0  0  0  0  0  2 V2000
  142.9363  133.4059  147.7795 O   0  0  0  0  0  0  0  0  0  0  0  0
  143.8220  132.5064  148.4114 C   0  0  0  0  0  0  0  0  0  0  0  0
  144.1652  133.0027  149.8271 C   0  0  2  0  0  0  0  0  0  0  0  0
  144.5874  134.3641  149.8051 O   0  0  0  0  0  0  0  0  0  0  0  0
  145.5443  134.5923  150.7978 C   0  0  1  0  0  0  0  0  0  0  0  0
  145.0477  135.6793  151.6948 N   0  0  0  0  0  0  0  0  0  0  0  0
  145.6541  136.8627  151.9261 C   0  0  0  0  0  0  0  0  0  0  0  0
  145.0032  137.6544  152.7613 N   0  3  0  0  0  0  0  0  0  0  0  0
  143.8638  136.9744  153.1366 C   0  0  0  0  0  0  0  0  0  0  0  0
  143.9028  135.7554  152.4544 C   0  0  0  0  0  0  0  0  0  0  0  0
  142.9866  134.6924  152.4589 N   0  0  0  0  0  0  0  0  0  0  0  0
  141.7802  134.8036  152.9116 C   0  0  0  0  0  0  0  0  0  0  0  0
  141.1775  135.8818  153.5379 N   0  0  0  0  0  0  0  0  0  0  0  0
  141.8124  136.6393  154.6016 C   0  0  0  0  0  0  0  0  0  0  0  0
  142.9079  137.5934  154.1082 C   0  0  2  0  0  0  0  0  0  0  0  0
  142.2953  138.7601  153.5988 O   0  0  0  0  0  0  0  0  0  0  0  0
  145.7168  133.2910  151.5858 C   0  0  0  0  0  0  0  0  0  0  0  0
  145.2783  132.2530  150.5743 C   0  0  2  0  0  0  0  0  0  0  0  0
  146.3535  131.8941  149.7272 O   0  0  0  0  0  0  0  0  0  0  0  0
  143.2631  132.9744  150.4411 H   0  0  0  0  0  0  0  0  0  0  0  0
  146.4672  134.9638  150.3511 H   0  0  0  0  0  0  0  0  0  0  0  0
  143.4829  137.9128  154.9781 H   0  0  0  0  0  0  0  0  0  0  0  0
  144.9032  131.3498  151.0567 H   0  0  0  0  0  0  0  0  0  0  0  0
  142.2514  133.6320  148.3904 H   0  0  0  0  0  0  0  0  0  0  0  0
  143.3841  131.5083  148.4306 H   0  0  0  0  0  0  0  0  0  0  0  0
  144.7296  132.4418  147.8108 H   0  0  0  0  0  0  0  0  0  0  0  0
  146.5887  137.1327  151.4680 H   0  0  0  0  0  0  0  0  0  0  0  0
  141.1016  133.9545  152.8183 H   0  0  0  0  0  0  0  0  0  0  0  0
  140.1715  135.8860  153.6308 H   0  0  0  0  0  0  0  0  0  0  0  0
  141.0542  137.1802  155.1691 H   0  0  0  0  0  0  0  0  0  0  0  0
  142.2544  135.9216  155.2945 H   0  0  0  0  0  0  0  0  0  0  0  0
  142.9002  139.1912  153.0150 H   0  0  0  0  0  0  0  0  0  0  0  0
  146.7402  133.1729  151.9440 H   0  0  0  0  0  0  0  0  0  0  0  0
  145.0403  133.2833  152.4422 H   0  0  0  0  0  0  0  0  0  0  0  0
  147.0729  131.5997  150.2652 H   0  0  0  0  0  0  0  0  0  0  0  0
  145.2933  138.5748  153.0666 H   0  0  0  0  0  0  0  0  0  0  0  0
  1  2  1  0  0  0  0
  1 24  1  0  0  0  0
  2  3  1  0  0  0  0
  2 25  1  0  0  0  0
  2 26  1  0  0  0  0
  3 20  1  0  0  0  0
  3 18  1  0  0  0  0
  3  4  1  0  0  0  0
  4  5  1  0  0  0  0
  5 21  1  0  0  0  0
  5  6  1  0  0  0  0
  5 17  1  0  0  0  0
  6 10  1  0  0  0  0
  6  7  1  0  0  0  0
  7  8  2  0  0  0  0
  7 27  1  0  0  0  0
  8  9  1  0  0  0  0
  8 36  1  0  0  0  0
  9 15  1  0  0  0  0
  9 10  2  0  0  0  0
 10 11  1  0  0  0  0
 11 12  2  0  0  0  0
 12 13  1  0  0  0  0
 12 28  1  0  0  0  0
 13 14  1  0  0  0  0
 13 29  1  0  0  0  0
 14 15  1  0  0  0  0
 14 30  1  0  0  0  0
 14 31  1  0  0  0  0
 15 22  1  0  0  0  0
 15 16  1  0  0  0  0
 16 32  1  0  0  0  0
 17 18  1  0  0  0  0
 17 33  1  0  0  0  0
 17 34  1  0  0  0  0
 18 23  1  0  0  0  0
 18 19  1  0  0  0  0
 19 35  1  0  0  0  0
M  CHG  1   8   1
M  END
> <s_m_source_file>
AV-unprocessed.smi

> <i_m_source_file_index>
157

> <i_lp_mmshare_version>
43012

> <i_f3d_flags>
0

> <s_epik_input>
W09IXVtDSDJdW0NASF0xT1tDQEhdKFtDSDJdW0NAQEhdMVtPSF0pbihbY0hdbjIpYyhjMjMpTj1bQ0hdW05IXVtDSDJdW0NASF0zW09IXQ==

> <s_epik_cmdline>
J2VwaWtfcHl0aG9uJywgJy1waCcsICc3LjAnLCAnLXRuJywgJzgnLCAnLW1hJywgJzIwMCcsICctbWV0YWxfYmluZGluZycsICctaW1hZScsICc8aW5maWxlLm1hZT4nLCAnLW9tYWUnLCAnPG91dGZpbGUubWFlPic=

> <r_epik_Ionization_Penalty>
1.68594

> <r_epik_Ionization_Penalty_Charging>
0

> <r_epik_Ionization_Penalty_Neutral>
1.68594

> <r_epik_State_Penalty>
1.79006

> <r_epik_Charging_Adjusted_Penalty>
1.79006

> <i_epik_Tot_Q>
1

> <i_epik_Tot_abs_Q>
1

> <r_epik_Metal_State_Penalty>
5.85324

> <b_epik_Metal_Only>
0

> <s_epik_Chemistry_Notes>
This compound has an imine and may undergo hydrolysis. This compound contains an acetal/aminal-like group ( X-CH(R)-Y where X, Y are N, S, or O) that may be acid/base labile, releasing an aldehyde.

> <s_lp_Force_Field>
OPLS_2005

> <r_lp_Energy>
55.0153

> <b_lp_Chiralities_Consistent>
1

> <s_lp_Variant>
AV-unprocessed.smi:157-22

> <Gold.Version>
5.8.1

> <Gold.Id.Protein>
6NUR|6NUR_protein|mol2

> <Gold.PLP.Fitness>
46.1439

> <Gold.PLP.PLP>
-34.5294

> <Gold.PLP.part.hbond>
-5.4952

> <Gold.PLP.part.metal>
0.0000

> <Gold.PLP.part.buried>
-8.2324

> <Gold.PLP.part.nonpolar>
-23.5359

> <Gold.PLP.part.repulsive>
3.0148

> <Gold.PLP.ligand.clash>
0.0000

> <Gold.PLP.ligand.torsion>
0.0453

> <Gold.PLP.Chemscore.Hbond>
2.9280

> <Gold.PLP.Chemscore.CHOScore>
0.9716

> <Gold.PLP.Chemscore.Metal>
0.0000

> <Gold.Chemscore.Hbonds>
donor molecule, donor type, donor heavy atom, donor atom, acceptor molecule, acceptor atom, score
      L1  H     1    24       P1 10186  1.00
      L1  H    16    32       P1 10175  1.00
      L1  H    19    35       P1 10747  0.89
      L1  C     7    27       P1  7948  1.00

> <Gold.PLP.Chemscore.Internal.Correction>
0.0063

> <Gold.Rescore>
     Score         DG    S(hbond)    S(metal)    S(lipo)     H(rot)  DE(clash)    DE(int)     intcor
     10.34     -11.84       2.96        0.00      49.94       3.67       1.46       0.04       ----

> <Gold.Chemscore.Fitness>
10.3387

> <Gold.Chemscore.DG>
-11.8351

> <Gold.Chemscore.ZeroCoef>
-5.4800

> <Gold.Chemscore.Hbond>
2.9632

> <Gold.Chemscore.Metal>
0.0000

> <Gold.Chemscore.Lipo>
49.9386

> <Gold.Chemscore.Internal_Hbond>
0.0000

> <Gold.Chemscore.DEClash>
1.4570

> <Gold.Chemscore.DEInternal>
0.0394

> <Gold.Chemscore.Rot>
3.6659

> <Gold.Chemscore.Internal.Correction>
   9.000000E+99

> <Gold.Chemscore.Hbonds>
donor molecule, donor type, donor heavy atom, donor atom, acceptor molecule, acceptor atom, score
      L1  H     1    24       P1 10186  1.00
      L1  H    16    32       P1 10175  0.90
      L1  H    19    35       P1 10747  0.81

> <Gold.Chemscore.Hbond.Weighted>
-9.8971

> <Gold.Chemscore.Metal.Weighted>
-0.0000

> <Gold.Chemscore.Lipo.Weighted>
-5.8428

> <Gold.Chemscore.Internal_Hbond.Weighted>
0.0000

> <Gold.Chemscore.DEClash.Weighted>
1.4570

> <Gold.Chemscore.DEInternal.Weighted>
0.0394

> <Gold.Chemscore.Rot.Weighted>
9.3848

> <Gold.Chemscore.Internal.Correction.Weighted>
   9.000000E+99

> <Gold.Protein.RotatedTorsions>
[ 6907 6896 6895 6894 ] final -169.31 input  -60.11 | X-H torsion
[ 7974 7965 7964 7962 ] final -102.78 input  175.53 | X-H torsion
[ 8008 7997 7996 7995 ] final   90.77 input   59.86 | X-H torsion
[ 10167 10162 10161 10158 ] final   97.42 input  -65.29 | X-H torsion
[ 10718 10713 10712 10709 ] final   29.87 input   66.30 | X-H torsion
[ 10763 10752 10751 10750 ] final  151.51 input  -60.55 | X-H torsion
[ 11005 11000 10999 10996 ] final   -2.79 input  -57.11 | X-H torsion

> <Gold.Protein.ActiveResidues>
 VAL166  LYS551  ARG553  GLY616  TRP617  ASP618  TYR619  PRO620  LYS621  CYS622 
 ASP623  PHE694  ASN695  SER759  ASP760  ASP761  ALA762  ILE779  LEU786  VAL792 
 PHE793  MET794  SER795  GLU796  ALA797  LYS798  CYS799  TRP800  GLU811  SER814 

> <Gold.Protein.RotatedAtoms>
  151.4896  133.3528  159.2851 H   0  0  0  0  0  0  0  0  0  0  0  0  # atno 6907 bound_to 6896
  150.8843  134.8241  159.7258 H   0  0  0  0  0  0  0  0  0  0  0  0  # atno 6908 bound_to 6896
  152.4783  134.4798  159.9714 H   0  0  0  0  0  0  0  0  0  0  0  0  # atno 6909 bound_to 6896
  145.2643  140.9279  143.3022 H   0  0  0  0  0  0  0  0  0  0  0  0  # atno 7974 bound_to 7965
  156.0159  140.3345  155.6989 H   0  0  0  0  0  0  0  0  0  0  0  0  # atno 8008 bound_to 7997
  155.6091  140.0663  157.2729 H   0  0  0  0  0  0  0  0  0  0  0  0  # atno 8009 bound_to 7997
  154.4298  140.1796  156.1241 H   0  0  0  0  0  0  0  0  0  0  0  0  # atno 8010 bound_to 7997
  139.7802  144.6891  151.0032 H   0  0  0  0  0  0  0  0  0  0  0  0  # atno 10167 bound_to 10162
  157.2522  130.7120  149.6411 H   0  0  0  0  0  0  0  0  0  0  0  0  # atno 10718 bound_to 10713
  154.1049  135.2843  155.3243 H   0  0  0  0  0  0  0  0  0  0  0  0  # atno 10763 bound_to 10752
  154.6529  135.5362  153.7927 H   0  0  0  0  0  0  0  0  0  0  0  0  # atno 10764 bound_to 10752
  153.0365  135.6514  154.1211 H   0  0  0  0  0  0  0  0  0  0  0  0  # atno 10765 bound_to 10752
  140.6622  133.9310  155.8443 H   0  0  0  0  0  0  0  0  0  0  0  0  # atno 11005 bound_to 11000
  144.9390  139.4210  143.6458 LP  0  0  0  0  0  0  0  0  0  0  0  0  # atno 17320 bound_to 7965
  146.3266  139.8341  142.8903 LP  0  0  0  0  0  0  0  0  0  0  0  0  # atno 17321 bound_to 7965
  140.7818  143.4491  151.0439 LP  0  0  0  0  0  0  0  0  0  0  0  0  # atno 17342 bound_to 10162
  139.8172  143.7870  152.3175 LP  0  0  0  0  0  0  0  0  0  0  0  0  # atno 17343 bound_to 10162
  155.9666  130.4424  150.5379 LP  0  0  0  0  0  0  0  0  0  0  0  0  # atno 17370 bound_to 10713
  157.3265  131.0691  151.1893 LP  0  0  0  0  0  0  0  0  0  0  0  0  # atno 17371 bound_to 10713
  141.0456  134.0558  157.3847 LP  0  0  0  0  0  0  0  0  0  0  0  0  # atno 17394 bound_to 11000
  139.9009  135.0164  156.7264 LP  0  0  0  0  0  0  0  0  0  0  0  0  # atno 17395 bound_to 11000

$$$$
