AV-unprocessed.smi:3269|AV-procd|sdf|12510|dock5
  -GOLD-   2272018413D 1   1.00000     0.00000
 Structure written by MMmdl.
 39 40  0  0  0  0  0  0  0  0  1 V2000
  150.3390  141.4809  156.4726 C   0  0  0  0  0  0  0  0  0  0  0  0
  151.0775  142.2138  157.5552 C   0  0  0  0  0  0  0  0  0  0  0  0
  151.2524  143.5210  157.4532 N   0  0  0  0  0  0  0  0  0  0  0  0
  151.9325  143.8645  158.5653 N   0  0  0  0  0  0  0  0  0  0  0  0
  152.2976  145.2519  158.7761 C   0  0  0  0  0  0  0  0  0  0  0  0
  152.1864  142.7721  159.3720 C   0  0  0  0  0  0  0  0  0  0  0  0
  152.9198  142.8916  160.6688 C   0  0  0  0  0  0  0  0  0  0  0  0
  151.6529  141.6781  158.7444 C   0  0  0  0  0  0  0  0  0  0  0  0
  151.6606  140.2352  159.1894 C   0  0  0  0  0  0  0  0  0  0  0  0
  153.0292  139.5791  158.9707 C   0  0  0  0  0  0  0  0  0  0  0  0
  153.4793  139.4040  157.8374 O   0  0  0  0  0  0  0  0  0  0  0  0
  153.6828  139.2157  160.0843 N   0  0  0  0  0  0  0  0  0  0  0  0
  155.0080  138.6045  160.1262 C   0  0  0  0  0  0  0  0  0  0  0  0
  155.1862  137.6531  161.3252 C   0  0  2  0  0  0  0  0  0  0  0  0
  153.8997  137.2387  162.0451 C   0  0  0  0  0  0  0  0  0  0  0  0
  154.4293  136.8648  163.4109 C   0  0  0  0  0  0  0  0  0  0  0  0
  155.5080  137.9227  163.6243 C   0  0  0  0  0  0  0  0  0  0  0  0
  156.0200  138.2264  162.3296 O   0  0  0  0  0  0  0  0  0  0  0  0
  149.5942  140.8088  156.8978 H   0  0  0  0  0  0  0  0  0  0  0  0
  151.0233  140.8813  155.8724 H   0  0  0  0  0  0  0  0  0  0  0  0
  149.8192  142.1656  155.8017 H   0  0  0  0  0  0  0  0  0  0  0  0
  153.3765  145.3299  158.9126 H   0  0  0  0  0  0  0  0  0  0  0  0
  151.7967  145.6308  159.6672 H   0  0  0  0  0  0  0  0  0  0  0  0
  152.0061  145.8624  157.9202 H   0  0  0  0  0  0  0  0  0  0  0  0
  152.8503  141.9711  161.2482 H   0  0  0  0  0  0  0  0  0  0  0  0
  152.5066  143.6958  161.2777 H   0  0  0  0  0  0  0  0  0  0  0  0
  153.9752  143.1034  160.4974 H   0  0  0  0  0  0  0  0  0  0  0  0
  151.4016  140.1583  160.2461 H   0  0  0  0  0  0  0  0  0  0  0  0
  150.9111  139.6517  158.6544 H   0  0  0  0  0  0  0  0  0  0  0  0
  153.2374  139.3941  160.9726 H   0  0  0  0  0  0  0  0  0  0  0  0
  155.1434  138.0456  159.2000 H   0  0  0  0  0  0  0  0  0  0  0  0
  155.7859  139.3699  160.1343 H   0  0  0  0  0  0  0  0  0  0  0  0
  155.6924  136.7494  160.9823 H   0  0  0  0  0  0  0  0  0  0  0  0
  153.2047  138.0734  162.1403 H   0  0  0  0  0  0  0  0  0  0  0  0
  153.3807  136.4186  161.5483 H   0  0  0  0  0  0  0  0  0  0  0  0
  153.6635  136.8738  164.1869 H   0  0  0  0  0  0  0  0  0  0  0  0
  154.8768  135.8705  163.3809 H   0  0  0  0  0  0  0  0  0  0  0  0
  155.0711  138.8292  164.0435 H   0  0  0  0  0  0  0  0  0  0  0  0
  156.2965  137.5851  164.2969 H   0  0  0  0  0  0  0  0  0  0  0  0
  1  2  1  0  0  0  0
  1 19  1  0  0  0  0
  1 20  1  0  0  0  0
  1 21  1  0  0  0  0
  2  8  1  0  0  0  0
  2  3  2  0  0  0  0
  3  4  1  0  0  0  0
  4  5  1  0  0  0  0
  4  6  1  0  0  0  0
  5 22  1  0  0  0  0
  5 23  1  0  0  0  0
  5 24  1  0  0  0  0
  6  7  1  0  0  0  0
  6  8  2  0  0  0  0
  7 25  1  0  0  0  0
  7 26  1  0  0  0  0
  7 27  1  0  0  0  0
  8  9  1  0  0  0  0
  9 10  1  0  0  0  0
  9 28  1  0  0  0  0
  9 29  1  0  0  0  0
 10 11  2  0  0  0  0
 10 12  1  0  0  0  0
 12 13  1  0  0  0  0
 12 30  1  0  0  0  0
 13 14  1  0  0  0  0
 13 31  1  0  0  0  0
 13 32  1  0  0  0  0
 14 18  1  0  0  0  0
 14 15  1  0  0  0  0
 14 33  1  0  0  0  0
 15 16  1  0  0  0  0
 15 34  1  0  0  0  0
 15 35  1  0  0  0  0
 16 17  1  0  0  0  0
 16 36  1  0  0  0  0
 16 37  1  0  0  0  0
 17 18  1  0  0  0  0
 17 38  1  0  0  0  0
 17 39  1  0  0  0  0
M  END
> <s_m_source_file>
AV-unprocessed.smi

> <i_m_source_file_index>
3269

> <i_lp_mmshare_version>
43012

> <i_f3d_flags>
0

> <s_epik_input>
W0NIM11jMW5uKFtDSDNdKWMoW0NIM10pYzFbQ0gyXUMoPU8pW05IXVtDSDJdW0NAQEhdMltDSDJdW0NIMl1bQ0gyXU8y

> <s_epik_cmdline>
J2VwaWtfcHl0aG9uJywgJy1waCcsICc3LjAnLCAnLXRuJywgJzgnLCAnLW1hJywgJzIwMCcsICctbWV0YWxfYmluZGluZycsICctaW1hZScsICc8aW5maWxlLm1hZT4nLCAnLW9tYWUnLCAnPG91dGZpbGUubWFlPic=

> <r_lp_tautomer_probability>
1

> <r_epik_Ionization_Penalty>
0.00306713

> <r_epik_Ionization_Penalty_Charging>
0

> <r_epik_Ionization_Penalty_Neutral>
0.00306713

> <r_epik_State_Penalty>
0.00215672

> <r_epik_Charging_Adjusted_Penalty>
0.00215672

> <i_epik_Tot_Q>
0

> <i_epik_Tot_abs_Q>
0

> <r_epik_Metal_State_Penalty>
-0

> <b_epik_Metal_Only>
0

> <s_lp_Force_Field>
OPLS_2005

> <r_lp_Energy>
13.6043

> <b_lp_Chiralities_Consistent>
1

> <s_lp_Variant>
AV-unprocessed.smi:3269-1

> <Gold.Version>
5.8.1

> <Gold.Id.Protein>
6NUR|6NUR_protein|mol2

> <Gold.PLP.Fitness>
39.5808

> <Gold.PLP.PLP>
-38.7333

> <Gold.PLP.part.hbond>
-0.7834

> <Gold.PLP.part.metal>
0.0000

> <Gold.PLP.part.buried>
-4.7366

> <Gold.PLP.part.nonpolar>
-33.6345

> <Gold.PLP.part.repulsive>
0.1871

> <Gold.PLP.ligand.clash>
0.0000

> <Gold.PLP.ligand.torsion>
1.0803

> <Gold.PLP.Chemscore.Hbond>
1.0000

> <Gold.PLP.Chemscore.CHOScore>
0.0000

> <Gold.PLP.Chemscore.Metal>
0.0000

> <Gold.Chemscore.Hbonds>
donor molecule, donor type, donor heavy atom, donor atom, acceptor molecule, acceptor atom, score
      P1  H  7997  8010       L1    11  0.82

> <Gold.PLP.Chemscore.Internal.Correction>
0.0080

> <Gold.Rescore>
     Score         DG    S(hbond)    S(metal)    S(lipo)     H(rot)  DE(clash)    DE(int)     intcor
     16.02     -16.40       1.00        0.00      97.73       1.50       0.02       0.37       ----

> <Gold.Chemscore.Fitness>
16.0186

> <Gold.Chemscore.DG>
-16.4016

> <Gold.Chemscore.ZeroCoef>
-5.4800

> <Gold.Chemscore.Hbond>
0.9954

> <Gold.Chemscore.Metal>
0.0000

> <Gold.Chemscore.Lipo>
97.7265

> <Gold.Chemscore.Internal_Hbond>
0.0000

> <Gold.Chemscore.DEClash>
0.0177

> <Gold.Chemscore.DEInternal>
0.3652

> <Gold.Chemscore.Rot>
1.4989

> <Gold.Chemscore.Internal.Correction>
   9.000000E+99

> <Gold.Chemscore.Hbonds>
donor molecule, donor type, donor heavy atom, donor atom, acceptor molecule, acceptor atom, score
      P1  H  7997  8010       L1    11  0.81

> <Gold.Chemscore.Hbond.Weighted>
-3.3247

> <Gold.Chemscore.Metal.Weighted>
-0.0000

> <Gold.Chemscore.Lipo.Weighted>
-11.4340

> <Gold.Chemscore.Internal_Hbond.Weighted>
0.0000

> <Gold.Chemscore.DEClash.Weighted>
0.0177

> <Gold.Chemscore.DEInternal.Weighted>
0.3652

> <Gold.Chemscore.Rot.Weighted>
3.8371

> <Gold.Chemscore.Internal.Correction.Weighted>
   9.000000E+99

> <Gold.Protein.RotatedTorsions>
[ 6907 6896 6895 6894 ] final  130.61 input  -60.11 | X-H torsion
[ 7974 7965 7964 7962 ] final  -63.01 input  175.53 | X-H torsion
[ 8008 7997 7996 7995 ] final   10.73 input   59.86 | X-H torsion
[ 10167 10162 10161 10158 ] final -157.52 input  -65.29 | X-H torsion
[ 10718 10713 10712 10709 ] final   46.68 input   66.30 | X-H torsion
[ 10763 10752 10751 10750 ] final -117.33 input  -60.55 | X-H torsion
[ 11005 11000 10999 10996 ] final  -24.16 input  -57.11 | X-H torsion

> <Gold.Protein.ActiveResidues>
 VAL166  LYS551  ARG553  GLY616  TRP617  ASP618  TYR619  PRO620  LYS621  CYS622 
 ASP623  PHE694  ASN695  SER759  ASP760  ASP761  ALA762  ILE779  LEU786  VAL792 
 PHE793  MET794  SER795  GLU796  ALA797  LYS798  CYS799  TRP800  GLU811  SER814 

> <Gold.Protein.RotatedAtoms>
  152.3509  133.6178  159.5943 H   0  0  0  0  0  0  0  0  0  0  0  0  # atno 6907 bound_to 6896
  150.7537  133.9576  159.3514 H   0  0  0  0  0  0  0  0  0  0  0  0  # atno 6908 bound_to 6896
  151.7428  135.0851  160.0369 H   0  0  0  0  0  0  0  0  0  0  0  0  # atno 6909 bound_to 6896
  145.7842  140.8745  143.0314 H   0  0  0  0  0  0  0  0  0  0  0  0  # atno 7974 bound_to 7965
  154.7973  140.2846  155.5947 H   0  0  0  0  0  0  0  0  0  0  0  0  # atno 8008 bound_to 7997
  156.2972  140.2593  156.2762 H   0  0  0  0  0  0  0  0  0  0  0  0  # atno 8009 bound_to 7997
  154.9600  140.0378  157.2175 H   0  0  0  0  0  0  0  0  0  0  0  0  # atno 8010 bound_to 7997
  139.6764  143.9656  152.2313 H   0  0  0  0  0  0  0  0  0  0  0  0  # atno 10167 bound_to 10162
  157.4506  130.8136  149.7785 H   0  0  0  0  0  0  0  0  0  0  0  0  # atno 10718 bound_to 10713
  154.8551  135.4313  154.1962 H   0  0  0  0  0  0  0  0  0  0  0  0  # atno 10763 bound_to 10752
  153.3019  135.6969  153.7201 H   0  0  0  0  0  0  0  0  0  0  0  0  # atno 10764 bound_to 10752
  153.6328  135.3482  155.3021 H   0  0  0  0  0  0  0  0  0  0  0  0  # atno 10765 bound_to 10752
  140.8820  133.7647  156.0313 H   0  0  0  0  0  0  0  0  0  0  0  0  # atno 11005 bound_to 11000
  144.6791  140.0032  143.7484 LP  0  0  0  0  0  0  0  0  0  0  0  0  # atno 17320 bound_to 7965
  146.0043  139.3116  143.0909 LP  0  0  0  0  0  0  0  0  0  0  0  0  # atno 17321 bound_to 7965
  139.9434  144.6667  150.8244 LP  0  0  0  0  0  0  0  0  0  0  0  0  # atno 17342 bound_to 10162
  140.7637  143.3229  151.2580 LP  0  0  0  0  0  0  0  0  0  0  0  0  # atno 17343 bound_to 10162
  155.9985  130.3893  150.2697 LP  0  0  0  0  0  0  0  0  0  0  0  0  # atno 17370 bound_to 10713
  157.0869  131.0159  151.3136 LP  0  0  0  0  0  0  0  0  0  0  0  0  # atno 17371 bound_to 10713
  140.8450  134.3021  157.5298 LP  0  0  0  0  0  0  0  0  0  0  0  0  # atno 17394 bound_to 11000
  139.8720  134.9437  156.3860 LP  0  0  0  0  0  0  0  0  0  0  0  0  # atno 17395 bound_to 11000

$$$$
