AV-unprocessed.smi:1644|AV-procd|sdf|6584|dock3
  -GOLD-   22720 7273D 1   1.00000     0.00000
 Structure written by MMmdl.
 49 51  0  0  0  0  0  0  0  0  1 V2000
  149.2550  132.4870  153.5378 C   0  0  0  0  0  0  0  0  0  0  0  0
  149.2448  133.9335  154.0443 C   0  0  0  0  0  0  0  0  0  0  0  0
  150.2652  134.1701  155.1692 C   0  0  0  0  0  0  0  0  0  0  0  0
  150.0697  135.5156  155.8956 C   0  0  2  0  0  0  0  0  0  0  0  0
  148.7047  135.9984  155.8232 N   0  0  0  0  0  0  0  0  0  0  0  0
  148.6110  137.1886  155.2170 C   0  0  0  0  0  0  0  0  0  0  0  0
  147.5644  137.8061  155.0258 O   0  0  0  0  0  0  0  0  0  0  0  0
  149.8464  137.5781  154.8538 N   0  0  0  0  0  0  0  0  0  0  0  0
  150.1435  138.8214  154.1349 C   0  0  0  0  0  0  0  0  0  0  0  0
  149.3816  140.0255  154.7256 C   0  0  2  0  0  0  0  0  0  0  0  0
  148.4532  140.4901  153.7647 O   0  0  0  0  0  0  0  0  0  0  0  0
  150.3364  141.1801  155.0853 C   0  0  0  0  0  0  0  0  0  0  0  0
  151.2102  140.8530  156.1981 N   0  0  0  0  0  0  0  0  0  0  0  0
  151.9882  139.7606  156.3224 C   0  0  0  0  0  0  0  0  0  0  0  0
  152.7135  139.6525  157.4320 N   0  0  0  0  0  0  0  0  0  0  0  0
  152.3660  140.8106  158.1063 C   0  0  0  0  0  0  0  0  0  0  0  0
  152.7867  141.3021  159.3614 C   0  0  0  0  0  0  0  0  0  0  0  0
  152.2904  142.5260  159.8641 C   0  0  0  0  0  0  0  0  0  0  0  0
  152.7672  143.0157  161.2200 C   0  0  0  0  0  0  0  0  0  0  0  0
  151.3589  143.2798  159.1059 C   0  0  0  0  0  0  0  0  0  0  0  0
  150.8111  144.5972  159.6258 C   0  0  0  0  0  0  0  0  0  0  0  0
  150.9289  142.8039  157.8497 C   0  0  0  0  0  0  0  0  0  0  0  0
  151.4289  141.5841  157.3608 C   0  0  0  0  0  0  0  0  0  0  0  0
  150.7668  136.6669  155.1952 C   0  0  0  0  0  0  0  0  0  0  0  0
  151.9798  136.7155  154.9908 O   0  0  0  0  0  0  0  0  0  0  0  0
  148.5294  132.3507  152.7355 H   0  0  0  0  0  0  0  0  0  0  0  0
  149.0036  131.7878  154.3357 H   0  0  0  0  0  0  0  0  0  0  0  0
  150.2360  132.2131  153.1486 H   0  0  0  0  0  0  0  0  0  0  0  0
  149.4502  134.6035  153.2087 H   0  0  0  0  0  0  0  0  0  0  0  0
  148.2447  134.1823  154.4007 H   0  0  0  0  0  0  0  0  0  0  0  0
  150.1851  133.3587  155.8943 H   0  0  0  0  0  0  0  0  0  0  0  0
  151.2753  134.1119  154.7597 H   0  0  0  0  0  0  0  0  0  0  0  0
  150.3944  135.4603  156.9354 H   0  0  0  0  0  0  0  0  0  0  0  0
  147.9195  135.4812  156.1911 H   0  0  0  0  0  0  0  0  0  0  0  0
  151.2178  139.0003  154.2045 H   0  0  0  0  0  0  0  0  0  0  0  0
  149.9391  138.7209  153.0672 H   0  0  0  0  0  0  0  0  0  0  0  0
  148.8375  139.7266  155.6228 H   0  0  0  0  0  0  0  0  0  0  0  0
  148.7720  140.2619  152.9046 H   0  0  0  0  0  0  0  0  0  0  0  0
  150.9609  141.4316  154.2269 H   0  0  0  0  0  0  0  0  0  0  0  0
  149.7739  142.0811  155.3342 H   0  0  0  0  0  0  0  0  0  0  0  0
  152.0225  139.0010  155.5552 H   0  0  0  0  0  0  0  0  0  0  0  0
  153.4961  140.7274  159.9384 H   0  0  0  0  0  0  0  0  0  0  0  0
  153.2779  143.9740  161.1217 H   0  0  0  0  0  0  0  0  0  0  0  0
  153.4631  142.3107  161.6759 H   0  0  0  0  0  0  0  0  0  0  0  0
  151.9242  143.1397  161.9001 H   0  0  0  0  0  0  0  0  0  0  0  0
  150.1241  145.0521  158.9116 H   0  0  0  0  0  0  0  0  0  0  0  0
  151.6216  145.3039  159.8065 H   0  0  0  0  0  0  0  0  0  0  0  0
  150.2701  144.4432  160.5597 H   0  0  0  0  0  0  0  0  0  0  0  0
  150.2170  143.3657  157.2629 H   0  0  0  0  0  0  0  0  0  0  0  0
  1  2  1  0  0  0  0
  1 26  1  0  0  0  0
  1 27  1  0  0  0  0
  1 28  1  0  0  0  0
  2  3  1  0  0  0  0
  2 29  1  0  0  0  0
  2 30  1  0  0  0  0
  3  4  1  0  0  0  0
  3 31  1  0  0  0  0
  3 32  1  0  0  0  0
  4 24  1  0  0  0  0
  4  5  1  0  0  0  0
  4 33  1  0  0  0  0
  5  6  1  0  0  0  0
  5 34  1  0  0  0  0
  6  7  2  0  0  0  0
  6  8  1  0  0  0  0
  8  9  1  0  0  0  0
  8 24  1  0  0  0  0
  9 10  1  0  0  0  0
  9 35  1  0  0  0  0
  9 36  1  0  0  0  0
 10 11  1  0  0  0  0
 10 12  1  0  0  0  0
 10 37  1  0  0  0  0
 11 38  1  0  0  0  0
 12 13  1  0  0  0  0
 12 39  1  0  0  0  0
 12 40  1  0  0  0  0
 13 23  1  0  0  0  0
 13 14  1  0  0  0  0
 14 15  2  0  0  0  0
 14 41  1  0  0  0  0
 15 16  1  0  0  0  0
 16 23  2  0  0  0  0
 16 17  1  0  0  0  0
 17 18  2  0  0  0  0
 17 42  1  0  0  0  0
 18 19  1  0  0  0  0
 18 20  1  0  0  0  0
 19 43  1  0  0  0  0
 19 44  1  0  0  0  0
 19 45  1  0  0  0  0
 20 21  1  0  0  0  0
 20 22  2  0  0  0  0
 21 46  1  0  0  0  0
 21 47  1  0  0  0  0
 21 48  1  0  0  0  0
 22 23  1  0  0  0  0
 22 49  1  0  0  0  0
 24 25  2  0  0  0  0
M  END
> <s_m_source_file>
AV-unprocessed.smi

> <i_m_source_file_index>
1644

> <i_lp_mmshare_version>
43012

> <i_f3d_flags>
0

> <s_epik_input>
W0NIM11bQ0gyXVtDSDJdW0NAQEhdMVtOSF1DKD1PKU4oQzE9TylbQ0gyXVtDQEhdKFtPSF0pW0NIMl1uKFtjSF1uMiljKGMyMylbY0hdYyhbQ0gzXSljKFtjSF0zKVtDSDNd

> <s_epik_cmdline>
J2VwaWtfcHl0aG9uJywgJy1waCcsICc3LjAnLCAnLXRuJywgJzgnLCAnLW1hJywgJzIwMCcsICctbWV0YWxfYmluZGluZycsICctaW1hZScsICc8aW5maWxlLm1hZT4nLCAnLW9tYWUnLCAnPG91dGZpbGUubWFlPic=

> <r_lp_tautomer_probability>
1

> <r_epik_Ionization_Penalty>
0.10693

> <r_epik_Ionization_Penalty_Charging>
0

> <r_epik_Ionization_Penalty_Neutral>
0.10693

> <r_epik_State_Penalty>
0.096713

> <r_epik_Charging_Adjusted_Penalty>
0.096713

> <i_epik_Tot_Q>
0

> <i_epik_Tot_abs_Q>
0

> <r_epik_Metal_State_Penalty>
0.102757

> <b_epik_Metal_Only>
0

> <s_lp_Force_Field>
OPLS_2005

> <r_lp_Energy>
24.4016

> <b_lp_Chiralities_Consistent>
1

> <s_lp_Variant>
AV-unprocessed.smi:1644-1

> <Gold.Version>
5.8.1

> <Gold.Id.Protein>
6NUR|6NUR_protein|mol2

> <Gold.PLP.Fitness>
53.6324

> <Gold.PLP.PLP>
-47.4178

> <Gold.PLP.part.hbond>
-2.9172

> <Gold.PLP.part.metal>
0.0000

> <Gold.PLP.part.buried>
-4.6587

> <Gold.PLP.part.nonpolar>
-39.9830

> <Gold.PLP.part.repulsive>
0.1616

> <Gold.PLP.ligand.clash>
0.0000

> <Gold.PLP.ligand.torsion>
1.4474

> <Gold.PLP.Chemscore.Hbond>
3.0000

> <Gold.PLP.Chemscore.CHOScore>
0.0000

> <Gold.PLP.Chemscore.Metal>
0.0000

> <Gold.Chemscore.Hbonds>
donor molecule, donor type, donor heavy atom, donor atom, acceptor molecule, acceptor atom, score
      L1  H    11    38       P1  7957  1.00
      P1  H  7997  8010       L1    15  1.00
      P1  H 10752 10765       L1    25  0.99

> <Gold.PLP.Chemscore.Internal.Correction>
0.1095

> <Gold.Rescore>
     Score         DG    S(hbond)    S(metal)    S(lipo)     H(rot)  DE(clash)    DE(int)     intcor
     15.70     -20.15       2.46        0.00     114.81       2.72       1.22       3.23       ----

> <Gold.Chemscore.Fitness>
15.7047

> <Gold.Chemscore.DG>
-20.1539

> <Gold.Chemscore.ZeroCoef>
-5.4800

> <Gold.Chemscore.Hbond>
2.4572

> <Gold.Chemscore.Metal>
0.0000

> <Gold.Chemscore.Lipo>
114.8129

> <Gold.Chemscore.Internal_Hbond>
0.0000

> <Gold.Chemscore.DEClash>
1.2183

> <Gold.Chemscore.DEInternal>
3.2310

> <Gold.Chemscore.Rot>
2.7212

> <Gold.Chemscore.Internal.Correction>
   9.000000E+99

> <Gold.Chemscore.Hbonds>
donor molecule, donor type, donor heavy atom, donor atom, acceptor molecule, acceptor atom, score
      L1  H    11    38       P1  7957  0.99
      P1  H  7997  8010       L1    15  0.10
      P1  H 10752 10765       L1    25  0.91

> <Gold.Chemscore.Hbond.Weighted>
-8.2071

> <Gold.Chemscore.Metal.Weighted>
-0.0000

> <Gold.Chemscore.Lipo.Weighted>
-13.4331

> <Gold.Chemscore.Internal_Hbond.Weighted>
0.0000

> <Gold.Chemscore.DEClash.Weighted>
1.2183

> <Gold.Chemscore.DEInternal.Weighted>
3.2310

> <Gold.Chemscore.Rot.Weighted>
6.9663

> <Gold.Chemscore.Internal.Correction.Weighted>
   9.000000E+99

> <Gold.Protein.RotatedTorsions>
[ 6907 6896 6895 6894 ] final   37.23 input  -60.11 | X-H torsion
[ 7974 7965 7964 7962 ] final  152.28 input  175.53 | X-H torsion
[ 8008 7997 7996 7995 ] final   53.72 input   59.86 | X-H torsion
[ 10167 10162 10161 10158 ] final -174.45 input  -65.29 | X-H torsion
[ 10718 10713 10712 10709 ] final   94.96 input   66.30 | X-H torsion
[ 10763 10752 10751 10750 ] final  175.20 input  -60.55 | X-H torsion
[ 11005 11000 10999 10996 ] final  -62.13 input  -57.11 | X-H torsion

> <Gold.Protein.ActiveResidues>
 VAL166  LYS551  ARG553  GLY616  TRP617  ASP618  TYR619  PRO620  LYS621  CYS622 
 ASP623  PHE694  ASN695  SER759  ASP760  ASP761  ALA762  ILE779  LEU786  VAL792 
 PHE793  MET794  SER795  GLU796  ALA797  LYS798  CYS799  TRP800  GLU811  SER814 

> <Gold.Protein.RotatedAtoms>
  152.1404  134.9067  160.0553 H   0  0  0  0  0  0  0  0  0  0  0  0  # atno 6907 bound_to 6896
  152.0137  133.3866  159.4238 H   0  0  0  0  0  0  0  0  0  0  0  0  # atno 6908 bound_to 6896
  150.6864  134.3624  159.5000 H   0  0  0  0  0  0  0  0  0  0  0  0  # atno 6909 bound_to 6896
  144.8233  139.6648  143.6091 H   0  0  0  0  0  0  0  0  0  0  0  0  # atno 7974 bound_to 7965
  155.4729  140.3466  155.4328 H   0  0  0  0  0  0  0  0  0  0  0  0  # atno 8008 bound_to 7997
  156.1089  140.1455  156.9395 H   0  0  0  0  0  0  0  0  0  0  0  0  # atno 8009 bound_to 7997
  154.4743  140.0890  156.7201 H   0  0  0  0  0  0  0  0  0  0  0  0  # atno 8010 bound_to 7997
  139.5633  144.1817  152.1273 H   0  0  0  0  0  0  0  0  0  0  0  0  # atno 10167 bound_to 10162
  157.6943  131.0530  150.4266 H   0  0  0  0  0  0  0  0  0  0  0  0  # atno 10718 bound_to 10713
  154.4644  135.2769  155.1689 H   0  0  0  0  0  0  0  0  0  0  0  0  # atno 10763 bound_to 10752
  154.3464  135.6159  153.5625 H   0  0  0  0  0  0  0  0  0  0  0  0  # atno 10764 bound_to 10752
  152.9858  135.5801  154.5012 H   0  0  0  0  0  0  0  0  0  0  0  0  # atno 10765 bound_to 10752
  141.1349  133.6637  156.5481 H   0  0  0  0  0  0  0  0  0  0  0  0  # atno 11005 bound_to 11000
  146.2539  139.6259  142.9408 LP  0  0  0  0  0  0  0  0  0  0  0  0  # atno 17320 bound_to 7965
  145.5056  141.0437  143.2516 LP  0  0  0  0  0  0  0  0  0  0  0  0  # atno 17321 bound_to 7965
  140.1335  144.5267  150.6788 LP  0  0  0  0  0  0  0  0  0  0  0  0  # atno 17342 bound_to 10162
  140.6915  143.2378  151.5119 LP  0  0  0  0  0  0  0  0  0  0  0  0  # atno 17343 bound_to 10162
  156.4636  130.4037  149.6561 LP  0  0  0  0  0  0  0  0  0  0  0  0  # atno 17370 bound_to 10713
  156.3667  130.7509  151.2488 LP  0  0  0  0  0  0  0  0  0  0  0  0  # atno 17371 bound_to 10713
  140.4086  134.7292  157.4822 LP  0  0  0  0  0  0  0  0  0  0  0  0  # atno 17394 bound_to 11000
  140.0444  134.6221  155.8940 LP  0  0  0  0  0  0  0  0  0  0  0  0  # atno 17395 bound_to 11000

$$$$
