AV-unprocessed.smi:1295|AV-procd|sdf|5412|dock8
  -GOLD-   22720 4573D 1   1.00000     0.00000
 Structure written by MMmdl.
 42 43  0  0  0  0  0  0  0  0  2 V2000
  147.8032  136.0027  160.7604 C   0  0  0  0  0  0  0  0  0  0  0  0
  148.5347  136.8314  159.7266 C   0  0  0  0  0  0  0  0  0  0  0  0
  147.9118  137.7706  159.1230 N   0  0  0  0  0  0  0  0  0  0  0  0
  148.5861  138.5393  158.1590 C   0  0  0  0  0  0  0  0  0  0  0  0
  147.7695  139.6335  157.4931 C   0  0  0  0  0  0  0  0  0  0  0  0
  149.8939  138.2998  157.8539 C   0  0  0  0  0  0  0  0  0  0  0  0
  150.6691  139.1072  156.8135 C   0  0  0  0  0  0  0  0  0  0  0  0
  151.6554  140.1344  157.3734 C   0  0  0  0  0  0  0  0  0  0  0  0
  152.8555  139.8699  157.4430 O   0  0  0  0  0  0  0  0  0  0  0  0
  151.1297  141.3056  157.7653 N   0  0  0  0  0  0  0  0  0  0  0  0
  151.8740  142.4503  158.2877 C   0  0  1  0  0  0  0  0  0  0  0  0
  151.0355  143.7235  158.0601 C   0  0  0  0  0  0  0  0  0  0  0  0
  151.7180  144.9687  158.6441 C   0  0  0  0  0  0  0  0  0  0  0  0
  152.0268  144.7771  160.1347 C   0  0  0  0  0  0  0  0  0  0  0  0
  152.8822  143.5221  160.3611 C   0  0  0  0  0  0  0  0  0  0  0  0
  152.2122  142.2563  159.7888 C   0  0  2  0  0  0  0  0  0  0  0  0
  153.0940  141.0211  160.0462 C   0  0  0  0  0  0  0  0  0  0  0  0
  150.5749  137.2070  158.5712 C   0  0  0  0  0  0  0  0  0  0  0  0
  151.7513  136.9414  158.3276 O   0  0  0  0  0  0  0  0  0  0  0  0
  149.8547  136.5140  159.4987 N   0  5  0  0  0  0  0  0  0  0  0  0
  146.7301  136.1962  160.7317 H   0  0  0  0  0  0  0  0  0  0  0  0
  148.1690  136.2403  161.7595 H   0  0  0  0  0  0  0  0  0  0  0  0
  147.9616  134.9393  160.5774 H   0  0  0  0  0  0  0  0  0  0  0  0
  148.1978  140.6133  157.7045 H   0  0  0  0  0  0  0  0  0  0  0  0
  146.7403  139.6331  157.8546 H   0  0  0  0  0  0  0  0  0  0  0  0
  147.7430  139.4902  156.4127 H   0  0  0  0  0  0  0  0  0  0  0  0
  151.2108  138.4071  156.1767 H   0  0  0  0  0  0  0  0  0  0  0  0
  149.9898  139.6246  156.1358 H   0  0  0  0  0  0  0  0  0  0  0  0
  150.1313  141.4225  157.6724 H   0  0  0  0  0  0  0  0  0  0  0  0
  152.8101  142.5705  157.7390 H   0  0  0  0  0  0  0  0  0  0  0  0
  150.8627  143.8689  156.9928 H   0  0  0  0  0  0  0  0  0  0  0  0
  150.0520  143.6058  158.5178 H   0  0  0  0  0  0  0  0  0  0  0  0
  152.6421  145.1695  158.1005 H   0  0  0  0  0  0  0  0  0  0  0  0
  151.0800  145.8418  158.5053 H   0  0  0  0  0  0  0  0  0  0  0  0
  152.5444  145.6549  160.5228 H   0  0  0  0  0  0  0  0  0  0  0  0
  151.0953  144.6931  160.6960 H   0  0  0  0  0  0  0  0  0  0  0  0
  153.8595  143.6622  159.8968 H   0  0  0  0  0  0  0  0  0  0  0  0
  153.0648  143.3968  161.4289 H   0  0  0  0  0  0  0  0  0  0  0  0
  151.2762  142.1074  160.3297 H   0  0  0  0  0  0  0  0  0  0  0  0
  154.0312  141.0830  159.4923 H   0  0  0  0  0  0  0  0  0  0  0  0
  152.5934  140.0990  159.7508 H   0  0  0  0  0  0  0  0  0  0  0  0
  153.3390  140.9279  161.1045 H   0  0  0  0  0  0  0  0  0  0  0  0
  1  2  1  0  0  0  0
  1 21  1  0  0  0  0
  1 22  1  0  0  0  0
  1 23  1  0  0  0  0
  2 20  1  0  0  0  0
  2  3  2  0  0  0  0
  3  4  1  0  0  0  0
  4  5  1  0  0  0  0
  4  6  2  0  0  0  0
  5 24  1  0  0  0  0
  5 25  1  0  0  0  0
  5 26  1  0  0  0  0
  6  7  1  0  0  0  0
  6 18  1  0  0  0  0
  7  8  1  0  0  0  0
  7 27  1  0  0  0  0
  7 28  1  0  0  0  0
  8  9  2  0  0  0  0
  8 10  1  0  0  0  0
 10 11  1  0  0  0  0
 10 29  1  0  0  0  0
 11 16  1  0  0  0  0
 11 12  1  0  0  0  0
 11 30  1  0  0  0  0
 12 13  1  0  0  0  0
 12 31  1  0  0  0  0
 12 32  1  0  0  0  0
 13 14  1  0  0  0  0
 13 33  1  0  0  0  0
 13 34  1  0  0  0  0
 14 15  1  0  0  0  0
 14 35  1  0  0  0  0
 14 36  1  0  0  0  0
 15 16  1  0  0  0  0
 15 37  1  0  0  0  0
 15 38  1  0  0  0  0
 16 17  1  0  0  0  0
 16 39  1  0  0  0  0
 17 40  1  0  0  0  0
 17 41  1  0  0  0  0
 17 42  1  0  0  0  0
 18 19  2  0  0  0  0
 18 20  1  0  0  0  0
M  CHG  1  20  -1
M  END
> <s_m_source_file>
AV-unprocessed.smi

> <i_m_source_file_index>
1295

> <i_lp_mmshare_version>
43012

> <i_f3d_flags>
0

> <s_epik_input>
W0NIM11jMW5jKFtDSDNdKWMoYyg9TylbbkhdMSlbQ0gyXUMoPU8pW05IXVtDQEBIXTJbQ0gyXVtDSDJdW0NIMl1bQ0gyXVtDQEhdMltDSDNd

> <s_epik_cmdline>
J2VwaWtfcHl0aG9uJywgJy1waCcsICc3LjAnLCAnLXRuJywgJzgnLCAnLW1hJywgJzIwMCcsICctbWV0YWxfYmluZGluZycsICctaW1hZScsICc8aW5maWxlLm1hZT4nLCAnLW9tYWUnLCAnPG91dGZpbGUubWFlPic=

> <r_lp_tautomer_probability>
0.839158

> <r_epik_Ionization_Penalty>
6.67742

> <r_epik_Ionization_Penalty_Charging>
7.78154e-08

> <r_epik_Ionization_Penalty_Neutral>
6.67742

> <r_epik_State_Penalty>
4.51991

> <r_epik_Charging_Adjusted_Penalty>
4.51991

> <i_epik_Tot_Q>
-1

> <i_epik_Tot_abs_Q>
1

> <r_epik_Metal_State_Penalty>
0.853272

> <b_epik_Metal_Only>
1

> <s_lp_Force_Field>
OPLS_2005

> <r_lp_Energy>
15.3241

> <b_lp_Chiralities_Consistent>
1

> <s_lp_Variant>
AV-unprocessed.smi:1295-12

> <Gold.Version>
5.8.1

> <Gold.Id.Protein>
6NUR|6NUR_protein|mol2

> <Gold.PLP.Fitness>
44.7114

> <Gold.PLP.PLP>
-36.7883

> <Gold.PLP.part.hbond>
-3.4327

> <Gold.PLP.part.metal>
0.0000

> <Gold.PLP.part.buried>
-5.5063

> <Gold.PLP.part.nonpolar>
-28.3736

> <Gold.PLP.part.repulsive>
0.0558

> <Gold.PLP.ligand.clash>
0.0000

> <Gold.PLP.ligand.torsion>
0.8147

> <Gold.PLP.Chemscore.Hbond>
3.1825

> <Gold.PLP.Chemscore.CHOScore>
0.0000

> <Gold.PLP.Chemscore.Metal>
0.0000

> <Gold.Chemscore.Hbonds>
donor molecule, donor type, donor heavy atom, donor atom, acceptor molecule, acceptor atom, score
      P1  H  6896  6908       L1    20  2.00
      P1  H  6934  6947       L1     3  0.15
      P1  H  7997  8010       L1     9  1.00

> <Gold.PLP.Chemscore.Internal.Correction>
0.0050

> <Gold.Rescore>
     Score         DG    S(hbond)    S(metal)    S(lipo)     H(rot)  DE(clash)    DE(int)     intcor
     17.32     -19.62       2.02        0.00      94.79       1.45       0.03       2.28       ----

> <Gold.Chemscore.Fitness>
17.3198

> <Gold.Chemscore.DG>
-19.6250

> <Gold.Chemscore.ZeroCoef>
-5.4800

> <Gold.Chemscore.Hbond>
2.0221

> <Gold.Chemscore.Metal>
0.0000

> <Gold.Chemscore.Lipo>
94.7893

> <Gold.Chemscore.Internal_Hbond>
0.0000

> <Gold.Chemscore.DEClash>
0.0262

> <Gold.Chemscore.DEInternal>
2.2790

> <Gold.Chemscore.Rot>
1.4450

> <Gold.Chemscore.Internal.Correction>
   9.000000E+99

> <Gold.Chemscore.Hbonds>
donor molecule, donor type, donor heavy atom, donor atom, acceptor molecule, acceptor atom, score
      P1  H  6896  6908       L1    20  0.48
      P1  H  6934  6947       L1     3  0.04
      P1  H  7997  8010       L1     9  0.98

> <Gold.Chemscore.Hbond.Weighted>
-6.7539

> <Gold.Chemscore.Metal.Weighted>
-0.0000

> <Gold.Chemscore.Lipo.Weighted>
-11.0903

> <Gold.Chemscore.Internal_Hbond.Weighted>
0.0000

> <Gold.Chemscore.DEClash.Weighted>
0.0262

> <Gold.Chemscore.DEInternal.Weighted>
2.2790

> <Gold.Chemscore.Rot.Weighted>
3.6992

> <Gold.Chemscore.Internal.Correction.Weighted>
   9.000000E+99

> <Gold.Protein.RotatedTorsions>
[ 6907 6896 6895 6894 ] final -177.21 input  -60.11 | X-H torsion
[ 7974 7965 7964 7962 ] final  100.68 input  175.53 | X-H torsion
[ 8008 7997 7996 7995 ] final   63.48 input   59.86 | X-H torsion
[ 10167 10162 10161 10158 ] final  134.20 input  -65.29 | X-H torsion
[ 10718 10713 10712 10709 ] final  -81.50 input   66.30 | X-H torsion
[ 10763 10752 10751 10750 ] final   93.95 input  -60.55 | X-H torsion
[ 11005 11000 10999 10996 ] final  -46.38 input  -57.11 | X-H torsion

> <Gold.Protein.ActiveResidues>
 VAL166  LYS551  ARG553  GLY616  TRP617  ASP618  TYR619  PRO620  LYS621  CYS622 
 ASP623  PHE694  ASN695  SER759  ASP760  ASP761  ALA762  ILE779  LEU786  VAL792 
 PHE793  MET794  SER795  GLU796  ALA797  LYS798  CYS799  TRP800  GLU811  SER814 

> <Gold.Protein.RotatedAtoms>
  151.6174  133.3342  159.3080 H   0  0  0  0  0  0  0  0  0  0  0  0  # atno 6907 bound_to 6896
  150.8124  134.7290  159.6711 H   0  0  0  0  0  0  0  0  0  0  0  0  # atno 6908 bound_to 6896
  152.4220  134.5942  160.0034 H   0  0  0  0  0  0  0  0  0  0  0  0  # atno 6909 bound_to 6896
  145.3824  139.2377  143.3396 H   0  0  0  0  0  0  0  0  0  0  0  0  # atno 7974 bound_to 7965
  155.6309  140.3496  155.4682 H   0  0  0  0  0  0  0  0  0  0  0  0  # atno 8008 bound_to 7997
  156.0004  140.1212  157.0576 H   0  0  0  0  0  0  0  0  0  0  0  0  # atno 8009 bound_to 7997
  154.4247  140.1101  156.5675 H   0  0  0  0  0  0  0  0  0  0  0  0  # atno 8010 bound_to 7997
  139.5266  144.6579  151.5105 H   0  0  0  0  0  0  0  0  0  0  0  0  # atno 10167 bound_to 10162
  156.0049  130.4606  150.3963 H   0  0  0  0  0  0  0  0  0  0  0  0  # atno 10718 bound_to 10713
  153.2361  135.4307  155.0647 H   0  0  0  0  0  0  0  0  0  0  0  0  # atno 10763 bound_to 10752
  154.8319  135.3391  154.6717 H   0  0  0  0  0  0  0  0  0  0  0  0  # atno 10764 bound_to 10752
  153.7142  135.7021  153.5086 H   0  0  0  0  0  0  0  0  0  0  0  0  # atno 10765 bound_to 10752
  141.0575  133.6720  156.3146 H   0  0  0  0  0  0  0  0  0  0  0  0  # atno 11005 bound_to 11000
  146.2836  140.4493  142.8767 LP  0  0  0  0  0  0  0  0  0  0  0  0  # atno 17320 bound_to 7965
  144.8498  140.6984  143.6175 LP  0  0  0  0  0  0  0  0  0  0  0  0  # atno 17321 bound_to 7965
  140.6413  143.8883  150.6694 LP  0  0  0  0  0  0  0  0  0  0  0  0  # atno 17342 bound_to 10162
  140.2218  143.3803  152.1636 LP  0  0  0  0  0  0  0  0  0  0  0  0  # atno 17343 bound_to 10162
  157.2034  131.0443  151.2638 LP  0  0  0  0  0  0  0  0  0  0  0  0  # atno 17370 bound_to 10713
  157.3954  130.7305  149.6728 LP  0  0  0  0  0  0  0  0  0  0  0  0  # atno 17371 bound_to 10713
  140.5935  134.5627  157.5504 LP  0  0  0  0  0  0  0  0  0  0  0  0  # atno 17394 bound_to 11000
  139.9403  134.7799  156.0696 LP  0  0  0  0  0  0  0  0  0  0  0  0  # atno 17395 bound_to 11000

$$$$
