AV-unprocessed.smi:2162|AV-procd|sdf|8803|dock2
  -GOLD-   2272011583D 1   1.00000     0.00000
 Structure written by MMmdl.
 41 42  0  0  0  0  0  0  0  0  1 V2000
  146.0923  132.8493  161.6011 C   0  0  0  0  0  0  0  0  0  0  0  0
  146.7757  134.1700  161.5076 C   0  0  0  0  0  0  0  0  0  0  0  0
  147.0758  134.7660  160.3508 N   0  0  0  0  0  0  0  0  0  0  0  0
  147.6918  136.0085  160.5296 C   0  0  0  0  0  0  0  0  0  0  0  0
  148.0523  136.8473  159.3365 C   0  0  0  0  0  0  0  0  0  0  0  0
  148.9303  136.1149  158.3002 C   0  0  0  0  0  0  0  0  0  0  0  0
  150.0307  136.9466  157.8161 N   0  0  0  0  0  0  0  0  0  0  0  0
  151.0679  137.3662  158.5585 C   0  0  0  0  0  0  0  0  0  0  0  0
  151.1608  137.1587  159.7691 O   0  0  0  0  0  0  0  0  0  0  0  0
  152.1970  138.0939  157.8120 C   0  0  1  0  0  0  0  0  0  0  0  0
  151.8198  138.4073  156.3516 C   0  0  0  0  0  0  0  0  0  0  0  0
  151.5465  139.9036  156.3642 C   0  0  0  0  0  0  0  0  0  0  0  0
  151.0517  140.4956  155.4061 O   0  0  0  0  0  0  0  0  0  0  0  0
  151.8808  140.4462  157.5429 N   0  0  0  0  0  0  0  0  0  0  0  0
  151.6428  141.8381  157.9457 C   0  0  0  0  0  0  0  0  0  0  0  0
  152.2172  142.1573  159.3381 C   0  0  0  0  0  0  0  0  0  0  0  0
  150.1432  142.1634  157.8556 C   0  0  0  0  0  0  0  0  0  0  0  0
  152.4870  139.4713  158.4392 C   0  0  0  0  0  0  0  0  0  0  0  0
  147.8844  136.3310  161.8504 C   0  0  0  0  0  0  0  0  0  0  0  0
  147.2686  135.0997  162.9171 S   0  0  0  0  0  0  0  0  0  0  0  0
  145.6083  132.6005  160.6562 H   0  0  0  0  0  0  0  0  0  0  0  0
  145.3336  132.8759  162.3833 H   0  0  0  0  0  0  0  0  0  0  0  0
  146.8171  132.0715  161.8411 H   0  0  0  0  0  0  0  0  0  0  0  0
  147.1414  137.1904  158.8442 H   0  0  0  0  0  0  0  0  0  0  0  0
  148.5661  137.7523  159.6617 H   0  0  0  0  0  0  0  0  0  0  0  0
  149.3516  135.2146  158.7480 H   0  0  0  0  0  0  0  0  0  0  0  0
  148.3129  135.7754  157.4669 H   0  0  0  0  0  0  0  0  0  0  0  0
  150.0354  137.1656  156.8305 H   0  0  0  0  0  0  0  0  0  0  0  0
  153.0966  137.4768  157.8398 H   0  0  0  0  0  0  0  0  0  0  0  0
  152.6516  138.1980  155.6784 H   0  0  0  0  0  0  0  0  0  0  0  0
  150.9495  137.8552  155.9928 H   0  0  0  0  0  0  0  0  0  0  0  0
  152.1646  142.4849  157.2382 H   0  0  0  0  0  0  0  0  0  0  0  0
  152.1156  143.2193  159.5633 H   0  0  0  0  0  0  0  0  0  0  0  0
  153.2784  141.9127  159.3925 H   0  0  0  0  0  0  0  0  0  0  0  0
  151.7028  141.6088  160.1277 H   0  0  0  0  0  0  0  0  0  0  0  0
  149.9509  143.2044  158.1161 H   0  0  0  0  0  0  0  0  0  0  0  0
  149.5617  141.5375  158.5328 H   0  0  0  0  0  0  0  0  0  0  0  0
  149.7620  142.0017  156.8466 H   0  0  0  0  0  0  0  0  0  0  0  0
  152.0828  139.5668  159.4477 H   0  0  0  0  0  0  0  0  0  0  0  0
  153.5620  139.6468  158.4952 H   0  0  0  0  0  0  0  0  0  0  0  0
  148.3332  137.2238  162.2592 H   0  0  0  0  0  0  0  0  0  0  0  0
  1  2  1  0  0  0  0
  1 21  1  0  0  0  0
  1 22  1  0  0  0  0
  1 23  1  0  0  0  0
  2 20  1  0  0  0  0
  2  3  2  0  0  0  0
  3  4  1  0  0  0  0
  4  5  1  0  0  0  0
  4 19  2  0  0  0  0
  5  6  1  0  0  0  0
  5 24  1  0  0  0  0
  5 25  1  0  0  0  0
  6  7  1  0  0  0  0
  6 26  1  0  0  0  0
  6 27  1  0  0  0  0
  7  8  1  0  0  0  0
  7 28  1  0  0  0  0
  8  9  2  0  0  0  0
  8 10  1  0  0  0  0
 10 18  1  0  0  0  0
 10 11  1  0  0  0  0
 10 29  1  0  0  0  0
 11 12  1  0  0  0  0
 11 30  1  0  0  0  0
 11 31  1  0  0  0  0
 12 13  2  0  0  0  0
 12 14  1  0  0  0  0
 14 15  1  0  0  0  0
 14 18  1  0  0  0  0
 15 16  1  0  0  0  0
 15 17  1  0  0  0  0
 15 32  1  0  0  0  0
 16 33  1  0  0  0  0
 16 34  1  0  0  0  0
 16 35  1  0  0  0  0
 17 36  1  0  0  0  0
 17 37  1  0  0  0  0
 17 38  1  0  0  0  0
 18 39  1  0  0  0  0
 18 40  1  0  0  0  0
 19 20  1  0  0  0  0
 19 41  1  0  0  0  0
M  END
> <s_m_source_file>
AV-unprocessed.smi

> <i_m_source_file_index>
2162

> <i_lp_mmshare_version>
43012

> <i_f3d_flags>
0

> <s_epik_input>
W0NIM11jMW5jKFtjSF1zMSlbQ0gyXVtDSDJdW05IXUMoPU8pW0NAQEhdMltDSDJdQyg9TylOKFtDSDJdMilbQ0hdKFtDSDNdKVtDSDNd

> <s_epik_cmdline>
J2VwaWtfcHl0aG9uJywgJy1waCcsICc3LjAnLCAnLXRuJywgJzgnLCAnLW1hJywgJzIwMCcsICctbWV0YWxfYmluZGluZycsICctaW1hZScsICc8aW5maWxlLm1hZT4nLCAnLW9tYWUnLCAnPG91dGZpbGUubWFlPic=

> <r_epik_Ionization_Penalty>
0.000973993

> <r_epik_Ionization_Penalty_Charging>
0

> <r_epik_Ionization_Penalty_Neutral>
0.000973993

> <r_epik_State_Penalty>
0.000633765

> <r_epik_Charging_Adjusted_Penalty>
0.000633765

> <i_epik_Tot_Q>
0

> <i_epik_Tot_abs_Q>
0

> <r_epik_Metal_State_Penalty>
-0

> <b_epik_Metal_Only>
0

> <s_lp_Force_Field>
OPLS_2005

> <r_lp_Energy>
12.9276

> <b_lp_Chiralities_Consistent>
1

> <s_lp_Variant>
AV-unprocessed.smi:2162-2

> <Gold.Version>
5.8.1

> <Gold.Id.Protein>
6NUR|6NUR_protein|mol2

> <Gold.PLP.Fitness>
39.1844

> <Gold.PLP.PLP>
-34.7020

> <Gold.PLP.part.hbond>
-1.9367

> <Gold.PLP.part.metal>
0.0000

> <Gold.PLP.part.buried>
-5.1404

> <Gold.PLP.part.nonpolar>
-27.9981

> <Gold.PLP.part.repulsive>
0.1065

> <Gold.PLP.ligand.clash>
0.5509

> <Gold.PLP.ligand.torsion>
0.4804

> <Gold.PLP.Chemscore.Hbond>
1.9750

> <Gold.PLP.Chemscore.CHOScore>
0.0000

> <Gold.PLP.Chemscore.Metal>
0.0000

> <Gold.Chemscore.Hbonds>
donor molecule, donor type, donor heavy atom, donor atom, acceptor molecule, acceptor atom, score
      P1  H  6896  6907       L1     9  1.00
      P1  H  7989  7998       L1    13  0.94

> <Gold.PLP.Chemscore.Internal.Correction>
0.0691

> <Gold.Rescore>
     Score         DG    S(hbond)    S(metal)    S(lipo)     H(rot)  DE(clash)    DE(int)     intcor
     16.97     -17.52       1.93        0.00      83.95       1.66       0.14       0.41       ----

> <Gold.Chemscore.Fitness>
16.9651

> <Gold.Chemscore.DG>
-17.5175

> <Gold.Chemscore.ZeroCoef>
-5.4800

> <Gold.Chemscore.Hbond>
1.9346

> <Gold.Chemscore.Metal>
0.0000

> <Gold.Chemscore.Lipo>
83.9460

> <Gold.Chemscore.Internal_Hbond>
0.0000

> <Gold.Chemscore.DEClash>
0.1436

> <Gold.Chemscore.DEInternal>
0.4088

> <Gold.Chemscore.Rot>
1.6585

> <Gold.Chemscore.Internal.Correction>
   9.000000E+99

> <Gold.Chemscore.Hbonds>
donor molecule, donor type, donor heavy atom, donor atom, acceptor molecule, acceptor atom, score
      P1  H  6896  6907       L1     9  0.52
      P1  H  7989  7998       L1    13  0.85

> <Gold.Chemscore.Hbond.Weighted>
-6.4615

> <Gold.Chemscore.Metal.Weighted>
-0.0000

> <Gold.Chemscore.Lipo.Weighted>
-9.8217

> <Gold.Chemscore.Internal_Hbond.Weighted>
0.0000

> <Gold.Chemscore.DEClash.Weighted>
0.1436

> <Gold.Chemscore.DEInternal.Weighted>
0.4088

> <Gold.Chemscore.Rot.Weighted>
4.2457

> <Gold.Chemscore.Internal.Correction.Weighted>
   9.000000E+99

> <Gold.Protein.RotatedTorsions>
[ 6907 6896 6895 6894 ] final   -8.88 input  -60.11 | X-H torsion
[ 7974 7965 7964 7962 ] final -167.99 input  175.53 | X-H torsion
[ 8008 7997 7996 7995 ] final  -39.10 input   59.86 | X-H torsion
[ 10167 10162 10161 10158 ] final   86.28 input  -65.29 | X-H torsion
[ 10718 10713 10712 10709 ] final  133.47 input   66.30 | X-H torsion
[ 10763 10752 10751 10750 ] final   21.71 input  -60.55 | X-H torsion
[ 11005 11000 10999 10996 ] final -155.46 input  -57.11 | X-H torsion

> <Gold.Protein.ActiveResidues>
 VAL166  LYS551  ARG553  GLY616  TRP617  ASP618  TYR619  PRO620  LYS621  CYS622 
 ASP623  PHE694  ASN695  SER759  ASP760  ASP761  ALA762  ILE779  LEU786  VAL792 
 PHE793  MET794  SER795  GLU796  ALA797  LYS798  CYS799  TRP800  GLU811  SER814 

> <Gold.Protein.RotatedAtoms>
  151.4266  135.1004  159.9629 H   0  0  0  0  0  0  0  0  0  0  0  0  # atno 6907 bound_to 6896
  152.4970  133.8656  159.7283 H   0  0  0  0  0  0  0  0  0  0  0  0  # atno 6908 bound_to 6896
  150.9185  133.6852  159.2865 H   0  0  0  0  0  0  0  0  0  0  0  0  # atno 6909 bound_to 6896
  144.7212  140.2436  143.6288 H   0  0  0  0  0  0  0  0  0  0  0  0  # atno 7974 bound_to 7965
  154.4027  140.1560  156.2808 H   0  0  0  0  0  0  0  0  0  0  0  0  # atno 8008 bound_to 7997
  155.8871  140.3440  155.5907 H   0  0  0  0  0  0  0  0  0  0  0  0  # atno 8009 bound_to 7997
  155.7601  140.0816  157.2150 H   0  0  0  0  0  0  0  0  0  0  0  0  # atno 8010 bound_to 7997
  139.8891  144.6396  150.8758 H   0  0  0  0  0  0  0  0  0  0  0  0  # atno 10167 bound_to 10162
  157.4769  131.1083  150.9731 H   0  0  0  0  0  0  0  0  0  0  0  0  # atno 10718 bound_to 10713
  153.0973  135.6663  153.9738 H   0  0  0  0  0  0  0  0  0  0  0  0  # atno 10763 bound_to 10752
  153.9318  135.3003  155.3447 H   0  0  0  0  0  0  0  0  0  0  0  0  # atno 10764 bound_to 10752
  154.7393  135.5087  153.9169 H   0  0  0  0  0  0  0  0  0  0  0  0  # atno 10765 bound_to 10752
  140.6863  134.4090  157.5223 H   0  0  0  0  0  0  0  0  0  0  0  0  # atno 11005 bound_to 11000
  145.8295  139.2080  143.1891 LP  0  0  0  0  0  0  0  0  0  0  0  0  # atno 17320 bound_to 7965
  146.0443  140.8134  142.9813 LP  0  0  0  0  0  0  0  0  0  0  0  0  # atno 17321 bound_to 7965
  140.7730  143.3524  151.1987 LP  0  0  0  0  0  0  0  0  0  0  0  0  # atno 17342 bound_to 10162
  139.7126  143.9352  152.2953 LP  0  0  0  0  0  0  0  0  0  0  0  0  # atno 17343 bound_to 10162
  157.0477  130.5774  149.5365 LP  0  0  0  0  0  0  0  0  0  0  0  0  # atno 17370 bound_to 10713
  156.0102  130.5192  150.7962 LP  0  0  0  0  0  0  0  0  0  0  0  0  # atno 17371 bound_to 10713
  139.8937  134.8725  156.2213 LP  0  0  0  0  0  0  0  0  0  0  0  0  # atno 17394 bound_to 11000
  141.0277  133.7005  156.1377 LP  0  0  0  0  0  0  0  0  0  0  0  0  # atno 17395 bound_to 11000

$$$$
