#       Name:                AV-unprocessed.smi:49
#       Creating user name   scv26
#       Creation time:       Thu Mar 26 16:34:28 2020


#       File generated by GOLD software.
#

@<TRIPOS>MOLECULE
AV-unprocessed.smi:49
    32    33     1
SMALL
NO_CHARGES


@<TRIPOS>ATOM
      1 ****        -3.9416   1.3314  -1.6058 C.3            1 S1                 0.0000
      2 ****        -3.5386  -0.1123  -1.2871 C.3            1 S1                 0.0000
      3 ****        -2.0702  -0.2617  -1.0581 C.2            1 S1                 0.0000
      4 ****        -1.5380  -0.2519   0.1725 N.pl3          1 S1                 0.0000
      5 ****        -0.2250  -0.3910  -0.0638 C.2            1 S1                 0.0000
      6 ****         0.7718  -0.4244   1.0594 C.3            1 S1                 0.0000
      7 ****         1.6217   0.8499   1.1776 C.3            1 S1                 0.0000
      8 ****         2.9025   0.5122   0.4164 C.3            1 S1                 0.0000
      9 ****         4.0093   1.2630   0.8692 O.3            1 S1                 0.0000
     10 ****         3.0673  -0.9858   0.6710 C.3            1 S1                 0.0000
     11 ****         1.6950  -1.5236   0.6972 N.4            1 S1                 1.0000
     12 ****         0.0607  -0.4757  -1.3697 N.2            1 S1                 0.0000
     13 ****        -1.1556  -0.3904  -2.0234 N.2            1 S1                 0.0000
     14 ****         0.2640  -0.6491   1.9984 H              1 S1                 0.0000
     15 ****         2.7561   0.6918  -0.6498 H              1 S1                 0.0000
     16 ****        -2.0132  -0.1569   1.0587 H              1 S1                 0.0000
     17 ****        -5.0167   1.4076  -1.7686 H              1 S1                 0.0000
     18 ****        -3.4425   1.6895  -2.5067 H              1 S1                 0.0000
     19 ****        -3.6795   2.0028  -0.7877 H              1 S1                 0.0000
     20 ****        -4.0747  -0.4614  -0.4039 H              1 S1                 0.0000
     21 ****        -3.8321  -0.7679  -2.1077 H              1 S1                 0.0000
     22 ****         1.1190   1.7462   0.8121 H              1 S1                 0.0000
     23 ****         1.8609   1.0150   2.2294 H              1 S1                 0.0000
     24 ****         4.1237   1.1141   1.7955 H              1 S1                 0.0000
     25 ****         3.6818  -1.4799  -0.0820 H              1 S1                 0.0000
     26 ****         3.5200  -1.1611   1.6480 H              1 S1                 0.0000
     27 ****         1.6205  -2.2965   1.3427 H              1 S1                 0.0000
     28 ****         1.4533  -1.8329  -0.2341 H              1 S1                 0.0000
     29 ****         3.8451   2.2354   0.7037 LP             1 S1                 0.0000
     30 ****         4.8324   0.9757   0.3793 LP             1 S1                 0.0000
     31 ****         0.9644  -0.5790  -1.7853 LP             1 S1                 0.0000
     32 ****        -1.3162  -0.4191  -3.0100 LP             1 S1                 0.0000
@<TRIPOS>BOND
    1    1    2 1     
    2    1   17 1     
    3    1   18 1     
    4    1   19 1     
    5    2   20 1     
    6    2   21 1     
    7    2    3 1     
    8    3    4 1     
    9    3   13 2     
   10    4   16 1     
   11    4    5 1     
   12    5   12 2     
   13    5    6 1     
   14    6   14 1     
   15    6   11 1     
   16    6    7 1     
   17    7    8 1     
   18    7   22 1     
   19    7   23 1     
   20    8   15 1     
   21    8    9 1     
   22    8   10 1     
   23    9   24 1     
   24   10   11 1     
   25   10   25 1     
   26   10   26 1     
   27   11   27 1     
   28   11   28 1     
   29   12   13 1     
   30    9   29 1     
   31    9   30 1     
   32   12   31 1     
   33   13   32 1     
@<TRIPOS>SUBSTRUCTURE
      1 S1             1
@<TRIPOS>SET
LONE_PAIRS      STATIC     ATOMS    <user>   **** ""
4 29 30 31 32
DONOR_HYDROGENS      STATIC     ATOMS    <user>   **** ""
4 16 24 27 28
ATOM$BLUE        STATIC     ATOMS    COLORGROUP SYSTEM
4 29 30 31 32
ATOM$RED        STATIC     ATOMS    COLORGROUP SYSTEM
4 16 24 27 28
