AV-unprocessed.smi:3056|AV-procd|sdf|11649|dock4
  -GOLD-   2272017 43D 1   1.00000     0.00000
 Structure written by MMmdl.
 48 49  0  0  0  0  0  0  0  0  2 V2000
  144.0810  131.9834  149.4801 C   0  0  0  0  0  0  0  0  0  0  0  0
  144.8026  133.0977  150.1821 C   0  0  0  0  0  0  0  0  0  0  0  0
  146.1686  133.1389  150.5810 C   0  0  0  0  0  0  0  0  0  0  0  0
  146.4944  134.2723  151.1798 N   0  0  0  0  0  0  0  0  0  0  0  0
  145.3523  134.9952  151.1854 N   0  0  0  0  0  0  0  0  0  0  0  0
  145.3335  136.3294  151.7716 C   0  0  2  0  0  0  0  0  0  0  0  0
  146.0346  137.3218  150.8244 C   0  0  0  0  0  0  0  0  0  0  0  0
  145.9101  136.3347  153.2151 C   0  0  2  0  0  0  0  0  0  0  0  0
  144.8321  136.6123  154.2794 C   0  0  0  0  0  0  0  0  0  0  0  0
  146.9855  137.3463  153.3541 N   0  3  0  0  0  0  0  0  0  0  0  0
  147.3041  137.7554  154.7426 C   0  0  0  0  0  0  0  0  0  0  0  0
  147.5350  139.2689  154.8964 C   0  0  0  0  0  0  0  0  0  0  0  0
  146.6040  139.9741  155.2886 O   0  0  0  0  0  0  0  0  0  0  0  0
  148.7496  139.7835  154.5887 N   0  0  0  0  0  0  0  0  0  0  0  0
  149.1606  141.1825  154.7430 C   0  0  0  0  0  0  0  0  0  0  0  0
  150.2920  141.2435  155.7842 C   0  0  0  0  0  0  0  0  0  0  0  0
  151.3718  140.4103  155.3699 O   0  0  0  0  0  0  0  0  0  0  0  0
  150.9981  139.0450  155.1931 C   0  0  2  0  0  0  0  0  0  0  0  0
  152.2444  138.2557  154.7783 C   0  0  0  0  0  0  0  0  0  0  0  0
  149.8774  138.9627  154.1375 C   0  0  0  0  0  0  0  0  0  0  0  0
  144.3165  134.3086  150.5865 C   0  0  0  0  0  0  0  0  0  0  0  0
  144.5805  131.0250  149.6231 H   0  0  0  0  0  0  0  0  0  0  0  0
  144.0222  132.1584  148.4058 H   0  0  0  0  0  0  0  0  0  0  0  0
  143.0597  131.8701  149.8447 H   0  0  0  0  0  0  0  0  0  0  0  0
  146.9290  132.3826  150.4532 H   0  0  0  0  0  0  0  0  0  0  0  0
  144.2850  136.6260  151.8321 H   0  0  0  0  0  0  0  0  0  0  0  0
  145.8953  138.3531  151.1479 H   0  0  0  0  0  0  0  0  0  0  0  0
  145.6301  137.2478  149.8143 H   0  0  0  0  0  0  0  0  0  0  0  0
  147.1068  137.1308  150.7654 H   0  0  0  0  0  0  0  0  0  0  0  0
  146.3221  135.3480  153.4333 H   0  0  0  0  0  0  0  0  0  0  0  0
  144.0670  135.8359  154.2952 H   0  0  0  0  0  0  0  0  0  0  0  0
  144.3350  137.5663  154.1009 H   0  0  0  0  0  0  0  0  0  0  0  0
  145.2672  136.6479  155.2783 H   0  0  0  0  0  0  0  0  0  0  0  0
  147.8190  136.9752  152.9220 H   0  0  0  0  0  0  0  0  0  0  0  0
  146.5118  137.4222  155.4129 H   0  0  0  0  0  0  0  0  0  0  0  0
  148.2195  137.2416  155.0374 H   0  0  0  0  0  0  0  0  0  0  0  0
  149.5156  141.5597  153.7827 H   0  0  0  0  0  0  0  0  0  0  0  0
  148.3572  141.8507  155.0476 H   0  0  0  0  0  0  0  0  0  0  0  0
  150.6553  142.2659  155.8875 H   0  0  0  0  0  0  0  0  0  0  0  0
  149.9341  140.9302  156.7663 H   0  0  0  0  0  0  0  0  0  0  0  0
  150.6362  138.6508  156.1445 H   0  0  0  0  0  0  0  0  0  0  0  0
  152.0127  137.1994  154.6413 H   0  0  0  0  0  0  0  0  0  0  0  0
  153.0227  138.3288  155.5382 H   0  0  0  0  0  0  0  0  0  0  0  0
  152.6569  138.6322  153.8418 H   0  0  0  0  0  0  0  0  0  0  0  0
  149.6025  137.9202  153.9712 H   0  0  0  0  0  0  0  0  0  0  0  0
  150.2320  139.3368  153.1757 H   0  0  0  0  0  0  0  0  0  0  0  0
  143.3272  134.7332  150.4984 H   0  0  0  0  0  0  0  0  0  0  0  0
  146.7078  138.1779  152.8518 H   0  0  0  0  0  0  0  0  0  0  0  0
  1  2  1  0  0  0  0
  1 22  1  0  0  0  0
  1 23  1  0  0  0  0
  1 24  1  0  0  0  0
  2 21  2  0  0  0  0
  2  3  1  0  0  0  0
  3  4  2  0  0  0  0
  3 25  1  0  0  0  0
  4  5  1  0  0  0  0
  5  6  1  0  0  0  0
  5 21  1  0  0  0  0
  6  7  1  0  0  0  0
  6  8  1  0  0  0  0
  6 26  1  0  0  0  0
  7 27  1  0  0  0  0
  7 28  1  0  0  0  0
  7 29  1  0  0  0  0
  8  9  1  0  0  0  0
  8 10  1  0  0  0  0
  8 30  1  0  0  0  0
  9 31  1  0  0  0  0
  9 32  1  0  0  0  0
  9 33  1  0  0  0  0
 10 11  1  0  0  0  0
 10 34  1  0  0  0  0
 10 48  1  0  0  0  0
 11 12  1  0  0  0  0
 11 35  1  0  0  0  0
 11 36  1  0  0  0  0
 12 13  2  0  0  0  0
 12 14  1  0  0  0  0
 14 20  1  0  0  0  0
 14 15  1  0  0  0  0
 15 16  1  0  0  0  0
 15 37  1  0  0  0  0
 15 38  1  0  0  0  0
 16 17  1  0  0  0  0
 16 39  1  0  0  0  0
 16 40  1  0  0  0  0
 17 18  1  0  0  0  0
 18 19  1  0  0  0  0
 18 20  1  0  0  0  0
 18 41  1  0  0  0  0
 19 42  1  0  0  0  0
 19 43  1  0  0  0  0
 19 44  1  0  0  0  0
 20 45  1  0  0  0  0
 20 46  1  0  0  0  0
 21 47  1  0  0  0  0
M  CHG  1  10   1
M  END
> <s_m_source_file>
AV-unprocessed.smi

> <i_m_source_file_index>
3056

> <i_lp_mmshare_version>
43012

> <i_f3d_flags>
0

> <s_epik_input>
W0NIM11jMVtjSF1ubihbY0hdMSlbQ0BIXShbQ0gzXSlbQ0BIXShbQ0gzXSlbTkhdW0NIMl1DKD1PKU4yW0NIMl1bQ0gyXU9bQ0BASF0oW0NIM10pW0NIMl0y

> <s_epik_cmdline>
J2VwaWtfcHl0aG9uJywgJy1waCcsICc3LjAnLCAnLXRuJywgJzgnLCAnLW1hJywgJzIwMCcsICctbWV0YWxfYmluZGluZycsICctaW1hZScsICc8aW5maWxlLm1hZT4nLCAnLW9tYWUnLCAnPG91dGZpbGUubWFlPic=

> <r_lp_tautomer_probability>
1

> <r_epik_Ionization_Penalty>
0.233715

> <r_epik_Ionization_Penalty_Charging>
0.233698

> <r_epik_Ionization_Penalty_Neutral>
1.68157e-05

> <r_epik_State_Penalty>
0.225221

> <r_epik_Charging_Adjusted_Penalty>
0.458919

> <i_epik_Tot_Q>
1

> <i_epik_Tot_abs_Q>
1

> <r_epik_Metal_State_Penalty>
0.225535

> <b_epik_Metal_Only>
0

> <s_lp_Force_Field>
OPLS_2005

> <r_lp_Energy>
28.5623

> <b_lp_Chiralities_Consistent>
1

> <s_lp_Variant>
AV-unprocessed.smi:3056-5

> <Gold.Version>
5.8.1

> <Gold.Id.Protein>
6NUR|6NUR_protein|mol2

> <Gold.PLP.Fitness>
43.8403

> <Gold.PLP.PLP>
-35.7726

> <Gold.PLP.part.hbond>
-2.0000

> <Gold.PLP.part.metal>
0.0000

> <Gold.PLP.part.buried>
2.4692

> <Gold.PLP.part.nonpolar>
-37.0873

> <Gold.PLP.part.repulsive>
0.3094

> <Gold.PLP.ligand.clash>
1.7061

> <Gold.PLP.ligand.torsion>
2.5467

> <Gold.PLP.Chemscore.Hbond>
2.9120

> <Gold.PLP.Chemscore.CHOScore>
1.9996

> <Gold.PLP.Chemscore.Metal>
0.0000

> <Gold.Chemscore.Hbonds>
donor molecule, donor type, donor heavy atom, donor atom, acceptor molecule, acceptor atom, score
      L1  H    10    34       P1  7948  2.00
      P1  H  7989  7998       L1    17  0.87
      L1  C     3    25       P1 10747  0.94
      L1  C    21    47       P1 10186  1.00

> <Gold.PLP.Chemscore.Internal.Correction>
0.1325

> <Gold.Rescore>
     Score         DG    S(hbond)    S(metal)    S(lipo)     H(rot)  DE(clash)    DE(int)     intcor
     11.69     -15.92       1.07        0.00      96.56       1.74       1.58       2.66       ----

> <Gold.Chemscore.Fitness>
11.6870

> <Gold.Chemscore.DG>
-15.9190

> <Gold.Chemscore.ZeroCoef>
-5.4800

> <Gold.Chemscore.Hbond>
1.0730

> <Gold.Chemscore.Metal>
0.0000

> <Gold.Chemscore.Lipo>
96.5609

> <Gold.Chemscore.Internal_Hbond>
0.0000

> <Gold.Chemscore.DEClash>
1.5764

> <Gold.Chemscore.DEInternal>
2.6556

> <Gold.Chemscore.Rot>
1.7354

> <Gold.Chemscore.Internal.Correction>
   9.000000E+99

> <Gold.Chemscore.Hbonds>
donor molecule, donor type, donor heavy atom, donor atom, acceptor molecule, acceptor atom, score
      L1  H    10    34       P1  7948  1.00
      P1  H  7989  7998       L1    17  0.09

> <Gold.Chemscore.Hbond.Weighted>
-3.5840

> <Gold.Chemscore.Metal.Weighted>
-0.0000

> <Gold.Chemscore.Lipo.Weighted>
-11.2976

> <Gold.Chemscore.Internal_Hbond.Weighted>
0.0000

> <Gold.Chemscore.DEClash.Weighted>
1.5764

> <Gold.Chemscore.DEInternal.Weighted>
2.6556

> <Gold.Chemscore.Rot.Weighted>
4.4426

> <Gold.Chemscore.Internal.Correction.Weighted>
   9.000000E+99

> <Gold.Protein.RotatedTorsions>
[ 6907 6896 6895 6894 ] final   77.39 input  -60.11 | X-H torsion
[ 7974 7965 7964 7962 ] final  -75.91 input  175.53 | X-H torsion
[ 8008 7997 7996 7995 ] final -107.39 input   59.86 | X-H torsion
[ 10167 10162 10161 10158 ] final -124.91 input  -65.29 | X-H torsion
[ 10718 10713 10712 10709 ] final  151.03 input   66.30 | X-H torsion
[ 10763 10752 10751 10750 ] final  -39.42 input  -60.55 | X-H torsion
[ 11005 11000 10999 10996 ] final  -55.51 input  -57.11 | X-H torsion

> <Gold.Protein.ActiveResidues>
 VAL166  LYS551  ARG553  GLY616  TRP617  ASP618  TYR619  PRO620  LYS621  CYS622 
 ASP623  PHE694  ASN695  SER759  ASP760  ASP761  ALA762  ILE779  LEU786  VAL792 
 PHE793  MET794  SER795  GLU796  ALA797  LYS798  CYS799  TRP800  GLU811  SER814 

> <Gold.Protein.RotatedAtoms>
  152.5115  134.3824  159.9355 H   0  0  0  0  0  0  0  0  0  0  0  0  # atno 6907 bound_to 6896
  151.3781  133.3824  159.2715 H   0  0  0  0  0  0  0  0  0  0  0  0  # atno 6908 bound_to 6896
  150.9525  134.8944  159.7739 H   0  0  0  0  0  0  0  0  0  0  0  0  # atno 6909 bound_to 6896
  145.6198  140.9366  143.1144 H   0  0  0  0  0  0  0  0  0  0  0  0  # atno 7974 bound_to 7965
  154.9287  140.0405  157.2036 H   0  0  0  0  0  0  0  0  0  0  0  0  # atno 8008 bound_to 7997
  154.8182  140.2879  155.5783 H   0  0  0  0  0  0  0  0  0  0  0  0  # atno 8009 bound_to 7997
  156.2977  140.2524  156.3084 H   0  0  0  0  0  0  0  0  0  0  0  0  # atno 8010 bound_to 7997
  139.9878  143.5673  152.2354 H   0  0  0  0  0  0  0  0  0  0  0  0  # atno 10167 bound_to 10162
  157.2758  131.0826  151.1567 H   0  0  0  0  0  0  0  0  0  0  0  0  # atno 10718 bound_to 10713
  153.9292  135.6774  153.4746 H   0  0  0  0  0  0  0  0  0  0  0  0  # atno 10763 bound_to 10752
  153.0988  135.4838  154.8826 H   0  0  0  0  0  0  0  0  0  0  0  0  # atno 10764 bound_to 10752
  154.7437  135.3167  154.8640 H   0  0  0  0  0  0  0  0  0  0  0  0  # atno 10765 bound_to 10752
  141.1077  133.6612  156.4481 H   0  0  0  0  0  0  0  0  0  0  0  0  # atno 11005 bound_to 11000
  144.7236  139.7949  143.7373 LP  0  0  0  0  0  0  0  0  0  0  0  0  # atno 17320 bound_to 7965
  146.1440  139.4504  143.0091 LP  0  0  0  0  0  0  0  0  0  0  0  0  # atno 17321 bound_to 7965
  139.6362  144.7650  151.2432 LP  0  0  0  0  0  0  0  0  0  0  0  0  # atno 17342 bound_to 10162
  140.7466  143.6394  150.8349 LP  0  0  0  0  0  0  0  0  0  0  0  0  # atno 17343 bound_to 10162
  157.3020  130.6847  149.6169 LP  0  0  0  0  0  0  0  0  0  0  0  0  # atno 17370 bound_to 10713
  155.9663  130.4389  150.5236 LP  0  0  0  0  0  0  0  0  0  0  0  0  # atno 17371 bound_to 10713
  140.4858  134.6622  157.5190 LP  0  0  0  0  0  0  0  0  0  0  0  0  # atno 17394 bound_to 11000
  139.9955  134.6918  155.9616 LP  0  0  0  0  0  0  0  0  0  0  0  0  # atno 17395 bound_to 11000

$$$$
