AV-unprocessed.smi:155|AV-procd|sdf|1286|dock7
  -GOLD-   2262018563D 1   1.00000     0.00000
 Structure written by MMmdl.
 64 67  0  0  0  0  0  0  0  0  3 V2000
  146.4585  136.8726  161.2623 C   0  0  0  0  0  0  0  0  0  0  0  0
  146.2576  135.5856  160.5578 N   0  3  0  0  0  0  0  0  0  0  0  0
  146.3242  134.4390  161.4911 C   0  0  0  0  0  0  0  0  0  0  0  0
  147.1595  135.4107  159.3913 C   0  0  0  0  0  0  0  0  0  0  0  0
  146.7863  136.3304  158.2094 C   0  0  0  0  0  0  0  0  0  0  0  0
  147.6839  136.1483  157.0376 N   0  3  1  0  0  0  0  0  0  0  0  0
  147.8589  134.7220  156.6525 C   0  0  0  0  0  0  0  0  0  0  0  0
  149.3360  134.4252  156.3392 C   0  0  0  0  0  0  0  0  0  0  0  0
  149.8273  135.0237  155.0093 C   0  0  0  0  0  0  0  0  0  0  0  0
  149.5918  136.4631  154.9133 N   0  0  0  0  0  0  0  0  0  0  0  0
  150.4495  137.3767  155.4623 C   0  0  0  0  0  0  0  0  0  0  0  0
  151.7077  136.9565  155.7663 N   0  0  0  0  0  0  0  0  0  0  0  0
  152.6054  137.7870  156.3009 C   0  0  0  0  0  0  0  0  0  0  0  0
  152.4652  139.0750  156.6072 N   0  0  0  0  0  0  0  0  0  0  0  0
  151.2113  139.5171  156.3112 C   0  0  0  0  0  0  0  0  0  0  0  0
  150.1503  138.7482  155.7446 C   0  0  0  0  0  0  0  0  0  0  0  0
  149.0335  139.5654  155.5905 N   0  0  0  0  0  0  0  0  0  0  0  0
  149.4066  140.7316  156.0391 C   0  0  0  0  0  0  0  0  0  0  0  0
  150.7019  140.7906  156.4927 N   0  0  0  0  0  0  0  0  0  0  0  0
  151.3754  141.9568  157.0391 C   0  0  0  0  0  0  0  0  0  0  0  0
  151.3922  141.9615  158.5828 C   0  0  1  0  0  0  0  0  0  0  0  0
  152.0748  140.8022  159.0208 O   0  0  0  0  0  0  0  0  0  0  0  0
  152.1176  143.1855  159.1779 C   0  0  1  0  0  0  0  0  0  0  0  0
  151.6537  144.5377  158.6338 C   0  0  0  0  0  0  0  0  0  0  0  0
  152.0398  145.5116  159.7335 C   0  0  0  0  0  0  0  0  0  0  0  0
  152.1776  144.6254  160.9734 C   0  0  0  0  0  0  0  0  0  0  0  0
  151.7863  143.3255  160.5518 O   0  0  0  0  0  0  0  0  0  0  0  0
  148.2072  136.8544  154.6317 C   0  0  0  0  0  0  0  0  0  0  0  0
  147.3344  137.0389  155.8944 C   0  0  0  0  0  0  0  0  0  0  0  0
  147.4691  136.9445  161.6665 H   0  0  0  0  0  0  0  0  0  0  0  0
  145.7551  136.9699  162.0900 H   0  0  0  0  0  0  0  0  0  0  0  0
  146.2945  137.7200  160.5972 H   0  0  0  0  0  0  0  0  0  0  0  0
  147.3226  134.3398  161.9192 H   0  0  0  0  0  0  0  0  0  0  0  0
  146.0764  133.5077  160.9809 H   0  0  0  0  0  0  0  0  0  0  0  0
  145.6129  134.5639  162.3083 H   0  0  0  0  0  0  0  0  0  0  0  0
  148.1937  135.5624  159.7034 H   0  0  0  0  0  0  0  0  0  0  0  0
  147.0842  134.3759  159.0524 H   0  0  0  0  0  0  0  0  0  0  0  0
  145.7677  136.0786  157.9101 H   0  0  0  0  0  0  0  0  0  0  0  0
  146.7768  137.3797  158.5070 H   0  0  0  0  0  0  0  0  0  0  0  0
  147.5654  134.0683  157.4742 H   0  0  0  0  0  0  0  0  0  0  0  0
  147.2079  134.4548  155.8185 H   0  0  0  0  0  0  0  0  0  0  0  0
  149.9579  134.7722  157.1646 H   0  0  0  0  0  0  0  0  0  0  0  0
  149.4770  133.3448  156.2968 H   0  0  0  0  0  0  0  0  0  0  0  0
  150.8734  134.7839  154.8284 H   0  0  0  0  0  0  0  0  0  0  0  0
  149.2949  134.5373  154.1910 H   0  0  0  0  0  0  0  0  0  0  0  0
  153.5738  137.3582  156.5137 H   0  0  0  0  0  0  0  0  0  0  0  0
  148.7444  141.5854  156.0518 H   0  0  0  0  0  0  0  0  0  0  0  0
  152.3923  141.9947  156.6466 H   0  0  0  0  0  0  0  0  0  0  0  0
  150.8637  142.8408  156.6584 H   0  0  0  0  0  0  0  0  0  0  0  0
  150.3671  141.9266  158.9537 H   0  0  0  0  0  0  0  0  0  0  0  0
  152.4871  140.3954  158.2744 H   0  0  0  0  0  0  0  0  0  0  0  0
  153.1999  143.0962  159.0632 H   0  0  0  0  0  0  0  0  0  0  0  0
  152.1061  144.7871  157.6736 H   0  0  0  0  0  0  0  0  0  0  0  0
  150.5699  144.5403  158.5087 H   0  0  0  0  0  0  0  0  0  0  0  0
  152.9892  145.9995  159.5098 H   0  0  0  0  0  0  0  0  0  0  0  0
  151.2843  146.2872  159.8625 H   0  0  0  0  0  0  0  0  0  0  0  0
  153.2131  144.5998  161.3155 H   0  0  0  0  0  0  0  0  0  0  0  0
  151.5538  144.9656  161.7997 H   0  0  0  0  0  0  0  0  0  0  0  0
  148.1733  137.7501  154.0099 H   0  0  0  0  0  0  0  0  0  0  0  0
  147.7576  136.0759  154.0142 H   0  0  0  0  0  0  0  0  0  0  0  0
  146.2841  136.9125  155.6282 H   0  0  0  0  0  0  0  0  0  0  0  0
  147.4444  138.0718  156.2229 H   0  0  0  0  0  0  0  0  0  0  0  0
  145.3138  135.5949  160.1979 H   0  0  0  0  0  0  0  0  0  0  0  0
  148.5982  136.4411  157.3518 H   0  0  0  0  0  0  0  0  0  0  0  0
  1  2  1  0  0  0  0
  1 30  1  0  0  0  0
  1 31  1  0  0  0  0
  1 32  1  0  0  0  0
  2  3  1  0  0  0  0
  2  4  1  0  0  0  0
  2 63  1  0  0  0  0
  3 33  1  0  0  0  0
  3 34  1  0  0  0  0
  3 35  1  0  0  0  0
  4  5  1  0  0  0  0
  4 36  1  0  0  0  0
  4 37  1  0  0  0  0
  5  6  1  0  0  0  0
  5 38  1  0  0  0  0
  5 39  1  0  0  0  0
  6 29  1  0  0  0  0
  6  7  1  0  0  0  0
  6 64  1  0  0  0  0
  7  8  1  0  0  0  0
  7 40  1  0  0  0  0
  7 41  1  0  0  0  0
  8  9  1  0  0  0  0
  8 42  1  0  0  0  0
  8 43  1  0  0  0  0
  9 10  1  0  0  0  0
  9 44  1  0  0  0  0
  9 45  1  0  0  0  0
 10 11  1  0  0  0  0
 10 28  1  0  0  0  0
 11 16  1  0  0  0  0
 11 12  2  0  0  0  0
 12 13  1  0  0  0  0
 13 14  2  0  0  0  0
 13 46  1  0  0  0  0
 14 15  1  0  0  0  0
 15 19  1  0  0  0  0
 15 16  2  0  0  0  0
 16 17  1  0  0  0  0
 17 18  2  0  0  0  0
 18 19  1  0  0  0  0
 18 47  1  0  0  0  0
 19 20  1  0  0  0  0
 20 21  1  0  0  0  0
 20 48  1  0  0  0  0
 20 49  1  0  0  0  0
 21 22  1  0  0  0  0
 21 23  1  0  0  0  0
 21 50  1  0  0  0  0
 22 51  1  0  0  0  0
 23 27  1  0  0  0  0
 23 24  1  0  0  0  0
 23 52  1  0  0  0  0
 24 25  1  0  0  0  0
 24 53  1  0  0  0  0
 24 54  1  0  0  0  0
 25 26  1  0  0  0  0
 25 55  1  0  0  0  0
 25 56  1  0  0  0  0
 26 27  1  0  0  0  0
 26 57  1  0  0  0  0
 26 58  1  0  0  0  0
 28 29  1  0  0  0  0
 28 59  1  0  0  0  0
 28 60  1  0  0  0  0
 29 61  1  0  0  0  0
 29 62  1  0  0  0  0
M  CHG  1   2   1
M  CHG  1   6   1
M  END
> <s_m_source_file>
AV-unprocessed.smi

> <i_m_source_file_index>
155

> <i_lp_mmshare_version>
43012

> <i_f3d_flags>
0

> <s_epik_input>
W0NIM11OKFtDSDNdKVtDSDJdW0NIMl1OMVtDSDJdW0NIMl1bQ0gyXU4oW0NIMl1bQ0gyXTEpYyhuW2NIXW4yKWMoYzIzKW5bY0hdbjNbQ0gyXVtDQEhdKFtPSF0pW0NAQEhdNFtDSDJdW0NIMl1bQ0gyXU80

> <s_epik_cmdline>
J2VwaWtfcHl0aG9uJywgJy1waCcsICc3LjAnLCAnLXRuJywgJzgnLCAnLW1hJywgJzIwMCcsICctbWV0YWxfYmluZGluZycsICctaW1hZScsICc8aW5maWxlLm1hZT4nLCAnLW9tYWUnLCAnPG91dGZpbGUubWFlPic=

> <r_lp_tautomer_probability>
1

> <r_epik_Ionization_Penalty>
3.0333

> <r_epik_Ionization_Penalty_Charging>
3.03317

> <r_epik_Ionization_Penalty_Neutral>
0.000131872

> <r_epik_State_Penalty>
1.99939

> <r_epik_Charging_Adjusted_Penalty>
5.03256

> <i_epik_Tot_Q>
2

> <i_epik_Tot_abs_Q>
2

> <r_epik_Metal_State_Penalty>
2.00021

> <b_epik_Metal_Only>
0

> <s_lp_Force_Field>
OPLS_2005

> <r_lp_Energy>
62.6942

> <b_lp_Chiralities_Consistent>
1

> <s_lp_Variant>
AV-unprocessed.smi:155-20

> <Gold.Version>
5.8.1

> <Gold.Id.Protein>
6NUR|6NUR_protein|mol2

> <Gold.PLP.Fitness>
48.3115

> <Gold.PLP.PLP>
-43.1985

> <Gold.PLP.part.hbond>
-2.0000

> <Gold.PLP.part.metal>
0.0000

> <Gold.PLP.part.buried>
-7.3945

> <Gold.PLP.part.nonpolar>
-34.2169

> <Gold.PLP.part.repulsive>
0.1782

> <Gold.PLP.ligand.clash>
0.0000

> <Gold.PLP.ligand.torsion>
0.6913

> <Gold.PLP.Chemscore.Hbond>
2.0000

> <Gold.PLP.Chemscore.CHOScore>
0.0000

> <Gold.PLP.Chemscore.Metal>
0.0000

> <Gold.Chemscore.Hbonds>
donor molecule, donor type, donor heavy atom, donor atom, acceptor molecule, acceptor atom, score
      P1  H  7997  8009       L1    14  0.73
      P1  H 10752 10764       L1    12  0.69

> <Gold.PLP.Chemscore.Internal.Correction>
0.4956

> <Gold.Rescore>
     Score         DG    S(hbond)    S(metal)    S(lipo)     H(rot)  DE(clash)    DE(int)     intcor
     14.03     -16.35       1.69        0.00     104.90       2.75       0.12       2.19       ----

> <Gold.Chemscore.Fitness>
14.0327

> <Gold.Chemscore.DG>
-16.3463

> <Gold.Chemscore.ZeroCoef>
-5.4800

> <Gold.Chemscore.Hbond>
1.6860

> <Gold.Chemscore.Metal>
0.0000

> <Gold.Chemscore.Lipo>
104.9010

> <Gold.Chemscore.Internal_Hbond>
0.0000

> <Gold.Chemscore.DEClash>
0.1205

> <Gold.Chemscore.DEInternal>
2.1930

> <Gold.Chemscore.Rot>
2.7493

> <Gold.Chemscore.Internal.Correction>
   9.000000E+99

> <Gold.Chemscore.Hbonds>
donor molecule, donor type, donor heavy atom, donor atom, acceptor molecule, acceptor atom, score
      P1  H  7997  8009       L1    14  0.57
      P1  H 10752 10764       L1    12  0.16

> <Gold.Chemscore.Hbond.Weighted>
-5.6311

> <Gold.Chemscore.Metal.Weighted>
-0.0000

> <Gold.Chemscore.Lipo.Weighted>
-12.2734

> <Gold.Chemscore.Internal_Hbond.Weighted>
0.0000

> <Gold.Chemscore.DEClash.Weighted>
0.1205

> <Gold.Chemscore.DEInternal.Weighted>
2.1930

> <Gold.Chemscore.Rot.Weighted>
7.0383

> <Gold.Chemscore.Internal.Correction.Weighted>
   9.000000E+99

> <Gold.Protein.RotatedTorsions>
[ 6907 6896 6895 6894 ] final  -34.19 input  -60.11 | X-H torsion
[ 7974 7965 7964 7962 ] final   55.00 input  175.53 | X-H torsion
[ 8008 7997 7996 7995 ] final -169.99 input   59.86 | X-H torsion
[ 10167 10162 10161 10158 ] final  134.72 input  -65.29 | X-H torsion
[ 10718 10713 10712 10709 ] final   89.25 input   66.30 | X-H torsion
[ 10763 10752 10751 10750 ] final  -42.83 input  -60.55 | X-H torsion
[ 11005 11000 10999 10996 ] final -140.49 input  -57.11 | X-H torsion

> <Gold.Protein.ActiveResidues>
 VAL166  LYS551  ARG553  GLY616  TRP617  ASP618  TYR619  PRO620  LYS621  CYS622 
 ASP623  PHE694  ASN695  SER759  ASP760  ASP761  ALA762  ILE779  LEU786  VAL792 
 PHE793  MET794  SER795  GLU796  ALA797  LYS798  CYS799  TRP800  GLU811  SER814 

> <Gold.Protein.RotatedAtoms>
  151.0559  134.9704  159.8235 H   0  0  0  0  0  0  0  0  0  0  0  0  # atno 6907 bound_to 6896
  152.5388  134.2479  159.8897 H   0  0  0  0  0  0  0  0  0  0  0  0  # atno 6908 bound_to 6896
  151.2497  133.4314  159.2644 H   0  0  0  0  0  0  0  0  0  0  0  0  # atno 6909 bound_to 6896
  145.9550  139.4007  143.0283 H   0  0  0  0  0  0  0  0  0  0  0  0  # atno 7974 bound_to 7965
  155.9124  140.1059  157.1269 H   0  0  0  0  0  0  0  0  0  0  0  0  # atno 8008 bound_to 7997
  154.4041  140.1272  156.4639 H   0  0  0  0  0  0  0  0  0  0  0  0  # atno 8009 bound_to 7997
  155.7294  140.3468  155.5055 H   0  0  0  0  0  0  0  0  0  0  0  0  # atno 8010 bound_to 7997
  139.5245  144.6553  151.5179 H   0  0  0  0  0  0  0  0  0  0  0  0  # atno 10167 bound_to 10162
  157.6954  131.0326  150.3397 H   0  0  0  0  0  0  0  0  0  0  0  0  # atno 10718 bound_to 10713
  153.9856  135.6711  153.4752 H   0  0  0  0  0  0  0  0  0  0  0  0  # atno 10763 bound_to 10752
  153.0728  135.4965  154.8338 H   0  0  0  0  0  0  0  0  0  0  0  0  # atno 10764 bound_to 10752
  154.7139  135.3103  154.9116 H   0  0  0  0  0  0  0  0  0  0  0  0  # atno 10765 bound_to 10752
  140.8418  134.2393  157.4806 H   0  0  0  0  0  0  0  0  0  0  0  0  # atno 11005 bound_to 11000
  145.8119  140.9722  143.0944 LP  0  0  0  0  0  0  0  0  0  0  0  0  # atno 17320 bound_to 7965
  144.6803  139.9931  143.7484 LP  0  0  0  0  0  0  0  0  0  0  0  0  # atno 17321 bound_to 7965
  140.6376  143.8952  150.6662 LP  0  0  0  0  0  0  0  0  0  0  0  0  # atno 17342 bound_to 10162
  140.2277  143.3760  152.1591 LP  0  0  0  0  0  0  0  0  0  0  0  0  # atno 17343 bound_to 10162
  156.3860  130.3889  149.7066 LP  0  0  0  0  0  0  0  0  0  0  0  0  # atno 17370 bound_to 10713
  156.4432  130.7871  151.2892 LP  0  0  0  0  0  0  0  0  0  0  0  0  # atno 17371 bound_to 10713
  139.8703  134.9639  156.4477 LP  0  0  0  0  0  0  0  0  0  0  0  0  # atno 17394 bound_to 11000
  140.8887  133.7864  155.9547 LP  0  0  0  0  0  0  0  0  0  0  0  0  # atno 17395 bound_to 11000

$$$$
