AV-unprocessed.smi:33|AV-procd|sdf|211|dock8
  -GOLD-   2262015513D 1   1.00000     0.00000
 Structure written by MMmdl.
 67 72  0  0  0  0  0  0  0  0  1 V2000
  150.9922  144.5136  159.0956 O   0  0  0  0  0  0  0  0  0  0  0  0
  151.6912  143.5082  159.2372 C   0  0  0  0  0  0  0  0  0  0  0  0
  151.9056  142.6059  158.2597 O   0  0  0  0  0  0  0  0  0  0  0  0
  151.0739  142.5951  157.1110 C   0  0  0  0  0  0  0  0  0  0  0  0
  149.8971  141.6318  157.3367 C   0  0  2  0  0  0  0  0  0  0  0  0
  150.3495  140.5192  158.0949 O   0  0  0  0  0  0  0  0  0  0  0  0
  150.8245  139.5227  157.2413 C   0  0  1  0  0  0  0  0  0  0  0  0
  150.3394  138.2196  157.7813 N   0  0  0  0  0  0  0  0  0  0  0  0
  151.0814  137.1330  158.1918 C   0  0  0  0  0  0  0  0  0  0  0  0
  150.3870  136.1102  158.6130 N   0  0  0  0  0  0  0  0  0  0  0  0
  149.0676  136.5226  158.4772 C   0  0  0  0  0  0  0  0  0  0  0  0
  147.8096  135.9162  158.7375 C   0  0  0  0  0  0  0  0  0  0  0  0
  147.6868  134.6635  159.2346 N   0  0  0  0  0  0  0  0  0  0  0  0
  147.6821  133.5591  158.2639 C   0  0  0  0  0  0  0  0  0  0  0  0
  147.1383  132.4930  158.5588 O   0  0  0  0  0  0  0  0  0  0  0  0
  148.2930  133.7361  156.9026 C   0  0  0  0  0  0  0  0  0  0  0  0
  147.5345  133.4519  155.7458 C   0  0  0  0  0  0  0  0  0  0  0  0
  148.1061  133.6018  154.4675 C   0  0  0  0  0  0  0  0  0  0  0  0
  149.4446  134.0185  154.3380 C   0  0  0  0  0  0  0  0  0  0  0  0
  150.2151  134.2758  155.4878 C   0  0  0  0  0  0  0  0  0  0  0  0
  149.6444  134.1267  156.7664 C   0  0  0  0  0  0  0  0  0  0  0  0
  147.5711  134.5267  160.6940 C   0  0  0  0  0  0  0  0  0  0  0  0
  147.9016  133.4685  161.2327 O   0  0  0  0  0  0  0  0  0  0  0  0
  147.1082  135.6814  161.5370 C   0  0  0  0  0  0  0  0  0  0  0  0
  145.9342  136.3841  161.1873 C   0  0  0  0  0  0  0  0  0  0  0  0
  145.5012  137.4755  161.9649 C   0  0  0  0  0  0  0  0  0  0  0  0
  146.2493  137.8832  163.0855 C   0  0  0  0  0  0  0  0  0  0  0  0
  147.4357  137.2050  163.4236 C   0  0  0  0  0  0  0  0  0  0  0  0
  147.8691  136.1129  162.6470 C   0  0  0  0  0  0  0  0  0  0  0  0
  146.6876  136.6338  158.4704 N   0  0  0  0  0  0  0  0  0  0  0  0
  146.7932  137.8729  157.9806 C   0  0  0  0  0  0  0  0  0  0  0  0
  147.8975  138.5659  157.6912 N   0  0  0  0  0  0  0  0  0  0  0  0
  149.0254  137.8442  157.9553 C   0  0  0  0  0  0  0  0  0  0  0  0
  150.2358  139.7739  155.8415 C   0  0  2  0  0  0  0  0  0  0  0  0
  151.2397  140.0496  154.8854 O   0  0  0  0  0  0  0  0  0  0  0  0
  149.3563  140.9989  156.0538 C   0  0  1  0  0  0  0  0  0  0  0  0
  148.0959  140.6099  156.2532 F   0  0  0  0  0  0  0  0  0  0  0  0
  152.3872  143.1630  160.5103 C   0  0  0  0  0  0  0  0  0  0  0  0
  152.2619  144.0261  161.6239 C   0  0  0  0  0  0  0  0  0  0  0  0
  152.9092  143.7290  162.8389 C   0  0  0  0  0  0  0  0  0  0  0  0
  153.6914  142.5652  162.9547 C   0  0  0  0  0  0  0  0  0  0  0  0
  153.8244  141.6983  161.8543 C   0  0  0  0  0  0  0  0  0  0  0  0
  153.1763  141.9932  160.6389 C   0  0  0  0  0  0  0  0  0  0  0  0
  150.7164  143.6009  156.8872 H   0  0  0  0  0  0  0  0  0  0  0  0
  151.6626  142.2621  156.2551 H   0  0  0  0  0  0  0  0  0  0  0  0
  149.1110  142.1478  157.8897 H   0  0  0  0  0  0  0  0  0  0  0  0
  151.9139  139.4726  157.2642 H   0  0  0  0  0  0  0  0  0  0  0  0
  152.1613  137.1225  158.1665 H   0  0  0  0  0  0  0  0  0  0  0  0
  146.5064  133.1317  155.8332 H   0  0  0  0  0  0  0  0  0  0  0  0
  147.5171  133.3953  153.5861 H   0  0  0  0  0  0  0  0  0  0  0  0
  149.8823  134.1336  153.3573 H   0  0  0  0  0  0  0  0  0  0  0  0
  151.2447  134.5865  155.3896 H   0  0  0  0  0  0  0  0  0  0  0  0
  150.2471  134.3221  157.6417 H   0  0  0  0  0  0  0  0  0  0  0  0
  145.3518  136.0793  160.3296 H   0  0  0  0  0  0  0  0  0  0  0  0
  144.5951  138.0001  161.7006 H   0  0  0  0  0  0  0  0  0  0  0  0
  145.9168  138.7203  163.6815 H   0  0  0  0  0  0  0  0  0  0  0  0
  148.0147  137.5228  164.2780 H   0  0  0  0  0  0  0  0  0  0  0  0
  148.7838  135.6030  162.9131 H   0  0  0  0  0  0  0  0  0  0  0  0
  145.8593  138.3814  157.7928 H   0  0  0  0  0  0  0  0  0  0  0  0
  149.6574  138.9161  155.4937 H   0  0  0  0  0  0  0  0  0  0  0  0
  151.9043  139.3802  154.9472 H   0  0  0  0  0  0  0  0  0  0  0  0
  149.3387  141.6837  155.2046 H   0  0  0  0  0  0  0  0  0  0  0  0
  151.6669  144.9257  161.5591 H   0  0  0  0  0  0  0  0  0  0  0  0
  152.8053  144.3956  163.6822 H   0  0  0  0  0  0  0  0  0  0  0  0
  154.1888  142.3379  163.8860 H   0  0  0  0  0  0  0  0  0  0  0  0
  154.4255  140.8053  161.9420 H   0  0  0  0  0  0  0  0  0  0  0  0
  153.3011  141.3073  159.8137 H   0  0  0  0  0  0  0  0  0  0  0  0
  1  2  2  0  0  0  0
  2  3  1  0  0  0  0
  2 38  1  0  0  0  0
  3  4  1  0  0  0  0
  4  5  1  0  0  0  0
  4 44  1  0  0  0  0
  4 45  1  0  0  0  0
  5 36  1  0  0  0  0
  5  6  1  0  0  0  0
  5 46  1  0  0  0  0
  6  7  1  0  0  0  0
  7  8  1  0  0  0  0
  7 34  1  0  0  0  0
  7 47  1  0  0  0  0
  8 33  1  0  0  0  0
  8  9  1  0  0  0  0
  9 10  2  0  0  0  0
  9 48  1  0  0  0  0
 10 11  1  0  0  0  0
 11 33  2  0  0  0  0
 11 12  1  0  0  0  0
 12 13  1  0  0  0  0
 12 30  2  0  0  0  0
 13 14  1  0  0  0  0
 13 22  1  0  0  0  0
 14 15  2  0  0  0  0
 14 16  1  0  0  0  0
 16 21  1  0  0  0  0
 16 17  2  0  0  0  0
 17 18  1  0  0  0  0
 17 49  1  0  0  0  0
 18 19  2  0  0  0  0
 18 50  1  0  0  0  0
 19 20  1  0  0  0  0
 19 51  1  0  0  0  0
 20 21  2  0  0  0  0
 20 52  1  0  0  0  0
 21 53  1  0  0  0  0
 22 23  2  0  0  0  0
 22 24  1  0  0  0  0
 24 29  1  0  0  0  0
 24 25  2  0  0  0  0
 25 26  1  0  0  0  0
 25 54  1  0  0  0  0
 26 27  2  0  0  0  0
 26 55  1  0  0  0  0
 27 28  1  0  0  0  0
 27 56  1  0  0  0  0
 28 29  2  0  0  0  0
 28 57  1  0  0  0  0
 29 58  1  0  0  0  0
 30 31  1  0  0  0  0
 31 32  2  0  0  0  0
 31 59  1  0  0  0  0
 32 33  1  0  0  0  0
 34 35  1  0  0  0  0
 34 36  1  0  0  0  0
 34 60  1  0  0  0  0
 35 61  1  0  0  0  0
 36 37  1  0  0  0  0
 36 62  1  0  0  0  0
 38 43  1  0  0  0  0
 38 39  2  0  0  0  0
 39 40  1  0  0  0  0
 39 63  1  0  0  0  0
 40 41  2  0  0  0  0
 40 64  1  0  0  0  0
 41 42  1  0  0  0  0
 41 65  1  0  0  0  0
 42 43  2  0  0  0  0
 42 66  1  0  0  0  0
 43 67  1  0  0  0  0
M  END
> <s_m_source_file>
AV-unprocessed.smi

> <i_m_source_file_index>
33

> <i_lp_mmshare_version>
43012

> <i_f3d_flags>
0

> <s_epik_input>
W2NIXTFbY0hdW2NIXVtjSF1bY0hdYzFDKD1PKU9bQ0gyXVtDQEBIXTJPW0NASF0oW0NAQEhdKFtPSF0pW0NAQEhdMkYpbihbY0hdbjMpYyhjMzQpbltjSF1uYzROKEMoPU8pYzVbY0hdW2NIXVtjSF1bY0hdW2NIXTUpQyg9TyljNltjSF1bY0hdW2NIXVtjSF1bY0hdNg==

> <s_epik_cmdline>
J2VwaWtfcHl0aG9uJywgJy1waCcsICc3LjAnLCAnLXRuJywgJzgnLCAnLW1hJywgJzIwMCcsICctbWV0YWxfYmluZGluZycsICctaW1hZScsICc8aW5maWxlLm1hZT4nLCAnLW9tYWUnLCAnPG91dGZpbGUubWFlPic=

> <r_lp_tautomer_probability>
1

> <r_epik_Ionization_Penalty>
0.00067664

> <r_epik_Ionization_Penalty_Charging>
0

> <r_epik_Ionization_Penalty_Neutral>
0.00067664

> <r_epik_State_Penalty>
0.000428095

> <r_epik_Charging_Adjusted_Penalty>
0.000428095

> <i_epik_Tot_Q>
0

> <i_epik_Tot_abs_Q>
0

> <r_epik_Metal_State_Penalty>
-0

> <b_epik_Metal_Only>
0

> <s_epik_Chemistry_Notes>
This compound has an ester and may undergo hydrolysis at high or low pH. This compound contains an acetal/aminal-like group ( X-CH(R)-Y where X, Y are N, S, or O) that may be acid/base labile, releasing an aldehyde.

> <s_lp_Force_Field>
OPLS_2005

> <r_lp_Energy>
69.3236

> <b_lp_Chiralities_Consistent>
1

> <s_lp_Variant>
AV-unprocessed.smi:33-13

> <Gold.Version>
5.8.1

> <Gold.Id.Protein>
6NUR|6NUR_protein|mol2

> <Gold.PLP.Fitness>
67.5464

> <Gold.PLP.PLP>
-66.6502

> <Gold.PLP.part.hbond>
-2.0000

> <Gold.PLP.part.metal>
0.0000

> <Gold.PLP.part.buried>
-8.5820

> <Gold.PLP.part.nonpolar>
-56.8368

> <Gold.PLP.part.repulsive>
0.1554

> <Gold.PLP.ligand.clash>
0.0014

> <Gold.PLP.ligand.torsion>
4.5458

> <Gold.PLP.Chemscore.Hbond>
1.9760

> <Gold.PLP.Chemscore.CHOScore>
0.0000

> <Gold.PLP.Chemscore.Metal>
0.0000

> <Gold.Chemscore.Hbonds>
donor molecule, donor type, donor heavy atom, donor atom, acceptor molecule, acceptor atom, score
      P1  H  6896  6908       L1    10  0.98
      P1  H  7989  7998       L1    35  1.00

> <Gold.PLP.Chemscore.Internal.Correction>
4.0613

> <Gold.Rescore>
     Score         DG    S(hbond)    S(metal)    S(lipo)     H(rot)  DE(clash)    DE(int)     intcor
     15.05     -24.10       1.83        0.00     162.21       2.52       0.33       8.72       ----

> <Gold.Chemscore.Fitness>
15.0523

> <Gold.Chemscore.DG>
-24.0999

> <Gold.Chemscore.ZeroCoef>
-5.4800

> <Gold.Chemscore.Hbond>
1.8278

> <Gold.Chemscore.Metal>
0.0000

> <Gold.Chemscore.Lipo>
162.2089

> <Gold.Chemscore.Internal_Hbond>
0.0000

> <Gold.Chemscore.DEClash>
0.3270

> <Gold.Chemscore.DEInternal>
8.7206

> <Gold.Chemscore.Rot>
2.5247

> <Gold.Chemscore.Internal.Correction>
   9.000000E+99

> <Gold.Chemscore.Hbonds>
donor molecule, donor type, donor heavy atom, donor atom, acceptor molecule, acceptor atom, score
      P1  H  6896  6908       L1    10  0.93
      P1  H  7989  7998       L1    35  0.39

> <Gold.Chemscore.Hbond.Weighted>
-6.1048

> <Gold.Chemscore.Metal.Weighted>
-0.0000

> <Gold.Chemscore.Lipo.Weighted>
-18.9784

> <Gold.Chemscore.Internal_Hbond.Weighted>
0.0000

> <Gold.Chemscore.DEClash.Weighted>
0.3270

> <Gold.Chemscore.DEInternal.Weighted>
8.7206

> <Gold.Chemscore.Rot.Weighted>
6.4633

> <Gold.Chemscore.Internal.Correction.Weighted>
   9.000000E+99

> <Gold.Protein.RotatedTorsions>
[ 6907 6896 6895 6894 ] final -167.76 input  -60.11 | X-H torsion
[ 7974 7965 7964 7962 ] final   -6.06 input  175.53 | X-H torsion
[ 8008 7997 7996 7995 ] final   43.60 input   59.86 | X-H torsion
[ 10167 10162 10161 10158 ] final   32.22 input  -65.29 | X-H torsion
[ 10718 10713 10712 10709 ] final -179.70 input   66.30 | X-H torsion
[ 10763 10752 10751 10750 ] final -116.32 input  -60.55 | X-H torsion
[ 11005 11000 10999 10996 ] final   -7.00 input  -57.11 | X-H torsion

> <Gold.Protein.ActiveResidues>
 VAL166  LYS551  ARG553  GLY616  TRP617  ASP618  TYR619  PRO620  LYS621  CYS622 
 ASP623  PHE694  ASN695  SER759  ASP760  ASP761  ALA762  ILE779  LEU786  VAL792 
 PHE793  MET794  SER795  GLU796  ALA797  LYS798  CYS799  TRP800  GLU811  SER814 

> <Gold.Protein.RotatedAtoms>
  151.4647  133.3584  159.2814 H   0  0  0  0  0  0  0  0  0  0  0  0  # atno 6907 bound_to 6896
  150.9001  134.8414  159.7365 H   0  0  0  0  0  0  0  0  0  0  0  0  # atno 6908 bound_to 6896
  152.4874  134.4567  159.9644 H   0  0  0  0  0  0  0  0  0  0  0  0  # atno 6909 bound_to 6896
  146.2339  140.2114  142.8335 H   0  0  0  0  0  0  0  0  0  0  0  0  # atno 7974 bound_to 7965
  155.3054  140.3387  155.4246 H   0  0  0  0  0  0  0  0  0  0  0  0  # atno 8008 bound_to 7997
  156.1981  140.1722  156.7994 H   0  0  0  0  0  0  0  0  0  0  0  0  # atno 8009 bound_to 7997
  154.5525  140.0703  156.8674 H   0  0  0  0  0  0  0  0  0  0  0  0  # atno 8010 bound_to 7997
  140.4518  144.1037  150.6193 H   0  0  0  0  0  0  0  0  0  0  0  0  # atno 10167 bound_to 10162
  156.8630  130.9758  151.3081 H   0  0  0  0  0  0  0  0  0  0  0  0  # atno 10718 bound_to 10713
  154.8515  135.4350  154.1802 H   0  0  0  0  0  0  0  0  0  0  0  0  # atno 10763 bound_to 10752
  153.2894  135.6960  153.7313 H   0  0  0  0  0  0  0  0  0  0  0  0  # atno 10764 bound_to 10752
  153.6486  135.3455  155.3068 H   0  0  0  0  0  0  0  0  0  0  0  0  # atno 10765 bound_to 10752
  140.7081  133.8932  155.8731 H   0  0  0  0  0  0  0  0  0  0  0  0  # atno 11005 bound_to 11000
  144.9703  140.8362  143.5459 LP  0  0  0  0  0  0  0  0  0  0  0  0  # atno 17320 bound_to 7965
  145.2095  139.2211  143.5150 LP  0  0  0  0  0  0  0  0  0  0  0  0  # atno 17321 bound_to 7965
  140.4198  143.2617  151.9729 LP  0  0  0  0  0  0  0  0  0  0  0  0  # atno 17342 bound_to 10162
  139.4797  144.5841  151.7884 LP  0  0  0  0  0  0  0  0  0  0  0  0  # atno 17343 bound_to 10162
  157.6239  130.8677  149.9156 LP  0  0  0  0  0  0  0  0  0  0  0  0  # atno 17370 bound_to 10713
  156.0767  130.3678  150.0664 LP  0  0  0  0  0  0  0  0  0  0  0  0  # atno 17371 bound_to 10713
  141.0107  134.1024  157.4224 LP  0  0  0  0  0  0  0  0  0  0  0  0  # atno 17394 bound_to 11000
  139.8879  135.0093  156.6587 LP  0  0  0  0  0  0  0  0  0  0  0  0  # atno 17395 bound_to 11000

$$$$
