#       Name:                AV-unprocessed.smi:203
#       Creating user name   scv26
#       Creation time:       Thu Mar 26 19:48:40 2020


#       File generated by GOLD software.
#

@<TRIPOS>MOLECULE
AV-unprocessed.smi:203
    67    71     1
SMALL
NO_CHARGES


@<TRIPOS>ATOM
      1 ****        -5.1852   2.8924   3.6737 O.2            1 S1                 0.0000
      2 ****        -4.3966   2.0109   3.3410 C.2            1 S1                 0.0000
      3 ****        -3.4375   2.1418   2.1705 C.3            1 S1                 0.0000
      4 ****        -2.8509   0.7230   2.0202 C.3            1 S1                 0.0000
      5 ****        -3.3003  -0.0290   0.7271 C.3            1 S1                 0.0000
      6 ****        -4.8367  -0.2371   0.6570 C.3            1 S1                 0.0000
      7 ****        -5.2538  -0.9743  -0.6221 C.3            1 S1                 0.0000
      8 ****        -4.7328  -0.2203  -1.8498 C.3            1 S1                 0.0000
      9 ****        -3.2123  -0.0391  -1.7582 C.3            1 S1                 0.0000
     10 ****        -2.8282   0.6198  -0.5098 N.3            1 S1                 0.0000
     11 ****        -1.5206   0.9613  -0.5426 C.ar           1 S1                 0.0000
     12 ****        -1.2269   2.2726  -0.7219 N.ar           1 S1                 0.0000
     13 ****         0.0482   2.6723  -0.7489 C.ar           1 S1                 0.0000
     14 ****         1.1568   1.9392  -0.6215 N.ar           1 S1                 0.0000
     15 ****         0.8618   0.6183  -0.4505 C.ar           1 S1                 0.0000
     16 ****        -0.4398   0.0459  -0.4003 C.ar           1 S1                 0.0000
     17 ****        -0.3478  -1.3286  -0.2154 N.2            1 S1                 0.0000
     18 ****         0.9363  -1.5565  -0.1632 C.2            1 S1                 0.0000
     19 ****         1.7351  -0.4437  -0.2947 N.pl3          1 S1                 0.0000
     20 ****         3.1866  -0.4122  -0.2757 C.3            1 S1                 0.0000
     21 ****         3.7978  -0.6778  -1.6685 C.3            1 S1                 0.0000
     22 ****         3.3618   0.2940  -2.5979 O.3            1 S1                 0.0000
     23 ****         5.3400  -0.7213  -1.6902 C.3            1 S1                 0.0000
     24 ****         5.9439  -2.0178  -1.1414 C.3            1 S1                 0.0000
     25 ****         7.2867  -1.5897  -0.5650 C.3            1 S1                 0.0000
     26 ****         7.2780  -0.0648  -0.6794 C.3            1 S1                 0.0000
     27 ****         5.9099   0.2698  -0.8482 O.3            1 S1                 0.0000
     28 ****        -3.2425  -0.0085   3.3222 C.3            1 S1                 0.0000
     29 ****        -4.2548   0.8285   3.9362 N.am           1 S1                 0.0000
     30 ****        -3.9482   2.4967   1.2750 H              1 S1                 0.0000
     31 ****        -2.6595   2.8630   2.4227 H              1 S1                 0.0000
     32 ****        -1.7631   0.7971   2.0261 H              1 S1                 0.0000
     33 ****        -2.8481  -1.0209   0.7561 H              1 S1                 0.0000
     34 ****        -5.1928  -0.8002   1.5188 H              1 S1                 0.0000
     35 ****        -5.3509   0.7235   0.6882 H              1 S1                 0.0000
     36 ****        -4.8539  -1.9890  -0.6120 H              1 S1                 0.0000
     37 ****        -6.3392  -1.0646  -0.6682 H              1 S1                 0.0000
     38 ****        -4.9910  -0.7602  -2.7611 H              1 S1                 0.0000
     39 ****        -5.2157   0.7555  -1.9159 H              1 S1                 0.0000
     40 ****        -2.7230  -1.0120  -1.8218 H              1 S1                 0.0000
     41 ****        -2.8653   0.5472  -2.6106 H              1 S1                 0.0000
     42 ****         0.2023   3.7316  -0.8923 H              1 S1                 0.0000
     43 ****         1.3396  -2.5497  -0.0281 H              1 S1                 0.0000
     44 ****         3.5056   0.5572   0.1088 H              1 S1                 0.0000
     45 ****         3.5306  -1.1570   0.4422 H              1 S1                 0.0000
     46 ****         3.4266  -1.6335  -2.0406 H              1 S1                 0.0000
     47 ****         3.6525   1.1426  -2.2996 H              1 S1                 0.0000
     48 ****         5.7087  -0.5743  -2.7078 H              1 S1                 0.0000
     49 ****         5.3249  -2.4354  -0.3471 H              1 S1                 0.0000
     50 ****         6.0440  -2.7795  -1.9151 H              1 S1                 0.0000
     51 ****         7.3667  -1.9023   0.4767 H              1 S1                 0.0000
     52 ****         8.1264  -2.0218  -1.1102 H              1 S1                 0.0000
     53 ****         7.7037   0.4253   0.1964 H              1 S1                 0.0000
     54 ****         7.8377   0.2591  -1.5584 H              1 S1                 0.0000
     55 ****        -3.6101  -1.0210   3.1555 H              1 S1                 0.0000
     56 ****        -2.3899  -0.0768   3.9990 H              1 S1                 0.0000
     57 ****        -4.7926   0.5317   4.7379 H              1 S1                 0.0000
     58 ****        -5.7929   2.7507   4.4552 LP             1 S1                 0.0000
     59 ****        -5.2194   3.7515   3.1630 LP             1 S1                 0.0000
     60 ****        -3.3438   1.4750  -0.4579 LP             1 S1                 0.0000
     61 ****        -1.9633   2.9398  -0.8338 LP             1 S1                 0.0000
     62 ****         2.0847   2.3109  -0.6480 LP             1 S1                 0.0000
     63 ****        -1.0937  -1.9905  -0.1397 LP             1 S1                 0.0000
     64 ****         2.3636   0.2805  -2.6577 LP             1 S1                 0.0000
     65 ****         3.7523   0.1001  -3.4978 LP             1 S1                 0.0000
     66 ****         5.4461   0.2756   0.0378 LP             1 S1                 0.0000
     67 ****         5.8268   1.1709  -1.2738 LP             1 S1                 0.0000
@<TRIPOS>BOND
    1    1    2 2     
    2    2   29 am    
    3    2    3 1     
    4    3    4 1     
    5    3   30 1     
    6    3   31 1     
    7    4    5 1     
    8    4   28 1     
    9    4   32 1     
   10    5   10 1     
   11    5    6 1     
   12    5   33 1     
   13    6    7 1     
   14    6   34 1     
   15    6   35 1     
   16    7    8 1     
   17    7   36 1     
   18    7   37 1     
   19    8    9 1     
   20    8   38 1     
   21    8   39 1     
   22    9   10 1     
   23    9   40 1     
   24    9   41 1     
   25   10   11 1     
   26   11   16 ar    
   27   11   12 ar    
   28   12   13 ar    
   29   13   14 ar    
   30   13   42 1     
   31   14   15 ar    
   32   15   19 1     
   33   15   16 ar    
   34   16   17 1     
   35   17   18 2     
   36   18   19 1     
   37   18   43 1     
   38   19   20 1     
   39   20   21 1     
   40   20   44 1     
   41   20   45 1     
   42   21   22 1     
   43   21   23 1     
   44   21   46 1     
   45   22   47 1     
   46   23   27 1     
   47   23   24 1     
   48   23   48 1     
   49   24   25 1     
   50   24   49 1     
   51   24   50 1     
   52   25   26 1     
   53   25   51 1     
   54   25   52 1     
   55   26   27 1     
   56   26   53 1     
   57   26   54 1     
   58   28   29 1     
   59   28   55 1     
   60   28   56 1     
   61   29   57 1     
   62    1   58 1     
   63    1   59 1     
   64   10   60 1     
   65   12   61 1     
   66   14   62 1     
   67   17   63 1     
   68   22   64 1     
   69   22   65 1     
   70   27   66 1     
   71   27   67 1     
@<TRIPOS>SUBSTRUCTURE
      1 S1             1
@<TRIPOS>SET
LONE_PAIRS      STATIC     ATOMS    <user>   **** ""
10 58 59 60 61 62 63 64 65 66 67
DONOR_HYDROGENS      STATIC     ATOMS    <user>   **** ""
2 47 57
ATOM$BLUE        STATIC     ATOMS    COLORGROUP SYSTEM
10 58 59 60 61 62 63 64 65 66 67
ATOM$RED        STATIC     ATOMS    COLORGROUP SYSTEM
2 47 57
