AV-unprocessed.smi:1978|AV-procd|sdf|7993|dock6
  -GOLD-   2272010173D 1   1.00000     0.00000
 Structure written by MMmdl.
 45 46  0  0  0  0  0  0  0  0  2 V2000
  151.1785  141.5975  156.2911 C   0  0  0  0  0  0  0  0  0  0  0  0
  151.2420  140.2071  155.7582 C   0  0  0  0  0  0  0  0  0  0  0  0
  150.2986  139.3656  155.2389 C   0  0  0  0  0  0  0  0  0  0  0  0
  151.0456  138.1966  154.9346 C   0  0  0  0  0  0  0  0  0  0  0  0
  150.4174  137.0562  154.3717 N   0  0  0  0  0  0  0  0  0  0  0  0
  150.2510  135.8506  154.9414 C   0  0  0  0  0  0  0  0  0  0  0  0
  150.6591  135.5297  156.0581 O   0  0  0  0  0  0  0  0  0  0  0  0
  149.5727  135.0175  154.1387 N   0  0  0  0  0  0  0  0  0  0  0  0
  149.2281  133.6378  154.4733 C   0  0  0  0  0  0  0  0  0  0  0  0
  148.4941  132.8893  153.3220 C   0  0  1  0  0  0  0  0  0  0  0  0
  147.9097  131.5623  153.8729 C   0  0  0  0  0  0  0  0  0  0  0  0
  147.4535  133.7597  152.6707 N   0  3  1  0  0  0  0  0  0  0  0  0
  146.6726  133.0705  151.5975 C   0  0  0  0  0  0  0  0  0  0  0  0
  145.8068  134.0593  150.7994 C   0  0  0  0  0  0  0  0  0  0  0  0
  144.8635  134.8421  151.7145 C   0  0  0  0  0  0  0  0  0  0  0  0
  145.6726  135.5173  152.8273 C   0  0  0  0  0  0  0  0  0  0  0  0
  146.5480  134.5115  153.6043 C   0  0  1  0  0  0  0  0  0  0  0  0
  145.7005  133.5932  154.5152 C   0  0  0  0  0  0  0  0  0  0  0  0
  152.3290  138.3144  155.2390 N   0  0  0  0  0  0  0  0  0  0  0  0
  152.4614  139.6035  155.7684 O   0  0  0  0  0  0  0  0  0  0  0  0
  150.1839  142.0223  156.1548 H   0  0  0  0  0  0  0  0  0  0  0  0
  151.8938  142.2413  155.7790 H   0  0  0  0  0  0  0  0  0  0  0  0
  151.4100  141.6135  157.3561 H   0  0  0  0  0  0  0  0  0  0  0  0
  149.2449  139.5583  155.1026 H   0  0  0  0  0  0  0  0  0  0  0  0
  150.0442  137.1770  153.4418 H   0  0  0  0  0  0  0  0  0  0  0  0
  149.2744  135.3584  153.2363 H   0  0  0  0  0  0  0  0  0  0  0  0
  150.1497  133.1129  154.7267 H   0  0  0  0  0  0  0  0  0  0  0  0
  148.6425  133.6816  155.3889 H   0  0  0  0  0  0  0  0  0  0  0  0
  149.2262  132.6339  152.5549 H   0  0  0  0  0  0  0  0  0  0  0  0
  148.6643  130.9632  154.3816 H   0  0  0  0  0  0  0  0  0  0  0  0
  147.5189  130.9158  153.0888 H   0  0  0  0  0  0  0  0  0  0  0  0
  147.1076  131.7500  154.5873 H   0  0  0  0  0  0  0  0  0  0  0  0
  147.3204  132.5811  150.8763 H   0  0  0  0  0  0  0  0  0  0  0  0
  146.0549  132.2825  152.0291 H   0  0  0  0  0  0  0  0  0  0  0  0
  146.4519  134.7542  150.2601 H   0  0  0  0  0  0  0  0  0  0  0  0
  145.2304  133.5243  150.0440 H   0  0  0  0  0  0  0  0  0  0  0  0
  144.3172  135.5906  151.1398 H   0  0  0  0  0  0  0  0  0  0  0  0
  144.1155  134.1727  152.1402 H   0  0  0  0  0  0  0  0  0  0  0  0
  146.3125  136.2833  152.3867 H   0  0  0  0  0  0  0  0  0  0  0  0
  145.0020  136.0417  153.5091 H   0  0  0  0  0  0  0  0  0  0  0  0
  147.1619  135.1354  154.2519 H   0  0  0  0  0  0  0  0  0  0  0  0
  145.0959  134.1879  155.2005 H   0  0  0  0  0  0  0  0  0  0  0  0
  146.3165  132.9358  155.1270 H   0  0  0  0  0  0  0  0  0  0  0  0
  145.0157  132.9622  153.9504 H   0  0  0  0  0  0  0  0  0  0  0  0
  147.9812  134.4780  152.1956 H   0  0  0  0  0  0  0  0  0  0  0  0
  1  2  1  0  0  0  0
  1 21  1  0  0  0  0
  1 22  1  0  0  0  0
  1 23  1  0  0  0  0
  2 20  1  0  0  0  0
  2  3  2  0  0  0  0
  3  4  1  0  0  0  0
  3 24  1  0  0  0  0
  4  5  1  0  0  0  0
  4 19  2  0  0  0  0
  5  6  1  0  0  0  0
  5 25  1  0  0  0  0
  6  7  2  0  0  0  0
  6  8  1  0  0  0  0
  8  9  1  0  0  0  0
  8 26  1  0  0  0  0
  9 10  1  0  0  0  0
  9 27  1  0  0  0  0
  9 28  1  0  0  0  0
 10 11  1  0  0  0  0
 10 12  1  0  0  0  0
 10 29  1  0  0  0  0
 11 30  1  0  0  0  0
 11 31  1  0  0  0  0
 11 32  1  0  0  0  0
 12 17  1  0  0  0  0
 12 13  1  0  0  0  0
 12 45  1  0  0  0  0
 13 14  1  0  0  0  0
 13 33  1  0  0  0  0
 13 34  1  0  0  0  0
 14 15  1  0  0  0  0
 14 35  1  0  0  0  0
 14 36  1  0  0  0  0
 15 16  1  0  0  0  0
 15 37  1  0  0  0  0
 15 38  1  0  0  0  0
 16 17  1  0  0  0  0
 16 39  1  0  0  0  0
 16 40  1  0  0  0  0
 17 18  1  0  0  0  0
 17 41  1  0  0  0  0
 18 42  1  0  0  0  0
 18 43  1  0  0  0  0
 18 44  1  0  0  0  0
 19 20  1  0  0  0  0
M  CHG  1  12   1
M  END
> <s_m_source_file>
AV-unprocessed.smi

> <i_m_source_file_index>
1978

> <i_lp_mmshare_version>
43012

> <i_f3d_flags>
0

> <s_epik_input>
W0NIM11jMVtjSF1jKG5vMSlbTkhdQyg9TylbTkhdW0NIMl1bQ0BIXShbQ0gzXSlOMltDSDJdW0NIMl1bQ0gyXVtDSDJdW0NASF0yW0NIM10=

> <s_epik_cmdline>
J2VwaWtfcHl0aG9uJywgJy1waCcsICc3LjAnLCAnLXRuJywgJzgnLCAnLW1hJywgJzIwMCcsICctbWV0YWxfYmluZGluZycsICctaW1hZScsICc8aW5maWxlLm1hZT4nLCAnLW9tYWUnLCAnPG91dGZpbGUubWFlPic=

> <r_epik_Ionization_Penalty>
0.00265971

> <r_epik_Ionization_Penalty_Charging>
0.00262393

> <r_epik_Ionization_Penalty_Neutral>
3.57846e-05

> <r_epik_State_Penalty>
0.00182566

> <r_epik_Charging_Adjusted_Penalty>
0.00444959

> <i_epik_Tot_Q>
1

> <i_epik_Tot_abs_Q>
1

> <r_epik_Metal_State_Penalty>
0.0216344

> <b_epik_Metal_Only>
0

> <s_lp_Force_Field>
OPLS_2005

> <r_lp_Energy>
22.9601

> <b_lp_Chiralities_Consistent>
1

> <s_lp_Variant>
AV-unprocessed.smi:1978-2

> <Gold.Version>
5.8.1

> <Gold.Id.Protein>
6NUR|6NUR_protein|mol2

> <Gold.PLP.Fitness>
44.4605

> <Gold.PLP.PLP>
-31.9996

> <Gold.PLP.part.hbond>
-4.9707

> <Gold.PLP.part.metal>
0.0000

> <Gold.PLP.part.buried>
-4.7567

> <Gold.PLP.part.nonpolar>
-24.2164

> <Gold.PLP.part.repulsive>
0.1577

> <Gold.PLP.ligand.clash>
0.0000

> <Gold.PLP.ligand.torsion>
0.8666

> <Gold.PLP.Chemscore.Hbond>
4.7003

> <Gold.PLP.Chemscore.CHOScore>
0.0000

> <Gold.PLP.Chemscore.Metal>
0.0000

> <Gold.Chemscore.Hbonds>
donor molecule, donor type, donor heavy atom, donor atom, acceptor molecule, acceptor atom, score
      L1  H     5    25       P1  7948  0.76
      L1  H     8    26       P1  7948  0.85
      L1  H    12    45       P1  7948  2.00
      P1  H  7997  8008       L1    20  1.00

> <Gold.PLP.Chemscore.Internal.Correction>
0.0933

> <Gold.Rescore>
     Score         DG    S(hbond)    S(metal)    S(lipo)     H(rot)  DE(clash)    DE(int)     intcor
     16.31     -18.10       3.01        0.00      55.76       1.55       0.11       1.67       ----

> <Gold.Chemscore.Fitness>
16.3146

> <Gold.Chemscore.DG>
-18.0954

> <Gold.Chemscore.ZeroCoef>
-5.4800

> <Gold.Chemscore.Hbond>
3.0099

> <Gold.Chemscore.Metal>
0.0000

> <Gold.Chemscore.Lipo>
55.7583

> <Gold.Chemscore.Internal_Hbond>
0.0000

> <Gold.Chemscore.DEClash>
0.1132

> <Gold.Chemscore.DEInternal>
1.6677

> <Gold.Chemscore.Rot>
1.5474

> <Gold.Chemscore.Internal.Correction>
   9.000000E+99

> <Gold.Chemscore.Hbonds>
donor molecule, donor type, donor heavy atom, donor atom, acceptor molecule, acceptor atom, score
      L1  H     5    25       P1  7948  0.19
      L1  H     8    26       P1  7948  0.15
      L1  H    12    45       P1  7948  0.25
      P1  H  7997  8008       L1    20  0.86

> <Gold.Chemscore.Hbond.Weighted>
-10.0529

> <Gold.Chemscore.Metal.Weighted>
-0.0000

> <Gold.Chemscore.Lipo.Weighted>
-6.5237

> <Gold.Chemscore.Internal_Hbond.Weighted>
0.0000

> <Gold.Chemscore.DEClash.Weighted>
0.1132

> <Gold.Chemscore.DEInternal.Weighted>
1.6677

> <Gold.Chemscore.Rot.Weighted>
3.9612

> <Gold.Chemscore.Internal.Correction.Weighted>
   9.000000E+99

> <Gold.Protein.RotatedTorsions>
[ 6907 6896 6895 6894 ] final -156.85 input  -60.11 | X-H torsion
[ 7974 7965 7964 7962 ] final -140.20 input  175.53 | X-H torsion
[ 8008 7997 7996 7995 ] final  -36.84 input   59.86 | X-H torsion
[ 10167 10162 10161 10158 ] final    4.42 input  -65.29 | X-H torsion
[ 10718 10713 10712 10709 ] final   16.05 input   66.30 | X-H torsion
[ 10763 10752 10751 10750 ] final -140.30 input  -60.55 | X-H torsion
[ 11005 11000 10999 10996 ] final  -49.85 input  -57.11 | X-H torsion

> <Gold.Protein.ActiveResidues>
 VAL166  LYS551  ARG553  GLY616  TRP617  ASP618  TYR619  PRO620  LYS621  CYS622 
 ASP623  PHE694  ASN695  SER759  ASP760  ASP761  ALA762  ILE779  LEU786  VAL792 
 PHE793  MET794  SER795  GLU796  ALA797  LYS798  CYS799  TRP800  GLU811  SER814 

> <Gold.Protein.RotatedAtoms>
  151.2939  133.4153  159.2634 H   0  0  0  0  0  0  0  0  0  0  0  0  # atno 6907 bound_to 6896
  151.0253  134.9500  159.8092 H   0  0  0  0  0  0  0  0  0  0  0  0  # atno 6908 bound_to 6896
  152.5333  134.2901  159.9092 H   0  0  0  0  0  0  0  0  0  0  0  0  # atno 6909 bound_to 6896
  144.8616  140.6228  143.5325 H   0  0  0  0  0  0  0  0  0  0  0  0  # atno 7974 bound_to 7965
  154.4065  140.1620  156.2440 H   0  0  0  0  0  0  0  0  0  0  0  0  # atno 8008 bound_to 7997
  155.9176  140.3423  155.6125 H   0  0  0  0  0  0  0  0  0  0  0  0  # atno 8009 bound_to 7997
  155.7260  140.0774  157.2300 H   0  0  0  0  0  0  0  0  0  0  0  0  # atno 8010 bound_to 7997
  140.6536  143.7484  150.7615 H   0  0  0  0  0  0  0  0  0  0  0  0  # atno 10167 bound_to 10162
  157.0623  130.6314  149.5788 H   0  0  0  0  0  0  0  0  0  0  0  0  # atno 10718 bound_to 10713
  154.8583  135.3557  154.5686 H   0  0  0  0  0  0  0  0  0  0  0  0  # atno 10763 bound_to 10752
  153.6299  135.7002  153.5284 H   0  0  0  0  0  0  0  0  0  0  0  0  # atno 10764 bound_to 10752
  153.3058  135.4193  155.1252 H   0  0  0  0  0  0  0  0  0  0  0  0  # atno 10765 bound_to 10752
  141.0783  133.6660  156.3646 H   0  0  0  0  0  0  0  0  0  0  0  0  # atno 11005 bound_to 11000
  145.4302  139.1550  143.4026 LP  0  0  0  0  0  0  0  0  0  0  0  0  # atno 17320 bound_to 7965
  146.2864  140.4417  142.8756 LP  0  0  0  0  0  0  0  0  0  0  0  0  # atno 17321 bound_to 7965
  140.1139  143.4673  152.2353 LP  0  0  0  0  0  0  0  0  0  0  0  0  # atno 17342 bound_to 10162
  139.5754  144.7485  151.3778 LP  0  0  0  0  0  0  0  0  0  0  0  0  # atno 17343 bound_to 10162
  155.9975  130.5046  150.7535 LP  0  0  0  0  0  0  0  0  0  0  0  0  # atno 17370 bound_to 10713
  157.4945  131.0913  151.0388 LP  0  0  0  0  0  0  0  0  0  0  0  0  # atno 17371 bound_to 10713
  140.5525  134.6013  157.5411 LP  0  0  0  0  0  0  0  0  0  0  0  0  # atno 17394 bound_to 11000
  139.9596  134.7476  156.0267 LP  0  0  0  0  0  0  0  0  0  0  0  0  # atno 17395 bound_to 11000

$$$$
