AV-unprocessed.smi:2525|AV-procd|sdf|9930|dock2
  -GOLD-   2272013573D 1   1.00000     0.00000
 Structure written by MMmdl.
 44 45  0  0  0  0  0  0  0  0  1 V2000
  148.3845  133.4919  154.1439 C   0  0  0  0  0  0  0  0  0  0  0  0
  148.0245  133.4088  152.6496 C   0  0  0  0  0  0  0  0  0  0  0  0
  146.5218  133.2364  152.2874 C   0  0  0  0  0  0  0  0  0  0  0  0
  146.0401  131.9591  153.0184 C   0  0  0  0  0  0  0  0  0  0  0  0
  146.7075  130.6529  152.5526 C   0  0  0  0  0  0  0  0  0  0  0  0
  145.5669  134.4540  152.4726 C   0  0  1  0  0  0  0  0  0  0  0  0
  146.2287  135.7520  152.3561 N   0  0  0  0  0  0  0  0  0  0  0  0
  145.6071  136.9398  152.3158 C   0  0  0  0  0  0  0  0  0  0  0  0
  144.3861  137.0678  152.3967 O   0  0  0  0  0  0  0  0  0  0  0  0
  146.4990  138.1776  152.1835 C   0  0  0  0  0  0  0  0  0  0  0  0
  147.1924  138.4807  153.4248 N   0  0  0  0  0  0  0  0  0  0  0  0
  148.5489  138.6067  153.6431 C   0  0  0  0  0  0  0  0  0  0  0  0
  148.6324  138.8723  154.9799 C   0  0  0  0  0  0  0  0  0  0  0  0
  147.3444  138.8961  155.5122 N   0  0  0  0  0  0  0  0  0  0  0  0
  146.4876  138.6630  154.5683 N   0  0  0  0  0  0  0  0  0  0  0  0
  144.8394  134.0695  151.1713 C   0  0  1  0  0  0  0  0  0  0  0  0
  144.2812  135.1528  150.2497 C   0  0  0  0  0  0  0  0  0  0  0  0
  146.1219  133.3175  150.7860 C   0  0  2  0  0  0  0  0  0  0  0  0
  145.9237  132.0373  150.2038 O   0  0  0  0  0  0  0  0  0  0  0  0
  145.1686  132.0768  149.0057 C   0  0  0  0  0  0  0  0  0  0  0  0
  149.4649  133.5668  154.2686 H   0  0  0  0  0  0  0  0  0  0  0  0
  148.0572  132.6164  154.7029 H   0  0  0  0  0  0  0  0  0  0  0  0
  147.9473  134.3758  154.6083 H   0  0  0  0  0  0  0  0  0  0  0  0
  148.4246  134.3140  152.1911 H   0  0  0  0  0  0  0  0  0  0  0  0
  148.5986  132.5939  152.2074 H   0  0  0  0  0  0  0  0  0  0  0  0
  146.2124  132.0495  154.0911 H   0  0  0  0  0  0  0  0  0  0  0  0
  144.9588  131.8550  152.9200 H   0  0  0  0  0  0  0  0  0  0  0  0
  146.3460  129.8102  153.1417 H   0  0  0  0  0  0  0  0  0  0  0  0
  147.7907  130.6876  152.6658 H   0  0  0  0  0  0  0  0  0  0  0  0
  146.4878  130.4332  151.5081 H   0  0  0  0  0  0  0  0  0  0  0  0
  144.9065  134.3788  153.3373 H   0  0  0  0  0  0  0  0  0  0  0  0
  147.2362  135.7436  152.2882 H   0  0  0  0  0  0  0  0  0  0  0  0
  147.2419  138.0196  151.4006 H   0  0  0  0  0  0  0  0  0  0  0  0
  145.8924  139.0334  151.8837 H   0  0  0  0  0  0  0  0  0  0  0  0
  149.2943  138.4973  152.8688 H   0  0  0  0  0  0  0  0  0  0  0  0
  149.5020  139.0445  155.5970 H   0  0  0  0  0  0  0  0  0  0  0  0
  144.0568  133.3491  151.4153 H   0  0  0  0  0  0  0  0  0  0  0  0
  145.0704  135.7877  149.8453 H   0  0  0  0  0  0  0  0  0  0  0  0
  143.5806  135.7972  150.7806 H   0  0  0  0  0  0  0  0  0  0  0  0
  143.7483  134.7185  149.4043 H   0  0  0  0  0  0  0  0  0  0  0  0
  146.7780  133.9492  150.1864 H   0  0  0  0  0  0  0  0  0  0  0  0
  145.1037  131.0742  148.5836 H   0  0  0  0  0  0  0  0  0  0  0  0
  145.6368  132.7240  148.2632 H   0  0  0  0  0  0  0  0  0  0  0  0
  144.1531  132.4270  149.1875 H   0  0  0  0  0  0  0  0  0  0  0  0
  1  2  1  0  0  0  0
  1 21  1  0  0  0  0
  1 22  1  0  0  0  0
  1 23  1  0  0  0  0
  2  3  1  0  0  0  0
  2 24  1  0  0  0  0
  2 25  1  0  0  0  0
  3 18  1  0  0  0  0
  3  4  1  0  0  0  0
  3  6  1  0  0  0  0
  4  5  1  0  0  0  0
  4 26  1  0  0  0  0
  4 27  1  0  0  0  0
  5 28  1  0  0  0  0
  5 29  1  0  0  0  0
  5 30  1  0  0  0  0
  6  7  1  0  0  0  0
  6 16  1  0  0  0  0
  6 31  1  0  0  0  0
  7  8  1  0  0  0  0
  7 32  1  0  0  0  0
  8  9  2  0  0  0  0
  8 10  1  0  0  0  0
 10 11  1  0  0  0  0
 10 33  1  0  0  0  0
 10 34  1  0  0  0  0
 11 15  1  0  0  0  0
 11 12  1  0  0  0  0
 12 13  2  0  0  0  0
 12 35  1  0  0  0  0
 13 14  1  0  0  0  0
 13 36  1  0  0  0  0
 14 15  2  0  0  0  0
 16 17  1  0  0  0  0
 16 18  1  0  0  0  0
 16 37  1  0  0  0  0
 17 38  1  0  0  0  0
 17 39  1  0  0  0  0
 17 40  1  0  0  0  0
 18 19  1  0  0  0  0
 18 41  1  0  0  0  0
 19 20  1  0  0  0  0
 20 42  1  0  0  0  0
 20 43  1  0  0  0  0
 20 44  1  0  0  0  0
M  END
> <s_m_source_file>
AV-unprocessed.smi

> <i_m_source_file_index>
2525

> <i_lp_mmshare_version>
43012

> <i_f3d_flags>
0

> <s_epik_input>
W0NIM11PW0NAQEhdMVtDQEhdKFtDSDNdKVtDQEBIXShDMShbQ0gyXVtDSDNdKVtDSDJdW0NIM10pW05IXUMoPU8pW0NIMl1uMltjSF1bY0hdbm4y

> <s_epik_cmdline>
J2VwaWtfcHl0aG9uJywgJy1waCcsICc3LjAnLCAnLXRuJywgJzgnLCAnLW1hJywgJzIwMCcsICctbWV0YWxfYmluZGluZycsICctaW1hZScsICc8aW5maWxlLm1hZT4nLCAnLW9tYWUnLCAnPG91dGZpbGUubWFlPic=

> <r_lp_tautomer_probability>
1

> <r_epik_Ionization_Penalty>
1.18045e-06

> <r_epik_Ionization_Penalty_Charging>
0

> <r_epik_Ionization_Penalty_Neutral>
1.18045e-06

> <r_epik_State_Penalty>
-0

> <r_epik_Charging_Adjusted_Penalty>
0

> <i_epik_Tot_Q>
0

> <i_epik_Tot_abs_Q>
0

> <r_epik_Metal_State_Penalty>
-0

> <b_epik_Metal_Only>
0

> <s_lp_Force_Field>
OPLS_2005

> <r_lp_Energy>
28.6674

> <b_lp_Chiralities_Consistent>
1

> <s_lp_Variant>
AV-unprocessed.smi:2525-5

> <Gold.Version>
5.8.1

> <Gold.Id.Protein>
6NUR|6NUR_protein|mol2

> <Gold.PLP.Fitness>
34.1969

> <Gold.PLP.PLP>
-27.1822

> <Gold.PLP.part.hbond>
-1.0000

> <Gold.PLP.part.metal>
0.0000

> <Gold.PLP.part.buried>
0.0001

> <Gold.PLP.part.nonpolar>
-26.0828

> <Gold.PLP.part.repulsive>
0.6471

> <Gold.PLP.ligand.clash>
0.0000

> <Gold.PLP.ligand.torsion>
0.5160

> <Gold.PLP.Chemscore.Hbond>
1.0000

> <Gold.PLP.Chemscore.CHOScore>
1.4881

> <Gold.PLP.Chemscore.Metal>
0.0000

> <Gold.Chemscore.Hbonds>
donor molecule, donor type, donor heavy atom, donor atom, acceptor molecule, acceptor atom, score
      L1  H     7    32       P1  7948  1.00
      L1  C    12    35       P1  7948  0.56
      L1  C    12    35       P1  7957  0.89

> <Gold.PLP.Chemscore.Internal.Correction>
0.5824

> <Gold.Rescore>
     Score         DG    S(hbond)    S(metal)    S(lipo)     H(rot)  DE(clash)    DE(int)     intcor
     10.88     -13.29       1.00        0.00      81.66       1.98       0.35       2.06       ----

> <Gold.Chemscore.Fitness>
10.8825

> <Gold.Chemscore.DG>
-13.2886

> <Gold.Chemscore.ZeroCoef>
-5.4800

> <Gold.Chemscore.Hbond>
0.9961

> <Gold.Chemscore.Metal>
0.0000

> <Gold.Chemscore.Lipo>
81.6646

> <Gold.Chemscore.Internal_Hbond>
0.0000

> <Gold.Chemscore.DEClash>
0.3477

> <Gold.Chemscore.DEInternal>
2.0584

> <Gold.Chemscore.Rot>
1.9817

> <Gold.Chemscore.Internal.Correction>
   9.000000E+99

> <Gold.Chemscore.Hbonds>
donor molecule, donor type, donor heavy atom, donor atom, acceptor molecule, acceptor atom, score
      L1  H     7    32       P1  7948  1.00

> <Gold.Chemscore.Hbond.Weighted>
-3.3270

> <Gold.Chemscore.Metal.Weighted>
-0.0000

> <Gold.Chemscore.Lipo.Weighted>
-9.5548

> <Gold.Chemscore.Internal_Hbond.Weighted>
0.0000

> <Gold.Chemscore.DEClash.Weighted>
0.3477

> <Gold.Chemscore.DEInternal.Weighted>
2.0584

> <Gold.Chemscore.Rot.Weighted>
5.0731

> <Gold.Chemscore.Internal.Correction.Weighted>
   9.000000E+99

> <Gold.Protein.RotatedTorsions>
[ 6907 6896 6895 6894 ] final  169.16 input  -60.11 | X-H torsion
[ 7974 7965 7964 7962 ] final -111.95 input  175.53 | X-H torsion
[ 8008 7997 7996 7995 ] final   89.21 input   59.86 | X-H torsion
[ 10167 10162 10161 10158 ] final  142.58 input  -65.29 | X-H torsion
[ 10718 10713 10712 10709 ] final -135.45 input   66.30 | X-H torsion
[ 10763 10752 10751 10750 ] final  122.55 input  -60.55 | X-H torsion
[ 11005 11000 10999 10996 ] final   47.52 input  -57.11 | X-H torsion

> <Gold.Protein.ActiveResidues>
 VAL166  LYS551  ARG553  GLY616  TRP617  ASP618  TYR619  PRO620  LYS621  CYS622 
 ASP623  PHE694  ASN695  SER759  ASP760  ASP761  ALA762  ILE779  LEU786  VAL792 
 PHE793  MET794  SER795  GLU796  ALA797  LYS798  CYS799  TRP800  GLU811  SER814 

> <Gold.Protein.RotatedAtoms>
  151.8363  133.3416  159.3628 H   0  0  0  0  0  0  0  0  0  0  0  0  # atno 6907 bound_to 6896
  150.7248  134.5434  159.5768 H   0  0  0  0  0  0  0  0  0  0  0  0  # atno 6908 bound_to 6896
  152.2898  134.7735  160.0431 H   0  0  0  0  0  0  0  0  0  0  0  0  # atno 6909 bound_to 6896
  145.1499  140.8823  143.3652 H   0  0  0  0  0  0  0  0  0  0  0  0  # atno 7974 bound_to 7965
  155.9972  140.3363  155.6810 H   0  0  0  0  0  0  0  0  0  0  0  0  # atno 8008 bound_to 7997
  155.6340  140.0688  157.2658 H   0  0  0  0  0  0  0  0  0  0  0  0  # atno 8009 bound_to 7997
  154.4237  140.1754  156.1490 H   0  0  0  0  0  0  0  0  0  0  0  0  # atno 8010 bound_to 7997
  139.4990  144.6097  151.6299 H   0  0  0  0  0  0  0  0  0  0  0  0  # atno 10167 bound_to 10162
  156.2663  130.7239  151.1190 H   0  0  0  0  0  0  0  0  0  0  0  0  # atno 10718 bound_to 10713
  153.6316  135.3395  155.3043 H   0  0  0  0  0  0  0  0  0  0  0  0  # atno 10763 bound_to 10752
  154.8579  135.4297  154.2100 H   0  0  0  0  0  0  0  0  0  0  0  0  # atno 10764 bound_to 10752
  153.2997  135.7023  153.7288 H   0  0  0  0  0  0  0  0  0  0  0  0  # atno 10765 bound_to 10752
  140.1272  134.4753  155.8550 H   0  0  0  0  0  0  0  0  0  0  0  0  # atno 11005 bound_to 11000
  145.0442  139.3235  143.5961 LP  0  0  0  0  0  0  0  0  0  0  0  0  # atno 17320 bound_to 7965
  146.3496  139.9826  142.8694 LP  0  0  0  0  0  0  0  0  0  0  0  0  # atno 17321 bound_to 7965
  140.5769  144.0014  150.6246 LP  0  0  0  0  0  0  0  0  0  0  0  0  # atno 17342 bound_to 10162
  140.3150  143.3174  152.0841 LP  0  0  0  0  0  0  0  0  0  0  0  0  # atno 17343 bound_to 10162
  157.7268  131.0643  150.5892 LP  0  0  0  0  0  0  0  0  0  0  0  0  # atno 17370 bound_to 10713
  156.5985  130.4348  149.5907 LP  0  0  0  0  0  0  0  0  0  0  0  0  # atno 17371 bound_to 10713
  141.2163  133.6782  156.7001 LP  0  0  0  0  0  0  0  0  0  0  0  0  # atno 17394 bound_to 11000
  140.2889  134.8257  157.3999 LP  0  0  0  0  0  0  0  0  0  0  0  0  # atno 17395 bound_to 11000

$$$$
