AV-unprocessed.smi:610|AV-procd|sdf|3057|dock2
  -GOLD-   2262023583D 1   1.00000     0.00000
 Structure written by MMmdl.
 38 39  0  0  0  0  0  0  0  0  2 V2000
  146.5942  135.4806  156.0241 C   0  0  0  0  0  0  0  0  0  0  0  0
  145.9755  135.7305  154.6425 C   0  0  2  0  0  0  0  0  0  0  0  0
  145.9568  134.4392  153.7956 C   0  0  0  0  0  0  0  0  0  0  0  0
  145.1549  134.5644  152.5738 N   0  0  0  0  0  0  0  0  0  0  0  0
  145.4758  135.2586  151.4351 C   0  0  0  0  0  0  0  0  0  0  0  0
  144.4194  135.1072  150.5746 C   0  0  0  0  0  0  0  0  0  0  0  0
  143.5029  134.3214  151.2205 N   0  3  0  0  0  0  0  0  0  0  0  0
  143.9541  133.9880  152.4339 C   0  0  0  0  0  0  0  0  0  0  0  0
  146.7300  136.7873  153.9701 N   0  0  0  0  0  0  0  0  0  0  0  0
  146.4531  138.1036  154.0064 C   0  0  0  0  0  0  0  0  0  0  0  0
  145.5062  138.5576  154.6510 O   0  0  0  0  0  0  0  0  0  0  0  0
  147.3487  139.0642  153.1837 C   0  0  0  0  0  0  0  0  0  0  0  0
  147.3849  138.7040  151.7719 N   0  0  0  0  0  0  0  0  0  0  0  0
  146.8624  140.5332  153.3177 C   0  0  0  0  0  0  0  0  0  0  0  0
  148.0151  141.3339  153.9355 C   0  0  0  0  0  0  0  0  0  0  0  0
  148.8900  140.3003  154.6360 C   0  0  0  0  0  0  0  0  0  0  0  0
  148.7954  139.0718  153.7324 C   0  0  0  0  0  0  0  0  0  0  0  0
  146.0380  134.7185  156.5708 H   0  0  0  0  0  0  0  0  0  0  0  0
  146.5862  136.3886  156.6282 H   0  0  0  0  0  0  0  0  0  0  0  0
  147.6282  135.1435  155.9427 H   0  0  0  0  0  0  0  0  0  0  0  0
  144.9482  136.0604  154.8073 H   0  0  0  0  0  0  0  0  0  0  0  0
  146.9687  134.1494  153.5087 H   0  0  0  0  0  0  0  0  0  0  0  0
  145.5432  133.6111  154.3731 H   0  0  0  0  0  0  0  0  0  0  0  0
  146.4032  135.8025  151.3284 H   0  0  0  0  0  0  0  0  0  0  0  0
  144.2552  135.4900  149.5779 H   0  0  0  0  0  0  0  0  0  0  0  0
  143.4433  133.3834  153.1621 H   0  0  0  0  0  0  0  0  0  0  0  0
  147.5321  136.4999  153.4273 H   0  0  0  0  0  0  0  0  0  0  0  0
  148.1480  139.1892  151.3226 H   0  0  0  0  0  0  0  0  0  0  0  0
  147.5887  137.7185  151.6863 H   0  0  0  0  0  0  0  0  0  0  0  0
  146.5633  140.9715  152.3641 H   0  0  0  0  0  0  0  0  0  0  0  0
  145.9885  140.6086  153.9676 H   0  0  0  0  0  0  0  0  0  0  0  0
  148.5892  141.8157  153.1428 H   0  0  0  0  0  0  0  0  0  0  0  0
  147.6673  142.1152  154.6119 H   0  0  0  0  0  0  0  0  0  0  0  0
  149.9160  140.6424  154.7733 H   0  0  0  0  0  0  0  0  0  0  0  0
  148.4796  140.0727  155.6205 H   0  0  0  0  0  0  0  0  0  0  0  0
  149.0605  138.1594  154.2693 H   0  0  0  0  0  0  0  0  0  0  0  0
  149.5195  139.1767  152.9222 H   0  0  0  0  0  0  0  0  0  0  0  0
  142.6104  134.0343  150.8382 H   0  0  0  0  0  0  0  0  0  0  0  0
  1  2  1  0  0  0  0
  1 18  1  0  0  0  0
  1 19  1  0  0  0  0
  1 20  1  0  0  0  0
  2  3  1  0  0  0  0
  2  9  1  0  0  0  0
  2 21  1  0  0  0  0
  3  4  1  0  0  0  0
  3 22  1  0  0  0  0
  3 23  1  0  0  0  0
  4  8  1  0  0  0  0
  4  5  1  0  0  0  0
  5  6  2  0  0  0  0
  5 24  1  0  0  0  0
  6  7  1  0  0  0  0
  6 25  1  0  0  0  0
  7  8  2  0  0  0  0
  7 38  1  0  0  0  0
  8 26  1  0  0  0  0
  9 10  1  0  0  0  0
  9 27  1  0  0  0  0
 10 11  2  0  0  0  0
 10 12  1  0  0  0  0
 12 17  1  0  0  0  0
 12 13  1  0  0  0  0
 12 14  1  0  0  0  0
 13 28  1  0  0  0  0
 13 29  1  0  0  0  0
 14 15  1  0  0  0  0
 14 30  1  0  0  0  0
 14 31  1  0  0  0  0
 15 16  1  0  0  0  0
 15 32  1  0  0  0  0
 15 33  1  0  0  0  0
 16 17  1  0  0  0  0
 16 34  1  0  0  0  0
 16 35  1  0  0  0  0
 17 36  1  0  0  0  0
 17 37  1  0  0  0  0
M  CHG  1   7   1
M  END
> <s_m_source_file>
AV-unprocessed.smi

> <i_m_source_file_index>
610

> <i_lp_mmshare_version>
43012

> <i_f3d_flags>
0

> <s_epik_input>
W2NIXTFuW2NIXVtjSF1uMVtDSDJdW0NAQEhdKFtDSDNdKVtOSF1DKD1PKUMyKFtOSDJdKVtDSDJdW0NIMl1bQ0gyXVtDSDJdMg==

> <s_epik_cmdline>
J2VwaWtfcHl0aG9uJywgJy1waCcsICc3LjAnLCAnLXRuJywgJzgnLCAnLW1hJywgJzIwMCcsICctbWV0YWxfYmluZGluZycsICctaW1hZScsICc8aW5maWxlLm1hZT4nLCAnLW9tYWUnLCAnPG91dGZpbGUubWFlPic=

> <r_epik_Ionization_Penalty>
1.50287

> <r_epik_Ionization_Penalty_Charging>
0

> <r_epik_Ionization_Penalty_Neutral>
1.50287

> <r_epik_State_Penalty>
1.57152

> <r_epik_Charging_Adjusted_Penalty>
1.57152

> <i_epik_Tot_Q>
1

> <i_epik_Tot_abs_Q>
1

> <r_epik_Metal_State_Penalty>
1.8522

> <b_epik_Metal_Only>
0

> <s_lp_Force_Field>
OPLS_2005

> <r_lp_Energy>
22.5232

> <b_lp_Chiralities_Consistent>
1

> <s_lp_Variant>
AV-unprocessed.smi:610-5

> <Gold.Version>
5.8.1

> <Gold.Id.Protein>
6NUR|6NUR_protein|mol2

> <Gold.PLP.Fitness>
44.4863

> <Gold.PLP.PLP>
-24.8206

> <Gold.PLP.part.hbond>
-4.8579

> <Gold.PLP.part.metal>
0.0000

> <Gold.PLP.part.buried>
-1.2537

> <Gold.PLP.part.nonpolar>
-20.1019

> <Gold.PLP.part.repulsive>
0.0797

> <Gold.PLP.ligand.clash>
0.0000

> <Gold.PLP.ligand.torsion>
0.6039

> <Gold.PLP.Chemscore.Hbond>
4.9600

> <Gold.PLP.Chemscore.CHOScore>
1.9791

> <Gold.PLP.Chemscore.Metal>
0.0000

> <Gold.Chemscore.Hbonds>
donor molecule, donor type, donor heavy atom, donor atom, acceptor molecule, acceptor atom, score
      L1  H     7    38       P1 10186  1.68
      L1  H     9    27       P1  7948  0.75
      L1  H    13    28       P1  7957  1.00
      L1  H    13    29       P1  7948  0.94
      L1  C     5    24       P1  7948  0.83
      L1  C     8    26       P1 10957  1.00

> <Gold.PLP.Chemscore.Internal.Correction>
0.0563

> <Gold.Rescore>
     Score         DG    S(hbond)    S(metal)    S(lipo)     H(rot)  DE(clash)    DE(int)     intcor
     16.72     -18.35       3.73        0.00      47.65       2.02       0.71       0.92       ----

> <Gold.Chemscore.Fitness>
16.7240

> <Gold.Chemscore.DG>
-18.3530

> <Gold.Chemscore.ZeroCoef>
-5.4800

> <Gold.Chemscore.Hbond>
3.7297

> <Gold.Chemscore.Metal>
0.0000

> <Gold.Chemscore.Lipo>
47.6461

> <Gold.Chemscore.Internal_Hbond>
0.0000

> <Gold.Chemscore.DEClash>
0.7062

> <Gold.Chemscore.DEInternal>
0.9227

> <Gold.Chemscore.Rot>
2.0152

> <Gold.Chemscore.Internal.Correction>
   9.000000E+99

> <Gold.Chemscore.Hbonds>
donor molecule, donor type, donor heavy atom, donor atom, acceptor molecule, acceptor atom, score
      L1  H     7    38       P1 10186  0.47
      L1  H     9    27       P1  7948  0.75
      L1  H    13    28       P1  7957  0.74
      L1  H    13    29       P1  7948  0.89

> <Gold.Chemscore.Hbond.Weighted>
-12.4573

> <Gold.Chemscore.Metal.Weighted>
-0.0000

> <Gold.Chemscore.Lipo.Weighted>
-5.5746

> <Gold.Chemscore.Internal_Hbond.Weighted>
0.0000

> <Gold.Chemscore.DEClash.Weighted>
0.7062

> <Gold.Chemscore.DEInternal.Weighted>
0.9227

> <Gold.Chemscore.Rot.Weighted>
5.1589

> <Gold.Chemscore.Internal.Correction.Weighted>
   9.000000E+99

> <Gold.Protein.RotatedTorsions>
[ 6907 6896 6895 6894 ] final  -84.13 input  -60.11 | X-H torsion
[ 7974 7965 7964 7962 ] final  -23.57 input  175.53 | X-H torsion
[ 8008 7997 7996 7995 ] final  125.60 input   59.86 | X-H torsion
[ 10167 10162 10161 10158 ] final   21.48 input  -65.29 | X-H torsion
[ 10718 10713 10712 10709 ] final  -65.43 input   66.30 | X-H torsion
[ 10763 10752 10751 10750 ] final  124.70 input  -60.55 | X-H torsion
[ 11005 11000 10999 10996 ] final  108.75 input  -57.11 | X-H torsion

> <Gold.Protein.ActiveResidues>
 VAL166  LYS551  ARG553  GLY616  TRP617  ASP618  TYR619  PRO620  LYS621  CYS622 
 ASP623  PHE694  ASN695  SER759  ASP760  ASP761  ALA762  ILE779  LEU786  VAL792 
 PHE793  MET794  SER795  GLU796  ALA797  LYS798  CYS799  TRP800  GLU811  SER814 

> <Gold.Protein.RotatedAtoms>
  150.6879  134.3406  159.4865 H   0  0  0  0  0  0  0  0  0  0  0  0  # atno 6907 bound_to 6896
  152.1259  134.9168  160.0570 H   0  0  0  0  0  0  0  0  0  0  0  0  # atno 6908 bound_to 6896
  152.0356  133.3921  159.4352 H   0  0  0  0  0  0  0  0  0  0  0  0  # atno 6909 bound_to 6896
  146.1608  140.4634  142.8572 H   0  0  0  0  0  0  0  0  0  0  0  0  # atno 7974 bound_to 7965
  156.2839  140.2712  156.1976 H   0  0  0  0  0  0  0  0  0  0  0  0  # atno 8008 bound_to 7997
  155.0394  140.0386  157.2522 H   0  0  0  0  0  0  0  0  0  0  0  0  # atno 8009 bound_to 7997
  154.7287  140.2702  155.6481 H   0  0  0  0  0  0  0  0  0  0  0  0  # atno 8010 bound_to 7997
  140.5423  143.9655  150.6527 H   0  0  0  0  0  0  0  0  0  0  0  0  # atno 10167 bound_to 10162
  156.0670  130.4247  150.1563 H   0  0  0  0  0  0  0  0  0  0  0  0  # atno 10718 bound_to 10713
  153.6656  135.3339  155.3139 H   0  0  0  0  0  0  0  0  0  0  0  0  # atno 10763 bound_to 10752
  154.8504  135.4374  154.1758 H   0  0  0  0  0  0  0  0  0  0  0  0  # atno 10764 bound_to 10752
  153.2736  135.7002  153.7531 H   0  0  0  0  0  0  0  0  0  0  0  0  # atno 10765 bound_to 10752
  139.8849  134.9439  156.6020 H   0  0  0  0  0  0  0  0  0  0  0  0  # atno 11005 bound_to 11000
  144.8024  140.6238  143.6469 LP  0  0  0  0  0  0  0  0  0  0  0  0  # atno 17320 bound_to 7965
  145.4593  139.1514  143.3875 LP  0  0  0  0  0  0  0  0  0  0  0  0  # atno 17321 bound_to 7965
  140.3059  143.3230  152.0926 LP  0  0  0  0  0  0  0  0  0  0  0  0  # atno 17342 bound_to 10162
  139.4993  144.6667  151.6339 LP  0  0  0  0  0  0  0  0  0  0  0  0  # atno 17343 bound_to 10162
  156.9621  130.9808  151.3477 LP  0  0  0  0  0  0  0  0  0  0  0  0  # atno 17370 bound_to 10713
  157.5718  130.8316  149.8402 LP  0  0  0  0  0  0  0  0  0  0  0  0  # atno 17371 bound_to 10713
  140.7877  133.8608  155.8620 LP  0  0  0  0  0  0  0  0  0  0  0  0  # atno 17394 bound_to 11000
  140.9705  134.1537  157.4580 LP  0  0  0  0  0  0  0  0  0  0  0  0  # atno 17395 bound_to 11000

$$$$
