AV-unprocessed.smi:3337|AV-procd|sdf|12862|dock9
  -GOLD-   2272019263D 1   1.00000     0.00000
 Structure written by MMmdl.
 46 47  0  0  0  0  0  0  0  0  2 V2000
  151.7707  139.9115  155.6484 C   0  0  0  0  0  0  0  0  0  0  0  0
  150.3035  139.5807  155.3408 C   0  0  1  0  0  0  0  0  0  0  0  0
  149.5467  140.8168  154.8248 C   0  0  0  0  0  0  0  0  0  0  0  0
  148.0890  140.4659  154.4790 C   0  0  1  0  0  0  0  0  0  0  0  0
  147.3327  141.6890  153.9416 C   0  0  0  0  0  0  0  0  0  0  0  0
  148.0511  139.2943  153.4752 C   0  0  0  0  0  0  0  0  0  0  0  0
  148.7778  138.0991  153.9791 N   0  3  2  0  0  0  0  0  0  0  0  0
  148.0334  137.3485  155.0256 C   0  0  0  0  0  0  0  0  0  0  0  0
  146.7276  136.7297  154.4887 C   0  0  0  0  0  0  0  0  0  0  0  0
  146.9830  135.5116  153.7290 N   0  0  0  0  0  0  0  0  0  0  0  0
  146.1724  134.4415  153.7023 C   0  0  0  0  0  0  0  0  0  0  0  0
  145.1036  134.3973  154.3131 O   0  0  0  0  0  0  0  0  0  0  0  0
  146.6448  133.2464  152.8595 C   0  0  2  0  0  0  0  0  0  0  0  0
  148.1410  133.3323  152.4962 C   0  0  0  0  0  0  0  0  0  0  0  0
  145.8008  133.0943  151.6809 N   0  0  0  0  0  0  0  0  0  0  0  0
  145.8775  132.2166  150.6781 C   0  0  0  0  0  0  0  0  0  0  0  0
  144.9096  132.3376  149.7807 N   0  0  0  0  0  0  0  0  0  0  0  0
  144.2151  133.3761  150.3327 C   0  0  0  0  0  0  0  0  0  0  0  0
  144.6994  133.8596  151.4764 N   0  0  0  0  0  0  0  0  0  0  0  0
  150.1898  138.4208  154.3265 C   0  0  0  0  0  0  0  0  0  0  0  0
  152.3039  140.2296  154.7519 H   0  0  0  0  0  0  0  0  0  0  0  0
  152.2912  139.0440  156.0554 H   0  0  0  0  0  0  0  0  0  0  0  0
  151.8468  140.7137  156.3831 H   0  0  0  0  0  0  0  0  0  0  0  0
  149.8458  139.2715  156.2805 H   0  0  0  0  0  0  0  0  0  0  0  0
  149.5706  141.6073  155.5762 H   0  0  0  0  0  0  0  0  0  0  0  0
  150.0489  141.2146  153.9414 H   0  0  0  0  0  0  0  0  0  0  0  0
  147.5874  140.1533  155.3958 H   0  0  0  0  0  0  0  0  0  0  0  0
  147.7736  142.0532  153.0130 H   0  0  0  0  0  0  0  0  0  0  0  0
  147.3498  142.5085  154.6609 H   0  0  0  0  0  0  0  0  0  0  0  0
  146.2879  141.4489  153.7425 H   0  0  0  0  0  0  0  0  0  0  0  0
  147.0219  139.0297  153.2292 H   0  0  0  0  0  0  0  0  0  0  0  0
  148.5141  139.6033  152.5366 H   0  0  0  0  0  0  0  0  0  0  0  0
  148.6709  136.5866  155.4732 H   0  0  0  0  0  0  0  0  0  0  0  0
  147.7699  138.0324  155.8336 H   0  0  0  0  0  0  0  0  0  0  0  0
  146.0666  136.4787  155.3187 H   0  0  0  0  0  0  0  0  0  0  0  0
  146.1790  137.4296  153.8581 H   0  0  0  0  0  0  0  0  0  0  0  0
  147.8435  135.4705  153.2019 H   0  0  0  0  0  0  0  0  0  0  0  0
  146.5134  132.3474  153.4646 H   0  0  0  0  0  0  0  0  0  0  0  0
  148.7592  133.3950  153.3923 H   0  0  0  0  0  0  0  0  0  0  0  0
  148.3653  134.2032  151.8790 H   0  0  0  0  0  0  0  0  0  0  0  0
  148.4569  132.4475  151.9428 H   0  0  0  0  0  0  0  0  0  0  0  0
  146.6559  131.4715  150.6034 H   0  0  0  0  0  0  0  0  0  0  0  0
  143.3222  133.7836  149.8816 H   0  0  0  0  0  0  0  0  0  0  0  0
  150.7053  138.6962  153.4054 H   0  0  0  0  0  0  0  0  0  0  0  0
  150.7061  137.5376  154.7005 H   0  0  0  0  0  0  0  0  0  0  0  0
  148.8217  137.4664  153.1931 H   0  0  0  0  0  0  0  0  0  0  0  0
  1  2  1  0  0  0  0
  1 21  1  0  0  0  0
  1 22  1  0  0  0  0
  1 23  1  0  0  0  0
  2 20  1  0  0  0  0
  2  3  1  0  0  0  0
  2 24  1  0  0  0  0
  3  4  1  0  0  0  0
  3 25  1  0  0  0  0
  3 26  1  0  0  0  0
  4  5  1  0  0  0  0
  4  6  1  0  0  0  0
  4 27  1  0  0  0  0
  5 28  1  0  0  0  0
  5 29  1  0  0  0  0
  5 30  1  0  0  0  0
  6  7  1  0  0  0  0
  6 31  1  0  0  0  0
  6 32  1  0  0  0  0
  7  8  1  0  0  0  0
  7 20  1  0  0  0  0
  7 46  1  0  0  0  0
  8  9  1  0  0  0  0
  8 33  1  0  0  0  0
  8 34  1  0  0  0  0
  9 10  1  0  0  0  0
  9 35  1  0  0  0  0
  9 36  1  0  0  0  0
 10 11  1  0  0  0  0
 10 37  1  0  0  0  0
 11 12  2  0  0  0  0
 11 13  1  0  0  0  0
 13 14  1  0  0  0  0
 13 15  1  0  0  0  0
 13 38  1  0  0  0  0
 14 39  1  0  0  0  0
 14 40  1  0  0  0  0
 14 41  1  0  0  0  0
 15 19  1  0  0  0  0
 15 16  1  0  0  0  0
 16 17  2  0  0  0  0
 16 42  1  0  0  0  0
 17 18  1  0  0  0  0
 18 19  2  0  0  0  0
 18 43  1  0  0  0  0
 20 44  1  0  0  0  0
 20 45  1  0  0  0  0
M  CHG  1   7   1
M  END
> <s_m_source_file>
AV-unprocessed.smi

> <i_m_source_file_index>
3337

> <i_lp_mmshare_version>
43012

> <i_f3d_flags>
0

> <s_epik_input>
W0NIM11bQ0BASF0xW0NIMl1bQ0BASF0oW0NIM10pW0NIMl1OKFtDSDJdMSlbQ0gyXVtDSDJdW05IXUMoPU8pW0NASF0oW0NIM10pbjJbY0hdbltjSF1uMg==

> <s_epik_cmdline>
J2VwaWtfcHl0aG9uJywgJy1waCcsICc3LjAnLCAnLXRuJywgJzgnLCAnLW1hJywgJzIwMCcsICctbWV0YWxfYmluZGluZycsICctaW1hZScsICc8aW5maWxlLm1hZT4nLCAnLW9tYWUnLCAnPG91dGZpbGUubWFlPic=

> <r_lp_tautomer_probability>
1

> <r_epik_Ionization_Penalty>
0.00175613

> <r_epik_Ionization_Penalty_Charging>
0.00174812

> <r_epik_Ionization_Penalty_Neutral>
8.01354e-06

> <r_epik_State_Penalty>
0.00118332

> <r_epik_Charging_Adjusted_Penalty>
0.00293143

> <i_epik_Tot_Q>
1

> <i_epik_Tot_abs_Q>
1

> <r_epik_Metal_State_Penalty>
-0

> <b_epik_Metal_Only>
0

> <s_lp_Force_Field>
OPLS_2005

> <r_lp_Energy>
24.5444

> <b_lp_Chiralities_Consistent>
1

> <s_lp_Variant>
AV-unprocessed.smi:3337-2

> <Gold.Version>
5.8.1

> <Gold.Id.Protein>
6NUR|6NUR_protein|mol2

> <Gold.PLP.Fitness>
45.0598

> <Gold.PLP.PLP>
-31.4117

> <Gold.PLP.part.hbond>
-2.0000

> <Gold.PLP.part.metal>
0.0000

> <Gold.PLP.part.buried>
-1.4884

> <Gold.PLP.part.nonpolar>
-27.6251

> <Gold.PLP.part.repulsive>
0.3462

> <Gold.PLP.ligand.clash>
0.0000

> <Gold.PLP.ligand.torsion>
0.7065

> <Gold.PLP.Chemscore.Hbond>
2.9760

> <Gold.PLP.Chemscore.CHOScore>
2.0000

> <Gold.PLP.Chemscore.Metal>
0.0000

> <Gold.Chemscore.Hbonds>
donor molecule, donor type, donor heavy atom, donor atom, acceptor molecule, acceptor atom, score
      L1  H     7    46       P1  7948  2.00
      L1  H    10    37       P1  7948  0.98
      L1  C    16    42       P1 10747  1.00
      L1  C    18    43       P1 10186  1.00

> <Gold.PLP.Chemscore.Internal.Correction>
0.1332

> <Gold.Rescore>
     Score         DG    S(hbond)    S(metal)    S(lipo)     H(rot)  DE(clash)    DE(int)     intcor
     10.51     -12.72       1.97        0.00      60.59       2.51       0.51       1.71       ----

> <Gold.Chemscore.Fitness>
10.5060

> <Gold.Chemscore.DG>
-12.7236

> <Gold.Chemscore.ZeroCoef>
-5.4800

> <Gold.Chemscore.Hbond>
1.9723

> <Gold.Chemscore.Metal>
0.0000

> <Gold.Chemscore.Lipo>
60.5917

> <Gold.Chemscore.Internal_Hbond>
0.0000

> <Gold.Chemscore.DEClash>
0.5123

> <Gold.Chemscore.DEInternal>
1.7053

> <Gold.Chemscore.Rot>
2.5129

> <Gold.Chemscore.Internal.Correction>
   9.000000E+99

> <Gold.Chemscore.Hbonds>
donor molecule, donor type, donor heavy atom, donor atom, acceptor molecule, acceptor atom, score
      L1  H     7    46       P1  7948  1.00
      L1  H    10    37       P1  7948  0.93

> <Gold.Chemscore.Hbond.Weighted>
-6.5874

> <Gold.Chemscore.Metal.Weighted>
-0.0000

> <Gold.Chemscore.Lipo.Weighted>
-7.0892

> <Gold.Chemscore.Internal_Hbond.Weighted>
0.0000

> <Gold.Chemscore.DEClash.Weighted>
0.5123

> <Gold.Chemscore.DEInternal.Weighted>
1.7053

> <Gold.Chemscore.Rot.Weighted>
6.4331

> <Gold.Chemscore.Internal.Correction.Weighted>
   9.000000E+99

> <Gold.Protein.RotatedTorsions>
[ 6907 6896 6895 6894 ] final  -56.70 input  -60.11 | X-H torsion
[ 7974 7965 7964 7962 ] final  143.17 input  175.53 | X-H torsion
[ 8008 7997 7996 7995 ] final   -6.55 input   59.86 | X-H torsion
[ 10167 10162 10161 10158 ] final  -89.71 input  -65.29 | X-H torsion
[ 10718 10713 10712 10709 ] final    8.60 input   66.30 | X-H torsion
[ 10763 10752 10751 10750 ] final   43.72 input  -60.55 | X-H torsion
[ 11005 11000 10999 10996 ] final  -85.17 input  -57.11 | X-H torsion

> <Gold.Protein.ActiveResidues>
 VAL166  LYS551  ARG553  GLY616  TRP617  ASP618  TYR619  PRO620  LYS621  CYS622 
 ASP623  PHE694  ASN695  SER759  ASP760  ASP761  ALA762  ILE779  LEU786  VAL792 
 PHE793  MET794  SER795  GLU796  ALA797  LYS798  CYS799  TRP800  GLU811  SER814 

> <Gold.Protein.RotatedAtoms>
  150.8146  134.7320  159.6717 H   0  0  0  0  0  0  0  0  0  0  0  0  # atno 6907 bound_to 6896
  152.4265  134.5856  159.9969 H   0  0  0  0  0  0  0  0  0  0  0  0  # atno 6908 bound_to 6896
  151.6056  133.3315  159.3092 H   0  0  0  0  0  0  0  0  0  0  0  0  # atno 6909 bound_to 6896
  144.8944  139.5512  143.5783 H   0  0  0  0  0  0  0  0  0  0  0  0  # atno 7974 bound_to 7965
  154.5926  140.2430  155.7900 H   0  0  0  0  0  0  0  0  0  0  0  0  # atno 8008 bound_to 7997
  156.2257  140.2983  156.0016 H   0  0  0  0  0  0  0  0  0  0  0  0  # atno 8009 bound_to 7997
  155.2347  140.0405  157.2957 H   0  0  0  0  0  0  0  0  0  0  0  0  # atno 8010 bound_to 7997
  140.3621  143.2836  151.9601 H   0  0  0  0  0  0  0  0  0  0  0  0  # atno 10167 bound_to 10162
  156.9540  130.5908  149.5658 H   0  0  0  0  0  0  0  0  0  0  0  0  # atno 10718 bound_to 10713
  152.9855  135.6093  154.3157 H   0  0  0  0  0  0  0  0  0  0  0  0  # atno 10763 bound_to 10752
  154.2870  135.2775  155.2673 H   0  0  0  0  0  0  0  0  0  0  0  0  # atno 10764 bound_to 10752
  154.4986  135.5873  153.6570 H   0  0  0  0  0  0  0  0  0  0  0  0  # atno 10765 bound_to 10752
  141.1644  133.7385  156.8976 H   0  0  0  0  0  0  0  0  0  0  0  0  # atno 11005 bound_to 11000
  146.3072  139.7622  142.9047 LP  0  0  0  0  0  0  0  0  0  0  0  0  # atno 17320 bound_to 7965
  145.3726  141.0345  143.3222 LP  0  0  0  0  0  0  0  0  0  0  0  0  # atno 17321 bound_to 7965
  139.4813  144.5983  151.7651 LP  0  0  0  0  0  0  0  0  0  0  0  0  # atno 17342 bound_to 10162
  140.5116  144.1016  150.5997 LP  0  0  0  0  0  0  0  0  0  0  0  0  # atno 17343 bound_to 10162
  156.0350  130.5439  150.8631 LP  0  0  0  0  0  0  0  0  0  0  0  0  # atno 17370 bound_to 10713
  157.5703  131.0946  150.9428 LP  0  0  0  0  0  0  0  0  0  0  0  0  # atno 17371 bound_to 10713
  140.1605  134.9169  157.2708 LP  0  0  0  0  0  0  0  0  0  0  0  0  # atno 17394 bound_to 11000
  140.2617  134.3563  155.7404 LP  0  0  0  0  0  0  0  0  0  0  0  0  # atno 17395 bound_to 11000

$$$$
