AV-unprocessed.smi:1954|AV-procd|sdf|7896|dock1
  -GOLD-   2272010 53D 1   1.00000     0.00000
 Structure written by MMmdl.
 45 47  0  0  0  0  0  0  0  0  2 V2000
  149.6596  135.3957  158.5355 O   0  0  0  0  0  0  0  0  0  0  0  0
  149.3632  136.5900  158.5658 C   0  0  0  0  0  0  0  0  0  0  0  0
  149.8107  137.4860  157.6744 N   0  0  0  0  0  0  0  0  0  0  0  0
  150.7135  137.1979  156.5595 C   0  0  0  0  0  0  0  0  0  0  0  0
  150.1159  137.5580  155.1613 C   0  0  1  0  0  0  0  0  0  0  0  0
  149.2770  136.4001  154.6738 N   0  3  0  0  0  0  0  0  0  0  0  0
  149.9642  135.0790  154.7341 C   0  0  0  0  0  0  0  0  0  0  0  0
  149.1259  133.9915  154.0470 C   0  0  0  0  0  0  0  0  0  0  0  0
  147.8612  133.9087  154.6860 O   0  0  0  0  0  0  0  0  0  0  0  0
  147.1336  135.1205  154.5542 C   0  0  0  0  0  0  0  0  0  0  0  0
  147.8962  136.2796  155.2216 C   0  0  0  0  0  0  0  0  0  0  0  0
  149.3101  138.8761  155.2598 C   0  0  0  0  0  0  0  0  0  0  0  0
  150.2917  140.0437  155.4390 C   0  0  0  0  0  0  0  0  0  0  0  0
  151.8486  139.5981  154.6298 S   0  0  0  0  0  0  0  0  0  0  0  0
  151.2655  137.9425  154.1906 C   0  0  0  0  0  0  0  0  0  0  0  0
  148.5723  137.1716  159.4844 N   0  0  0  0  0  0  0  0  0  0  0  0
  147.9420  136.5731  160.6076 C   0  0  0  0  0  0  0  0  0  0  0  0
  147.8670  135.1613  160.7281 C   0  0  0  0  0  0  0  0  0  0  0  0
  147.2134  134.5975  161.8408 C   0  0  0  0  0  0  0  0  0  0  0  0
  146.6407  135.4538  162.7976 C   0  0  0  0  0  0  0  0  0  0  0  0
  146.7434  136.8414  162.5909 C   0  0  0  0  0  0  0  0  0  0  0  0
  147.3677  137.3856  161.5247 N   0  0  0  0  0  0  0  0  0  0  0  0
  149.5305  138.4485  157.7943 H   0  0  0  0  0  0  0  0  0  0  0  0
  151.6228  137.7708  156.7386 H   0  0  0  0  0  0  0  0  0  0  0  0
  151.0409  136.1586  156.6039 H   0  0  0  0  0  0  0  0  0  0  0  0
  150.9388  135.1215  154.2508 H   0  0  0  0  0  0  0  0  0  0  0  0
  150.1339  134.7906  155.7721 H   0  0  0  0  0  0  0  0  0  0  0  0
  149.0052  134.2009  152.9828 H   0  0  0  0  0  0  0  0  0  0  0  0
  149.6252  133.0259  154.1276 H   0  0  0  0  0  0  0  0  0  0  0  0
  146.9524  135.3333  153.4992 H   0  0  0  0  0  0  0  0  0  0  0  0
  146.1571  134.9968  155.0229 H   0  0  0  0  0  0  0  0  0  0  0  0
  147.9322  136.1340  156.3017 H   0  0  0  0  0  0  0  0  0  0  0  0
  147.3160  137.1794  155.0246 H   0  0  0  0  0  0  0  0  0  0  0  0
  148.7493  139.0359  154.3382 H   0  0  0  0  0  0  0  0  0  0  0  0
  148.5817  138.8629  156.0713 H   0  0  0  0  0  0  0  0  0  0  0  0
  149.8939  140.9727  155.0297 H   0  0  0  0  0  0  0  0  0  0  0  0
  150.4943  140.2118  156.4971 H   0  0  0  0  0  0  0  0  0  0  0  0
  152.0820  137.2224  154.1656 H   0  0  0  0  0  0  0  0  0  0  0  0
  150.9156  138.0689  153.1682 H   0  0  0  0  0  0  0  0  0  0  0  0
  148.5047  138.1776  159.4413 H   0  0  0  0  0  0  0  0  0  0  0  0
  148.2882  134.5032  159.9833 H   0  0  0  0  0  0  0  0  0  0  0  0
  147.1480  133.5255  161.9538 H   0  0  0  0  0  0  0  0  0  0  0  0
  146.1308  135.0579  163.6634 H   0  0  0  0  0  0  0  0  0  0  0  0
  146.3106  137.5333  163.2981 H   0  0  0  0  0  0  0  0  0  0  0  0
  149.1390  136.5890  153.6912 H   0  0  0  0  0  0  0  0  0  0  0  0
  1  2  2  0  0  0  0
  2  3  1  0  0  0  0
  2 16  1  0  0  0  0
  3  4  1  0  0  0  0
  3 23  1  0  0  0  0
  4  5  1  0  0  0  0
  4 24  1  0  0  0  0
  4 25  1  0  0  0  0
  5 15  1  0  0  0  0
  5  6  1  0  0  0  0
  5 12  1  0  0  0  0
  6 11  1  0  0  0  0
  6  7  1  0  0  0  0
  6 45  1  0  0  0  0
  7  8  1  0  0  0  0
  7 26  1  0  0  0  0
  7 27  1  0  0  0  0
  8  9  1  0  0  0  0
  8 28  1  0  0  0  0
  8 29  1  0  0  0  0
  9 10  1  0  0  0  0
 10 11  1  0  0  0  0
 10 30  1  0  0  0  0
 10 31  1  0  0  0  0
 11 32  1  0  0  0  0
 11 33  1  0  0  0  0
 12 13  1  0  0  0  0
 12 34  1  0  0  0  0
 12 35  1  0  0  0  0
 13 14  1  0  0  0  0
 13 36  1  0  0  0  0
 13 37  1  0  0  0  0
 14 15  1  0  0  0  0
 15 38  1  0  0  0  0
 15 39  1  0  0  0  0
 16 17  1  0  0  0  0
 16 40  1  0  0  0  0
 17 22  1  0  0  0  0
 17 18  2  0  0  0  0
 18 19  1  0  0  0  0
 18 41  1  0  0  0  0
 19 20  2  0  0  0  0
 19 42  1  0  0  0  0
 20 21  1  0  0  0  0
 20 43  1  0  0  0  0
 21 22  2  0  0  0  0
 21 44  1  0  0  0  0
M  CHG  1   6   1
M  END
> <s_m_source_file>
AV-unprocessed.smi

> <i_m_source_file_index>
1954

> <i_lp_mmshare_version>
43012

> <i_f3d_flags>
0

> <s_epik_input>
bjFbY0hdW2NIXVtjSF1bY0hdYzFbTkhdQyg9TylbTkhdW0NIMl1bQ0BdMihbQ0gyXVtDSDJdU1tDSDJdMilOM1tDSDJdW0NIMl1PW0NIMl1bQ0gyXTM=

> <s_epik_cmdline>
J2VwaWtfcHl0aG9uJywgJy1waCcsICc3LjAnLCAnLXRuJywgJzgnLCAnLW1hJywgJzIwMCcsICctbWV0YWxfYmluZGluZycsICctaW1hZScsICc8aW5maWxlLm1hZT4nLCAnLW9tYWUnLCAnPG91dGZpbGUubWFlPic=

> <r_epik_Ionization_Penalty>
2.03222

> <r_epik_Ionization_Penalty_Charging>
2.03219

> <r_epik_Ionization_Penalty_Neutral>
3.25833e-05

> <r_epik_State_Penalty>
2.16328

> <r_epik_Charging_Adjusted_Penalty>
4.19546

> <i_epik_Tot_Q>
1

> <i_epik_Tot_abs_Q>
1

> <r_epik_Metal_State_Penalty>
2.16328

> <b_epik_Metal_Only>
0

> <s_lp_Force_Field>
OPLS_2005

> <r_lp_Energy>
49.2696

> <b_lp_Chiralities_Consistent>
1

> <s_lp_Variant>
AV-unprocessed.smi:1954-3

> <Gold.Version>
5.8.1

> <Gold.Id.Protein>
6NUR|6NUR_protein|mol2

> <Gold.PLP.Fitness>
48.1345

> <Gold.PLP.PLP>
-35.0740

> <Gold.PLP.part.hbond>
-3.8409

> <Gold.PLP.part.metal>
0.0000

> <Gold.PLP.part.buried>
-1.2647

> <Gold.PLP.part.nonpolar>
-30.4099

> <Gold.PLP.part.repulsive>
0.3515

> <Gold.PLP.ligand.clash>
0.0000

> <Gold.PLP.ligand.torsion>
0.8231

> <Gold.PLP.Chemscore.Hbond>
4.8160

> <Gold.PLP.Chemscore.CHOScore>
0.0000

> <Gold.PLP.Chemscore.Metal>
0.0000

> <Gold.Chemscore.Hbonds>
donor molecule, donor type, donor heavy atom, donor atom, acceptor molecule, acceptor atom, score
      L1  H     6    45       P1  7948  2.00
      P1  H  6896  6908       L1     1  1.00
      P1  H  6931  6943       L1    22  0.52
      P1  H  6934  6947       L1    22  0.86

> <Gold.PLP.Chemscore.Internal.Correction>
0.2588

> <Gold.Rescore>
     Score         DG    S(hbond)    S(metal)    S(lipo)     H(rot)  DE(clash)    DE(int)     intcor
     18.35     -20.89       2.86        0.00      83.81       1.54       0.48       2.06       ----

> <Gold.Chemscore.Fitness>
18.3530

> <Gold.Chemscore.DG>
-20.8914

> <Gold.Chemscore.ZeroCoef>
-5.4800

> <Gold.Chemscore.Hbond>
2.8551

> <Gold.Chemscore.Metal>
0.0000

> <Gold.Chemscore.Lipo>
83.8140

> <Gold.Chemscore.Internal_Hbond>
0.0000

> <Gold.Chemscore.DEClash>
0.4819

> <Gold.Chemscore.DEInternal>
2.0564

> <Gold.Chemscore.Rot>
1.5355

> <Gold.Chemscore.Internal.Correction>
   9.000000E+99

> <Gold.Chemscore.Hbonds>
donor molecule, donor type, donor heavy atom, donor atom, acceptor molecule, acceptor atom, score
      L1  H     6    45       P1  7948  0.98
      P1  H  6896  6908       L1     1  0.98
      P1  H  6931  6943       L1    22  0.04
      P1  H  6934  6947       L1    22  0.72

> <Gold.Chemscore.Hbond.Weighted>
-9.5360

> <Gold.Chemscore.Metal.Weighted>
-0.0000

> <Gold.Chemscore.Lipo.Weighted>
-9.8062

> <Gold.Chemscore.Internal_Hbond.Weighted>
0.0000

> <Gold.Chemscore.DEClash.Weighted>
0.4819

> <Gold.Chemscore.DEInternal.Weighted>
2.0564

> <Gold.Chemscore.Rot.Weighted>
3.9309

> <Gold.Chemscore.Internal.Correction.Weighted>
   9.000000E+99

> <Gold.Protein.RotatedTorsions>
[ 6907 6896 6895 6894 ] final  180.00 input  -60.11 | X-H torsion
[ 7974 7965 7964 7962 ] final  -73.03 input  175.53 | X-H torsion
[ 8008 7997 7996 7995 ] final  104.93 input   59.86 | X-H torsion
[ 10167 10162 10161 10158 ] final  -33.69 input  -65.29 | X-H torsion
[ 10718 10713 10712 10709 ] final -152.35 input   66.30 | X-H torsion
[ 10763 10752 10751 10750 ] final  -49.95 input  -60.55 | X-H torsion
[ 11005 11000 10999 10996 ] final -129.55 input  -57.11 | X-H torsion

> <Gold.Protein.ActiveResidues>
 VAL166  LYS551  ARG553  GLY616  TRP617  ASP618  TYR619  PRO620  LYS621  CYS622 
 ASP623  PHE694  ASN695  SER759  ASP760  ASP761  ALA762  ILE779  LEU786  VAL792 
 PHE793  MET794  SER795  GLU796  ALA797  LYS798  CYS799  TRP800  GLU811  SER814 

> <Gold.Protein.RotatedAtoms>
  151.6626  133.3316  159.3177 H   0  0  0  0  0  0  0  0  0  0  0  0  # atno 6907 bound_to 6896
  150.7906  134.6931  159.6517 H   0  0  0  0  0  0  0  0  0  0  0  0  # atno 6908 bound_to 6896
  152.3985  134.6329  160.0131 H   0  0  0  0  0  0  0  0  0  0  0  0  # atno 6909 bound_to 6896
  145.6575  140.9263  143.0952 H   0  0  0  0  0  0  0  0  0  0  0  0  # atno 7974 bound_to 7965
  156.1616  140.3139  155.8816 H   0  0  0  0  0  0  0  0  0  0  0  0  # atno 8008 bound_to 7997
  155.3771  140.0485  157.3061 H   0  0  0  0  0  0  0  0  0  0  0  0  # atno 8009 bound_to 7997
  154.5152  140.2178  155.9091 H   0  0  0  0  0  0  0  0  0  0  0  0  # atno 8010 bound_to 7997
  140.7200  143.3602  151.1978 H   0  0  0  0  0  0  0  0  0  0  0  0  # atno 10167 bound_to 10162
  156.4714  130.8260  151.2489 H   0  0  0  0  0  0  0  0  0  0  0  0  # atno 10718 bound_to 10713
  154.1025  135.6561  153.4870 H   0  0  0  0  0  0  0  0  0  0  0  0  # atno 10763 bound_to 10752
  153.0284  135.5228  154.7272 H   0  0  0  0  0  0  0  0  0  0  0  0  # atno 10764 bound_to 10752
  154.6429  135.2990  155.0051 H   0  0  0  0  0  0  0  0  0  0  0  0  # atno 10765 bound_to 10752
  140.9422  134.1178  157.4140 H   0  0  0  0  0  0  0  0  0  0  0  0  # atno 11005 bound_to 11000
  144.7101  139.8406  143.7417 LP  0  0  0  0  0  0  0  0  0  0  0  0  # atno 17320 bound_to 7965
  146.1153  139.4163  143.0262 LP  0  0  0  0  0  0  0  0  0  0  0  0  # atno 17321 bound_to 7965
  139.7152  143.9311  152.2964 LP  0  0  0  0  0  0  0  0  0  0  0  0  # atno 17342 bound_to 10162
  139.9050  144.6890  150.8624 LP  0  0  0  0  0  0  0  0  0  0  0  0  # atno 17343 bound_to 10162
  157.7491  131.0075  150.3192 LP  0  0  0  0  0  0  0  0  0  0  0  0  # atno 17370 bound_to 10713
  156.3615  130.3848  149.7247 LP  0  0  0  0  0  0  0  0  0  0  0  0  # atno 17371 bound_to 10713
  139.8823  135.0040  156.6222 LP  0  0  0  0  0  0  0  0  0  0  0  0  # atno 17394 bound_to 11000
  140.7718  133.8732  155.8498 LP  0  0  0  0  0  0  0  0  0  0  0  0  # atno 17395 bound_to 11000

$$$$
