#       Name:                AV-unprocessed.smi:341
#       Creating user name   scv26
#       Creation time:       Thu Mar 26 22:30:53 2020


#       File generated by GOLD software.
#

@<TRIPOS>MOLECULE
AV-unprocessed.smi:341
    51    53     1
SMALL
NO_CHARGES


@<TRIPOS>ATOM
      1 ****        -3.6315   3.9569  -2.4250 C.3            1 S1                 0.0000
      2 ****        -2.1754   3.9803  -1.9432 C.3            1 S1                 0.0000
      3 ****        -1.9411   2.9644  -0.9200 N.am           1 S1                 0.0000
      4 ****        -1.5081   1.6979  -1.1238 C.2            1 S1                 0.0000
      5 ****        -1.2222   1.1970  -2.2111 O.2            1 S1                 0.0000
      6 ****        -1.4465   1.0760   0.0775 N.am           1 S1                 0.0000
      7 ****        -1.0247  -0.3027   0.3235 C.3            1 S1                 0.0000
      8 ****         0.5111  -0.4273   0.3907 C.3            1 S1                 0.0000
      9 ****         0.9265   0.0275   1.6635 O.3            1 S1                 0.0000
     10 ****         0.9733  -1.8880   0.2558 C.3            1 S1                 0.0000
     11 ****         2.3464  -1.9018  -0.1125 O.3            1 S1                 0.0000
     12 ****         2.9657  -3.1212  -0.2836 C.ar           1 S1                 0.0000
     13 ****         4.3266  -3.1006  -0.6522 C.ar           1 S1                 0.0000
     14 ****         5.0400  -4.2986  -0.8491 C.ar           1 S1                 0.0000
     15 ****         4.3948  -5.5390  -0.6783 C.ar           1 S1                 0.0000
     16 ****         5.1279  -6.7774  -0.8808 C.1            1 S1                 0.0000
     17 ****         5.7116  -7.7633  -1.0422 N.1            1 S1                 0.0000
     18 ****         3.0354  -5.5735  -0.3100 C.ar           1 S1                 0.0000
     19 ****         2.3234  -4.3739  -0.1136 C.ar           1 S1                 0.0000
     20 ****        -1.8550   1.9695   1.0783 C.ar           1 S1                 0.0000
     21 ****        -1.9663   1.8125   2.4711 C.ar           1 S1                 0.0000
     22 ****        -2.4192   2.9279   3.2138 C.ar           1 S1                 0.0000
     23 ****        -2.7449   4.1483   2.5670 C.ar           1 S1                 0.0000
     24 ****        -2.6230   4.2796   1.1638 C.ar           1 S1                 0.0000
     25 ****        -2.1682   3.1569   0.4503 C.ar           1 S1                 0.0000
     26 ****        -3.7995   4.7155  -3.1894 H              1 S1                 0.0000
     27 ****        -4.3218   4.1540  -1.6041 H              1 S1                 0.0000
     28 ****        -3.8895   2.9888  -2.8555 H              1 S1                 0.0000
     29 ****        -1.5035   3.8195  -2.7876 H              1 S1                 0.0000
     30 ****        -1.9289   4.9649  -1.5449 H              1 S1                 0.0000
     31 ****        -1.4924  -0.7004   1.2250 H              1 S1                 0.0000
     32 ****        -1.4072  -0.9135  -0.4957 H              1 S1                 0.0000
     33 ****         0.9731   0.1755  -0.3925 H              1 S1                 0.0000
     34 ****         0.6822   0.9360   1.7516 H              1 S1                 0.0000
     35 ****         0.7963  -2.4383   1.1819 H              1 S1                 0.0000
     36 ****         0.4051  -2.3777  -0.5366 H              1 S1                 0.0000
     37 ****         4.8301  -2.1542  -0.7852 H              1 S1                 0.0000
     38 ****         6.0825  -4.2582  -1.1310 H              1 S1                 0.0000
     39 ****         2.5303  -6.5195  -0.1759 H              1 S1                 0.0000
     40 ****         1.2837  -4.4426   0.1676 H              1 S1                 0.0000
     41 ****        -1.7174   0.8820   2.9592 H              1 S1                 0.0000
     42 ****        -2.5189   2.8489   4.2862 H              1 S1                 0.0000
     43 ****        -3.0901   4.9872   3.1528 H              1 S1                 0.0000
     44 ****        -2.8705   5.2055   0.6663 H              1 S1                 0.0000
     45 ****        -1.3022   1.7388  -3.0478 LP             1 S1                 0.0000
     46 ****        -0.9099   0.2482  -2.2579 LP             1 S1                 0.0000
     47 ****         1.9187  -0.0647   1.7473 LP             1 S1                 0.0000
     48 ****         0.4801  -0.5126   2.3769 LP             1 S1                 0.0000
     49 ****         2.8488  -1.4122   0.6001 LP             1 S1                 0.0000
     50 ****         2.4258  -1.4057  -0.9772 LP             1 S1                 0.0000
     51 ****         6.2161  -8.6154  -1.1817 LP             1 S1                 0.0000
@<TRIPOS>BOND
    1    1    2 1     
    2    1   26 1     
    3    1   27 1     
    4    1   28 1     
    5    2    3 1     
    6    2   29 1     
    7    2   30 1     
    8    3   25 1     
    9    3    4 am    
   10    4    5 2     
   11    4    6 am    
   12    6    7 1     
   13    6   20 1     
   14    7    8 1     
   15    7   31 1     
   16    7   32 1     
   17    8    9 1     
   18    8   10 1     
   19    8   33 1     
   20    9   34 1     
   21   10   11 1     
   22   10   35 1     
   23   10   36 1     
   24   11   12 1     
   25   12   19 ar    
   26   12   13 ar    
   27   13   14 ar    
   28   13   37 1     
   29   14   15 ar    
   30   14   38 1     
   31   15   16 1     
   32   15   18 ar    
   33   16   17 3     
   34   18   19 ar    
   35   18   39 1     
   36   19   40 1     
   37   20   25 ar    
   38   20   21 ar    
   39   21   22 ar    
   40   21   41 1     
   41   22   23 ar    
   42   22   42 1     
   43   23   24 ar    
   44   23   43 1     
   45   24   25 ar    
   46   24   44 1     
   47    5   45 1     
   48    5   46 1     
   49    9   47 1     
   50    9   48 1     
   51   11   49 1     
   52   11   50 1     
   53   17   51 1     
@<TRIPOS>SUBSTRUCTURE
      1 S1             1
@<TRIPOS>SET
LONE_PAIRS      STATIC     ATOMS    <user>   **** ""
7 45 46 47 48 49 50 51
DONOR_HYDROGENS      STATIC     ATOMS    <user>   **** ""
1 34
ATOM$BLUE        STATIC     ATOMS    COLORGROUP SYSTEM
7 45 46 47 48 49 50 51
ATOM$RED        STATIC     ATOMS    COLORGROUP SYSTEM
1 34
