AV-unprocessed.smi:2551|AV-procd|sdf|10014|dock6
  -GOLD-   2272014 63D 1   1.00000     0.00000
 Structure written by MMmdl.
 25 26  0  0  0  0  0  0  0  0  2 V2000
  150.7163  139.9836  158.2746 O   0  0  0  0  0  0  0  0  0  0  0  0
  151.7646  140.4172  157.7982 C   0  0  0  0  0  0  0  0  0  0  0  0
  152.6210  139.6556  157.0674 N   0  5  0  0  0  0  0  0  0  0  0  0
  152.2117  138.8782  156.0477 C   0  0  0  0  0  0  0  0  0  0  0  0
  153.0468  138.0627  155.3840 N   0  0  0  0  0  0  0  0  0  0  0  0
  152.4229  137.3520  154.3678 N   0  0  0  0  0  0  0  0  0  0  0  0
  151.1243  137.6433  154.2976 C   0  0  0  0  0  0  0  0  0  0  0  0
  150.5463  138.8135  155.4646 S   0  0  0  0  0  0  0  0  0  0  0  0
  152.0898  141.7081  158.0067 N   0  0  0  0  0  0  0  0  0  0  0  0
  151.3055  142.6849  158.7581 C   0  0  0  0  0  0  0  0  0  0  0  0
  151.0684  143.9542  157.9175 C   0  0  0  0  0  0  0  0  0  0  0  0
  151.4210  145.1346  158.8239 C   0  0  0  0  0  0  0  0  0  0  0  0
  152.4909  144.5832  159.7605 C   0  0  0  0  0  0  0  0  0  0  0  0
  152.0465  143.1452  160.0293 C   0  0  0  0  0  0  0  0  0  0  0  0
  150.5027  137.1653  153.5551 H   0  0  0  0  0  0  0  0  0  0  0  0
  152.9594  142.0351  157.6120 H   0  0  0  0  0  0  0  0  0  0  0  0
  150.3431  142.2502  159.0339 H   0  0  0  0  0  0  0  0  0  0  0  0
  151.7269  143.9676  157.0472 H   0  0  0  0  0  0  0  0  0  0  0  0
  150.0451  144.0165  157.5461 H   0  0  0  0  0  0  0  0  0  0  0  0
  151.7603  146.0069  158.2646 H   0  0  0  0  0  0  0  0  0  0  0  0
  150.5444  145.4290  159.4025 H   0  0  0  0  0  0  0  0  0  0  0  0
  153.4569  144.5809  159.2538 H   0  0  0  0  0  0  0  0  0  0  0  0
  152.5938  145.1690  160.6744 H   0  0  0  0  0  0  0  0  0  0  0  0
  151.3529  143.1341  160.8709 H   0  0  0  0  0  0  0  0  0  0  0  0
  152.8861  142.5032  160.3000 H   0  0  0  0  0  0  0  0  0  0  0  0
  1  2  2  0  0  0  0
  2  3  1  0  0  0  0
  2  9  1  0  0  0  0
  3  4  1  0  0  0  0
  4  8  1  0  0  0  0
  4  5  2  0  0  0  0
  5  6  1  0  0  0  0
  6  7  2  0  0  0  0
  7  8  1  0  0  0  0
  7 15  1  0  0  0  0
  9 10  1  0  0  0  0
  9 16  1  0  0  0  0
 10 14  1  0  0  0  0
 10 11  1  0  0  0  0
 10 17  1  0  0  0  0
 11 12  1  0  0  0  0
 11 18  1  0  0  0  0
 11 19  1  0  0  0  0
 12 13  1  0  0  0  0
 12 20  1  0  0  0  0
 12 21  1  0  0  0  0
 13 14  1  0  0  0  0
 13 22  1  0  0  0  0
 13 23  1  0  0  0  0
 14 24  1  0  0  0  0
 14 25  1  0  0  0  0
M  CHG  1   3  -1
M  END
> <s_m_source_file>
AV-unprocessed.smi

> <i_m_source_file_index>
2551

> <i_lp_mmshare_version>
43012

> <i_f3d_flags>
0

> <s_epik_input>
W0NIMl0xW0NIMl1bQ0gyXVtDSDJdW0NIXTFbTkhdQyg9TylbTkhdYzJubltjSF1zMg==

> <s_epik_cmdline>
J2VwaWtfcHl0aG9uJywgJy1waCcsICc3LjAnLCAnLXRuJywgJzgnLCAnLW1hJywgJzIwMCcsICctbWV0YWxfYmluZGluZycsICctaW1hZScsICc8aW5maWxlLm1hZT4nLCAnLW9tYWUnLCAnPG91dGZpbGUubWFlPic=

> <r_lp_tautomer_probability>
1

> <r_epik_Ionization_Penalty>
4.51495

> <r_epik_Ionization_Penalty_Charging>
4.46823

> <r_epik_Ionization_Penalty_Neutral>
0.0467187

> <r_epik_State_Penalty>
4.46792

> <r_epik_Charging_Adjusted_Penalty>
8.93614

> <i_epik_Tot_Q>
-1

> <i_epik_Tot_abs_Q>
1

> <r_epik_Metal_State_Penalty>
0.803637

> <b_epik_Metal_Only>
1

> <s_lp_Force_Field>
OPLS_2005

> <r_lp_Energy>
17.7165

> <b_lp_Chiralities_Consistent>
1

> <s_lp_Variant>
AV-unprocessed.smi:2551-2

> <Gold.Version>
5.8.1

> <Gold.Id.Protein>
6NUR|6NUR_protein|mol2

> <Gold.PLP.Fitness>
38.3779

> <Gold.PLP.PLP>
-28.2238

> <Gold.PLP.part.hbond>
-2.6020

> <Gold.PLP.part.metal>
0.0000

> <Gold.PLP.part.buried>
-3.8973

> <Gold.PLP.part.nonpolar>
-22.1556

> <Gold.PLP.part.repulsive>
0.1983

> <Gold.PLP.ligand.clash>
0.0000

> <Gold.PLP.ligand.torsion>
0.4686

> <Gold.PLP.Chemscore.Hbond>
2.6240

> <Gold.PLP.Chemscore.CHOScore>
1.0717

> <Gold.PLP.Chemscore.Metal>
0.0000

> <Gold.Chemscore.Hbonds>
donor molecule, donor type, donor heavy atom, donor atom, acceptor molecule, acceptor atom, score
      P1  H  7997  8008       L1     3  2.00
      P1  H 10752 10764       L1     6  0.66
      L1  C     7    15       P1  7948  0.60
      L1  C     7    15       P1  7949  0.50

> <Gold.PLP.Chemscore.Internal.Correction>
0.0040

> <Gold.Rescore>
     Score         DG    S(hbond)    S(metal)    S(lipo)     H(rot)  DE(clash)    DE(int)     intcor
     14.64     -16.29       1.52        0.00      71.01       1.00       0.13       1.52       ----

> <Gold.Chemscore.Fitness>
14.6370

> <Gold.Chemscore.DG>
-16.2890

> <Gold.Chemscore.ZeroCoef>
-5.4800

> <Gold.Chemscore.Hbond>
1.5151

> <Gold.Chemscore.Metal>
0.0000

> <Gold.Chemscore.Lipo>
71.0144

> <Gold.Chemscore.Internal_Hbond>
0.0000

> <Gold.Chemscore.DEClash>
0.1342

> <Gold.Chemscore.DEInternal>
1.5177

> <Gold.Chemscore.Rot>
1.0000

> <Gold.Chemscore.Internal.Correction>
   9.000000E+99

> <Gold.Chemscore.Hbonds>
donor molecule, donor type, donor heavy atom, donor atom, acceptor molecule, acceptor atom, score
      P1  H  7997  8008       L1     3  0.40
      P1  H 10752 10764       L1     6  0.60

> <Gold.Chemscore.Hbond.Weighted>
-5.0603

> <Gold.Chemscore.Metal.Weighted>
-0.0000

> <Gold.Chemscore.Lipo.Weighted>
-8.3087

> <Gold.Chemscore.Internal_Hbond.Weighted>
0.0000

> <Gold.Chemscore.DEClash.Weighted>
0.1342

> <Gold.Chemscore.DEInternal.Weighted>
1.5177

> <Gold.Chemscore.Rot.Weighted>
2.5600

> <Gold.Chemscore.Internal.Correction.Weighted>
   9.000000E+99

> <Gold.Protein.RotatedTorsions>
[ 6907 6896 6895 6894 ] final  -46.46 input  -60.11 | X-H torsion
[ 7974 7965 7964 7962 ] final  -42.42 input  175.53 | X-H torsion
[ 8008 7997 7996 7995 ] final  -56.81 input   59.86 | X-H torsion
[ 10167 10162 10161 10158 ] final    2.25 input  -65.29 | X-H torsion
[ 10718 10713 10712 10709 ] final   94.80 input   66.30 | X-H torsion
[ 10763 10752 10751 10750 ] final  -92.92 input  -60.55 | X-H torsion
[ 11005 11000 10999 10996 ] final  124.64 input  -57.11 | X-H torsion

> <Gold.Protein.ActiveResidues>
 VAL166  LYS551  ARG553  GLY616  TRP617  ASP618  TYR619  PRO620  LYS621  CYS622 
 ASP623  PHE694  ASN695  SER759  ASP760  ASP761  ALA762  ILE779  LEU786  VAL792 
 PHE793  MET794  SER795  GLU796  ALA797  LYS798  CYS799  TRP800  GLU811  SER814 

> <Gold.Protein.RotatedAtoms>
  150.9110  134.8527  159.7425 H   0  0  0  0  0  0  0  0  0  0  0  0  # atno 6907 bound_to 6896
  152.4944  134.4359  159.9537 H   0  0  0  0  0  0  0  0  0  0  0  0  # atno 6908 bound_to 6896
  151.4401  133.3606  159.2816 H   0  0  0  0  0  0  0  0  0  0  0  0  # atno 6909 bound_to 6896
  146.0117  140.6956  142.9221 H   0  0  0  0  0  0  0  0  0  0  0  0  # atno 7974 bound_to 7965
  154.4244  140.1121  156.5696 H   0  0  0  0  0  0  0  0  0  0  0  0  # atno 8008 bound_to 7997
  155.6225  140.3495  155.4638 H   0  0  0  0  0  0  0  0  0  0  0  0  # atno 8009 bound_to 7997
  156.0012  140.1199  157.0535 H   0  0  0  0  0  0  0  0  0  0  0  0  # atno 8010 bound_to 7997
  140.6644  143.7218  150.7799 H   0  0  0  0  0  0  0  0  0  0  0  0  # atno 10167 bound_to 10162
  157.6945  131.0524  150.4241 H   0  0  0  0  0  0  0  0  0  0  0  0  # atno 10718 bound_to 10713
  154.6909  135.5213  153.8391 H   0  0  0  0  0  0  0  0  0  0  0  0  # atno 10763 bound_to 10752
  153.0631  135.6575  154.0426 H   0  0  0  0  0  0  0  0  0  0  0  0  # atno 10764 bound_to 10752
  154.0300  135.2986  155.3349 H   0  0  0  0  0  0  0  0  0  0  0  0  # atno 10765 bound_to 10752
  139.9368  134.9639  156.8439 H   0  0  0  0  0  0  0  0  0  0  0  0  # atno 11005 bound_to 11000
  144.6955  140.3411  143.7199 LP  0  0  0  0  0  0  0  0  0  0  0  0  # atno 17320 bound_to 7965
  145.7331  139.1742  143.2419 LP  0  0  0  0  0  0  0  0  0  0  0  0  # atno 17321 bound_to 7965
  140.0893  143.4893  152.2487 LP  0  0  0  0  0  0  0  0  0  0  0  0  # atno 17342 bound_to 10162
  139.5888  144.7542  151.3453 LP  0  0  0  0  0  0  0  0  0  0  0  0  # atno 17343 bound_to 10162
  156.4613  130.4032  149.6574 LP  0  0  0  0  0  0  0  0  0  0  0  0  # atno 17370 bound_to 10713
  156.3688  130.7520  151.2500 LP  0  0  0  0  0  0  0  0  0  0  0  0  # atno 17371 bound_to 10713
  140.6055  134.0132  155.7555 LP  0  0  0  0  0  0  0  0  0  0  0  0  # atno 17394 bound_to 11000
  141.0985  133.9805  157.3119 LP  0  0  0  0  0  0  0  0  0  0  0  0  # atno 17395 bound_to 11000

$$$$
