AV-unprocessed.smi:1672|AV-procd|sdf|6706|dock3
  -GOLD-   22720 7443D 1   1.00000     0.00000
 Structure written by MMmdl.
 49 51  0  0  0  0  0  0  0  0  3 V2000
  149.5124  133.1887  154.8906 C   0  0  0  0  0  0  0  0  0  0  0  0
  150.0597  134.6168  155.0256 C   0  0  2  0  0  0  0  0  0  0  0  0
  148.9756  135.6709  154.7451 C   0  0  0  0  0  0  0  0  0  0  0  0
  149.5418  137.0972  154.8482 C   0  0  0  0  0  0  0  0  0  0  0  0
  150.6942  137.2840  153.9298 N   0  3  1  0  0  0  0  0  0  0  0  0
  151.1691  138.6915  153.8970 C   0  0  0  0  0  0  0  0  0  0  0  0
  152.2208  138.9880  154.9845 C   0  0  1  0  0  0  0  0  0  0  0  0
  153.0124  140.0793  154.5595 O   0  0  0  0  0  0  0  0  0  0  0  0
  151.5623  139.3335  156.3352 C   0  0  0  0  0  0  0  0  0  0  0  0
  151.2240  140.7609  156.4644 N   0  0  0  0  0  0  0  0  0  0  0  0
  150.3850  141.5504  155.7298 C   0  0  0  0  0  0  0  0  0  0  0  0
  149.5646  141.1494  154.5476 C   0  0  0  0  0  0  0  0  0  0  0  0
  148.7819  142.2126  154.0524 O   0  0  0  0  0  0  0  0  0  0  0  0
  150.4351  142.8016  156.2680 N   0  3  0  0  0  0  0  0  0  0  0  0
  151.3034  142.8138  157.3597 C   0  0  0  0  0  0  0  0  0  0  0  0
  151.6729  143.8440  158.2188 C   0  0  0  0  0  0  0  0  0  0  0  0
  152.5865  143.5171  159.2424 C   0  0  0  0  0  0  0  0  0  0  0  0
  153.0961  142.2097  159.3818 C   0  0  0  0  0  0  0  0  0  0  0  0
  152.7147  141.1737  158.5036 C   0  0  0  0  0  0  0  0  0  0  0  0
  151.8114  141.5055  157.4941 C   0  0  0  0  0  0  0  0  0  0  0  0
  151.7758  136.3020  154.2084 C   0  0  0  0  0  0  0  0  0  0  0  0
  151.2565  134.8593  154.0902 C   0  0  0  0  0  0  0  0  0  0  0  0
  149.1520  132.9942  153.8798 H   0  0  0  0  0  0  0  0  0  0  0  0
  148.6822  133.0204  155.5773 H   0  0  0  0  0  0  0  0  0  0  0  0
  150.2817  132.4497  155.1170 H   0  0  0  0  0  0  0  0  0  0  0  0
  150.4006  134.7455  156.0541 H   0  0  0  0  0  0  0  0  0  0  0  0
  148.5574  135.5172  153.7491 H   0  0  0  0  0  0  0  0  0  0  0  0
  148.1494  135.5534  155.4476 H   0  0  0  0  0  0  0  0  0  0  0  0
  148.7537  137.8100  154.6018 H   0  0  0  0  0  0  0  0  0  0  0  0
  149.8521  137.3084  155.8730 H   0  0  0  0  0  0  0  0  0  0  0  0
  151.6127  138.9087  152.9238 H   0  0  0  0  0  0  0  0  0  0  0  0
  150.3142  139.3621  153.9962 H   0  0  0  0  0  0  0  0  0  0  0  0
  152.8765  138.1297  155.1239 H   0  0  0  0  0  0  0  0  0  0  0  0
  153.6037  140.3148  155.2589 H   0  0  0  0  0  0  0  0  0  0  0  0
  150.6474  138.7561  156.4692 H   0  0  0  0  0  0  0  0  0  0  0  0
  152.2155  139.0620  157.1654 H   0  0  0  0  0  0  0  0  0  0  0  0
  150.2127  140.7775  153.7544 H   0  0  0  0  0  0  0  0  0  0  0  0
  148.9051  140.3280  154.8288 H   0  0  0  0  0  0  0  0  0  0  0  0
  148.6171  142.8195  154.7584 H   0  0  0  0  0  0  0  0  0  0  0  0
  151.2830  144.8461  158.1151 H   0  0  0  0  0  0  0  0  0  0  0  0
  152.9012  144.2842  159.9351 H   0  0  0  0  0  0  0  0  0  0  0  0
  153.7937  141.9972  160.1792 H   0  0  0  0  0  0  0  0  0  0  0  0
  153.1105  140.1759  158.6207 H   0  0  0  0  0  0  0  0  0  0  0  0
  152.6021  136.4359  153.5115 H   0  0  0  0  0  0  0  0  0  0  0  0
  152.1775  136.4747  155.2082 H   0  0  0  0  0  0  0  0  0  0  0  0
  152.0604  134.1604  154.3240 H   0  0  0  0  0  0  0  0  0  0  0  0
  150.9664  134.6614  153.0571 H   0  0  0  0  0  0  0  0  0  0  0  0
  150.3453  137.0861  153.0022 H   0  0  0  0  0  0  0  0  0  0  0  0
  149.9100  143.5898  155.9107 H   0  0  0  0  0  0  0  0  0  0  0  0
  1  2  1  0  0  0  0
  1 23  1  0  0  0  0
  1 24  1  0  0  0  0
  1 25  1  0  0  0  0
  2 22  1  0  0  0  0
  2  3  1  0  0  0  0
  2 26  1  0  0  0  0
  3  4  1  0  0  0  0
  3 27  1  0  0  0  0
  3 28  1  0  0  0  0
  4  5  1  0  0  0  0
  4 29  1  0  0  0  0
  4 30  1  0  0  0  0
  5  6  1  0  0  0  0
  5 21  1  0  0  0  0
  5 48  1  0  0  0  0
  6  7  1  0  0  0  0
  6 31  1  0  0  0  0
  6 32  1  0  0  0  0
  7  8  1  0  0  0  0
  7  9  1  0  0  0  0
  7 33  1  0  0  0  0
  8 34  1  0  0  0  0
  9 10  1  0  0  0  0
  9 35  1  0  0  0  0
  9 36  1  0  0  0  0
 10 20  1  0  0  0  0
 10 11  1  0  0  0  0
 11 12  1  0  0  0  0
 11 14  2  0  0  0  0
 12 13  1  0  0  0  0
 12 37  1  0  0  0  0
 12 38  1  0  0  0  0
 13 39  1  0  0  0  0
 14 15  1  0  0  0  0
 14 49  1  0  0  0  0
 15 20  2  0  0  0  0
 15 16  1  0  0  0  0
 16 17  2  0  0  0  0
 16 40  1  0  0  0  0
 17 18  1  0  0  0  0
 17 41  1  0  0  0  0
 18 19  2  0  0  0  0
 18 42  1  0  0  0  0
 19 20  1  0  0  0  0
 19 43  1  0  0  0  0
 21 22  1  0  0  0  0
 21 44  1  0  0  0  0
 21 45  1  0  0  0  0
 22 46  1  0  0  0  0
 22 47  1  0  0  0  0
M  CHG  1   5   1
M  CHG  1  14   1
M  END
> <s_m_source_file>
AV-unprocessed.smi

> <i_m_source_file_index>
1672

> <i_lp_mmshare_version>
43012

> <i_f3d_flags>
0

> <s_epik_input>
W0NIM11bQ0hdMVtDSDJdW0NIMl1OKFtDSDJdW0NIMl0xKVtDSDJdW0NASF0oW09IXSlbQ0gyXW4oYyhuMilbQ0gyXVtPSF0pYyhjMjMpW2NIXVtjSF1bY0hdW2NIXTM=

> <s_epik_cmdline>
J2VwaWtfcHl0aG9uJywgJy1waCcsICc3LjAnLCAnLXRuJywgJzgnLCAnLW1hJywgJzIwMCcsICctbWV0YWxfYmluZGluZycsICctaW1hZScsICc8aW5maWxlLm1hZT4nLCAnLW9tYWUnLCAnPG91dGZpbGUubWFlPic=

> <r_epik_Ionization_Penalty>
1.51642

> <r_epik_Ionization_Penalty_Charging>
1.51557

> <r_epik_Ionization_Penalty_Neutral>
0.000856474

> <r_epik_State_Penalty>
1.6048

> <r_epik_Charging_Adjusted_Penalty>
3.12037

> <i_epik_Tot_Q>
2

> <i_epik_Tot_abs_Q>
2

> <r_epik_Metal_State_Penalty>
5.65673

> <b_epik_Metal_Only>
0

> <s_lp_Force_Field>
OPLS_2005

> <r_lp_Energy>
28.534

> <b_lp_Chiralities_Consistent>
1

> <s_lp_Variant>
AV-unprocessed.smi:1672-6

> <Gold.Version>
5.8.1

> <Gold.Id.Protein>
6NUR|6NUR_protein|mol2

> <Gold.PLP.Fitness>
60.3789

> <Gold.PLP.PLP>
-45.0183

> <Gold.PLP.part.hbond>
-5.6451

> <Gold.PLP.part.metal>
0.0000

> <Gold.PLP.part.buried>
-6.1865

> <Gold.PLP.part.nonpolar>
-35.1450

> <Gold.PLP.part.repulsive>
0.1049

> <Gold.PLP.ligand.clash>
0.0000

> <Gold.PLP.ligand.torsion>
0.8453

> <Gold.PLP.Chemscore.Hbond>
5.6725

> <Gold.PLP.Chemscore.CHOScore>
0.0000

> <Gold.PLP.Chemscore.Metal>
0.0000

> <Gold.Chemscore.Hbonds>
donor molecule, donor type, donor heavy atom, donor atom, acceptor molecule, acceptor atom, score
      L1  H     5    48       P1  7948  0.69
      L1  H    13    39       P1  8028  0.83
      L1  H    14    49       P1  8028  2.00
      P1  H  7989  7998       L1     8  0.18
      P1  H  8011  8017       L1    13  0.24

> <Gold.PLP.Chemscore.Internal.Correction>
0.0336

> <Gold.Rescore>
     Score         DG    S(hbond)    S(metal)    S(lipo)     H(rot)  DE(clash)    DE(int)     intcor
     21.81     -23.22       3.71        0.00     110.30       2.96       0.00       1.41       ----

> <Gold.Chemscore.Fitness>
21.8059

> <Gold.Chemscore.DG>
-23.2158

> <Gold.Chemscore.ZeroCoef>
-5.4800

> <Gold.Chemscore.Hbond>
3.7117

> <Gold.Chemscore.Metal>
0.0000

> <Gold.Chemscore.Lipo>
110.2975

> <Gold.Chemscore.Internal_Hbond>
0.0000

> <Gold.Chemscore.DEClash>
0.0024

> <Gold.Chemscore.DEInternal>
1.4075

> <Gold.Chemscore.Rot>
2.9555

> <Gold.Chemscore.Internal.Correction>
   9.000000E+99

> <Gold.Chemscore.Hbonds>
donor molecule, donor type, donor heavy atom, donor atom, acceptor molecule, acceptor atom, score
      L1  H     5    48       P1  7948  0.01
      L1  H    13    39       P1  8028  0.78
      L1  H    14    49       P1  8028  0.94
      P1  H  7989  7998       L1     8  0.03
      P1  H  8011  8017       L1    13  0.03

> <Gold.Chemscore.Hbond.Weighted>
-12.3970

> <Gold.Chemscore.Metal.Weighted>
-0.0000

> <Gold.Chemscore.Lipo.Weighted>
-12.9048

> <Gold.Chemscore.Internal_Hbond.Weighted>
0.0000

> <Gold.Chemscore.DEClash.Weighted>
0.0024

> <Gold.Chemscore.DEInternal.Weighted>
1.4075

> <Gold.Chemscore.Rot.Weighted>
7.5660

> <Gold.Chemscore.Internal.Correction.Weighted>
   9.000000E+99

> <Gold.Protein.RotatedTorsions>
[ 6907 6896 6895 6894 ] final  175.12 input  -60.11 | X-H torsion
[ 7974 7965 7964 7962 ] final  -29.21 input  175.53 | X-H torsion
[ 8008 7997 7996 7995 ] final  118.80 input   59.86 | X-H torsion
[ 10167 10162 10161 10158 ] final  148.15 input  -65.29 | X-H torsion
[ 10718 10713 10712 10709 ] final  -34.12 input   66.30 | X-H torsion
[ 10763 10752 10751 10750 ] final -114.99 input  -60.55 | X-H torsion
[ 11005 11000 10999 10996 ] final    8.23 input  -57.11 | X-H torsion

> <Gold.Protein.ActiveResidues>
 VAL166  LYS551  ARG553  GLY616  TRP617  ASP618  TYR619  PRO620  LYS621  CYS622 
 ASP623  PHE694  ASN695  SER759  ASP760  ASP761  ALA762  ILE779  LEU786  VAL792 
 PHE793  MET794  SER795  GLU796  ALA797  LYS798  CYS799  TRP800  GLU811  SER814 

> <Gold.Protein.RotatedAtoms>
  151.7413  133.3322  159.3366 H   0  0  0  0  0  0  0  0  0  0  0  0  # atno 6907 bound_to 6896
  150.7572  134.6275  159.6178 H   0  0  0  0  0  0  0  0  0  0  0  0  # atno 6908 bound_to 6896
  152.3529  134.6983  160.0282 H   0  0  0  0  0  0  0  0  0  0  0  0  # atno 6909 bound_to 6896
  146.1233  140.5382  142.8726 H   0  0  0  0  0  0  0  0  0  0  0  0  # atno 7974 bound_to 7965
  156.2564  140.2867  156.0892 H   0  0  0  0  0  0  0  0  0  0  0  0  # atno 8008 bound_to 7997
  155.1482  140.0397  157.2832 H   0  0  0  0  0  0  0  0  0  0  0  0  # atno 8009 bound_to 7997
  154.6480  140.2538  155.7252 H   0  0  0  0  0  0  0  0  0  0  0  0  # atno 8010 bound_to 7997
  139.4879  144.5701  151.7071 H   0  0  0  0  0  0  0  0  0  0  0  0  # atno 10167 bound_to 10162
  156.3544  130.4313  149.7677 H   0  0  0  0  0  0  0  0  0  0  0  0  # atno 10718 bound_to 10713
  154.8463  135.4398  154.1593 H   0  0  0  0  0  0  0  0  0  0  0  0  # atno 10763 bound_to 10752
  153.2734  135.6947  153.7464 H   0  0  0  0  0  0  0  0  0  0  0  0  # atno 10764 bound_to 10752
  153.6696  135.3421  155.3125 H   0  0  0  0  0  0  0  0  0  0  0  0  # atno 10765 bound_to 10752
  140.5393  134.0390  155.7899 H   0  0  0  0  0  0  0  0  0  0  0  0  # atno 11005 bound_to 11000
  144.7618  140.5439  143.6730 LP  0  0  0  0  0  0  0  0  0  0  0  0  # atno 17320 bound_to 7965
  145.5419  139.1475  143.3442 LP  0  0  0  0  0  0  0  0  0  0  0  0  # atno 17321 bound_to 7965
  140.5287  144.0765  150.6046 LP  0  0  0  0  0  0  0  0  0  0  0  0  # atno 17342 bound_to 10162
  140.3748  143.2835  152.0238 LP  0  0  0  0  0  0  0  0  0  0  0  0  # atno 17343 bound_to 10162
  156.4864  130.8065  151.3077 LP  0  0  0  0  0  0  0  0  0  0  0  0  # atno 17370 bound_to 10713
  157.7465  130.9989  150.2870 LP  0  0  0  0  0  0  0  0  0  0  0  0  # atno 17371 bound_to 10713
  141.1236  133.9420  157.2680 LP  0  0  0  0  0  0  0  0  0  0  0  0  # atno 17394 bound_to 11000
  139.9512  135.0175  156.8999 LP  0  0  0  0  0  0  0  0  0  0  0  0  # atno 17395 bound_to 11000

$$$$
