AV-unprocessed.smi:1464|AV-procd|sdf|5943|dock3
  -GOLD-   22720 6 23D 1   1.00000     0.00000
 Structure written by MMmdl.
 41 42  0  0  0  0  0  0  0  0  1 V2000
  152.7714  143.7785  162.9941 C   0  0  0  0  0  0  0  0  0  0  0  0
  152.8440  142.6927  161.9052 C   0  0  2  0  0  0  0  0  0  0  0  0
  153.9308  141.6603  162.2707 C   0  0  0  0  0  0  0  0  0  0  0  0
  154.0417  140.5409  161.2269 C   0  0  0  0  0  0  0  0  0  0  0  0
  154.3013  141.1181  159.8280 C   0  0  0  0  0  0  0  0  0  0  0  0
  153.2311  142.1487  159.4242 C   0  0  1  0  0  0  0  0  0  0  0  0
  151.9546  141.4708  159.1860 N   0  0  0  0  0  0  0  0  0  0  0  0
  151.7438  140.4447  158.3471 C   0  0  0  0  0  0  0  0  0  0  0  0
  152.6259  139.9495  157.6442 O   0  0  0  0  0  0  0  0  0  0  0  0
  150.3011  139.9221  158.2837 C   0  0  0  0  0  0  0  0  0  0  0  0
  149.6057  140.2753  157.0379 N   0  0  0  0  0  0  0  0  0  0  0  0
  150.2336  139.8179  155.8890 N   0  0  0  0  0  0  0  0  0  0  0  0
  149.7117  140.0519  154.7325 C   0  0  0  0  0  0  0  0  0  0  0  0
  150.3642  139.5782  153.6207 O   0  0  0  0  0  0  0  0  0  0  0  0
  148.4756  140.7925  154.6048 C   0  0  0  0  0  0  0  0  0  0  0  0
  147.8744  141.2387  155.7294 C   0  0  0  0  0  0  0  0  0  0  0  0
  148.4392  140.9909  157.0572 C   0  0  0  0  0  0  0  0  0  0  0  0
  147.9147  141.3879  158.0977 O   0  0  0  0  0  0  0  0  0  0  0  0
  153.0952  143.2735  160.4854 C   0  0  1  0  0  0  0  0  0  0  0  0
  152.0448  144.3216  160.0649 C   0  0  0  0  0  0  0  0  0  0  0  0
  149.8042  139.7910  152.8903 H   0  0  0  0  0  0  0  0  0  0  0  0
  153.6751  144.3886  163.0078 H   0  0  0  0  0  0  0  0  0  0  0  0
  152.6580  143.3333  163.9830 H   0  0  0  0  0  0  0  0  0  0  0  0
  151.9195  144.4418  162.8469 H   0  0  0  0  0  0  0  0  0  0  0  0
  151.8832  142.1760  161.8994 H   0  0  0  0  0  0  0  0  0  0  0  0
  154.8954  142.1612  162.3655 H   0  0  0  0  0  0  0  0  0  0  0  0
  153.7168  141.2223  163.2462 H   0  0  0  0  0  0  0  0  0  0  0  0
  154.8468  139.8582  161.5001 H   0  0  0  0  0  0  0  0  0  0  0  0
  153.1258  139.9488  161.2229 H   0  0  0  0  0  0  0  0  0  0  0  0
  155.2817  141.5959  159.8158 H   0  0  0  0  0  0  0  0  0  0  0  0
  154.3477  140.3133  159.0930 H   0  0  0  0  0  0  0  0  0  0  0  0
  153.5720  142.6080  158.4949 H   0  0  0  0  0  0  0  0  0  0  0  0
  151.1633  141.8116  159.7125 H   0  0  0  0  0  0  0  0  0  0  0  0
  150.2993  138.8382  158.4155 H   0  0  0  0  0  0  0  0  0  0  0  0
  149.7610  140.3214  159.1440 H   0  0  0  0  0  0  0  0  0  0  0  0
  148.0505  140.9800  153.6297 H   0  0  0  0  0  0  0  0  0  0  0  0
  146.9506  141.7930  155.6493 H   0  0  0  0  0  0  0  0  0  0  0  0
  154.0550  143.7917  160.5139 H   0  0  0  0  0  0  0  0  0  0  0  0
  151.0307  143.9286  160.1406 H   0  0  0  0  0  0  0  0  0  0  0  0
  152.2016  144.6388  159.0335 H   0  0  0  0  0  0  0  0  0  0  0  0
  152.1008  145.2176  160.6827 H   0  0  0  0  0  0  0  0  0  0  0  0
  1  2  1  0  0  0  0
  1 22  1  0  0  0  0
  1 23  1  0  0  0  0
  1 24  1  0  0  0  0
  2 19  1  0  0  0  0
  2  3  1  0  0  0  0
  2 25  1  0  0  0  0
  3  4  1  0  0  0  0
  3 26  1  0  0  0  0
  3 27  1  0  0  0  0
  4  5  1  0  0  0  0
  4 28  1  0  0  0  0
  4 29  1  0  0  0  0
  5  6  1  0  0  0  0
  5 30  1  0  0  0  0
  5 31  1  0  0  0  0
  6  7  1  0  0  0  0
  6 19  1  0  0  0  0
  6 32  1  0  0  0  0
  7  8  1  0  0  0  0
  7 33  1  0  0  0  0
  8  9  2  0  0  0  0
  8 10  1  0  0  0  0
 10 34  1  0  0  0  0
 10 35  1  0  0  0  0
 10 11  1  0  0  0  0
 11 12  1  0  0  0  0
 11 17  1  0  0  0  0
 12 13  2  0  0  0  0
 13 14  1  0  0  0  0
 13 15  1  0  0  0  0
 14 21  1  0  0  0  0
 15 36  1  0  0  0  0
 15 16  2  0  0  0  0
 16 37  1  0  0  0  0
 16 17  1  0  0  0  0
 17 18  2  0  0  0  0
 19 20  1  0  0  0  0
 19 38  1  0  0  0  0
 20 39  1  0  0  0  0
 20 40  1  0  0  0  0
 20 41  1  0  0  0  0
M  END
> <s_m_source_file>
AV-unprocessed.smi

> <i_m_source_file_index>
1464

> <i_lp_mmshare_version>
43012

> <i_f3d_flags>
0

> <s_epik_input>
W0NIM11bQ0BASF0xW0NIMl1bQ0gyXVtDSDJdW0NASF0oW0NASF0xW0NIM10pW05IXUMoPU8pW0NIMl1uMltuSF1jKD1PKVtjSF1bY0hdYzI9Tw==

> <s_epik_cmdline>
J2VwaWtfcHl0aG9uJywgJy1waCcsICc3LjAnLCAnLXRuJywgJzgnLCAnLW1hJywgJzIwMCcsICctbWV0YWxfYmluZGluZycsICctaW1hZScsICc8aW5maWxlLm1hZT4nLCAnLW9tYWUnLCAnPG91dGZpbGUubWFlPic=

> <r_lp_tautomer_probability>
0.9996

> <r_epik_Ionization_Penalty>
2.10335

> <r_epik_Ionization_Penalty_Charging>
3.98079e-08

> <r_epik_Ionization_Penalty_Neutral>
2.10335

> <r_epik_State_Penalty>
1.67957

> <r_epik_Charging_Adjusted_Penalty>
1.67957

> <i_epik_Tot_Q>
0

> <i_epik_Tot_abs_Q>
0

> <r_epik_Metal_State_Penalty>
1.67957

> <b_epik_Metal_Only>
0

> <s_lp_Force_Field>
OPLS_2005

> <r_lp_Energy>
20.9709

> <b_lp_Chiralities_Consistent>
1

> <s_lp_Variant>
AV-unprocessed.smi:1464-9

> <Gold.Version>
5.8.1

> <Gold.Id.Protein>
6NUR|6NUR_protein|mol2

> <Gold.PLP.Fitness>
47.5669

> <Gold.PLP.PLP>
-39.2868

> <Gold.PLP.part.hbond>
-3.4390

> <Gold.PLP.part.metal>
0.0000

> <Gold.PLP.part.buried>
-1.5512

> <Gold.PLP.part.nonpolar>
-33.5490

> <Gold.PLP.part.repulsive>
0.1911

> <Gold.PLP.ligand.clash>
0.0000

> <Gold.PLP.ligand.torsion>
0.1492

> <Gold.PLP.Chemscore.Hbond>
2.8560

> <Gold.PLP.Chemscore.CHOScore>
0.0000

> <Gold.PLP.Chemscore.Metal>
0.0000

> <Gold.Chemscore.Hbonds>
donor molecule, donor type, donor heavy atom, donor atom, acceptor molecule, acceptor atom, score
      L1  H    14    21       P1  7957  0.98
      P1  H  7989  7998       L1    14  0.84
      P1  H  7997  8009       L1     9  1.00

> <Gold.PLP.Chemscore.Internal.Correction>
0.0104

> <Gold.Rescore>
     Score         DG    S(hbond)    S(metal)    S(lipo)     H(rot)  DE(clash)    DE(int)     intcor
     17.55     -19.43       2.20        0.00     105.05       2.22       1.49       0.39       ----

> <Gold.Chemscore.Fitness>
17.5539

> <Gold.Chemscore.DG>
-19.4326

> <Gold.Chemscore.ZeroCoef>
-5.4800

> <Gold.Chemscore.Hbond>
2.2009

> <Gold.Chemscore.Metal>
0.0000

> <Gold.Chemscore.Lipo>
105.0521

> <Gold.Chemscore.Internal_Hbond>
0.0000

> <Gold.Chemscore.DEClash>
1.4937

> <Gold.Chemscore.DEInternal>
0.3850

> <Gold.Chemscore.Rot>
2.2224

> <Gold.Chemscore.Internal.Correction>
   9.000000E+99

> <Gold.Chemscore.Hbonds>
donor molecule, donor type, donor heavy atom, donor atom, acceptor molecule, acceptor atom, score
      L1  H    14    21       P1  7957  0.92
      P1  H  7989  7998       L1    14  0.05
      P1  H  7997  8009       L1     9  0.93

> <Gold.Chemscore.Hbond.Weighted>
-7.3509

> <Gold.Chemscore.Metal.Weighted>
-0.0000

> <Gold.Chemscore.Lipo.Weighted>
-12.2911

> <Gold.Chemscore.Internal_Hbond.Weighted>
0.0000

> <Gold.Chemscore.DEClash.Weighted>
1.4937

> <Gold.Chemscore.DEInternal.Weighted>
0.3850

> <Gold.Chemscore.Rot.Weighted>
5.6893

> <Gold.Chemscore.Internal.Correction.Weighted>
   9.000000E+99

> <Gold.Protein.RotatedTorsions>
[ 6907 6896 6895 6894 ] final  133.49 input  -60.11 | X-H torsion
[ 7974 7965 7964 7962 ] final  154.80 input  175.53 | X-H torsion
[ 8008 7997 7996 7995 ] final  162.88 input   59.86 | X-H torsion
[ 10167 10162 10161 10158 ] final  -79.09 input  -65.29 | X-H torsion
[ 10718 10713 10712 10709 ] final  166.05 input   66.30 | X-H torsion
[ 10763 10752 10751 10750 ] final  165.65 input  -60.55 | X-H torsion
[ 11005 11000 10999 10996 ] final  -14.98 input  -57.11 | X-H torsion

> <Gold.Protein.ActiveResidues>
 VAL166  LYS551  ARG553  GLY616  TRP617  ASP618  TYR619  PRO620  LYS621  CYS622 
 ASP623  PHE694  ASN695  SER759  ASP760  ASP761  ALA762  ILE779  LEU786  VAL792 
 PHE793  MET794  SER795  GLU796  ALA797  LYS798  CYS799  TRP800  GLU811  SER814 

> <Gold.Protein.RotatedAtoms>
  152.3214  133.5857  159.5746 H   0  0  0  0  0  0  0  0  0  0  0  0  # atno 6907 bound_to 6896
  150.7373  134.0006  159.3646 H   0  0  0  0  0  0  0  0  0  0  0  0  # atno 6908 bound_to 6896
  151.7890  135.0741  160.0435 H   0  0  0  0  0  0  0  0  0  0  0  0  # atno 6909 bound_to 6896
  144.8066  139.6982  143.6159 H   0  0  0  0  0  0  0  0  0  0  0  0  # atno 7974 bound_to 7965
  156.1999  140.1738  156.7922 H   0  0  0  0  0  0  0  0  0  0  0  0  # atno 8008 bound_to 7997
  154.5578  140.0705  156.8801 H   0  0  0  0  0  0  0  0  0  0  0  0  # atno 8009 bound_to 7997
  155.2906  140.3355  155.4255 H   0  0  0  0  0  0  0  0  0  0  0  0  # atno 8010 bound_to 7997
  140.4624  143.2450  151.8328 H   0  0  0  0  0  0  0  0  0  0  0  0  # atno 10167 bound_to 10162
  157.0714  131.0367  151.2610 H   0  0  0  0  0  0  0  0  0  0  0  0  # atno 10718 bound_to 10713
  154.3272  135.2755  155.2490 H   0  0  0  0  0  0  0  0  0  0  0  0  # atno 10763 bound_to 10752
  154.4818  135.5856  153.6398 H   0  0  0  0  0  0  0  0  0  0  0  0  # atno 10764 bound_to 10752
  152.9870  135.6113  154.3461 H   0  0  0  0  0  0  0  0  0  0  0  0  # atno 10765 bound_to 10752
  140.7919  133.8281  155.9388 H   0  0  0  0  0  0  0  0  0  0  0  0  # atno 11005 bound_to 11000
  146.2358  139.5902  142.9525 LP  0  0  0  0  0  0  0  0  0  0  0  0  # atno 17320 bound_to 7965
  145.5425  141.0420  143.2323 LP  0  0  0  0  0  0  0  0  0  0  0  0  # atno 17321 bound_to 7965
  139.4808  144.4991  151.9084 LP  0  0  0  0  0  0  0  0  0  0  0  0  # atno 17342 bound_to 10162
  140.4077  144.2410  150.5890 LP  0  0  0  0  0  0  0  0  0  0  0  0  # atno 17343 bound_to 10162
  157.4875  130.7802  149.7475 LP  0  0  0  0  0  0  0  0  0  0  0  0  # atno 17370 bound_to 10713
  155.9949  130.3915  150.2839 LP  0  0  0  0  0  0  0  0  0  0  0  0  # atno 17371 bound_to 10713
  140.9381  134.1936  157.4817 LP  0  0  0  0  0  0  0  0  0  0  0  0  # atno 17394 bound_to 11000
  139.8730  134.9860  156.5307 LP  0  0  0  0  0  0  0  0  0  0  0  0  # atno 17395 bound_to 11000

$$$$
