AV-unprocessed.smi:1761|AV-procd|sdf|7097|dock9
  -GOLD-   22720 8313D 1   1.00000     0.00000
 Structure written by MMmdl.
 34 35  0  0  0  0  0  0  0  0  1 V2000
  145.0282  137.2677  153.0019 O   0  0  0  0  0  0  0  0  0  0  0  0
  146.1645  136.9371  152.6620 C   0  0  0  0  0  0  0  0  0  0  0  0
  146.4797  135.8227  151.9785 N   0  0  0  0  0  0  0  0  0  0  0  0
  145.6114  134.7917  151.5294 C   0  0  0  0  0  0  0  0  0  0  0  0
  146.2442  133.7387  150.8307 C   0  0  0  0  0  0  0  0  0  0  0  0
  145.4719  132.6645  150.3478 C   0  0  0  0  0  0  0  0  0  0  0  0
  144.0845  132.6702  150.5769 C   0  0  0  0  0  0  0  0  0  0  0  0
  143.5336  133.7570  151.2804 C   0  0  0  0  0  0  0  0  0  0  0  0
  144.2719  134.7878  151.7437 N   0  0  0  0  0  0  0  0  0  0  0  0
  147.2587  137.6616  152.9387 N   0  0  0  0  0  0  0  0  0  0  0  0
  147.2728  138.9245  153.6748 C   0  0  2  0  0  0  0  0  0  0  0  0
  146.9314  140.0982  152.7361 C   0  0  0  0  0  0  0  0  0  0  0  0
  146.9333  141.4360  153.4938 C   0  0  0  0  0  0  0  0  0  0  0  0
  148.2741  141.6748  154.2061 C   0  0  0  0  0  0  0  0  0  0  0  0
  148.6344  140.5042  155.1389 C   0  0  0  0  0  0  0  0  0  0  0  0
  148.6197  139.1485  154.4061 C   0  0  2  0  0  0  0  0  0  0  0  0
  149.7026  139.1054  153.4945 O   0  0  0  0  0  0  0  0  0  0  0  0
  147.4567  135.6910  151.7630 H   0  0  0  0  0  0  0  0  0  0  0  0
  147.3117  133.7489  150.6650 H   0  0  0  0  0  0  0  0  0  0  0  0
  145.9371  131.8501  149.8125 H   0  0  0  0  0  0  0  0  0  0  0  0
  143.4596  131.8637  150.2230 H   0  0  0  0  0  0  0  0  0  0  0  0
  142.4726  133.8004  151.4772 H   0  0  0  0  0  0  0  0  0  0  0  0
  148.1518  137.3147  152.6212 H   0  0  0  0  0  0  0  0  0  0  0  0
  146.4846  138.8792  154.4291 H   0  0  0  0  0  0  0  0  0  0  0  0
  147.6488  140.1431  151.9156 H   0  0  0  0  0  0  0  0  0  0  0  0
  145.9531  139.9399  152.2810 H   0  0  0  0  0  0  0  0  0  0  0  0
  146.7299  142.2542  152.8025 H   0  0  0  0  0  0  0  0  0  0  0  0
  146.1251  141.4420  154.2261 H   0  0  0  0  0  0  0  0  0  0  0  0
  149.0619  141.8094  153.4639 H   0  0  0  0  0  0  0  0  0  0  0  0
  148.2301  142.6025  154.7772 H   0  0  0  0  0  0  0  0  0  0  0  0
  149.6098  140.6761  155.5959 H   0  0  0  0  0  0  0  0  0  0  0  0
  147.9165  140.4716  155.9595 H   0  0  0  0  0  0  0  0  0  0  0  0
  148.7788  138.3538  155.1359 H   0  0  0  0  0  0  0  0  0  0  0  0
  149.4719  139.6175  152.7347 H   0  0  0  0  0  0  0  0  0  0  0  0
  1  2  2  0  0  0  0
  2  3  1  0  0  0  0
  2 10  1  0  0  0  0
  3  4  1  0  0  0  0
  3 18  1  0  0  0  0
  4  9  1  0  0  0  0
  4  5  2  0  0  0  0
  5  6  1  0  0  0  0
  5 19  1  0  0  0  0
  6  7  2  0  0  0  0
  6 20  1  0  0  0  0
  7  8  1  0  0  0  0
  7 21  1  0  0  0  0
  8  9  2  0  0  0  0
  8 22  1  0  0  0  0
 10 11  1  0  0  0  0
 10 23  1  0  0  0  0
 11 16  1  0  0  0  0
 11 12  1  0  0  0  0
 11 24  1  0  0  0  0
 12 13  1  0  0  0  0
 12 25  1  0  0  0  0
 12 26  1  0  0  0  0
 13 14  1  0  0  0  0
 13 27  1  0  0  0  0
 13 28  1  0  0  0  0
 14 15  1  0  0  0  0
 14 29  1  0  0  0  0
 14 30  1  0  0  0  0
 15 16  1  0  0  0  0
 15 31  1  0  0  0  0
 15 32  1  0  0  0  0
 16 17  1  0  0  0  0
 16 33  1  0  0  0  0
 17 34  1  0  0  0  0
M  END
> <s_m_source_file>
AV-unprocessed.smi

> <i_m_source_file_index>
1761

> <i_lp_mmshare_version>
43012

> <i_f3d_flags>
0

> <s_epik_input>
bjFbY0hdW2NIXVtjSF1bY0hdYzFbTkhdQyg9TylbTkhdW0NAQEhdMltDSDJdW0NIMl1bQ0gyXVtDSDJdW0NASF0yW09IXQ==

> <s_epik_cmdline>
J2VwaWtfcHl0aG9uJywgJy1waCcsICc3LjAnLCAnLXRuJywgJzgnLCAnLW1hJywgJzIwMCcsICctbWV0YWxfYmluZGluZycsICctaW1hZScsICc8aW5maWxlLm1hZT4nLCAnLW9tYWUnLCAnPG91dGZpbGUubWFlPic=

> <r_lp_tautomer_probability>
1

> <r_epik_Ionization_Penalty>
4.92589e-05

> <r_epik_Ionization_Penalty_Charging>
0

> <r_epik_Ionization_Penalty_Neutral>
4.92589e-05

> <r_epik_State_Penalty>
-0

> <r_epik_Charging_Adjusted_Penalty>
0

> <i_epik_Tot_Q>
0

> <i_epik_Tot_abs_Q>
0

> <r_epik_Metal_State_Penalty>
-0

> <b_epik_Metal_Only>
0

> <s_lp_Force_Field>
OPLS_2005

> <r_lp_Energy>
15.389

> <b_lp_Chiralities_Consistent>
1

> <s_lp_Variant>
AV-unprocessed.smi:1761-3

> <Gold.Version>
5.8.1

> <Gold.Id.Protein>
6NUR|6NUR_protein|mol2

> <Gold.PLP.Fitness>
38.5275

> <Gold.PLP.PLP>
-27.9778

> <Gold.PLP.part.hbond>
-2.5500

> <Gold.PLP.part.metal>
0.0000

> <Gold.PLP.part.buried>
-1.9414

> <Gold.PLP.part.nonpolar>
-23.2867

> <Gold.PLP.part.repulsive>
0.4292

> <Gold.PLP.ligand.clash>
0.0000

> <Gold.PLP.ligand.torsion>
0.3464

> <Gold.PLP.Chemscore.Hbond>
2.9920

> <Gold.PLP.Chemscore.CHOScore>
0.7512

> <Gold.PLP.Chemscore.Metal>
0.0000

> <Gold.Chemscore.Hbonds>
donor molecule, donor type, donor heavy atom, donor atom, acceptor molecule, acceptor atom, score
      L1  H     3    18       P1  7948  1.00
      L1  H    10    23       P1  7948  0.99
      L1  H    17    34       P1  7957  1.00
      L1  C     8    22       P1 10186  0.75

> <Gold.PLP.Chemscore.Internal.Correction>
0.0130

> <Gold.Rescore>
     Score         DG    S(hbond)    S(metal)    S(lipo)     H(rot)  DE(clash)    DE(int)     intcor
     17.65     -19.48       2.93        0.00      68.15       1.47       0.18       1.65       ----

> <Gold.Chemscore.Fitness>
17.6537

> <Gold.Chemscore.DG>
-19.4795

> <Gold.Chemscore.ZeroCoef>
-5.4800

> <Gold.Chemscore.Hbond>
2.9274

> <Gold.Chemscore.Metal>
0.0000

> <Gold.Chemscore.Lipo>
68.1472

> <Gold.Chemscore.Internal_Hbond>
0.0000

> <Gold.Chemscore.DEClash>
0.1760

> <Gold.Chemscore.DEInternal>
1.6498

> <Gold.Chemscore.Rot>
1.4653

> <Gold.Chemscore.Internal.Correction>
   9.000000E+99

> <Gold.Chemscore.Hbonds>
donor molecule, donor type, donor heavy atom, donor atom, acceptor molecule, acceptor atom, score
      L1  H     3    18       P1  7948  0.91
      L1  H    10    23       P1  7948  0.87
      L1  H    17    34       P1  7957  0.96

> <Gold.Chemscore.Hbond.Weighted>
-9.7774

> <Gold.Chemscore.Metal.Weighted>
-0.0000

> <Gold.Chemscore.Lipo.Weighted>
-7.9732

> <Gold.Chemscore.Internal_Hbond.Weighted>
0.0000

> <Gold.Chemscore.DEClash.Weighted>
0.1760

> <Gold.Chemscore.DEInternal.Weighted>
1.6498

> <Gold.Chemscore.Rot.Weighted>
3.7511

> <Gold.Chemscore.Internal.Correction.Weighted>
   9.000000E+99

> <Gold.Protein.RotatedTorsions>
[ 6907 6896 6895 6894 ] final -143.53 input  -60.11 | X-H torsion
[ 7974 7965 7964 7962 ] final  -48.21 input  175.53 | X-H torsion
[ 8008 7997 7996 7995 ] final   64.95 input   59.86 | X-H torsion
[ 10167 10162 10161 10158 ] final  -15.83 input  -65.29 | X-H torsion
[ 10718 10713 10712 10709 ] final   64.03 input   66.30 | X-H torsion
[ 10763 10752 10751 10750 ] final   35.75 input  -60.55 | X-H torsion
[ 11005 11000 10999 10996 ] final  127.52 input  -57.11 | X-H torsion

> <Gold.Protein.ActiveResidues>
 VAL166  LYS551  ARG553  GLY616  TRP617  ASP618  TYR619  PRO620  LYS621  CYS622 
 ASP623  PHE694  ASN695  SER759  ASP760  ASP761  ALA762  ILE779  LEU786  VAL792 
 PHE793  MET794  SER795  GLU796  ALA797  LYS798  CYS799  TRP800  GLU811  SER814 

> <Gold.Protein.RotatedAtoms>
  151.1017  133.5239  159.2609 H   0  0  0  0  0  0  0  0  0  0  0  0  # atno 6907 bound_to 6896
  151.2067  135.0464  159.8904 H   0  0  0  0  0  0  0  0  0  0  0  0  # atno 6908 bound_to 6896
  152.5443  134.0838  159.8300 H   0  0  0  0  0  0  0  0  0  0  0  0  # atno 6909 bound_to 6896
  145.9536  140.7548  142.9492 H   0  0  0  0  0  0  0  0  0  0  0  0  # atno 7974 bound_to 7965
  155.6542  140.3497  155.4759 H   0  0  0  0  0  0  0  0  0  0  0  0  # atno 8008 bound_to 7997
  155.9823  140.1177  157.0738 H   0  0  0  0  0  0  0  0  0  0  0  0  # atno 8009 bound_to 7997
  154.4195  140.1136  156.5438 H   0  0  0  0  0  0  0  0  0  0  0  0  # atno 8010 bound_to 7997
  140.7224  143.5178  150.9670 H   0  0  0  0  0  0  0  0  0  0  0  0  # atno 10167 bound_to 10162
  157.6012  130.9138  149.9793 H   0  0  0  0  0  0  0  0  0  0  0  0  # atno 10718 bound_to 10713
  153.0106  135.6325  154.1876 H   0  0  0  0  0  0  0  0  0  0  0  0  # atno 10763 bound_to 10752
  154.1618  135.2823  155.3108 H   0  0  0  0  0  0  0  0  0  0  0  0  # atno 10764 bound_to 10752
  154.5975  135.5598  153.7401 H   0  0  0  0  0  0  0  0  0  0  0  0  # atno 10765 bound_to 10752
  139.9512  134.9621  156.8867 H   0  0  0  0  0  0  0  0  0  0  0  0  # atno 11005 bound_to 11000
  144.6800  140.2475  143.7336 LP  0  0  0  0  0  0  0  0  0  0  0  0  # atno 17320 bound_to 7965
  145.8137  139.2014  143.1978 LP  0  0  0  0  0  0  0  0  0  0  0  0  # atno 17321 bound_to 7965
  139.8895  143.6971  152.3147 LP  0  0  0  0  0  0  0  0  0  0  0  0  # atno 17342 bound_to 10162
  139.7282  144.7588  151.0844 LP  0  0  0  0  0  0  0  0  0  0  0  0  # atno 17343 bound_to 10162
  156.1086  130.3651  150.0090 LP  0  0  0  0  0  0  0  0  0  0  0  0  # atno 17370 bound_to 10713
  156.8192  130.9352  151.3642 LP  0  0  0  0  0  0  0  0  0  0  0  0  # atno 17371 bound_to 10713
  140.5715  134.0438  155.7432 LP  0  0  0  0  0  0  0  0  0  0  0  0  # atno 17394 bound_to 11000
  141.1175  133.9516  157.2794 LP  0  0  0  0  0  0  0  0  0  0  0  0  # atno 17395 bound_to 11000

$$$$
