#       Name:                AV-unprocessed.smi:1667
#       Creating user name   scv26
#       Creation time:       Fri Mar 27 07:38:58 2020


#       File generated by GOLD software.
#

@<TRIPOS>MOLECULE
AV-unprocessed.smi:1667
    50    52     1
SMALL
NO_CHARGES


@<TRIPOS>ATOM
      1 ****        -3.3386   2.8791  -0.4660 C.3            1 S1                 0.0000
      2 ****        -2.8929   1.4634  -0.8163 C.2            1 S1                 0.0000
      3 ****        -3.7000   0.5363  -0.7619 O.2            1 S1                 0.0000
      4 ****        -1.6075   1.3083  -1.1673 N.am           1 S1                 0.0000
      5 ****        -0.9662   0.0368  -1.4975 C.3            1 S1                 0.0000
      6 ****        -1.2480  -0.3608  -2.9546 C.3            1 S1                 0.0000
      7 ****         0.5119   0.1732  -1.2300 C.2            1 S1                 0.0000
      8 ****         1.1928   1.2706  -1.5736 N.2            1 S1                 0.0000
      9 ****         2.4857   0.9621  -1.2059 C.ar           1 S1                 0.0000
     10 ****         3.6742   1.7194  -1.3123 C.ar           1 S1                 0.0000
     11 ****         4.9030   1.1846  -0.8734 C.ar           1 S1                 0.0000
     12 ****         4.9602  -0.1129  -0.3259 C.ar           1 S1                 0.0000
     13 ****         3.7871  -0.8831  -0.2114 C.ar           1 S1                 0.0000
     14 ****         2.5608  -0.3430  -0.6451 C.ar           1 S1                 0.0000
     15 ****         1.2524  -0.8213  -0.6693 N.pl3          1 S1                 0.0000
     16 ****         0.8146  -2.1347  -0.2014 C.3            1 S1                 0.0000
     17 ****         0.5420  -2.2059   1.3204 C.3            1 S1                 0.0000
     18 ****         1.7346  -1.9806   2.0458 O.3            1 S1                 0.0000
     19 ****        -0.5968  -1.3008   1.7739 C.ar           1 S1                 0.0000
     20 ****        -0.3548   0.0410   2.1467 C.ar           1 S1                 0.0000
     21 ****        -1.4166   0.8652   2.5666 C.ar           1 S1                 0.0000
     22 ****        -2.7272   0.3540   2.6179 C.ar           1 S1                 0.0000
     23 ****        -2.9763  -0.9799   2.2426 C.ar           1 S1                 0.0000
     24 ****        -4.2376  -1.4701   2.2845 F              1 S1                 0.0000
     25 ****        -1.9146  -1.8042   1.8216 C.ar           1 S1                 0.0000
     26 ****        -1.3853  -0.7226  -0.8402 H              1 S1                 0.0000
     27 ****        -2.4847   3.5379  -0.3036 H              1 S1                 0.0000
     28 ****        -3.9380   2.8700   0.4447 H              1 S1                 0.0000
     29 ****        -3.9447   3.2929  -1.2720 H              1 S1                 0.0000
     30 ****        -1.0163   2.1270  -1.1866 H              1 S1                 0.0000
     31 ****        -0.7720  -1.3113  -3.1967 H              1 S1                 0.0000
     32 ****        -0.8693   0.3876  -3.6513 H              1 S1                 0.0000
     33 ****        -2.3173  -0.4740  -3.1354 H              1 S1                 0.0000
     34 ****         3.6410   2.7127  -1.7346 H              1 S1                 0.0000
     35 ****         5.8058   1.7716  -0.9593 H              1 S1                 0.0000
     36 ****         5.9051  -0.5170   0.0066 H              1 S1                 0.0000
     37 ****         3.8297  -1.8769   0.2084 H              1 S1                 0.0000
     38 ****        -0.0628  -2.4517  -0.7638 H              1 S1                 0.0000
     39 ****         1.5914  -2.8549  -0.4613 H              1 S1                 0.0000
     40 ****         0.2507  -3.2310   1.5529 H              1 S1                 0.0000
     41 ****         1.5659  -2.1534   2.9594 H              1 S1                 0.0000
     42 ****         0.6456   0.4467   2.1051 H              1 S1                 0.0000
     43 ****        -1.2261   1.8907   2.8467 H              1 S1                 0.0000
     44 ****        -3.5423   0.9867   2.9372 H              1 S1                 0.0000
     45 ****        -2.1164  -2.8256   1.5341 H              1 S1                 0.0000
     46 ****        -4.6457   0.7120  -0.4884 LP             1 S1                 0.0000
     47 ****        -3.4103  -0.3930  -0.9911 LP             1 S1                 0.0000
     48 ****         0.8489   2.1100  -1.9943 LP             1 S1                 0.0000
     49 ****         2.0258  -1.0310   1.9301 LP             1 S1                 0.0000
     50 ****         2.4525  -2.5923   1.7135 LP             1 S1                 0.0000
@<TRIPOS>BOND
    1    1    2 1     
    2    1   27 1     
    3    1   28 1     
    4    1   29 1     
    5    2    3 2     
    6    2    4 am    
    7    4    5 1     
    8    4   30 1     
    9    5   26 1     
   10    5    6 1     
   11    5    7 1     
   12    6   31 1     
   13    6   32 1     
   14    6   33 1     
   15    7   15 1     
   16    7    8 2     
   17    8    9 1     
   18    9   14 ar    
   19    9   10 ar    
   20   10   11 ar    
   21   10   34 1     
   22   11   12 ar    
   23   11   35 1     
   24   12   13 ar    
   25   12   36 1     
   26   13   14 ar    
   27   13   37 1     
   28   14   15 1     
   29   15   16 1     
   30   16   17 1     
   31   16   38 1     
   32   16   39 1     
   33   17   18 1     
   34   17   19 1     
   35   17   40 1     
   36   18   41 1     
   37   19   25 ar    
   38   19   20 ar    
   39   20   21 ar    
   40   20   42 1     
   41   21   22 ar    
   42   21   43 1     
   43   22   23 ar    
   44   22   44 1     
   45   23   24 1     
   46   23   25 ar    
   47   25   45 1     
   48    3   46 1     
   49    3   47 1     
   50    8   48 1     
   51   18   49 1     
   52   18   50 1     
@<TRIPOS>SUBSTRUCTURE
      1 S1             1
@<TRIPOS>SET
LONE_PAIRS      STATIC     ATOMS    <user>   **** ""
5 46 47 48 49 50
DONOR_HYDROGENS      STATIC     ATOMS    <user>   **** ""
2 30 41
ATOM$BLUE        STATIC     ATOMS    COLORGROUP SYSTEM
5 46 47 48 49 50
ATOM$RED        STATIC     ATOMS    COLORGROUP SYSTEM
2 30 41
