AV-unprocessed.smi:37|AV-procd|sdf|315|dock9
  -GOLD-   2262016133D 1   1.00000     0.00000
 Structure written by MMmdl.
 44 45  0  0  0  0  0  0  0  0  1 V2000
  141.7232  135.9151  153.8890 C   0  0  0  0  0  0  0  0  0  0  0  0
  143.0936  135.2348  154.0082 C   0  0  0  0  0  0  0  0  0  0  0  0
  143.5977  135.2042  155.4493 C   0  0  0  0  0  0  0  0  0  0  0  0
  142.9438  134.6716  156.3466 O   0  0  0  0  0  0  0  0  0  0  0  0
  144.7865  135.8102  155.5951 O   0  0  0  0  0  0  0  0  0  0  0  0
  145.5852  135.5213  156.7300 C   0  0  0  0  0  0  0  0  0  0  0  0
  146.8567  136.3846  156.6860 C   0  0  2  0  0  0  0  0  0  0  0  0
  147.6668  135.8979  155.6094 O   0  0  0  0  0  0  0  0  0  0  0  0
  148.9659  135.6150  156.0368 C   0  0  1  0  0  0  0  0  0  0  0  0
  149.8787  136.8017  155.7759 N   0  0  0  0  0  0  0  0  0  0  0  0
  149.4191  138.0091  155.2592 C   0  0  0  0  0  0  0  0  0  0  0  0
  150.2321  139.0635  155.0115 C   0  0  0  0  0  0  0  0  0  0  0  0
  149.7126  140.1983  154.5132 F   0  0  0  0  0  0  0  0  0  0  0  0
  151.6656  138.9780  155.2717 C   0  0  0  0  0  0  0  0  0  0  0  0
  152.4796  139.8801  155.0855 O   0  0  0  0  0  0  0  0  0  0  0  0
  152.0876  137.7415  155.7668 N   0  0  0  0  0  0  0  0  0  0  0  0
  151.2617  136.6460  156.0223 C   0  0  0  0  0  0  0  0  0  0  0  0
  151.7465  135.5971  156.4449 O   0  0  0  0  0  0  0  0  0  0  0  0
  148.8512  135.3314  157.5351 C   0  0  2  0  0  0  0  0  0  0  0  0
  148.2974  133.4319  157.7985 Br  0  0  0  0  0  0  0  0  0  0  0  0
  147.7436  136.2932  157.9411 C   0  0  2  0  0  0  0  0  0  0  0  0
  147.0484  135.8771  159.1106 O   0  0  0  0  0  0  0  0  0  0  0  0
  147.4240  136.3243  160.3223 C   0  0  0  0  0  0  0  0  0  0  0  0
  148.1156  137.3183  160.5437 O   0  0  0  0  0  0  0  0  0  0  0  0
  146.8995  135.4486  161.4573 C   0  0  0  0  0  0  0  0  0  0  0  0
  147.3861  135.9331  162.8300 C   0  0  0  0  0  0  0  0  0  0  0  0
  153.0742  137.6308  155.9506 H   0  0  0  0  0  0  0  0  0  0  0  0
  141.4165  135.9805  152.8451 H   0  0  0  0  0  0  0  0  0  0  0  0
  141.7472  136.9292  154.2898 H   0  0  0  0  0  0  0  0  0  0  0  0
  140.9528  135.3589  154.4242 H   0  0  0  0  0  0  0  0  0  0  0  0
  143.0390  134.2137  153.6303 H   0  0  0  0  0  0  0  0  0  0  0  0
  143.8225  135.7620  153.3923 H   0  0  0  0  0  0  0  0  0  0  0  0
  145.0042  135.7451  157.6254 H   0  0  0  0  0  0  0  0  0  0  0  0
  145.8389  134.4612  156.7576 H   0  0  0  0  0  0  0  0  0  0  0  0
  146.5799  137.4254  156.5151 H   0  0  0  0  0  0  0  0  0  0  0  0
  149.3923  134.7966  155.4535 H   0  0  0  0  0  0  0  0  0  0  0  0
  148.3736  138.1419  155.0297 H   0  0  0  0  0  0  0  0  0  0  0  0
  149.7846  135.4884  158.0751 H   0  0  0  0  0  0  0  0  0  0  0  0
  148.1826  137.2801  158.0979 H   0  0  0  0  0  0  0  0  0  0  0  0
  145.8097  135.4488  161.4290 H   0  0  0  0  0  0  0  0  0  0  0  0
  147.2210  134.4208  161.2876 H   0  0  0  0  0  0  0  0  0  0  0  0
  146.9685  135.3158  163.6252 H   0  0  0  0  0  0  0  0  0  0  0  0
  147.0828  136.9638  163.0173 H   0  0  0  0  0  0  0  0  0  0  0  0
  148.4726  135.8824  162.9104 H   0  0  0  0  0  0  0  0  0  0  0  0
  1  2  1  0  0  0  0
  1 28  1  0  0  0  0
  1 29  1  0  0  0  0
  1 30  1  0  0  0  0
  2  3  1  0  0  0  0
  2 31  1  0  0  0  0
  2 32  1  0  0  0  0
  3  4  2  0  0  0  0
  3  5  1  0  0  0  0
  5  6  1  0  0  0  0
  6  7  1  0  0  0  0
  6 33  1  0  0  0  0
  6 34  1  0  0  0  0
  7 21  1  0  0  0  0
  7  8  1  0  0  0  0
  7 35  1  0  0  0  0
  8  9  1  0  0  0  0
  9 10  1  0  0  0  0
  9 19  1  0  0  0  0
  9 36  1  0  0  0  0
 10 17  1  0  0  0  0
 10 11  1  0  0  0  0
 11 12  2  0  0  0  0
 11 37  1  0  0  0  0
 12 13  1  0  0  0  0
 12 14  1  0  0  0  0
 14 15  2  0  0  0  0
 14 16  1  0  0  0  0
 16 27  1  0  0  0  0
 16 17  1  0  0  0  0
 17 18  2  0  0  0  0
 19 20  1  0  0  0  0
 19 21  1  0  0  0  0
 19 38  1  0  0  0  0
 21 22  1  0  0  0  0
 21 39  1  0  0  0  0
 22 23  1  0  0  0  0
 23 24  2  0  0  0  0
 23 25  1  0  0  0  0
 25 26  1  0  0  0  0
 25 40  1  0  0  0  0
 25 41  1  0  0  0  0
 26 42  1  0  0  0  0
 26 43  1  0  0  0  0
 26 44  1  0  0  0  0
M  END
> <s_m_source_file>
AV-unprocessed.smi

> <i_m_source_file_index>
37

> <i_lp_mmshare_version>
43012

> <i_f3d_flags>
0

> <s_epik_input>
W0NIM11bQ0gyXUMoPU8pT1tDSDJdW0NAQEhdMU9bQ0BASF0objJbY0hdYyhGKWMoPU8pW25IXWMyPU8pW0NAQEhdKEJyKVtDQEhdMU9DKD1PKVtDSDJdW0NIM10=

> <s_epik_cmdline>
J2VwaWtfcHl0aG9uJywgJy1waCcsICc3LjAnLCAnLXRuJywgJzgnLCAnLW1hJywgJzIwMCcsICctbWV0YWxfYmluZGluZycsICctaW1hZScsICc8aW5maWxlLm1hZT4nLCAnLW9tYWUnLCAnPG91dGZpbGUubWFlPic=

> <r_lp_tautomer_probability>
0.999537

> <r_epik_Ionization_Penalty>
0.104106

> <r_epik_Ionization_Penalty_Charging>
0.104106

> <r_epik_Ionization_Penalty_Neutral>
3.94675e-16

> <r_epik_State_Penalty>
0.0940182

> <r_epik_Charging_Adjusted_Penalty>
0.198124

> <i_epik_Tot_Q>
0

> <i_epik_Tot_abs_Q>
0

> <r_epik_Metal_State_Penalty>
3.05314

> <b_epik_Metal_Only>
0

> <s_epik_Chemistry_Notes>
This compound has an ester and may undergo hydrolysis at high or low pH. This compound contains an acetal/aminal-like group ( X-CH(R)-Y where X, Y are N, S, or O) that may be acid/base labile, releasing an aldehyde.

> <s_lp_Force_Field>
OPLS_2005

> <r_lp_Energy>
24.3846

> <b_lp_Chiralities_Consistent>
1

> <s_lp_Variant>
AV-unprocessed.smi:37-13

> <Gold.Version>
5.8.1

> <Gold.Id.Protein>
6NUR|6NUR_protein|mol2

> <Gold.PLP.Fitness>
42.0502

> <Gold.PLP.PLP>
-31.1848

> <Gold.PLP.part.hbond>
-5.7172

> <Gold.PLP.part.metal>
0.0000

> <Gold.PLP.part.buried>
-4.5451

> <Gold.PLP.part.nonpolar>
-21.7710

> <Gold.PLP.part.repulsive>
0.3241

> <Gold.PLP.ligand.clash>
0.0000

> <Gold.PLP.ligand.torsion>
1.1060

> <Gold.PLP.Chemscore.Hbond>
4.2959

> <Gold.PLP.Chemscore.CHOScore>
0.0000

> <Gold.PLP.Chemscore.Metal>
0.0000

> <Gold.Chemscore.Hbonds>
donor molecule, donor type, donor heavy atom, donor atom, acceptor molecule, acceptor atom, score
      P1  H  6931  6943       L1    24  0.72
      P1  H  6934  6947       L1    24  0.67
      P1  H  7989  7998       L1    15  0.62
      P1  H  7997  8010       L1    15  0.70
      P1  H 10752 10764       L1    18  1.00
      P1  H 11000 11005       L1     4  0.48

> <Gold.PLP.Chemscore.Internal.Correction>
0.1896

> <Gold.Rescore>
     Score         DG    S(hbond)    S(metal)    S(lipo)     H(rot)  DE(clash)    DE(int)     intcor
     12.79     -14.16       3.74        0.00      40.13       3.33       0.13       1.24       ----

> <Gold.Chemscore.Fitness>
12.7875

> <Gold.Chemscore.DG>
-14.1557

> <Gold.Chemscore.ZeroCoef>
-5.4800

> <Gold.Chemscore.Hbond>
3.7442

> <Gold.Chemscore.Metal>
0.0000

> <Gold.Chemscore.Lipo>
40.1332

> <Gold.Chemscore.Internal_Hbond>
0.0000

> <Gold.Chemscore.DEClash>
0.1305

> <Gold.Chemscore.DEInternal>
1.2378

> <Gold.Chemscore.Rot>
3.3303

> <Gold.Chemscore.Internal.Correction>
   9.000000E+99

> <Gold.Chemscore.Hbonds>
donor molecule, donor type, donor heavy atom, donor atom, acceptor molecule, acceptor atom, score
      P1  H  6931  6943       L1    24  0.72
      P1  H  6934  6947       L1    24  0.64
      P1  H  7989  7998       L1    15  0.23
      P1  H  7997  8010       L1    15  0.69
      P1  H 10752 10764       L1    18  0.25
      P1  H 11000 11005       L1     4  0.46

> <Gold.Chemscore.Hbond.Weighted>
-12.5057

> <Gold.Chemscore.Metal.Weighted>
-0.0000

> <Gold.Chemscore.Lipo.Weighted>
-4.6956

> <Gold.Chemscore.Internal_Hbond.Weighted>
0.0000

> <Gold.Chemscore.DEClash.Weighted>
0.1305

> <Gold.Chemscore.DEInternal.Weighted>
1.2378

> <Gold.Chemscore.Rot.Weighted>
8.5256

> <Gold.Chemscore.Internal.Correction.Weighted>
   9.000000E+99

> <Gold.Protein.RotatedTorsions>
[ 6907 6896 6895 6894 ] final -111.56 input  -60.11 | X-H torsion
[ 7974 7965 7964 7962 ] final  140.83 input  175.53 | X-H torsion
[ 8008 7997 7996 7995 ] final  105.47 input   59.86 | X-H torsion
[ 10167 10162 10161 10158 ] final   61.30 input  -65.29 | X-H torsion
[ 10718 10713 10712 10709 ] final  104.84 input   66.30 | X-H torsion
[ 10763 10752 10751 10750 ] final  -15.86 input  -60.55 | X-H torsion
[ 11005 11000 10999 10996 ] final  -72.14 input  -57.11 | X-H torsion

> <Gold.Protein.ActiveResidues>
 VAL166  LYS551  ARG553  GLY616  TRP617  ASP618  TYR619  PRO620  LYS621  CYS622 
 ASP623  PHE694  ASN695  SER759  ASP760  ASP761  ALA762  ILE779  LEU786  VAL792 
 PHE793  MET794  SER795  GLU796  ALA797  LYS798  CYS799  TRP800  GLU811  SER814 

> <Gold.Protein.RotatedAtoms>
  150.7698  133.9217  159.3399 H   0  0  0  0  0  0  0  0  0  0  0  0  # atno 6907 bound_to 6896
  151.7106  135.0911  160.0276 H   0  0  0  0  0  0  0  0  0  0  0  0  # atno 6908 bound_to 6896
  152.3711  133.6382  159.6124 H   0  0  0  0  0  0  0  0  0  0  0  0  # atno 6909 bound_to 6896
  144.9151  139.5241  143.5690 H   0  0  0  0  0  0  0  0  0  0  0  0  # atno 7974 bound_to 7965
  156.1662  140.3130  155.8893 H   0  0  0  0  0  0  0  0  0  0  0  0  # atno 8008 bound_to 7997
  155.3681  140.0480  157.3063 H   0  0  0  0  0  0  0  0  0  0  0  0  # atno 8009 bound_to 7997
  154.5195  140.2193  155.9014 H   0  0  0  0  0  0  0  0  0  0  0  0  # atno 8010 bound_to 7997
  140.1563  144.4414  150.6733 H   0  0  0  0  0  0  0  0  0  0  0  0  # atno 10167 bound_to 10162
  157.6726  131.0813  150.5767 H   0  0  0  0  0  0  0  0  0  0  0  0  # atno 10718 bound_to 10713
  153.5497  135.7012  153.5597 H   0  0  0  0  0  0  0  0  0  0  0  0  # atno 10763 bound_to 10752
  153.3527  135.3991  155.1658 H   0  0  0  0  0  0  0  0  0  0  0  0  # atno 10764 bound_to 10752
  154.8663  135.3769  154.5007 H   0  0  0  0  0  0  0  0  0  0  0  0  # atno 10765 bound_to 10752
  141.1604  133.6838  156.7013 H   0  0  0  0  0  0  0  0  0  0  0  0  # atno 11005 bound_to 11000
  146.3178  139.7987  142.8970 LP  0  0  0  0  0  0  0  0  0  0  0  0  # atno 17320 bound_to 7965
  145.3389  141.0283  143.3404 LP  0  0  0  0  0  0  0  0  0  0  0  0  # atno 17321 bound_to 7965
  140.6671  143.2272  151.5716 LP  0  0  0  0  0  0  0  0  0  0  0  0  # atno 17342 bound_to 10162
  139.5402  144.2669  152.1335 LP  0  0  0  0  0  0  0  0  0  0  0  0  # atno 17343 bound_to 10162
  156.6068  130.4369  149.5875 LP  0  0  0  0  0  0  0  0  0  0  0  0  # atno 17370 bound_to 10713
  156.2462  130.6880  151.1602 LP  0  0  0  0  0  0  0  0  0  0  0  0  # atno 17371 bound_to 10713
  140.2956  134.8205  157.4054 LP  0  0  0  0  0  0  0  0  0  0  0  0  # atno 17394 bound_to 11000
  140.1307  134.5099  155.8108 LP  0  0  0  0  0  0  0  0  0  0  0  0  # atno 17395 bound_to 11000

$$$$
