#       Name:                AV-unprocessed.smi:274
#       Creating user name   scv26
#       Creation time:       Thu Mar 26 21:30:35 2020


#       File generated by GOLD software.
#

@<TRIPOS>MOLECULE
AV-unprocessed.smi:274
    60    63     1
SMALL
NO_CHARGES


@<TRIPOS>ATOM
      1 ****        -4.9353  -1.6284   2.9981 C.3            1 S1                 0.0000
      2 ****        -4.1144  -1.0341   1.8360 C.3            1 S1                 0.0000
      3 ****        -3.9218  -2.1172   0.7550 C.3            1 S1                 0.0000
      4 ****        -2.7560  -0.4113   2.2892 C.3            1 S1                 0.0000
      5 ****        -2.9382   0.7431   3.3074 C.2            1 S1                 0.0000
      6 ****        -3.2017   0.4900   4.4811 O.2            1 S1                 0.0000
      7 ****        -2.7707   2.0126   2.8945 N.am           1 S1                 0.0000
      8 ****        -2.3761   2.4393   1.5518 C.3            1 S1                 0.0000
      9 ****        -2.4225   1.3053   0.5121 C.3            1 S1                 0.0000
     10 ****        -1.9964   0.0430   1.1118 N.3            1 S1                 0.0000
     11 ****        -0.6570  -0.1792   1.0649 C.ar           1 S1                 0.0000
     12 ****         0.0769  -0.1892   2.2096 N.ar           1 S1                 0.0000
     13 ****         1.3976  -0.3854   2.1623 C.ar           1 S1                 0.0000
     14 ****         2.1738  -0.5841   1.0953 N.ar           1 S1                 0.0000
     15 ****         1.4433  -0.5756  -0.0565 C.ar           1 S1                 0.0000
     16 ****         0.0363  -0.3880  -0.1595 C.ar           1 S1                 0.0000
     17 ****        -0.3562  -0.4642  -1.4903 N.2            1 S1                 0.0000
     18 ****         0.7566  -0.6782  -2.1375 C.2            1 S1                 0.0000
     19 ****         1.8891  -0.7416  -1.3567 N.pl3          1 S1                 0.0000
     20 ****         3.2539  -0.9632  -1.8114 C.3            1 S1                 0.0000
     21 ****         4.0519   0.3375  -2.0873 C.3            1 S1                 0.0000
     22 ****         4.0855   1.1267  -0.9124 O.3            1 S1                 0.0000
     23 ****         3.4994   1.1797  -3.2400 C.3            1 S1                 0.0000
     24 ****         4.4007   0.7995  -4.4056 C.3            1 S1                 0.0000
     25 ****         5.6693   0.6989  -3.7852 O.3            1 S1                 0.0000
     26 ****         5.4935   0.0300  -2.5425 C.3            1 S1                 0.0000
     27 ****        -4.3572  -2.3672   3.5538 H              1 S1                 0.0000
     28 ****        -5.8350  -2.1224   2.6303 H              1 S1                 0.0000
     29 ****        -5.2682  -0.8635   3.6989 H              1 S1                 0.0000
     30 ****        -4.7272  -0.2479   1.3938 H              1 S1                 0.0000
     31 ****        -3.2793  -2.9219   1.1136 H              1 S1                 0.0000
     32 ****        -3.4752  -1.7140  -0.1541 H              1 S1                 0.0000
     33 ****        -4.8758  -2.5592   0.4661 H              1 S1                 0.0000
     34 ****        -2.2025  -1.2043   2.7955 H              1 S1                 0.0000
     35 ****        -2.8923   2.7427   3.5813 H              1 S1                 0.0000
     36 ****        -2.9976   3.2762   1.2335 H              1 S1                 0.0000
     37 ****        -1.3558   2.8175   1.6244 H              1 S1                 0.0000
     38 ****        -3.4416   1.1860   0.1449 H              1 S1                 0.0000
     39 ****        -1.8276   1.5758  -0.3607 H              1 S1                 0.0000
     40 ****         1.9052  -0.3800   3.1155 H              1 S1                 0.0000
     41 ****         0.7817  -0.7919  -3.2116 H              1 S1                 0.0000
     42 ****         3.7672  -1.5619  -1.0574 H              1 S1                 0.0000
     43 ****         3.2155  -1.5780  -2.7116 H              1 S1                 0.0000
     44 ****         4.6113   1.8935  -1.0818 H              1 S1                 0.0000
     45 ****         2.4455   1.0160  -3.4576 H              1 S1                 0.0000
     46 ****         3.6254   2.2445  -3.0364 H              1 S1                 0.0000
     47 ****         4.1147  -0.1656  -4.8272 H              1 S1                 0.0000
     48 ****         4.3983   1.5430  -5.2028 H              1 S1                 0.0000
     49 ****         6.2510   0.3548  -1.8281 H              1 S1                 0.0000
     50 ****         5.6375  -1.0389  -2.7047 H              1 S1                 0.0000
     51 ****        -3.2983  -0.4599   4.7782 LP             1 S1                 0.0000
     52 ****        -3.3194   1.2341   5.1387 LP             1 S1                 0.0000
     53 ****        -2.3166  -0.6598   0.4765 LP             1 S1                 0.0000
     54 ****        -0.3741  -0.0490   3.0910 LP             1 S1                 0.0000
     55 ****         3.1635  -0.7215   1.1350 LP             1 S1                 0.0000
     56 ****        -1.2788  -0.3755  -1.8656 LP             1 S1                 0.0000
     57 ****         4.4881   0.6002  -0.1636 LP             1 S1                 0.0000
     58 ****         3.1568   1.4024  -0.6644 LP             1 S1                 0.0000
     59 ****         6.0454   1.6124  -3.6297 LP             1 S1                 0.0000
     60 ****         6.2923   0.1767  -4.3676 LP             1 S1                 0.0000
@<TRIPOS>BOND
    1    1    2 1     
    2    1   27 1     
    3    1   28 1     
    4    1   29 1     
    5    2    3 1     
    6    2    4 1     
    7    2   30 1     
    8    3   31 1     
    9    3   32 1     
   10    3   33 1     
   11    4   10 1     
   12    4    5 1     
   13    4   34 1     
   14    5    6 2     
   15    5    7 am    
   16    7    8 1     
   17    7   35 1     
   18    8    9 1     
   19    8   36 1     
   20    8   37 1     
   21    9   10 1     
   22    9   38 1     
   23    9   39 1     
   24   10   11 1     
   25   11   16 ar    
   26   11   12 ar    
   27   12   13 ar    
   28   13   14 ar    
   29   13   40 1     
   30   14   15 ar    
   31   15   19 1     
   32   15   16 ar    
   33   16   17 1     
   34   17   18 2     
   35   18   19 1     
   36   18   41 1     
   37   19   20 1     
   38   20   21 1     
   39   20   42 1     
   40   20   43 1     
   41   21   26 1     
   42   21   22 1     
   43   21   23 1     
   44   22   44 1     
   45   23   24 1     
   46   23   45 1     
   47   23   46 1     
   48   24   25 1     
   49   24   47 1     
   50   24   48 1     
   51   25   26 1     
   52   26   49 1     
   53   26   50 1     
   54    6   51 1     
   55    6   52 1     
   56   10   53 1     
   57   12   54 1     
   58   14   55 1     
   59   17   56 1     
   60   22   57 1     
   61   22   58 1     
   62   25   59 1     
   63   25   60 1     
@<TRIPOS>SUBSTRUCTURE
      1 S1             1
@<TRIPOS>SET
LONE_PAIRS      STATIC     ATOMS    <user>   **** ""
10 51 52 53 54 55 56 57 58 59 60
DONOR_HYDROGENS      STATIC     ATOMS    <user>   **** ""
2 35 44
ATOM$BLUE        STATIC     ATOMS    COLORGROUP SYSTEM
10 51 52 53 54 55 56 57 58 59 60
ATOM$RED        STATIC     ATOMS    COLORGROUP SYSTEM
2 35 44
