AV-unprocessed.smi:2331|AV-procd|sdf|9317|dock1
  -GOLD-   2272012533D 1   1.00000     0.00000
 Structure written by MMmdl.
 50 51  0  0  0  0  0  0  0  0  2 V2000
  145.6392  131.6865  157.1068 C   0  0  0  0  0  0  0  0  0  0  0  0
  146.2865  132.8384  156.3095 C   0  0  0  0  0  0  0  0  0  0  0  0
  145.1689  133.8643  156.0007 C   0  0  0  0  0  0  0  0  0  0  0  0
  147.3493  133.5336  157.1998 C   0  0  0  0  0  0  0  0  0  0  0  0
  146.8773  133.7103  158.5702 N   0  0  0  0  0  0  0  0  0  0  0  0
  147.5614  134.2908  159.5687 C   0  0  0  0  0  0  0  0  0  0  0  0
  148.6803  134.7797  159.4115 O   0  0  0  0  0  0  0  0  0  0  0  0
  146.8738  134.3519  160.7344 N   0  0  0  0  0  0  0  0  0  0  0  0
  145.7645  133.4463  161.0679 C   0  0  0  0  0  0  0  0  0  0  0  0
  145.5217  133.5756  162.5699 C   0  0  0  0  0  0  0  0  0  0  0  0
  146.8097  134.1798  163.1104 C   0  0  0  0  0  0  0  0  0  0  0  0
  147.3704  135.0219  161.9498 C   0  0  2  0  0  0  0  0  0  0  0  0
  147.0363  136.5526  162.0258 C   0  0  0  0  0  0  0  0  0  0  0  0
  145.5111  136.7736  161.9858 C   0  0  0  0  0  0  0  0  0  0  0  0
  147.6080  137.2760  163.2615 C   0  0  0  0  0  0  0  0  0  0  0  0
  147.5612  137.2188  160.8929 O   0  0  0  0  0  0  0  0  0  0  0  0
  146.9441  132.2755  155.0330 C   0  0  0  0  0  0  0  0  0  0  0  0
  146.8122  130.9186  154.6382 C   0  0  0  0  0  0  0  0  0  0  0  0
  147.4243  130.4723  153.4493 C   0  0  0  0  0  0  0  0  0  0  0  0
  148.1325  131.3343  152.6904 N   0  3  0  0  0  0  0  0  0  0  0  0
  148.2895  132.6331  153.0191 C   0  0  0  0  0  0  0  0  0  0  0  0
  147.6997  133.1347  154.1965 C   0  0  0  0  0  0  0  0  0  0  0  0
  145.1438  132.0557  158.0055 H   0  0  0  0  0  0  0  0  0  0  0  0
  146.3716  130.9462  157.4287 H   0  0  0  0  0  0  0  0  0  0  0  0
  144.8885  131.1665  156.5105 H   0  0  0  0  0  0  0  0  0  0  0  0
  144.7161  134.2409  156.9188 H   0  0  0  0  0  0  0  0  0  0  0  0
  144.3658  133.4200  155.4114 H   0  0  0  0  0  0  0  0  0  0  0  0
  145.5452  134.7312  155.4562 H   0  0  0  0  0  0  0  0  0  0  0  0
  148.2796  132.9628  157.1828 H   0  0  0  0  0  0  0  0  0  0  0  0
  147.5939  134.5210  156.8072 H   0  0  0  0  0  0  0  0  0  0  0  0
  145.9544  133.3602  158.7814 H   0  0  0  0  0  0  0  0  0  0  0  0
  144.8649  133.6937  160.5024 H   0  0  0  0  0  0  0  0  0  0  0  0
  146.0422  132.4181  160.8287 H   0  0  0  0  0  0  0  0  0  0  0  0
  144.6874  134.2534  162.7519 H   0  0  0  0  0  0  0  0  0  0  0  0
  145.2772  132.6225  163.0397 H   0  0  0  0  0  0  0  0  0  0  0  0
  146.6498  134.7348  164.0341 H   0  0  0  0  0  0  0  0  0  0  0  0
  147.5096  133.3747  163.3384 H   0  0  0  0  0  0  0  0  0  0  0  0
  148.4576  134.9260  161.9769 H   0  0  0  0  0  0  0  0  0  0  0  0
  145.0247  136.3004  162.8393 H   0  0  0  0  0  0  0  0  0  0  0  0
  145.0564  136.3650  161.0838 H   0  0  0  0  0  0  0  0  0  0  0  0
  145.2608  137.8349  162.0169 H   0  0  0  0  0  0  0  0  0  0  0  0
  147.2470  136.8241  164.1854 H   0  0  0  0  0  0  0  0  0  0  0  0
  147.3105  138.3252  163.2790 H   0  0  0  0  0  0  0  0  0  0  0  0
  148.6978  137.2581  163.2796 H   0  0  0  0  0  0  0  0  0  0  0  0
  147.3444  136.7163  160.1225 H   0  0  0  0  0  0  0  0  0  0  0  0
  146.2497  130.2050  155.2200 H   0  0  0  0  0  0  0  0  0  0  0  0
  147.3666  129.4571  153.0846 H   0  0  0  0  0  0  0  0  0  0  0  0
  148.8763  133.2288  152.3348 H   0  0  0  0  0  0  0  0  0  0  0  0
  147.8268  134.1775  154.4471 H   0  0  0  0  0  0  0  0  0  0  0  0
  148.5659  130.9899  151.8333 H   0  0  0  0  0  0  0  0  0  0  0  0
  1  2  1  0  0  0  0
  1 23  1  0  0  0  0
  1 24  1  0  0  0  0
  1 25  1  0  0  0  0
  2  3  1  0  0  0  0
  2  4  1  0  0  0  0
  2 17  1  0  0  0  0
  3 26  1  0  0  0  0
  3 27  1  0  0  0  0
  3 28  1  0  0  0  0
  4  5  1  0  0  0  0
  4 29  1  0  0  0  0
  4 30  1  0  0  0  0
  5  6  1  0  0  0  0
  5 31  1  0  0  0  0
  6  7  2  0  0  0  0
  6  8  1  0  0  0  0
  8 12  1  0  0  0  0
  8  9  1  0  0  0  0
  9 10  1  0  0  0  0
  9 32  1  0  0  0  0
  9 33  1  0  0  0  0
 10 11  1  0  0  0  0
 10 34  1  0  0  0  0
 10 35  1  0  0  0  0
 11 12  1  0  0  0  0
 11 36  1  0  0  0  0
 11 37  1  0  0  0  0
 12 13  1  0  0  0  0
 12 38  1  0  0  0  0
 13 14  1  0  0  0  0
 13 15  1  0  0  0  0
 13 16  1  0  0  0  0
 14 39  1  0  0  0  0
 14 40  1  0  0  0  0
 14 41  1  0  0  0  0
 15 42  1  0  0  0  0
 15 43  1  0  0  0  0
 15 44  1  0  0  0  0
 16 45  1  0  0  0  0
 17 22  1  0  0  0  0
 17 18  2  0  0  0  0
 18 19  1  0  0  0  0
 18 46  1  0  0  0  0
 19 20  2  0  0  0  0
 19 47  1  0  0  0  0
 20 21  1  0  0  0  0
 20 50  1  0  0  0  0
 21 22  2  0  0  0  0
 21 48  1  0  0  0  0
 22 49  1  0  0  0  0
M  CHG  1  20   1
M  END
> <s_m_source_file>
AV-unprocessed.smi

> <i_m_source_file_index>
2331

> <i_lp_mmshare_version>
43012

> <i_f3d_flags>
0

> <s_epik_input>
W2NIXTFbY0hdbltjSF1bY0hdYzFDKFtDSDNdKShbQ0gzXSlbQ0gyXVtOSF1DKD1PKU4yW0NIMl1bQ0gyXVtDSDJdW0NASF0yQyhbQ0gzXSkoW0NIM10pW09IXQ==

> <s_epik_cmdline>
J2VwaWtfcHl0aG9uJywgJy1waCcsICc3LjAnLCAnLXRuJywgJzgnLCAnLW1hJywgJzIwMCcsICctbWV0YWxfYmluZGluZycsICctaW1hZScsICc8aW5maWxlLm1hZT4nLCAnLW9tYWUnLCAnPG91dGZpbGUubWFlPic=

> <r_epik_Ionization_Penalty>
1.40501

> <r_epik_Ionization_Penalty_Charging>
1.40494

> <r_epik_Ionization_Penalty_Neutral>
7.00889e-05

> <r_epik_State_Penalty>
1.48741

> <r_epik_Charging_Adjusted_Penalty>
2.89235

> <i_epik_Tot_Q>
1

> <i_epik_Tot_abs_Q>
1

> <r_epik_Metal_State_Penalty>
1.54092

> <b_epik_Metal_Only>
0

> <s_lp_Force_Field>
OPLS_2005

> <r_lp_Energy>
57.0606

> <b_lp_Chiralities_Consistent>
1

> <s_lp_Variant>
AV-unprocessed.smi:2331-4

> <Gold.Version>
5.8.1

> <Gold.Id.Protein>
6NUR|6NUR_protein|mol2

> <Gold.PLP.Fitness>
42.2380

> <Gold.PLP.PLP>
-31.5375

> <Gold.PLP.part.hbond>
-4.0000

> <Gold.PLP.part.metal>
0.0000

> <Gold.PLP.part.buried>
-0.6041

> <Gold.PLP.part.nonpolar>
-27.9234

> <Gold.PLP.part.repulsive>
0.0165

> <Gold.PLP.ligand.clash>
0.1072

> <Gold.PLP.ligand.torsion>
0.4154

> <Gold.PLP.Chemscore.Hbond>
3.7920

> <Gold.PLP.Chemscore.CHOScore>
0.0000

> <Gold.PLP.Chemscore.Metal>
0.0000

> <Gold.Chemscore.Hbonds>
donor molecule, donor type, donor heavy atom, donor atom, acceptor molecule, acceptor atom, score
      L1  H    20    50       P1 10747  1.00
      P1  H  6896  6909       L1     7  1.00
      P1  H  6931  6943       L1    16  0.66
      P1  H  6934  6947       L1    16  0.98

> <Gold.PLP.Chemscore.Internal.Correction>
0.2624

> <Gold.Rescore>
     Score         DG    S(hbond)    S(metal)    S(lipo)     H(rot)  DE(clash)    DE(int)     intcor
     19.36     -20.32       3.08        0.00      83.08       2.02       0.35       0.61       ----

> <Gold.Chemscore.Fitness>
19.3636

> <Gold.Chemscore.DG>
-20.3208

> <Gold.Chemscore.ZeroCoef>
-5.4800

> <Gold.Chemscore.Hbond>
3.0807

> <Gold.Chemscore.Metal>
0.0000

> <Gold.Chemscore.Lipo>
83.0799

> <Gold.Chemscore.Internal_Hbond>
0.0000

> <Gold.Chemscore.DEClash>
0.3465

> <Gold.Chemscore.DEInternal>
0.6108

> <Gold.Chemscore.Rot>
2.0192

> <Gold.Chemscore.Internal.Correction>
   9.000000E+99

> <Gold.Chemscore.Hbonds>
donor molecule, donor type, donor heavy atom, donor atom, acceptor molecule, acceptor atom, score
      L1  H    20    50       P1 10747  0.95
      P1  H  6896  6909       L1     7  0.93
      P1  H  6931  6943       L1    16  0.11
      P1  H  6934  6947       L1    16  0.75

> <Gold.Chemscore.Hbond.Weighted>
-10.2896

> <Gold.Chemscore.Metal.Weighted>
-0.0000

> <Gold.Chemscore.Lipo.Weighted>
-9.7204

> <Gold.Chemscore.Internal_Hbond.Weighted>
0.0000

> <Gold.Chemscore.DEClash.Weighted>
0.3465

> <Gold.Chemscore.DEInternal.Weighted>
0.6108

> <Gold.Chemscore.Rot.Weighted>
5.1691

> <Gold.Chemscore.Internal.Correction.Weighted>
   9.000000E+99

> <Gold.Protein.RotatedTorsions>
[ 6907 6896 6895 6894 ] final   32.37 input  -60.11 | X-H torsion
[ 7974 7965 7964 7962 ] final  -24.61 input  175.53 | X-H torsion
[ 8008 7997 7996 7995 ] final  109.35 input   59.86 | X-H torsion
[ 10167 10162 10161 10158 ] final -100.11 input  -65.29 | X-H torsion
[ 10718 10713 10712 10709 ] final  -77.21 input   66.30 | X-H torsion
[ 10763 10752 10751 10750 ] final  -37.13 input  -60.55 | X-H torsion
[ 11005 11000 10999 10996 ] final   29.85 input  -57.11 | X-H torsion

> <Gold.Protein.ActiveResidues>
 VAL166  LYS551  ARG553  GLY616  TRP617  ASP618  TYR619  PRO620  LYS621  CYS622 
 ASP623  PHE694  ASN695  SER759  ASP760  ASP761  ALA762  ILE779  LEU786  VAL792 
 PHE793  MET794  SER795  GLU796  ALA797  LYS798  CYS799  TRP800  GLU811  SER814 

> <Gold.Protein.RotatedAtoms>
  152.0735  134.9518  160.0574 H   0  0  0  0  0  0  0  0  0  0  0  0  # atno 6907 bound_to 6896
  152.0835  133.4159  159.4520 H   0  0  0  0  0  0  0  0  0  0  0  0  # atno 6908 bound_to 6896
  150.6836  134.2874  159.4696 H   0  0  0  0  0  0  0  0  0  0  0  0  # atno 6909 bound_to 6896
  146.1544  140.4775  142.8598 H   0  0  0  0  0  0  0  0  0  0  0  0  # atno 7974 bound_to 7965
  156.1972  140.3059  155.9452 H   0  0  0  0  0  0  0  0  0  0  0  0  # atno 8008 bound_to 7997
  155.3037  140.0447  157.3048 H   0  0  0  0  0  0  0  0  0  0  0  0  # atno 8009 bound_to 7997
  154.5525  140.2296  155.8471 H   0  0  0  0  0  0  0  0  0  0  0  0  # atno 8010 bound_to 7997
  140.2554  143.3444  152.0676 H   0  0  0  0  0  0  0  0  0  0  0  0  # atno 10167 bound_to 10162
  156.0152  130.4485  150.3310 H   0  0  0  0  0  0  0  0  0  0  0  0  # atno 10718 bound_to 10713
  153.8911  135.6812  153.4760 H   0  0  0  0  0  0  0  0  0  0  0  0  # atno 10763 bound_to 10752
  153.1180  135.4752  154.9146 H   0  0  0  0  0  0  0  0  0  0  0  0  # atno 10764 bound_to 10752
  154.7622  135.3214  154.8310 H   0  0  0  0  0  0  0  0  0  0  0  0  # atno 10765 bound_to 10752
  140.3006  134.2760  155.7755 H   0  0  0  0  0  0  0  0  0  0  0  0  # atno 11005 bound_to 11000
  144.7944  140.6094  143.6520 LP  0  0  0  0  0  0  0  0  0  0  0  0  # atno 17320 bound_to 7965
  145.4746  139.1500  143.3795 LP  0  0  0  0  0  0  0  0  0  0  0  0  # atno 17321 bound_to 7965
  139.5033  144.6753  151.6144 LP  0  0  0  0  0  0  0  0  0  0  0  0  # atno 17342 bound_to 10162
  140.6008  143.9614  150.6385 LP  0  0  0  0  0  0  0  0  0  0  0  0  # atno 17343 bound_to 10162
  157.1408  131.0296  151.2928 LP  0  0  0  0  0  0  0  0  0  0  0  0  # atno 17370 bound_to 10713
  157.4473  130.7578  149.7120 LP  0  0  0  0  0  0  0  0  0  0  0  0  # atno 17371 bound_to 10713
  141.2129  133.7644  156.9762 LP  0  0  0  0  0  0  0  0  0  0  0  0  # atno 17394 bound_to 11000
  140.1112  134.9475  157.2068 LP  0  0  0  0  0  0  0  0  0  0  0  0  # atno 17395 bound_to 11000

$$$$
