AV-unprocessed.smi:2013|AV-procd|sdf|8157|dock5
  -GOLD-   2272010403D 1   1.00000     0.00000
 Structure written by MMmdl.
 51 52  0  0  0  0  0  0  0  0  2 V2000
  145.1399  135.5596  150.4900 C   0  0  0  0  0  0  0  0  0  0  0  0
  146.2088  134.7994  151.2980 C   0  0  0  0  0  0  0  0  0  0  0  0
  146.3190  133.3623  150.7496 C   0  0  0  0  0  0  0  0  0  0  0  0
  145.9408  134.8164  152.8312 C   0  0  2  0  0  0  0  0  0  0  0  0
  145.4292  136.1963  153.3347 C   0  0  0  0  0  0  0  0  0  0  0  0
  146.3860  137.2757  153.1146 N   0  0  0  0  0  0  0  0  0  0  0  0
  146.8319  138.1200  154.0559 C   0  0  0  0  0  0  0  0  0  0  0  0
  146.4691  138.0747  155.2319 O   0  0  0  0  0  0  0  0  0  0  0  0
  147.8148  139.1980  153.5809 C   0  0  0  0  0  0  0  0  0  0  0  0
  148.9813  139.3374  154.4619 N   0  0  0  0  0  0  0  0  0  0  0  0
  149.8510  138.2733  154.6197 C   0  0  0  0  0  0  0  0  0  0  0  0
  150.9508  138.3198  155.4023 C   0  0  0  0  0  0  0  0  0  0  0  0
  151.2872  139.5272  156.1457 C   0  0  0  0  0  0  0  0  0  0  0  0
  152.2792  139.6237  156.8699 O   0  0  0  0  0  0  0  0  0  0  0  0
  150.3811  140.5980  155.9720 N   0  0  0  0  0  0  0  0  0  0  0  0
  150.6795  141.8161  156.6963 C   0  0  0  0  0  0  0  0  0  0  0  0
  149.2348  140.5477  155.1444 C   0  0  0  0  0  0  0  0  0  0  0  0
  148.4743  141.5086  155.0071 O   0  0  0  0  0  0  0  0  0  0  0  0
  147.1485  134.3131  153.5598 N   0  3  0  0  0  0  0  0  0  0  0  0
  147.3749  134.8636  154.9197 C   0  0  0  0  0  0  0  0  0  0  0  0
  148.7586  134.4350  155.4346 C   0  0  0  0  0  0  0  0  0  0  0  0
  148.8553  133.0154  155.4163 O   0  0  0  0  0  0  0  0  0  0  0  0
  148.7262  132.4865  154.1017 C   0  0  0  0  0  0  0  0  0  0  0  0
  147.3415  132.8419  153.5349 C   0  0  0  0  0  0  0  0  0  0  0  0
  144.1385  135.1837  150.7021 H   0  0  0  0  0  0  0  0  0  0  0  0
  145.3107  135.4550  149.4181 H   0  0  0  0  0  0  0  0  0  0  0  0
  145.1528  136.6287  150.7001 H   0  0  0  0  0  0  0  0  0  0  0  0
  147.1615  135.2945  151.1069 H   0  0  0  0  0  0  0  0  0  0  0  0
  145.4078  132.7947  150.9415 H   0  0  0  0  0  0  0  0  0  0  0  0
  147.1519  132.8170  151.1933 H   0  0  0  0  0  0  0  0  0  0  0  0
  146.4849  133.3649  149.6719 H   0  0  0  0  0  0  0  0  0  0  0  0
  145.1380  134.0979  153.0050 H   0  0  0  0  0  0  0  0  0  0  0  0
  144.4659  136.4243  152.8756 H   0  0  0  0  0  0  0  0  0  0  0  0
  145.2541  136.1681  154.4094 H   0  0  0  0  0  0  0  0  0  0  0  0
  146.7427  137.3858  152.1764 H   0  0  0  0  0  0  0  0  0  0  0  0
  148.1385  138.9851  152.5603 H   0  0  0  0  0  0  0  0  0  0  0  0
  147.2757  140.1447  153.5258 H   0  0  0  0  0  0  0  0  0  0  0  0
  149.6456  137.3562  154.0867 H   0  0  0  0  0  0  0  0  0  0  0  0
  151.5904  137.4528  155.4792 H   0  0  0  0  0  0  0  0  0  0  0  0
  149.8905  142.5568  156.5716 H   0  0  0  0  0  0  0  0  0  0  0  0
  151.6222  142.2002  156.3033 H   0  0  0  0  0  0  0  0  0  0  0  0
  150.7655  141.5553  157.7528 H   0  0  0  0  0  0  0  0  0  0  0  0
  147.3098  135.9515  154.9026 H   0  0  0  0  0  0  0  0  0  0  0  0
  146.6106  134.5054  155.6093 H   0  0  0  0  0  0  0  0  0  0  0  0
  149.5536  134.8743  154.8296 H   0  0  0  0  0  0  0  0  0  0  0  0
  148.9043  134.7864  156.4562 H   0  0  0  0  0  0  0  0  0  0  0  0
  149.5209  132.8735  153.4618 H   0  0  0  0  0  0  0  0  0  0  0  0
  148.8495  131.4041  154.1420 H   0  0  0  0  0  0  0  0  0  0  0  0
  146.5727  132.3409  154.1215 H   0  0  0  0  0  0  0  0  0  0  0  0
  147.2610  132.4706  152.5127 H   0  0  0  0  0  0  0  0  0  0  0  0
  147.9189  134.6634  153.0082 H   0  0  0  0  0  0  0  0  0  0  0  0
  1  2  1  0  0  0  0
  1 25  1  0  0  0  0
  1 26  1  0  0  0  0
  1 27  1  0  0  0  0
  2  3  1  0  0  0  0
  2  4  1  0  0  0  0
  2 28  1  0  0  0  0
  3 29  1  0  0  0  0
  3 30  1  0  0  0  0
  3 31  1  0  0  0  0
  4  5  1  0  0  0  0
  4 19  1  0  0  0  0
  4 32  1  0  0  0  0
  5  6  1  0  0  0  0
  5 33  1  0  0  0  0
  5 34  1  0  0  0  0
  6  7  1  0  0  0  0
  6 35  1  0  0  0  0
  7  8  2  0  0  0  0
  7  9  1  0  0  0  0
  9 10  1  0  0  0  0
  9 36  1  0  0  0  0
  9 37  1  0  0  0  0
 10 17  1  0  0  0  0
 10 11  1  0  0  0  0
 11 12  2  0  0  0  0
 11 38  1  0  0  0  0
 12 13  1  0  0  0  0
 12 39  1  0  0  0  0
 13 14  2  0  0  0  0
 13 15  1  0  0  0  0
 15 16  1  0  0  0  0
 15 17  1  0  0  0  0
 16 40  1  0  0  0  0
 16 41  1  0  0  0  0
 16 42  1  0  0  0  0
 17 18  2  0  0  0  0
 19 24  1  0  0  0  0
 19 20  1  0  0  0  0
 19 51  1  0  0  0  0
 20 21  1  0  0  0  0
 20 43  1  0  0  0  0
 20 44  1  0  0  0  0
 21 22  1  0  0  0  0
 21 45  1  0  0  0  0
 21 46  1  0  0  0  0
 22 23  1  0  0  0  0
 23 24  1  0  0  0  0
 23 47  1  0  0  0  0
 23 48  1  0  0  0  0
 24 49  1  0  0  0  0
 24 50  1  0  0  0  0
M  CHG  1  19   1
M  END
> <s_m_source_file>
AV-unprocessed.smi

> <i_m_source_file_index>
2013

> <i_lp_mmshare_version>
43012

> <i_f3d_flags>
0

> <s_epik_input>
W0NIMl0xW0NIMl1PW0NIMl1bQ0gyXU4xW0NASF0oW0NIXShbQ0gzXSlbQ0gzXSlbQ0gyXVtOSF1DKD1PKVtDSDJdbjJbY0hdW2NIXWMoPU8pbihbQ0gzXSljMj1P

> <s_epik_cmdline>
J2VwaWtfcHl0aG9uJywgJy1waCcsICc3LjAnLCAnLXRuJywgJzgnLCAnLW1hJywgJzIwMCcsICctbWV0YWxfYmluZGluZycsICctaW1hZScsICc8aW5maWxlLm1hZT4nLCAnLW9tYWUnLCAnPG91dGZpbGUubWFlPic=

> <r_lp_tautomer_probability>
1

> <r_epik_Ionization_Penalty>
0.370738

> <r_epik_Ionization_Penalty_Charging>
0.370738

> <r_epik_Ionization_Penalty_Neutral>
8.1827e-08

> <r_epik_State_Penalty>
0.368162

> <r_epik_Charging_Adjusted_Penalty>
0.7389

> <i_epik_Tot_Q>
1

> <i_epik_Tot_abs_Q>
1

> <r_epik_Metal_State_Penalty>
0.368194

> <b_epik_Metal_Only>
0

> <s_lp_Force_Field>
OPLS_2005

> <r_lp_Energy>
40.4187

> <b_lp_Chiralities_Consistent>
1

> <s_lp_Variant>
AV-unprocessed.smi:2013-1

> <Gold.Version>
5.8.1

> <Gold.Id.Protein>
6NUR|6NUR_protein|mol2

> <Gold.PLP.Fitness>
51.1127

> <Gold.PLP.PLP>
-40.8227

> <Gold.PLP.part.hbond>
-3.0000

> <Gold.PLP.part.metal>
0.0000

> <Gold.PLP.part.buried>
-3.1230

> <Gold.PLP.part.nonpolar>
-34.6160

> <Gold.PLP.part.repulsive>
0.2074

> <Gold.PLP.ligand.clash>
0.0000

> <Gold.PLP.ligand.torsion>
1.0416

> <Gold.PLP.Chemscore.Hbond>
3.0000

> <Gold.PLP.Chemscore.CHOScore>
1.0000

> <Gold.PLP.Chemscore.Metal>
0.0000

> <Gold.Chemscore.Hbonds>
donor molecule, donor type, donor heavy atom, donor atom, acceptor molecule, acceptor atom, score
      L1  H    19    51       P1  7948  1.30
      P1  H  7997  8008       L1    14  0.68
      L1  C    11    38       P1  7948  0.93

> <Gold.PLP.Chemscore.Internal.Correction>
0.3733

> <Gold.Rescore>
     Score         DG    S(hbond)    S(metal)    S(lipo)     H(rot)  DE(clash)    DE(int)     intcor
     12.43     -14.75       1.92        0.00      74.36       2.28       0.28       2.04       ----

> <Gold.Chemscore.Fitness>
12.4337

> <Gold.Chemscore.DG>
-14.7485

> <Gold.Chemscore.ZeroCoef>
-5.4800

> <Gold.Chemscore.Hbond>
1.9190

> <Gold.Chemscore.Metal>
0.0000

> <Gold.Chemscore.Lipo>
74.3555

> <Gold.Chemscore.Internal_Hbond>
0.0000

> <Gold.Chemscore.DEClash>
0.2776

> <Gold.Chemscore.DEInternal>
2.0372

> <Gold.Chemscore.Rot>
2.2814

> <Gold.Chemscore.Internal.Correction>
   9.000000E+99

> <Gold.Chemscore.Hbonds>
donor molecule, donor type, donor heavy atom, donor atom, acceptor molecule, acceptor atom, score
      L1  H    19    51       P1  7948  0.54
      P1  H  7997  8008       L1    14  0.67

> <Gold.Chemscore.Hbond.Weighted>
-6.4094

> <Gold.Chemscore.Metal.Weighted>
-0.0000

> <Gold.Chemscore.Lipo.Weighted>
-8.6996

> <Gold.Chemscore.Internal_Hbond.Weighted>
0.0000

> <Gold.Chemscore.DEClash.Weighted>
0.2776

> <Gold.Chemscore.DEInternal.Weighted>
2.0372

> <Gold.Chemscore.Rot.Weighted>
5.8404

> <Gold.Chemscore.Internal.Correction.Weighted>
   9.000000E+99

> <Gold.Protein.RotatedTorsions>
[ 6907 6896 6895 6894 ] final  -98.63 input  -60.11 | X-H torsion
[ 7974 7965 7964 7962 ] final  177.38 input  175.53 | X-H torsion
[ 8008 7997 7996 7995 ] final  -47.31 input   59.86 | X-H torsion
[ 10167 10162 10161 10158 ] final  172.39 input  -65.29 | X-H torsion
[ 10718 10713 10712 10709 ] final   80.64 input   66.30 | X-H torsion
[ 10763 10752 10751 10750 ] final   82.40 input  -60.55 | X-H torsion
[ 11005 11000 10999 10996 ] final  -87.50 input  -57.11 | X-H torsion

> <Gold.Protein.ActiveResidues>
 VAL166  LYS551  ARG553  GLY616  TRP617  ASP618  TYR619  PRO620  LYS621  CYS622 
 ASP623  PHE694  ASN695  SER759  ASP760  ASP761  ALA762  ILE779  LEU786  VAL792 
 PHE793  MET794  SER795  GLU796  ALA797  LYS798  CYS799  TRP800  GLU811  SER814 

> <Gold.Protein.RotatedAtoms>
  150.7053  134.1165  159.4018 H   0  0  0  0  0  0  0  0  0  0  0  0  # atno 6907 bound_to 6896
  151.9151  135.0320  160.0527 H   0  0  0  0  0  0  0  0  0  0  0  0  # atno 6908 bound_to 6896
  152.2303  133.5017  159.5248 H   0  0  0  0  0  0  0  0  0  0  0  0  # atno 6909 bound_to 6896
  144.7170  140.0239  143.6440 H   0  0  0  0  0  0  0  0  0  0  0  0  # atno 7974 bound_to 7965
  154.4015  140.1349  156.4155 H   0  0  0  0  0  0  0  0  0  0  0  0  # atno 8008 bound_to 7997
  155.7693  140.3484  155.5218 H   0  0  0  0  0  0  0  0  0  0  0  0  # atno 8009 bound_to 7997
  155.8782  140.0983  157.1493 H   0  0  0  0  0  0  0  0  0  0  0  0  # atno 8010 bound_to 7997
  139.5075  144.3379  152.0047 H   0  0  0  0  0  0  0  0  0  0  0  0  # atno 10167 bound_to 10162
  157.6811  130.9968  150.2109 H   0  0  0  0  0  0  0  0  0  0  0  0  # atno 10718 bound_to 10713
  153.1200  135.4729  154.9179 H   0  0  0  0  0  0  0  0  0  0  0  0  # atno 10763 bound_to 10752
  154.7566  135.3120  154.8461 H   0  0  0  0  0  0  0  0  0  0  0  0  # atno 10764 bound_to 10752
  153.9028  135.6873  153.4808 H   0  0  0  0  0  0  0  0  0  0  0  0  # atno 10765 bound_to 10752
  141.1616  133.7515  156.9316 H   0  0  0  0  0  0  0  0  0  0  0  0  # atno 11005 bound_to 11000
  146.0158  139.3208  143.0843 LP  0  0  0  0  0  0  0  0  0  0  0  0  # atno 17320 bound_to 7965
  145.8627  140.9466  143.0691 LP  0  0  0  0  0  0  0  0  0  0  0  0  # atno 17321 bound_to 7965
  140.2817  144.3852  150.6117 LP  0  0  0  0  0  0  0  0  0  0  0  0  # atno 17342 bound_to 10162
  140.6013  143.2167  151.7067 LP  0  0  0  0  0  0  0  0  0  0  0  0  # atno 17343 bound_to 10162
  156.2780  130.3730  149.7964 LP  0  0  0  0  0  0  0  0  0  0  0  0  # atno 17370 bound_to 10713
  156.5661  130.8404  151.3343 LP  0  0  0  0  0  0  0  0  0  0  0  0  # atno 17371 bound_to 10713
  140.1383  134.9311  157.2431 LP  0  0  0  0  0  0  0  0  0  0  0  0  # atno 17394 bound_to 11000
  140.2868  134.3286  155.7326 LP  0  0  0  0  0  0  0  0  0  0  0  0  # atno 17395 bound_to 11000

$$$$
