AV-unprocessed.smi:46|AV-procd|sdf|420|dock8
  -GOLD-   2262016303D 1   1.00000     0.00000
 Structure written by MMmdl.
 35 36  0  0  0  0  0  0  0  0  2 V2000
  151.5748  145.1852  159.9072 C   0  0  0  0  0  0  0  0  0  0  0  0
  152.4491  144.4561  158.8760 C   0  0  0  0  0  0  0  0  0  0  0  0
  152.7239  145.3211  157.6363 C   0  0  0  0  0  0  0  0  0  0  0  0
  151.8495  143.1842  158.5014 N   0  0  0  0  0  0  0  0  0  0  0  0
  150.6433  142.9491  157.8744 C   0  0  0  0  0  0  0  0  0  0  0  0
  150.4953  141.5947  157.7460 C   0  0  0  0  0  0  0  0  0  0  0  0
  149.3668  140.7911  157.1334 C   0  0  1  0  0  0  0  0  0  0  0  0
  148.1747  141.6535  156.6992 C   0  0  0  0  0  0  0  0  0  0  0  0
  148.4632  142.0983  155.3235 N   0  3  0  0  0  0  0  0  0  0  0  0
  149.4862  141.1992  154.7542 C   0  0  0  0  0  0  0  0  0  0  0  0
  149.7586  140.1127  155.8086 C   0  0  1  0  0  0  0  0  0  0  0  0
  151.1801  139.5199  155.7411 C   0  0  0  0  0  0  0  0  0  0  0  0
  151.4840  139.1477  154.4141 O   0  0  0  0  0  0  0  0  0  0  0  0
  151.6834  141.0830  158.3425 C   0  0  0  0  0  0  0  0  0  0  0  0
  152.4875  142.0313  158.7917 N   0  0  0  0  0  0  0  0  0  0  0  0
  149.0300  140.0379  157.8472 H   0  0  0  0  0  0  0  0  0  0  0  0
  149.0396  139.3082  155.6407 H   0  0  0  0  0  0  0  0  0  0  0  0
  152.0475  146.1112  160.2356 H   0  0  0  0  0  0  0  0  0  0  0  0
  151.4138  144.5671  160.7911 H   0  0  0  0  0  0  0  0  0  0  0  0
  150.5975  145.4392  159.4957 H   0  0  0  0  0  0  0  0  0  0  0  0
  153.4106  144.2464  159.3485 H   0  0  0  0  0  0  0  0  0  0  0  0
  153.2261  146.2490  157.9118 H   0  0  0  0  0  0  0  0  0  0  0  0
  151.8019  145.5857  157.1179 H   0  0  0  0  0  0  0  0  0  0  0  0
  153.3666  144.7971  156.9280 H   0  0  0  0  0  0  0  0  0  0  0  0
  149.9972  143.7609  157.5755 H   0  0  0  0  0  0  0  0  0  0  0  0
  147.2759  141.0367  156.6576 H   0  0  0  0  0  0  0  0  0  0  0  0
  147.9691  142.4862  157.3727 H   0  0  0  0  0  0  0  0  0  0  0  0
  147.6195  142.0777  154.7684 H   0  0  0  0  0  0  0  0  0  0  0  0
  149.1531  140.7737  153.8072 H   0  0  0  0  0  0  0  0  0  0  0  0
  150.3837  141.7870  154.5583 H   0  0  0  0  0  0  0  0  0  0  0  0
  151.9303  140.2304  156.0898 H   0  0  0  0  0  0  0  0  0  0  0  0
  151.2511  138.6343  156.3733 H   0  0  0  0  0  0  0  0  0  0  0  0
  151.3770  138.2119  154.3313 H   0  0  0  0  0  0  0  0  0  0  0  0
  151.9845  140.0521  158.4586 H   0  0  0  0  0  0  0  0  0  0  0  0
  148.8335  143.0377  155.3441 H   0  0  0  0  0  0  0  0  0  0  0  0
  1  2  1  0  0  0  0
  1 18  1  0  0  0  0
  1 19  1  0  0  0  0
  1 20  1  0  0  0  0
  2  3  1  0  0  0  0
  2  4  1  0  0  0  0
  2 21  1  0  0  0  0
  3 22  1  0  0  0  0
  3 23  1  0  0  0  0
  3 24  1  0  0  0  0
  4 15  1  0  0  0  0
  4  5  1  0  0  0  0
  5  6  2  0  0  0  0
  5 25  1  0  0  0  0
  6  7  1  0  0  0  0
  6 14  1  0  0  0  0
  7 16  1  0  0  0  0
  7 11  1  0  0  0  0
  7  8  1  0  0  0  0
  8  9  1  0  0  0  0
  8 26  1  0  0  0  0
  8 27  1  0  0  0  0
  9 10  1  0  0  0  0
  9 28  1  0  0  0  0
  9 35  1  0  0  0  0
 10 11  1  0  0  0  0
 10 29  1  0  0  0  0
 10 30  1  0  0  0  0
 11 17  1  0  0  0  0
 11 12  1  0  0  0  0
 12 13  1  0  0  0  0
 12 31  1  0  0  0  0
 12 32  1  0  0  0  0
 13 33  1  0  0  0  0
 14 15  2  0  0  0  0
 14 34  1  0  0  0  0
M  CHG  1   9   1
M  END
> <s_m_source_file>
AV-unprocessed.smi

> <i_m_source_file_index>
46

> <i_lp_mmshare_version>
43012

> <i_f3d_flags>
0

> <s_epik_input>
W0NIM11bQ0hdKFtDSDNdKW4xW2NIXWMoW2NIXW4xKVtDQEBIXTJbQ0gyXVtOSF1bQ0gyXVtDQEhdMltDSDJdW09IXQ==

> <s_epik_cmdline>
J2VwaWtfcHl0aG9uJywgJy1waCcsICc3LjAnLCAnLXRuJywgJzgnLCAnLW1hJywgJzIwMCcsICctbWV0YWxfYmluZGluZycsICctaW1hZScsICc8aW5maWxlLm1hZT4nLCAnLW9tYWUnLCAnPG91dGZpbGUubWFlPic=

> <r_lp_tautomer_probability>
1

> <r_epik_Ionization_Penalty>
0.000236226

> <r_epik_Ionization_Penalty_Charging>
0.00021985

> <r_epik_Ionization_Penalty_Neutral>
1.63752e-05

> <r_epik_State_Penalty>
-0

> <r_epik_Charging_Adjusted_Penalty>
0.00021985

> <i_epik_Tot_Q>
1

> <i_epik_Tot_abs_Q>
1

> <r_epik_Metal_State_Penalty>
-0

> <b_epik_Metal_Only>
0

> <s_lp_Force_Field>
OPLS_2005

> <r_lp_Energy>
33.3547

> <b_lp_Chiralities_Consistent>
1

> <s_lp_Variant>
AV-unprocessed.smi:46-2

> <Gold.Version>
5.8.1

> <Gold.Id.Protein>
6NUR|6NUR_protein|mol2

> <Gold.PLP.Fitness>
42.0208

> <Gold.PLP.PLP>
-30.3629

> <Gold.PLP.part.hbond>
-2.0000

> <Gold.PLP.part.metal>
0.0000

> <Gold.PLP.part.buried>
-3.4108

> <Gold.PLP.part.nonpolar>
-24.3691

> <Gold.PLP.part.repulsive>
0.1442

> <Gold.PLP.ligand.clash>
0.0000

> <Gold.PLP.ligand.torsion>
0.1987

> <Gold.PLP.Chemscore.Hbond>
3.0000

> <Gold.PLP.Chemscore.CHOScore>
1.0000

> <Gold.PLP.Chemscore.Metal>
0.0000

> <Gold.Chemscore.Hbonds>
donor molecule, donor type, donor heavy atom, donor atom, acceptor molecule, acceptor atom, score
      L1  H     9    35       P1  8028  2.00
      P1  H  7989  7998       L1    13  1.00
      L1  C     5    25       P1  8028  1.00

> <Gold.PLP.Chemscore.Internal.Correction>
0.0553

> <Gold.Rescore>
     Score         DG    S(hbond)    S(metal)    S(lipo)     H(rot)  DE(clash)    DE(int)     intcor
     15.24     -17.20       1.95        0.00      86.12       1.90       1.49       0.47       ----

> <Gold.Chemscore.Fitness>
15.2411

> <Gold.Chemscore.DG>
-17.2023

> <Gold.Chemscore.ZeroCoef>
-5.4800

> <Gold.Chemscore.Hbond>
1.9474

> <Gold.Chemscore.Metal>
0.0000

> <Gold.Chemscore.Lipo>
86.1189

> <Gold.Chemscore.Internal_Hbond>
0.0000

> <Gold.Chemscore.DEClash>
1.4879

> <Gold.Chemscore.DEInternal>
0.4733

> <Gold.Chemscore.Rot>
1.8976

> <Gold.Chemscore.Internal.Correction>
   9.000000E+99

> <Gold.Chemscore.Hbonds>
donor molecule, donor type, donor heavy atom, donor atom, acceptor molecule, acceptor atom, score
      L1  H     9    35       P1  8028  0.99
      P1  H  7989  7998       L1    13  0.44

> <Gold.Chemscore.Hbond.Weighted>
-6.5043

> <Gold.Chemscore.Metal.Weighted>
-0.0000

> <Gold.Chemscore.Lipo.Weighted>
-10.0759

> <Gold.Chemscore.Internal_Hbond.Weighted>
0.0000

> <Gold.Chemscore.DEClash.Weighted>
1.4879

> <Gold.Chemscore.DEInternal.Weighted>
0.4733

> <Gold.Chemscore.Rot.Weighted>
4.8579

> <Gold.Chemscore.Internal.Correction.Weighted>
   9.000000E+99

> <Gold.Protein.RotatedTorsions>
[ 6907 6896 6895 6894 ] final -103.63 input  -60.11 | X-H torsion
[ 7974 7965 7964 7962 ] final  -97.30 input  175.53 | X-H torsion
[ 8008 7997 7996 7995 ] final  -51.95 input   59.86 | X-H torsion
[ 10167 10162 10161 10158 ] final  -61.63 input  -65.29 | X-H torsion
[ 10718 10713 10712 10709 ] final  -64.73 input   66.30 | X-H torsion
[ 10763 10752 10751 10750 ] final -121.92 input  -60.55 | X-H torsion
[ 11005 11000 10999 10996 ] final   73.81 input  -57.11 | X-H torsion

> <Gold.Protein.ActiveResidues>
 VAL166  LYS551  ARG553  GLY616  TRP617  ASP618  TYR619  PRO620  LYS621  CYS622 
 ASP623  PHE694  ASN695  SER759  ASP760  ASP761  ALA762  ILE779  LEU786  VAL792 
 PHE793  MET794  SER795  GLU796  ALA797  LYS798  CYS799  TRP800  GLU811  SER814 

> <Gold.Protein.RotatedAtoms>
  150.7249  134.0401  159.3762 H   0  0  0  0  0  0  0  0  0  0  0  0  # atno 6907 bound_to 6896
  151.8374  135.0599  160.0453 H   0  0  0  0  0  0  0  0  0  0  0  0  # atno 6908 bound_to 6896
  152.2888  133.5505  159.5581 H   0  0  0  0  0  0  0  0  0  0  0  0  # atno 6909 bound_to 6896
  145.3355  140.9450  143.2637 H   0  0  0  0  0  0  0  0  0  0  0  0  # atno 7974 bound_to 7965
  154.4095  140.1235  156.4912 H   0  0  0  0  0  0  0  0  0  0  0  0  # atno 8008 bound_to 7997
  155.6989  140.3495  155.4905 H   0  0  0  0  0  0  0  0  0  0  0  0  # atno 8009 bound_to 7997
  155.9403  140.1086  157.1051 H   0  0  0  0  0  0  0  0  0  0  0  0  # atno 8010 bound_to 7997
  140.5993  143.2358  151.5964 H   0  0  0  0  0  0  0  0  0  0  0  0  # atno 10167 bound_to 10162
  156.0711  130.4237  150.1462 H   0  0  0  0  0  0  0  0  0  0  0  0  # atno 10718 bound_to 10713
  154.8678  135.4151  154.2697 H   0  0  0  0  0  0  0  0  0  0  0  0  # atno 10763 bound_to 10752
  153.3610  135.7003  153.6718 H   0  0  0  0  0  0  0  0  0  0  0  0  # atno 10764 bound_to 10752
  153.5619  135.3608  155.2775 H   0  0  0  0  0  0  0  0  0  0  0  0  # atno 10765 bound_to 10752
  139.9422  134.7378  156.1071 H   0  0  0  0  0  0  0  0  0  0  0  0  # atno 11005 bound_to 11000
  144.8831  139.4877  143.6713 LP  0  0  0  0  0  0  0  0  0  0  0  0  # atno 17320 bound_to 7965
  146.3028  139.7483  142.9078 LP  0  0  0  0  0  0  0  0  0  0  0  0  # atno 17321 bound_to 7965
  139.5280  144.3001  152.1081 LP  0  0  0  0  0  0  0  0  0  0  0  0  # atno 17342 bound_to 10162
  140.2179  144.4496  150.6355 LP  0  0  0  0  0  0  0  0  0  0  0  0  # atno 17343 bound_to 10162
  156.9512  130.9775  151.3498 LP  0  0  0  0  0  0  0  0  0  0  0  0  # atno 17370 bound_to 10713
  157.5783  130.8358  149.8486 LP  0  0  0  0  0  0  0  0  0  0  0  0  # atno 17371 bound_to 10713
  141.1060  133.6660  156.2865 LP  0  0  0  0  0  0  0  0  0  0  0  0  # atno 17394 bound_to 11000
  140.5924  134.5637  157.5502 LP  0  0  0  0  0  0  0  0  0  0  0  0  # atno 17395 bound_to 11000

$$$$
