AV-unprocessed.smi:2845|AV-procd|sdf|10944|dock4
  -GOLD-   2272015393D 1   1.00000     0.00000
 Structure written by MMmdl.
 42 44  0  0  0  0  0  0  0  0  1 V2000
  153.4345  142.6182  162.1766 C   0  0  0  0  0  0  0  0  0  0  0  0
  152.9038  142.3187  160.7858 C   0  0  0  0  0  0  0  0  0  0  0  0
  153.2604  141.1016  160.1609 C   0  0  0  0  0  0  0  0  0  0  0  0
  152.7883  140.7855  158.8679 C   0  0  0  0  0  0  0  0  0  0  0  0
  153.0055  139.6707  158.0751 N   0  0  0  0  0  0  0  0  0  0  0  0
  152.2963  139.9694  156.9896 C   0  0  0  0  0  0  0  0  0  0  0  0
  151.6476  141.1496  156.9860 N   0  0  0  0  0  0  0  0  0  0  0  0
  150.8133  141.7022  155.9374 C   0  0  0  0  0  0  0  0  0  0  0  0
  149.5229  140.8791  155.7352 C   0  0  1  0  0  0  0  0  0  0  0  0
  148.4220  141.7558  155.6081 O   0  0  0  0  0  0  0  0  0  0  0  0
  149.5700  139.9457  154.5081 C   0  0  0  0  0  0  0  0  0  0  0  0
  150.3350  138.7349  154.7552 N   0  0  0  0  0  0  0  0  0  0  0  0
  151.4969  138.3199  154.2418 C   0  0  0  0  0  0  0  0  0  0  0  0
  151.9116  137.1526  154.7185 N   0  0  0  0  0  0  0  0  0  0  0  0
  150.8749  136.8889  155.5657 C   0  0  0  0  0  0  0  0  0  0  0  0
  150.8549  135.4021  156.6158 S   0  0  1  0  0  0  0  0  0  0  0  0
  150.4054  134.2222  155.2569 C   0  0  0  0  0  0  0  0  0  0  0  0
  152.3119  135.1176  156.9874 O   0  0  0  0  0  0  0  0  0  0  0  0
  149.8924  137.7847  155.6134 N   0  0  0  0  0  0  0  0  0  0  0  0
  151.9429  141.7281  158.2144 C   0  0  0  0  0  0  0  0  0  0  0  0
  151.5815  142.9419  158.8244 C   0  0  0  0  0  0  0  0  0  0  0  0
  152.0621  143.2425  160.1152 C   0  0  0  0  0  0  0  0  0  0  0  0
  151.6671  144.5580  160.7626 C   0  0  0  0  0  0  0  0  0  0  0  0
  154.0745  141.8140  162.5407 H   0  0  0  0  0  0  0  0  0  0  0  0
  152.6114  142.7361  162.8818 H   0  0  0  0  0  0  0  0  0  0  0  0
  154.0219  143.5366  162.1723 H   0  0  0  0  0  0  0  0  0  0  0  0
  153.9019  140.3985  160.6714 H   0  0  0  0  0  0  0  0  0  0  0  0
  152.2461  139.2933  156.1487 H   0  0  0  0  0  0  0  0  0  0  0  0
  150.5800  142.7421  156.1708 H   0  0  0  0  0  0  0  0  0  0  0  0
  151.4137  141.7189  155.0277 H   0  0  0  0  0  0  0  0  0  0  0  0
  149.3427  140.2699  156.6222 H   0  0  0  0  0  0  0  0  0  0  0  0
  148.7503  142.6247  155.4329 H   0  0  0  0  0  0  0  0  0  0  0  0
  148.5612  139.6549  154.2123 H   0  0  0  0  0  0  0  0  0  0  0  0
  150.0126  140.4650  153.6568 H   0  0  0  0  0  0  0  0  0  0  0  0
  152.0589  138.8909  153.5171 H   0  0  0  0  0  0  0  0  0  0  0  0
  149.3255  134.0776  155.2278 H   0  0  0  0  0  0  0  0  0  0  0  0
  150.8792  133.2559  155.4278 H   0  0  0  0  0  0  0  0  0  0  0  0
  150.7316  134.5961  154.2862 H   0  0  0  0  0  0  0  0  0  0  0  0
  150.9422  143.6376  158.3014 H   0  0  0  0  0  0  0  0  0  0  0  0
  151.0182  145.1426  160.1101 H   0  0  0  0  0  0  0  0  0  0  0  0
  152.5508  145.1586  160.9784 H   0  0  0  0  0  0  0  0  0  0  0  0
  151.1313  144.3800  161.6951 H   0  0  0  0  0  0  0  0  0  0  0  0
  1  2  1  0  0  0  0
  1 24  1  0  0  0  0
  1 25  1  0  0  0  0
  1 26  1  0  0  0  0
  2 22  1  0  0  0  0
  2  3  2  0  0  0  0
  3  4  1  0  0  0  0
  3 27  1  0  0  0  0
  4 20  2  0  0  0  0
  4  5  1  0  0  0  0
  5  6  2  0  0  0  0
  6  7  1  0  0  0  0
  6 28  1  0  0  0  0
  7  8  1  0  0  0  0
  7 20  1  0  0  0  0
  8  9  1  0  0  0  0
  8 29  1  0  0  0  0
  8 30  1  0  0  0  0
  9 10  1  0  0  0  0
  9 11  1  0  0  0  0
  9 31  1  0  0  0  0
 10 32  1  0  0  0  0
 11 12  1  0  0  0  0
 11 33  1  0  0  0  0
 11 34  1  0  0  0  0
 12 19  1  0  0  0  0
 12 13  1  0  0  0  0
 13 14  2  0  0  0  0
 13 35  1  0  0  0  0
 14 15  1  0  0  0  0
 15 16  1  0  0  0  0
 15 19  2  0  0  0  0
 16 17  1  0  0  0  0
 16 18  2  0  0  0  0
 17 36  1  0  0  0  0
 17 37  1  0  0  0  0
 17 38  1  0  0  0  0
 20 21  1  0  0  0  0
 21 22  2  0  0  0  0
 21 39  1  0  0  0  0
 22 23  1  0  0  0  0
 23 40  1  0  0  0  0
 23 41  1  0  0  0  0
 23 42  1  0  0  0  0
M  END
> <s_m_source_file>
AV-unprocessed.smi

> <i_m_source_file_index>
2845

> <i_lp_mmshare_version>
43012

> <i_f3d_flags>
0

> <s_epik_input>
W0NIM11jKFtjSF0xKWMoW0NIM10pW2NIXWMoYzEyKW4oW2NIXW4yKVtDSDJdW0NASF0oW09IXSlbQ0gyXW4zW2NIXW5jKG4zKVtTQF0oPU8pW0NIM10=

> <s_epik_cmdline>
J2VwaWtfcHl0aG9uJywgJy1waCcsICc3LjAnLCAnLXRuJywgJzgnLCAnLW1hJywgJzIwMCcsICctbWV0YWxfYmluZGluZycsICctaW1hZScsICc8aW5maWxlLm1hZT4nLCAnLW9tYWUnLCAnPG91dGZpbGUubWFlPic=

> <r_lp_tautomer_probability>
1

> <r_epik_Ionization_Penalty>
0.0968684

> <r_epik_Ionization_Penalty_Charging>
0

> <r_epik_Ionization_Penalty_Neutral>
0.0968684

> <r_epik_State_Penalty>
0.0870047

> <r_epik_Charging_Adjusted_Penalty>
0.0870047

> <i_epik_Tot_Q>
0

> <i_epik_Tot_abs_Q>
0

> <r_epik_Metal_State_Penalty>
0.0746849

> <b_epik_Metal_Only>
0

> <s_lp_Force_Field>
OPLS_2005

> <r_lp_Energy>
8.02323

> <b_lp_Chiralities_Consistent>
1

> <s_lp_Variant>
AV-unprocessed.smi:2845-2

> <Gold.Version>
5.8.1

> <Gold.Id.Protein>
6NUR|6NUR_protein|mol2

> <Gold.PLP.Fitness>
54.5155

> <Gold.PLP.PLP>
-48.6042

> <Gold.PLP.part.hbond>
-4.0730

> <Gold.PLP.part.metal>
0.0000

> <Gold.PLP.part.buried>
-6.4594

> <Gold.PLP.part.nonpolar>
-36.0248

> <Gold.PLP.part.repulsive>
0.2156

> <Gold.PLP.ligand.clash>
0.0000

> <Gold.PLP.ligand.torsion>
1.8310

> <Gold.PLP.Chemscore.Hbond>
2.8432

> <Gold.PLP.Chemscore.CHOScore>
0.0000

> <Gold.PLP.Chemscore.Metal>
0.0000

> <Gold.Chemscore.Hbonds>
donor molecule, donor type, donor heavy atom, donor atom, acceptor molecule, acceptor atom, score
      L1  H    10    32       P1  8028  0.81
      P1  H  7997  8009       L1     5  0.60
      P1  H 10752 10764       L1    14  0.94

> <Gold.PLP.Chemscore.Internal.Correction>
1.0438

> <Gold.Rescore>
     Score         DG    S(hbond)    S(metal)    S(lipo)     H(rot)  DE(clash)    DE(int)     intcor
     15.59     -17.61       1.91        0.00     108.35       2.71       0.12       1.90       ----

> <Gold.Chemscore.Fitness>
15.5851

> <Gold.Chemscore.DG>
-17.6061

> <Gold.Chemscore.ZeroCoef>
-5.4800

> <Gold.Chemscore.Hbond>
1.9127

> <Gold.Chemscore.Metal>
0.0000

> <Gold.Chemscore.Lipo>
108.3516

> <Gold.Chemscore.Internal_Hbond>
0.0000

> <Gold.Chemscore.DEClash>
0.1212

> <Gold.Chemscore.DEInternal>
1.8998

> <Gold.Chemscore.Rot>
2.7108

> <Gold.Chemscore.Internal.Correction>
   9.000000E+99

> <Gold.Chemscore.Hbonds>
donor molecule, donor type, donor heavy atom, donor atom, acceptor molecule, acceptor atom, score
      L1  H    10    32       P1  8028  0.79
      P1  H  7997  8009       L1     5  0.02
      P1  H 10752 10764       L1    14  0.80

> <Gold.Chemscore.Hbond.Weighted>
-6.3886

> <Gold.Chemscore.Metal.Weighted>
-0.0000

> <Gold.Chemscore.Lipo.Weighted>
-12.6771

> <Gold.Chemscore.Internal_Hbond.Weighted>
0.0000

> <Gold.Chemscore.DEClash.Weighted>
0.1212

> <Gold.Chemscore.DEInternal.Weighted>
1.8998

> <Gold.Chemscore.Rot.Weighted>
6.9396

> <Gold.Chemscore.Internal.Correction.Weighted>
   9.000000E+99

> <Gold.Protein.RotatedTorsions>
[ 6907 6896 6895 6894 ] final   33.23 input  -60.11 | X-H torsion
[ 7974 7965 7964 7962 ] final   42.85 input  175.53 | X-H torsion
[ 8008 7997 7996 7995 ] final  144.07 input   59.86 | X-H torsion
[ 10167 10162 10161 10158 ] final   49.77 input  -65.29 | X-H torsion
[ 10718 10713 10712 10709 ] final -125.32 input   66.30 | X-H torsion
[ 10763 10752 10751 10750 ] final  -77.57 input  -60.55 | X-H torsion
[ 11005 11000 10999 10996 ] final  -33.06 input  -57.11 | X-H torsion

> <Gold.Protein.ActiveResidues>
 VAL166  LYS551  ARG553  GLY616  TRP617  ASP618  TYR619  PRO620  LYS621  CYS622 
 ASP623  PHE694  ASN695  SER759  ASP760  ASP761  ALA762  ILE779  LEU786  VAL792 
 PHE793  MET794  SER795  GLU796  ALA797  LYS798  CYS799  TRP800  GLU811  SER814 

> <Gold.Protein.RotatedAtoms>
  152.0856  134.9441  160.0572 H   0  0  0  0  0  0  0  0  0  0  0  0  # atno 6907 bound_to 6896
  152.0713  133.4103  159.4468 H   0  0  0  0  0  0  0  0  0  0  0  0  # atno 6908 bound_to 6896
  150.6836  134.3008  159.4749 H   0  0  0  0  0  0  0  0  0  0  0  0  # atno 6909 bound_to 6896
  146.0706  139.5254  142.9600 H   0  0  0  0  0  0  0  0  0  0  0  0  # atno 7974 bound_to 7965
  156.2916  140.2245  156.4993 H   0  0  0  0  0  0  0  0  0  0  0  0  # atno 8008 bound_to 7997
  154.7703  140.0467  157.1067 H   0  0  0  0  0  0  0  0  0  0  0  0  # atno 8009 bound_to 7997
  154.9882  140.3087  155.4920 H   0  0  0  0  0  0  0  0  0  0  0  0  # atno 8010 bound_to 7997
  140.2794  144.3173  150.6268 H   0  0  0  0  0  0  0  0  0  0  0  0  # atno 10167 bound_to 10162
  156.1665  130.6638  151.0121 H   0  0  0  0  0  0  0  0  0  0  0  0  # atno 10718 bound_to 10713
  154.5147  135.5759  153.6633 H   0  0  0  0  0  0  0  0  0  0  0  0  # atno 10763 bound_to 10752
  152.9904  135.6167  154.2833 H   0  0  0  0  0  0  0  0  0  0  0  0  # atno 10764 bound_to 10752
  154.2750  135.2852  155.2701 H   0  0  0  0  0  0  0  0  0  0  0  0  # atno 10765 bound_to 10752
  140.9603  133.7168  156.1359 H   0  0  0  0  0  0  0  0  0  0  0  0  # atno 11005 bound_to 11000
  145.6399  141.0286  143.1817 LP  0  0  0  0  0  0  0  0  0  0  0  0  # atno 17320 bound_to 7965
  144.7229  139.7970  143.7375 LP  0  0  0  0  0  0  0  0  0  0  0  0  # atno 17321 bound_to 7965
  140.5824  143.2172  151.7404 LP  0  0  0  0  0  0  0  0  0  0  0  0  # atno 17342 bound_to 10162
  139.4966  144.4061  152.0130 LP  0  0  0  0  0  0  0  0  0  0  0  0  # atno 17343 bound_to 10162
  157.6771  131.0847  150.7465 LP  0  0  0  0  0  0  0  0  0  0  0  0  # atno 17370 bound_to 10713
  156.7526  130.4773  149.5453 LP  0  0  0  0  0  0  0  0  0  0  0  0  # atno 17371 bound_to 10713
  140.7476  134.4080  157.5546 LP  0  0  0  0  0  0  0  0  0  0  0  0  # atno 17394 bound_to 11000
  139.8876  134.8878  156.2520 LP  0  0  0  0  0  0  0  0  0  0  0  0  # atno 17395 bound_to 11000

$$$$
