#       Name:                AV-unprocessed.smi:1689
#       Creating user name   scv26
#       Creation time:       Fri Mar 27 07:53:13 2020


#       File generated by GOLD software.
#

@<TRIPOS>MOLECULE
AV-unprocessed.smi:1689
    47    49     1
SMALL
NO_CHARGES


@<TRIPOS>ATOM
      1 ****        -4.8751  -2.7809   0.2951 N.1            1 S1                 0.0000
      2 ****        -4.0114  -2.0860  -0.0373 C.1            1 S1                 0.0000
      3 ****        -2.9689  -1.2061  -0.4506 C.2            1 S1                 0.0000
      4 ****        -3.2187   0.0711  -0.8107 C.2            1 S1                 0.0000
      5 ****        -2.2288   0.9390  -1.2226 N.am           1 S1                 0.0000
      6 ****        -2.5017   2.3303  -1.4491 C.3            1 S1                 0.0000
      7 ****        -3.5725   2.7156  -2.4466 C.3            1 S1                 0.0000
      8 ****        -2.1214   2.9811  -2.7650 C.3            1 S1                 0.0000
      9 ****        -0.8756   0.5355  -1.2038 C.2            1 S1                 0.0000
     10 ****         0.0298   1.3289  -1.4749 O.2            1 S1                 0.0000
     11 ****        -0.6117  -0.8098  -0.8424 N.am           1 S1                 0.0000
     12 ****         0.7737  -1.2664  -0.8359 C.3            1 S1                 0.0000
     13 ****         1.5246  -1.1826   0.5286 C.3            1 S1                 0.0000
     14 ****         1.3008  -2.4109   1.1968 O.3            1 S1                 0.0000
     15 ****         3.0490  -1.0979   0.2705 C.3            1 S1                 0.0000
     16 ****         3.8805  -0.9773   1.5610 C.3            1 S1                 0.0000
     17 ****         3.4100   0.2041   2.4201 C.3            1 S1                 0.0000
     18 ****         1.9135   0.0867   2.7392 C.3            1 S1                 0.0000
     19 ****         1.0737  -0.0217   1.4538 C.3            1 S1                 0.0000
     20 ****        -1.6101  -1.7429  -0.4629 C.2            1 S1                 0.0000
     21 ****        -1.3368  -2.9069  -0.1654 O.2            1 S1                 0.0000
     22 ****        -4.2377   0.4296  -0.7816 H              1 S1                 0.0000
     23 ****        -2.4255   2.9659  -0.5687 H              1 S1                 0.0000
     24 ****        -4.0663   1.9207  -3.0023 H              1 S1                 0.0000
     25 ****        -4.1983   3.5720  -2.2048 H              1 S1                 0.0000
     26 ****        -1.7785   4.0131  -2.7323 H              1 S1                 0.0000
     27 ****        -1.6608   2.3619  -3.5327 H              1 S1                 0.0000
     28 ****         0.7852  -2.2779  -1.2477 H              1 S1                 0.0000
     29 ****         1.2978  -0.6863  -1.5964 H              1 S1                 0.0000
     30 ****         1.7790  -2.3993   2.0117 H              1 S1                 0.0000
     31 ****         3.3850  -1.9636  -0.3022 H              1 S1                 0.0000
     32 ****         3.2577  -0.2270  -0.3525 H              1 S1                 0.0000
     33 ****         3.8100  -1.9005   2.1372 H              1 S1                 0.0000
     34 ****         4.9345  -0.8550   1.3100 H              1 S1                 0.0000
     35 ****         3.9867   0.2460   3.3445 H              1 S1                 0.0000
     36 ****         3.6003   1.1400   1.8931 H              1 S1                 0.0000
     37 ****         1.7400  -0.7851   3.3711 H              1 S1                 0.0000
     38 ****         1.5902   0.9523   3.3180 H              1 S1                 0.0000
     39 ****         1.1572   0.9226   0.9157 H              1 S1                 0.0000
     40 ****         0.0225  -0.1310   1.7232 H              1 S1                 0.0000
     41 ****        -5.6215  -3.3814   0.5823 LP             1 S1                 0.0000
     42 ****        -0.1893   2.2751  -1.7130 LP             1 S1                 0.0000
     43 ****         0.9825   1.0256  -1.4566 LP             1 S1                 0.0000
     44 ****         1.6217  -3.1681   0.6278 LP             1 S1                 0.0000
     45 ****         0.3240  -2.5224   1.3801 LP             1 S1                 0.0000
     46 ****        -2.0644  -3.5386   0.1022 LP             1 S1                 0.0000
     47 ****        -0.3875  -3.2200  -0.1916 LP             1 S1                 0.0000
@<TRIPOS>BOND
    1    1    2 3     
    2    2    3 1     
    3    3   20 1     
    4    3    4 2     
    5    4    5 1     
    6    4   22 1     
    7    5    6 1     
    8    5    9 am    
    9    6    8 1     
   10    6    7 1     
   11    6   23 1     
   12    7    8 1     
   13    7   24 1     
   14    7   25 1     
   15    8   26 1     
   16    8   27 1     
   17    9   10 2     
   18    9   11 am    
   19   11   12 1     
   20   11   20 am    
   21   12   13 1     
   22   12   28 1     
   23   12   29 1     
   24   13   19 1     
   25   13   14 1     
   26   13   15 1     
   27   14   30 1     
   28   15   16 1     
   29   15   31 1     
   30   15   32 1     
   31   16   17 1     
   32   16   33 1     
   33   16   34 1     
   34   17   18 1     
   35   17   35 1     
   36   17   36 1     
   37   18   19 1     
   38   18   37 1     
   39   18   38 1     
   40   19   39 1     
   41   19   40 1     
   42   20   21 2     
   43    1   41 1     
   44   10   42 1     
   45   10   43 1     
   46   14   44 1     
   47   14   45 1     
   48   21   46 1     
   49   21   47 1     
@<TRIPOS>SUBSTRUCTURE
      1 S1             1
@<TRIPOS>SET
LONE_PAIRS      STATIC     ATOMS    <user>   **** ""
7 41 42 43 44 45 46 47
DONOR_HYDROGENS      STATIC     ATOMS    <user>   **** ""
1 30
ATOM$BLUE        STATIC     ATOMS    COLORGROUP SYSTEM
7 41 42 43 44 45 46 47
ATOM$RED        STATIC     ATOMS    COLORGROUP SYSTEM
1 30
