AV-unprocessed.smi:3026|AV-procd|sdf|11513|dock4
  -GOLD-   2272016453D 1   1.00000     0.00000
 Structure written by MMmdl.
 33 34  0  0  0  0  0  0  0  0  1 V2000
  151.4898  144.5768  159.0288 C   0  0  0  0  0  0  0  0  0  0  0  0
  151.9858  143.1577  158.8526 C   0  0  0  0  0  0  0  0  0  0  0  0
  152.9933  142.6198  159.6795 C   0  0  0  0  0  0  0  0  0  0  0  0
  153.3704  141.2885  159.4126 C   0  0  0  0  0  0  0  0  0  0  0  0
  152.7971  140.5709  158.4222 N   0  0  0  0  0  0  0  0  0  0  0  0
  151.8441  141.1752  157.7042 C   0  0  0  0  0  0  0  0  0  0  0  0
  151.2876  140.4254  156.6751 N   0  0  0  0  0  0  0  0  0  0  0  0
  152.2932  139.9288  155.7399 C   0  0  0  0  0  0  0  0  0  0  0  0
  151.7053  138.8573  154.8148 C   0  0  0  0  0  0  0  0  0  0  0  0
  150.5943  139.4115  154.1282 O   0  0  0  0  0  0  0  0  0  0  0  0
  149.5600  139.7846  155.0290 C   0  0  0  0  0  0  0  0  0  0  0  0
  150.0455  140.8706  156.0217 C   0  0  1  0  0  0  0  0  0  0  0  0
  148.9276  141.2044  157.0487 C   0  0  0  0  0  0  0  0  0  0  0  0
  147.4896  141.0433  156.5248 C   0  0  0  0  0  0  0  0  0  0  0  0
  147.3116  141.7732  155.3293 O   0  0  0  0  0  0  0  0  0  0  0  0
  151.4184  142.4355  157.8624 N   0  0  0  0  0  0  0  0  0  0  0  0
  151.7926  144.9803  159.9954 H   0  0  0  0  0  0  0  0  0  0  0  0
  150.4015  144.6131  158.9720 H   0  0  0  0  0  0  0  0  0  0  0  0
  151.8976  145.2172  158.2465 H   0  0  0  0  0  0  0  0  0  0  0  0
  153.4531  143.1921  160.4717 H   0  0  0  0  0  0  0  0  0  0  0  0
  154.1364  140.7981  159.9949 H   0  0  0  0  0  0  0  0  0  0  0  0
  152.6736  140.7633  155.1494 H   0  0  0  0  0  0  0  0  0  0  0  0
  153.1418  139.5121  156.2840 H   0  0  0  0  0  0  0  0  0  0  0  0
  152.4509  138.5389  154.0863 H   0  0  0  0  0  0  0  0  0  0  0  0
  151.4066  137.9710  155.3770 H   0  0  0  0  0  0  0  0  0  0  0  0
  148.7283  140.1531  154.4302 H   0  0  0  0  0  0  0  0  0  0  0  0
  149.2000  138.9021  155.5608 H   0  0  0  0  0  0  0  0  0  0  0  0
  150.2852  141.7709  155.4542 H   0  0  0  0  0  0  0  0  0  0  0  0
  149.0549  140.5732  157.9292 H   0  0  0  0  0  0  0  0  0  0  0  0
  149.0220  142.2279  157.4100 H   0  0  0  0  0  0  0  0  0  0  0  0
  147.2305  139.9983  156.3598 H   0  0  0  0  0  0  0  0  0  0  0  0
  146.7851  141.4243  157.2643 H   0  0  0  0  0  0  0  0  0  0  0  0
  147.4480  142.6902  155.5133 H   0  0  0  0  0  0  0  0  0  0  0  0
  1  2  1  0  0  0  0
  1 17  1  0  0  0  0
  1 18  1  0  0  0  0
  1 19  1  0  0  0  0
  2 16  1  0  0  0  0
  2  3  2  0  0  0  0
  3  4  1  0  0  0  0
  3 20  1  0  0  0  0
  4  5  2  0  0  0  0
  4 21  1  0  0  0  0
  5  6  1  0  0  0  0
  6  7  1  0  0  0  0
  6 16  2  0  0  0  0
  7 12  1  0  0  0  0
  7  8  1  0  0  0  0
  8  9  1  0  0  0  0
  8 22  1  0  0  0  0
  8 23  1  0  0  0  0
  9 10  1  0  0  0  0
  9 24  1  0  0  0  0
  9 25  1  0  0  0  0
 10 11  1  0  0  0  0
 11 12  1  0  0  0  0
 11 26  1  0  0  0  0
 11 27  1  0  0  0  0
 12 13  1  0  0  0  0
 12 28  1  0  0  0  0
 13 14  1  0  0  0  0
 13 29  1  0  0  0  0
 13 30  1  0  0  0  0
 14 15  1  0  0  0  0
 14 31  1  0  0  0  0
 14 32  1  0  0  0  0
 15 33  1  0  0  0  0
M  END
> <s_m_source_file>
AV-unprocessed.smi

> <i_m_source_file_index>
3026

> <i_lp_mmshare_version>
43012

> <i_f3d_flags>
0

> <s_epik_input>
W0NIM11jMVtjSF1bY0hdbmMobjEpTjJbQ0gyXVtDSDJdT1tDSDJdW0NASF0yW0NIMl1bQ0gyXVtPSF0=

> <s_epik_cmdline>
J2VwaWtfcHl0aG9uJywgJy1waCcsICc3LjAnLCAnLXRuJywgJzgnLCAnLW1hJywgJzIwMCcsICctbWV0YWxfYmluZGluZycsICctaW1hZScsICc8aW5maWxlLm1hZT4nLCAnLW9tYWUnLCAnPG91dGZpbGUubWFlPic=

> <r_lp_tautomer_probability>
1

> <r_epik_Ionization_Penalty>
6.52665e-05

> <r_epik_Ionization_Penalty_Charging>
0

> <r_epik_Ionization_Penalty_Neutral>
6.52665e-05

> <r_epik_State_Penalty>
-0

> <r_epik_Charging_Adjusted_Penalty>
0

> <i_epik_Tot_Q>
0

> <i_epik_Tot_abs_Q>
0

> <r_epik_Metal_State_Penalty>
-0

> <b_epik_Metal_Only>
0

> <s_lp_Force_Field>
OPLS_2005

> <r_lp_Energy>
15.2375

> <b_lp_Chiralities_Consistent>
1

> <s_lp_Variant>
AV-unprocessed.smi:3026-1

> <Gold.Version>
5.8.1

> <Gold.Id.Protein>
6NUR|6NUR_protein|mol2

> <Gold.PLP.Fitness>
37.8718

> <Gold.PLP.PLP>
-32.6443

> <Gold.PLP.part.hbond>
-2.0000

> <Gold.PLP.part.metal>
0.0000

> <Gold.PLP.part.buried>
-2.8486

> <Gold.PLP.part.nonpolar>
-27.0758

> <Gold.PLP.part.repulsive>
0.2355

> <Gold.PLP.ligand.clash>
0.0000

> <Gold.PLP.ligand.torsion>
0.5424

> <Gold.PLP.Chemscore.Hbond>
2.0000

> <Gold.PLP.Chemscore.CHOScore>
0.0000

> <Gold.PLP.Chemscore.Metal>
0.0000

> <Gold.Chemscore.Hbonds>
donor molecule, donor type, donor heavy atom, donor atom, acceptor molecule, acceptor atom, score
      P1  H  7989  7998       L1    10  0.60

> <Gold.PLP.Chemscore.Internal.Correction>
0.3122

> <Gold.Rescore>
     Score         DG    S(hbond)    S(metal)    S(lipo)     H(rot)  DE(clash)    DE(int)     intcor
     11.97     -13.85       1.19        0.00      80.98       1.99       0.09       1.79       ----

> <Gold.Chemscore.Fitness>
11.9652

> <Gold.Chemscore.DG>
-13.8467

> <Gold.Chemscore.ZeroCoef>
-5.4800

> <Gold.Chemscore.Hbond>
1.1909

> <Gold.Chemscore.Metal>
0.0000

> <Gold.Chemscore.Lipo>
80.9763

> <Gold.Chemscore.Internal_Hbond>
0.0000

> <Gold.Chemscore.DEClash>
0.0942

> <Gold.Chemscore.DEInternal>
1.7873

> <Gold.Chemscore.Rot>
1.9864

> <Gold.Chemscore.Internal.Correction>
   9.000000E+99

> <Gold.Chemscore.Hbonds>
donor molecule, donor type, donor heavy atom, donor atom, acceptor molecule, acceptor atom, score
      L1  H    15    33       P1  8028  0.02
      P1  H  7989  7998       L1    10  0.04

> <Gold.Chemscore.Hbond.Weighted>
-3.9776

> <Gold.Chemscore.Metal.Weighted>
-0.0000

> <Gold.Chemscore.Lipo.Weighted>
-9.4742

> <Gold.Chemscore.Internal_Hbond.Weighted>
0.0000

> <Gold.Chemscore.DEClash.Weighted>
0.0942

> <Gold.Chemscore.DEInternal.Weighted>
1.7873

> <Gold.Chemscore.Rot.Weighted>
5.0851

> <Gold.Chemscore.Internal.Correction.Weighted>
   9.000000E+99

> <Gold.Protein.RotatedTorsions>
[ 6907 6896 6895 6894 ] final  -78.27 input  -60.11 | X-H torsion
[ 7974 7965 7964 7962 ] final  100.56 input  175.53 | X-H torsion
[ 8008 7997 7996 7995 ] final  109.10 input   59.86 | X-H torsion
[ 10167 10162 10161 10158 ] final  127.88 input  -65.29 | X-H torsion
[ 10718 10713 10712 10709 ] final -126.18 input   66.30 | X-H torsion
[ 10763 10752 10751 10750 ] final  172.16 input  -60.55 | X-H torsion
[ 11005 11000 10999 10996 ] final   -3.11 input  -57.11 | X-H torsion

> <Gold.Protein.ActiveResidues>
 VAL166  LYS551  ARG553  GLY616  TRP617  ASP618  TYR619  PRO620  LYS621  CYS622 
 ASP623  PHE694  ASN695  SER759  ASP760  ASP761  ALA762  ILE779  LEU786  VAL792 
 PHE793  MET794  SER795  GLU796  ALA797  LYS798  CYS799  TRP800  GLU811  SER814 

> <Gold.Protein.RotatedAtoms>
  150.6977  134.4297  159.5242 H   0  0  0  0  0  0  0  0  0  0  0  0  # atno 6907 bound_to 6896
  152.2026  134.8572  160.0515 H   0  0  0  0  0  0  0  0  0  0  0  0  # atno 6908 bound_to 6896
  151.9486  133.3624  159.4028 H   0  0  0  0  0  0  0  0  0  0  0  0  # atno 6909 bound_to 6896
  145.3840  139.2374  143.3388 H   0  0  0  0  0  0  0  0  0  0  0  0  # atno 7974 bound_to 7965
  156.1954  140.3064  155.9416 H   0  0  0  0  0  0  0  0  0  0  0  0  # atno 8008 bound_to 7997
  155.3078  140.0449  157.3050 H   0  0  0  0  0  0  0  0  0  0  0  0  # atno 8009 bound_to 7997
  154.5503  140.2289  155.8505 H   0  0  0  0  0  0  0  0  0  0  0  0  # atno 8010 bound_to 7997
  139.5555  144.6846  151.4194 H   0  0  0  0  0  0  0  0  0  0  0  0  # atno 10167 bound_to 10162
  156.1742  130.6688  151.0219 H   0  0  0  0  0  0  0  0  0  0  0  0  # atno 10718 bound_to 10713
  154.4222  135.2758  155.1968 H   0  0  0  0  0  0  0  0  0  0  0  0  # atno 10763 bound_to 10752
  154.3909  135.6066  153.5846 H   0  0  0  0  0  0  0  0  0  0  0  0  # atno 10764 bound_to 10752
  152.9833  135.5903  154.4519 H   0  0  0  0  0  0  0  0  0  0  0  0  # atno 10765 bound_to 10752
  140.6657  133.9280  155.8463 H   0  0  0  0  0  0  0  0  0  0  0  0  # atno 11005 bound_to 11000
  146.2829  140.4512  142.8769 LP  0  0  0  0  0  0  0  0  0  0  0  0  # atno 17320 bound_to 7965
  144.8487  140.6969  143.6182 LP  0  0  0  0  0  0  0  0  0  0  0  0  # atno 17321 bound_to 7965
  140.6827  143.8044  150.7144 LP  0  0  0  0  0  0  0  0  0  0  0  0  # atno 17342 bound_to 10162
  140.1502  143.4364  152.2136 LP  0  0  0  0  0  0  0  0  0  0  0  0  # atno 17343 bound_to 10162
  157.6824  131.0834  150.7335 LP  0  0  0  0  0  0  0  0  0  0  0  0  # atno 17370 bound_to 10713
  156.7393  130.4734  149.5481 LP  0  0  0  0  0  0  0  0  0  0  0  0  # atno 17371 bound_to 10713
  141.0431  134.0593  157.3878 LP  0  0  0  0  0  0  0  0  0  0  0  0  # atno 17394 bound_to 11000
  139.8998  135.0160  156.7212 LP  0  0  0  0  0  0  0  0  0  0  0  0  # atno 17395 bound_to 11000

$$$$
