AV-unprocessed.smi:2667|AV-procd|sdf|10335|dock8
  -GOLD-   2272014353D 1   1.00000     0.00000
 Structure written by MMmdl.
 44 46  0  0  0  0  0  0  0  0  1 V2000
  149.0402  129.8948  153.5735 C   0  0  0  0  0  0  0  0  0  0  0  0
  148.8559  130.7344  154.8475 C   0  0  0  0  0  0  0  0  0  0  0  0
  150.1726  131.2403  155.4573 C   0  0  0  0  0  0  0  0  0  0  0  0
  151.0056  130.4326  155.8712 O   0  0  0  0  0  0  0  0  0  0  0  0
  150.3736  132.7169  155.5250 C   0  0  0  0  0  0  0  0  0  0  0  0
  151.2083  133.3144  156.4980 C   0  0  0  0  0  0  0  0  0  0  0  0
  151.3797  134.7114  156.5311 C   0  0  0  0  0  0  0  0  0  0  0  0
  150.7281  135.5442  155.6004 C   0  0  0  0  0  0  0  0  0  0  0  0
  150.9629  136.8987  155.7003 O   0  0  0  0  0  0  0  0  0  0  0  0
  150.2895  137.7658  154.7975 C   0  0  0  0  0  0  0  0  0  0  0  0
  150.8057  139.1999  155.0142 C   0  0  1  0  0  0  0  0  0  0  0  0
  150.3569  139.9988  153.9392 O   0  0  0  0  0  0  0  0  0  0  0  0
  150.2915  139.8572  156.3104 C   0  0  0  0  0  0  0  0  0  0  0  0
  151.3615  140.2172  157.2233 N   0  0  0  0  0  0  0  0  0  0  0  0
  152.3715  139.4275  157.6354 C   0  0  0  0  0  0  0  0  0  0  0  0
  153.2547  139.9566  158.4773 N   0  0  0  0  0  0  0  0  0  0  0  0
  152.7619  141.2414  158.6279 C   0  0  0  0  0  0  0  0  0  0  0  0
  153.2437  142.3238  159.3984 C   0  0  0  0  0  0  0  0  0  0  0  0
  152.5641  143.5597  159.3973 C   0  0  0  0  0  0  0  0  0  0  0  0
  151.3947  143.7324  158.6284 C   0  0  0  0  0  0  0  0  0  0  0  0
  150.8960  142.6687  157.8523 C   0  0  0  0  0  0  0  0  0  0  0  0
  151.5777  141.4375  157.8548 C   0  0  0  0  0  0  0  0  0  0  0  0
  149.8833  134.9489  154.6318 C   0  0  0  0  0  0  0  0  0  0  0  0
  149.7094  133.5519  154.5983 C   0  0  0  0  0  0  0  0  0  0  0  0
  148.0761  129.5488  153.2010 H   0  0  0  0  0  0  0  0  0  0  0  0
  149.6550  129.0139  153.7627 H   0  0  0  0  0  0  0  0  0  0  0  0
  149.5117  130.4735  152.7783 H   0  0  0  0  0  0  0  0  0  0  0  0
  148.2222  131.5934  154.6255 H   0  0  0  0  0  0  0  0  0  0  0  0
  148.3344  130.1365  155.5952 H   0  0  0  0  0  0  0  0  0  0  0  0
  151.7306  132.7207  157.2331 H   0  0  0  0  0  0  0  0  0  0  0  0
  152.0238  135.1492  157.2796 H   0  0  0  0  0  0  0  0  0  0  0  0
  150.4305  137.4600  153.7594 H   0  0  0  0  0  0  0  0  0  0  0  0
  149.2235  137.7125  155.0193 H   0  0  0  0  0  0  0  0  0  0  0  0
  151.8966  139.2023  155.0217 H   0  0  0  0  0  0  0  0  0  0  0  0
  149.9337  139.4378  153.3072 H   0  0  0  0  0  0  0  0  0  0  0  0
  149.7305  140.7633  156.0762 H   0  0  0  0  0  0  0  0  0  0  0  0
  149.6003  139.1904  156.8272 H   0  0  0  0  0  0  0  0  0  0  0  0
  152.4622  138.4052  157.2982 H   0  0  0  0  0  0  0  0  0  0  0  0
  154.1382  142.2029  159.9912 H   0  0  0  0  0  0  0  0  0  0  0  0
  152.9422  144.3797  159.9901 H   0  0  0  0  0  0  0  0  0  0  0  0
  150.8807  144.6825  158.6346 H   0  0  0  0  0  0  0  0  0  0  0  0
  149.9996  142.7974  157.2640 H   0  0  0  0  0  0  0  0  0  0  0  0
  149.3554  135.5423  153.9008 H   0  0  0  0  0  0  0  0  0  0  0  0
  149.0603  133.1293  153.8450 H   0  0  0  0  0  0  0  0  0  0  0  0
  1  2  1  0  0  0  0
  1 25  1  0  0  0  0
  1 26  1  0  0  0  0
  1 27  1  0  0  0  0
  2  3  1  0  0  0  0
  2 28  1  0  0  0  0
  2 29  1  0  0  0  0
  3  4  2  0  0  0  0
  3  5  1  0  0  0  0
  5 24  1  0  0  0  0
  5  6  2  0  0  0  0
  6  7  1  0  0  0  0
  6 30  1  0  0  0  0
  7  8  2  0  0  0  0
  7 31  1  0  0  0  0
  8  9  1  0  0  0  0
  8 23  1  0  0  0  0
  9 10  1  0  0  0  0
 10 11  1  0  0  0  0
 10 32  1  0  0  0  0
 10 33  1  0  0  0  0
 11 12  1  0  0  0  0
 11 13  1  0  0  0  0
 11 34  1  0  0  0  0
 12 35  1  0  0  0  0
 13 14  1  0  0  0  0
 13 36  1  0  0  0  0
 13 37  1  0  0  0  0
 14 22  1  0  0  0  0
 14 15  1  0  0  0  0
 15 16  2  0  0  0  0
 15 38  1  0  0  0  0
 16 17  1  0  0  0  0
 17 22  2  0  0  0  0
 17 18  1  0  0  0  0
 18 19  2  0  0  0  0
 18 39  1  0  0  0  0
 19 20  1  0  0  0  0
 19 40  1  0  0  0  0
 20 21  2  0  0  0  0
 20 41  1  0  0  0  0
 21 22  1  0  0  0  0
 21 42  1  0  0  0  0
 23 24  2  0  0  0  0
 23 43  1  0  0  0  0
 24 44  1  0  0  0  0
M  END
> <s_m_source_file>
AV-unprocessed.smi

> <i_m_source_file_index>
2667

> <i_lp_mmshare_version>
43012

> <i_f3d_flags>
0

> <s_epik_input>
W0NIM11bQ0gyXUMoPU8pYzFbY0hdW2NIXWMoW2NIXVtjSF0xKU9bQ0gyXVtDQEhdKFtPSF0pW0NIMl1uKFtjSF1uMiljKGMyMylbY0hdW2NIXVtjSF1bY0hdMw==

> <s_epik_cmdline>
J2VwaWtfcHl0aG9uJywgJy1waCcsICc3LjAnLCAnLXRuJywgJzgnLCAnLW1hJywgJzIwMCcsICctbWV0YWxfYmluZGluZycsICctaW1hZScsICc8aW5maWxlLm1hZT4nLCAnLW9tYWUnLCAnPG91dGZpbGUubWFlPic=

> <r_lp_tautomer_probability>
0.9999

> <r_epik_Ionization_Penalty>
0.0583018

> <r_epik_Ionization_Penalty_Charging>
0

> <r_epik_Ionization_Penalty_Neutral>
0.0583018

> <r_epik_State_Penalty>
0.0504087

> <r_epik_Charging_Adjusted_Penalty>
0.0504087

> <i_epik_Tot_Q>
0

> <i_epik_Tot_abs_Q>
0

> <r_epik_Metal_State_Penalty>
5.26129e-05

> <b_epik_Metal_Only>
0

> <s_lp_Force_Field>
OPLS_2005

> <r_lp_Energy>
23.9231

> <b_lp_Chiralities_Consistent>
1

> <s_lp_Variant>
AV-unprocessed.smi:2667-2

> <Gold.Version>
5.8.1

> <Gold.Id.Protein>
6NUR|6NUR_protein|mol2

> <Gold.PLP.Fitness>
47.4404

> <Gold.PLP.PLP>
-43.3758

> <Gold.PLP.part.hbond>
-2.9482

> <Gold.PLP.part.metal>
0.0000

> <Gold.PLP.part.buried>
-3.6864

> <Gold.PLP.part.nonpolar>
-36.1406

> <Gold.PLP.part.repulsive>
0.0695

> <Gold.PLP.ligand.clash>
0.0000

> <Gold.PLP.ligand.torsion>
1.2315

> <Gold.PLP.Chemscore.Hbond>
2.1304

> <Gold.PLP.Chemscore.CHOScore>
0.0000

> <Gold.PLP.Chemscore.Metal>
0.0000

> <Gold.Chemscore.Hbonds>
donor molecule, donor type, donor heavy atom, donor atom, acceptor molecule, acceptor atom, score
      L1  H    12    35       P1  7957  0.21
      P1  H  7989  7998       L1    12  0.99
      P1  H  7997  8009       L1    16  0.83

> <Gold.PLP.Chemscore.Internal.Correction>
0.1365

> <Gold.Rescore>
     Score         DG    S(hbond)    S(metal)    S(lipo)     H(rot)  DE(clash)    DE(int)     intcor
     14.84     -16.10       0.98        0.00     117.25       2.49       0.03       1.22       ----

> <Gold.Chemscore.Fitness>
14.8395

> <Gold.Chemscore.DG>
-16.0960

> <Gold.Chemscore.ZeroCoef>
-5.4800

> <Gold.Chemscore.Hbond>
0.9821

> <Gold.Chemscore.Metal>
0.0000

> <Gold.Chemscore.Lipo>
117.2506

> <Gold.Chemscore.Internal_Hbond>
0.0000

> <Gold.Chemscore.DEClash>
0.0318

> <Gold.Chemscore.DEInternal>
1.2247

> <Gold.Chemscore.Rot>
2.4932

> <Gold.Chemscore.Internal.Correction>
   9.000000E+99

> <Gold.Chemscore.Hbonds>
donor molecule, donor type, donor heavy atom, donor atom, acceptor molecule, acceptor atom, score
      L1  H    12    35       P1  7957  0.21
      P1  H  7989  7998       L1    12  0.49
      P1  H  7997  8009       L1    16  0.11

> <Gold.Chemscore.Hbond.Weighted>
-3.2804

> <Gold.Chemscore.Metal.Weighted>
-0.0000

> <Gold.Chemscore.Lipo.Weighted>
-13.7183

> <Gold.Chemscore.Internal_Hbond.Weighted>
0.0000

> <Gold.Chemscore.DEClash.Weighted>
0.0318

> <Gold.Chemscore.DEInternal.Weighted>
1.2247

> <Gold.Chemscore.Rot.Weighted>
6.3826

> <Gold.Chemscore.Internal.Correction.Weighted>
   9.000000E+99

> <Gold.Protein.RotatedTorsions>
[ 6907 6896 6895 6894 ] final -129.18 input  -60.11 | X-H torsion
[ 7974 7965 7964 7962 ] final  -47.43 input  175.53 | X-H torsion
[ 8008 7997 7996 7995 ] final  133.25 input   59.86 | X-H torsion
[ 10167 10162 10161 10158 ] final   20.34 input  -65.29 | X-H torsion
[ 10718 10713 10712 10709 ] final  -82.24 input   66.30 | X-H torsion
[ 10763 10752 10751 10750 ] final   49.80 input  -60.55 | X-H torsion
[ 11005 11000 10999 10996 ] final  -63.88 input  -57.11 | X-H torsion

> <Gold.Protein.ActiveResidues>
 VAL166  LYS551  ARG553  GLY616  TRP617  ASP618  TYR619  PRO620  LYS621  CYS622 
 ASP623  PHE694  ASN695  SER759  ASP760  ASP761  ALA762  ILE779  LEU786  VAL792 
 PHE793  MET794  SER795  GLU796  ALA797  LYS798  CYS799  TRP800  GLU811  SER814 

> <Gold.Protein.RotatedAtoms>
  150.9259  133.6824  159.2821 H   0  0  0  0  0  0  0  0  0  0  0  0  # atno 6907 bound_to 6896
  151.4262  135.1003  159.9638 H   0  0  0  0  0  0  0  0  0  0  0  0  # atno 6908 bound_to 6896
  152.5003  133.8700  159.7348 H   0  0  0  0  0  0  0  0  0  0  0  0  # atno 6909 bound_to 6896
  145.9617  140.7472  142.9454 H   0  0  0  0  0  0  0  0  0  0  0  0  # atno 7974 bound_to 7965
  156.2990  140.2526  156.3223 H   0  0  0  0  0  0  0  0  0  0  0  0  # atno 8008 bound_to 7997
  154.9224  140.0400  157.2024 H   0  0  0  0  0  0  0  0  0  0  0  0  # atno 8009 bound_to 7997
  154.8298  140.2874  155.5734 H   0  0  0  0  0  0  0  0  0  0  0  0  # atno 8010 bound_to 7997
  140.5511  143.9508  150.6578 H   0  0  0  0  0  0  0  0  0  0  0  0  # atno 10167 bound_to 10162
  156.0036  130.4628  150.4075 H   0  0  0  0  0  0  0  0  0  0  0  0  # atno 10718 bound_to 10713
  152.9786  135.5900  154.4148 H   0  0  0  0  0  0  0  0  0  0  0  0  # atno 10763 bound_to 10752
  154.3779  135.2767  155.2230 H   0  0  0  0  0  0  0  0  0  0  0  0  # atno 10764 bound_to 10752
  154.4157  135.6071  153.6034 H   0  0  0  0  0  0  0  0  0  0  0  0  # atno 10765 bound_to 10752
  141.1407  133.6658  156.5747 H   0  0  0  0  0  0  0  0  0  0  0  0  # atno 11005 bound_to 11000
  144.6816  140.2602  143.7320 LP  0  0  0  0  0  0  0  0  0  0  0  0  # atno 17320 bound_to 7965
  145.8030  139.1972  143.2037 LP  0  0  0  0  0  0  0  0  0  0  0  0  # atno 17321 bound_to 7965
  140.2934  143.3309  152.1041 LP  0  0  0  0  0  0  0  0  0  0  0  0  # atno 17342 bound_to 10162
  139.5028  144.6741  151.6170 LP  0  0  0  0  0  0  0  0  0  0  0  0  # atno 17343 bound_to 10162
  157.2140  131.0467  151.2583 LP  0  0  0  0  0  0  0  0  0  0  0  0  # atno 17370 bound_to 10713
  157.3862  130.7257  149.6665 LP  0  0  0  0  0  0  0  0  0  0  0  0  # atno 17371 bound_to 10713
  140.3885  134.7461  157.4706 LP  0  0  0  0  0  0  0  0  0  0  0  0  # atno 17394 bound_to 11000
  140.0584  134.6030  155.8778 LP  0  0  0  0  0  0  0  0  0  0  0  0  # atno 17395 bound_to 11000

$$$$
