#       Name:                AV-unprocessed.smi:229
#       Creating user name   scv26
#       Creation time:       Thu Mar 26 20:29:17 2020


#       File generated by GOLD software.
#

@<TRIPOS>MOLECULE
AV-unprocessed.smi:229
    70    74     1
SMALL
NO_CHARGES


@<TRIPOS>ATOM
      1 ****        -6.9863   1.1824   0.8874 C.3            1 S1                 0.0000
      2 ****        -5.6799   1.8058   0.3803 C.3            1 S1                 0.0000
      3 ****        -4.5497   0.7782   0.2198 C.3            1 S1                 0.0000
      4 ****        -3.2201   1.4443  -0.1746 C.3            1 S1                 0.0000
      5 ****        -2.2085   0.4225  -0.4182 N.3            1 S1                 0.0000
      6 ****        -0.9104   0.8068  -0.4940 C.ar           1 S1                 0.0000
      7 ****        -0.5975   2.0990  -0.7803 N.ar           1 S1                 0.0000
      8 ****         0.6806   2.4804  -0.8657 C.ar           1 S1                 0.0000
      9 ****         1.7834   1.7477  -0.6990 N.ar           1 S1                 0.0000
     10 ****         1.4750   0.4531  -0.4019 C.ar           1 S1                 0.0000
     11 ****         0.1680  -0.0977  -0.2832 C.ar           1 S1                 0.0000
     12 ****         0.2512  -1.4479   0.0381 N.2            1 S1                 0.0000
     13 ****         1.5336  -1.6827   0.1010 C.2            1 S1                 0.0000
     14 ****         2.3404  -0.5944  -0.1433 N.pl3          1 S1                 0.0000
     15 ****         3.7928  -0.5655  -0.1326 C.3            1 S1                 0.0000
     16 ****         4.3634   0.1714   1.0991 C.3            1 S1                 0.0000
     17 ****         3.8655  -0.4633   2.2619 O.3            1 S1                 0.0000
     18 ****         5.9036   0.1384   1.1659 C.3            1 S1                 0.0000
     19 ****         6.6119   0.5850  -0.1139 C.3            1 S1                 0.0000
     20 ****         7.9836   1.0146   0.3760 C.3            1 S1                 0.0000
     21 ****         7.7638   1.3064   1.8624 C.3            1 S1                 0.0000
     22 ****         6.3721   1.1164   2.0834 O.3            1 S1                 0.0000
     23 ****        -2.6154  -0.5565  -1.4193 C.3            1 S1                 0.0000
     24 ****        -3.9748  -1.1891  -1.0486 C.3            1 S1                 0.0000
     25 ****        -3.8899  -2.1722   0.1243 C.3            1 S1                 0.0000
     26 ****        -3.9290  -3.5382  -0.5454 C.3            1 S1                 0.0000
     27 ****        -4.8376  -3.3235  -1.6088 O.3            1 S1                 0.0000
     28 ****        -4.5080  -2.0714  -2.1941 C.3            1 S1                 0.0000
     29 ****        -4.9274  -0.1511  -0.7978 O.3            1 S1                 0.0000
     30 ****        -7.7578   1.9430   1.0079 H              1 S1                 0.0000
     31 ****        -6.8428   0.6978   1.8535 H              1 S1                 0.0000
     32 ****        -7.3648   0.4345   0.1899 H              1 S1                 0.0000
     33 ****        -5.8602   2.3070  -0.5715 H              1 S1                 0.0000
     34 ****        -5.3665   2.5804   1.0809 H              1 S1                 0.0000
     35 ****        -4.4181   0.2568   1.1689 H              1 S1                 0.0000
     36 ****        -3.3510   2.0479  -1.0741 H              1 S1                 0.0000
     37 ****        -2.8928   2.1127   0.6233 H              1 S1                 0.0000
     38 ****         0.8422   3.5220  -1.1012 H              1 S1                 0.0000
     39 ****         1.9285  -2.6608   0.3360 H              1 S1                 0.0000
     40 ****         4.1629  -1.5913  -0.1661 H              1 S1                 0.0000
     41 ****         4.1206  -0.0859  -1.0553 H              1 S1                 0.0000
     42 ****         4.0215   1.2073   1.0915 H              1 S1                 0.0000
     43 ****         2.9247  -0.3764   2.2697 H              1 S1                 0.0000
     44 ****         6.2643  -0.8496   1.4596 H              1 S1                 0.0000
     45 ****         6.6615  -0.2003  -0.8688 H              1 S1                 0.0000
     46 ****         6.0951   1.4416  -0.5491 H              1 S1                 0.0000
     47 ****         8.7106   0.2109   0.2533 H              1 S1                 0.0000
     48 ****         8.3486   1.8863  -0.1683 H              1 S1                 0.0000
     49 ****         8.3285   0.6063   2.4795 H              1 S1                 0.0000
     50 ****         8.0615   2.3187   2.1368 H              1 S1                 0.0000
     51 ****        -2.6965  -0.0458  -2.3800 H              1 S1                 0.0000
     52 ****        -1.8660  -1.3377  -1.5449 H              1 S1                 0.0000
     53 ****        -3.0066  -2.0356   0.7492 H              1 S1                 0.0000
     54 ****        -4.7680  -2.0728   0.7639 H              1 S1                 0.0000
     55 ****        -2.9493  -3.8120  -0.9409 H              1 S1                 0.0000
     56 ****        -4.2683  -4.3285   0.1242 H              1 S1                 0.0000
     57 ****        -5.3756  -1.6389  -2.6934 H              1 S1                 0.0000
     58 ****        -3.7424  -2.2391  -2.9532 H              1 S1                 0.0000
     59 ****        -2.1850  -0.0548   0.4602 LP             1 S1                 0.0000
     60 ****        -1.3270   2.7669  -0.9276 LP             1 S1                 0.0000
     61 ****         2.7149   2.1020  -0.7813 LP             1 S1                 0.0000
     62 ****        -0.4994  -2.0916   0.1869 LP             1 S1                 0.0000
     63 ****         4.2516  -0.0285   3.0755 LP             1 S1                 0.0000
     64 ****         4.1151  -1.4315   2.2512 LP             1 S1                 0.0000
     65 ****         6.2184   0.8022   3.0202 LP             1 S1                 0.0000
     66 ****         5.8859   1.9779   1.9368 LP             1 S1                 0.0000
     67 ****        -5.7747  -3.3031  -1.2604 LP             1 S1                 0.0000
     68 ****        -4.7500  -4.0529  -2.2873 LP             1 S1                 0.0000
     69 ****        -5.0639   0.3575  -1.6479 LP             1 S1                 0.0000
     70 ****        -5.7885  -0.5792  -0.5236 LP             1 S1                 0.0000
@<TRIPOS>BOND
    1    1    2 1     
    2    1   30 1     
    3    1   31 1     
    4    1   32 1     
    5    2    3 1     
    6    2   33 1     
    7    2   34 1     
    8    3   29 1     
    9    3    4 1     
   10    3   35 1     
   11    4    5 1     
   12    4   36 1     
   13    4   37 1     
   14    5    6 1     
   15    5   23 1     
   16    6   11 ar    
   17    6    7 ar    
   18    7    8 ar    
   19    8    9 ar    
   20    8   38 1     
   21    9   10 ar    
   22   10   14 1     
   23   10   11 ar    
   24   11   12 1     
   25   12   13 2     
   26   13   14 1     
   27   13   39 1     
   28   14   15 1     
   29   15   16 1     
   30   15   40 1     
   31   15   41 1     
   32   16   17 1     
   33   16   18 1     
   34   16   42 1     
   35   17   43 1     
   36   18   22 1     
   37   18   19 1     
   38   18   44 1     
   39   19   20 1     
   40   19   45 1     
   41   19   46 1     
   42   20   21 1     
   43   20   47 1     
   44   20   48 1     
   45   21   22 1     
   46   21   49 1     
   47   21   50 1     
   48   23   24 1     
   49   23   51 1     
   50   23   52 1     
   51   24   28 1     
   52   24   25 1     
   53   24   29 1     
   54   25   26 1     
   55   25   53 1     
   56   25   54 1     
   57   26   27 1     
   58   26   55 1     
   59   26   56 1     
   60   27   28 1     
   61   28   57 1     
   62   28   58 1     
   63    5   59 1     
   64    7   60 1     
   65    9   61 1     
   66   12   62 1     
   67   17   63 1     
   68   17   64 1     
   69   22   65 1     
   70   22   66 1     
   71   27   67 1     
   72   27   68 1     
   73   29   69 1     
   74   29   70 1     
@<TRIPOS>SUBSTRUCTURE
      1 S1             1
@<TRIPOS>SET
LONE_PAIRS      STATIC     ATOMS    <user>   **** ""
12 59 60 61 62 63 64 65 66 67 68 69 70
DONOR_HYDROGENS      STATIC     ATOMS    <user>   **** ""
1 43
ATOM$BLUE        STATIC     ATOMS    COLORGROUP SYSTEM
12 59 60 61 62 63 64 65 66 67 68 69 70
ATOM$RED        STATIC     ATOMS    COLORGROUP SYSTEM
1 43
