AV-unprocessed.smi:512|AV-procd|sdf|2770|dock5
  -GOLD-   2262023233D 1   1.00000     0.00000
 Structure written by MMmdl.
 48 50  0  0  0  0  0  0  0  0  3 V2000
  151.3347  141.6408  157.8914 C   0  0  0  0  0  0  0  0  0  0  0  0
  150.9130  142.2705  156.5618 C   0  0  0  0  0  0  0  0  0  0  0  0
  150.9284  141.2726  155.5553 O   0  0  0  0  0  0  0  0  0  0  0  0
  150.1271  140.1509  155.8852 C   0  0  0  0  0  0  0  0  0  0  0  0
  149.7164  139.4386  154.5906 C   0  0  0  0  0  0  0  0  0  0  0  0
  149.2747  138.0698  154.8495 N   0  0  0  0  0  0  0  0  0  0  0  0
  148.0373  137.5333  154.6733 C   0  0  0  0  0  0  0  0  0  0  0  0
  146.9831  138.2636  154.1247 N   0  0  0  0  0  0  0  0  0  0  0  0
  145.7861  138.6733  154.8564 C   0  0  0  0  0  0  0  0  0  0  0  0
  145.8603  140.1560  155.2668 C   0  0  0  0  0  0  0  0  0  0  0  0
  146.0777  141.0257  154.0859 N   0  3  0  0  0  0  0  0  0  0  0  0
  146.1457  142.4597  154.4383 C   0  0  0  0  0  0  0  0  0  0  0  0
  147.2389  140.5796  153.2802 C   0  0  0  0  0  0  0  0  0  0  0  0
  147.1110  139.0877  152.9267 C   0  0  0  0  0  0  0  0  0  0  0  0
  147.9126  136.2690  155.0811 N   0  0  0  0  0  0  0  0  0  0  0  0
  149.1894  135.9605  155.5258 C   0  0  0  0  0  0  0  0  0  0  0  0
  150.0260  137.0250  155.3965 C   0  0  0  0  0  0  0  0  0  0  0  0
  151.4478  137.0083  155.8044 C   0  0  0  0  0  0  0  0  0  0  0  0
  152.1582  138.0023  155.6687 O   0  0  0  0  0  0  0  0  0  0  0  0
  151.8223  135.7960  156.3229 N   0  5  0  0  0  0  0  0  0  0  0  0
  151.0101  134.6921  156.4713 C   0  0  0  0  0  0  0  0  0  0  0  0
  151.4274  133.6379  156.9525 O   0  0  0  0  0  0  0  0  0  0  0  0
  149.6987  134.7540  156.0783 N   0  0  0  0  0  0  0  0  0  0  0  0
  148.8112  133.5970  156.2255 C   0  0  0  0  0  0  0  0  0  0  0  0
  151.3328  142.3816  158.6909 H   0  0  0  0  0  0  0  0  0  0  0  0
  152.3389  141.2221  157.8248 H   0  0  0  0  0  0  0  0  0  0  0  0
  150.6544  140.8384  158.1770 H   0  0  0  0  0  0  0  0  0  0  0  0
  149.9131  142.6971  156.6537 H   0  0  0  0  0  0  0  0  0  0  0  0
  151.5956  143.0803  156.3003 H   0  0  0  0  0  0  0  0  0  0  0  0
  150.6811  139.4723  156.5349 H   0  0  0  0  0  0  0  0  0  0  0  0
  149.2397  140.4765  156.4303 H   0  0  0  0  0  0  0  0  0  0  0  0
  148.9262  140.0089  154.1104 H   0  0  0  0  0  0  0  0  0  0  0  0
  150.5391  139.4217  153.8767 H   0  0  0  0  0  0  0  0  0  0  0  0
  144.9045  138.4883  154.2414 H   0  0  0  0  0  0  0  0  0  0  0  0
  145.6751  138.0701  155.7573 H   0  0  0  0  0  0  0  0  0  0  0  0
  144.9388  140.4469  155.7722 H   0  0  0  0  0  0  0  0  0  0  0  0
  146.6746  140.3013  155.9789 H   0  0  0  0  0  0  0  0  0  0  0  0
  147.0052  142.6661  155.0775 H   0  0  0  0  0  0  0  0  0  0  0  0
  145.2434  142.7687  154.9670 H   0  0  0  0  0  0  0  0  0  0  0  0
  146.2321  143.0723  153.5402 H   0  0  0  0  0  0  0  0  0  0  0  0
  147.3018  141.1727  152.3672 H   0  0  0  0  0  0  0  0  0  0  0  0
  148.1607  140.7521  153.8385 H   0  0  0  0  0  0  0  0  0  0  0  0
  147.9822  138.7652  152.3553 H   0  0  0  0  0  0  0  0  0  0  0  0
  146.2441  138.9235  152.2851 H   0  0  0  0  0  0  0  0  0  0  0  0
  148.6960  133.3379  157.2786 H   0  0  0  0  0  0  0  0  0  0  0  0
  149.2200  132.7308  155.7041 H   0  0  0  0  0  0  0  0  0  0  0  0
  147.8156  133.7764  155.8217 H   0  0  0  0  0  0  0  0  0  0  0  0
  145.2650  140.9109  153.4972 H   0  0  0  0  0  0  0  0  0  0  0  0
  1  2  1  0  0  0  0
  1 25  1  0  0  0  0
  1 26  1  0  0  0  0
  1 27  1  0  0  0  0
  2  3  1  0  0  0  0
  2 28  1  0  0  0  0
  2 29  1  0  0  0  0
  3  4  1  0  0  0  0
  4  5  1  0  0  0  0
  4 30  1  0  0  0  0
  4 31  1  0  0  0  0
  5  6  1  0  0  0  0
  5 32  1  0  0  0  0
  5 33  1  0  0  0  0
  6 17  1  0  0  0  0
  6  7  1  0  0  0  0
  7  8  1  0  0  0  0
  7 15  2  0  0  0  0
  8 14  1  0  0  0  0
  8  9  1  0  0  0  0
  9 10  1  0  0  0  0
  9 34  1  0  0  0  0
  9 35  1  0  0  0  0
 10 11  1  0  0  0  0
 10 36  1  0  0  0  0
 10 37  1  0  0  0  0
 11 12  1  0  0  0  0
 11 13  1  0  0  0  0
 11 48  1  0  0  0  0
 12 38  1  0  0  0  0
 12 39  1  0  0  0  0
 12 40  1  0  0  0  0
 13 14  1  0  0  0  0
 13 41  1  0  0  0  0
 13 42  1  0  0  0  0
 14 43  1  0  0  0  0
 14 44  1  0  0  0  0
 15 16  1  0  0  0  0
 16 23  1  0  0  0  0
 16 17  2  0  0  0  0
 17 18  1  0  0  0  0
 18 19  2  0  0  0  0
 18 20  1  0  0  0  0
 20 21  1  0  0  0  0
 21 22  2  0  0  0  0
 21 23  1  0  0  0  0
 23 24  1  0  0  0  0
 24 45  1  0  0  0  0
 24 46  1  0  0  0  0
 24 47  1  0  0  0  0
M  CHG  1  11   1
M  CHG  1  20  -1
M  END
> <s_m_source_file>
AV-unprocessed.smi

> <i_m_source_file_index>
512

> <i_lp_mmshare_version>
43012

> <i_f3d_flags>
0

> <s_epik_input>
W0NIM11uMWMoPU8pW25IXWMoPU8pYyhjMTIpbihbQ0gyXVtDSDJdT1tDSDJdW0NIM10pYyhuMilOM1tDSDJdW0NIMl1OKFtDSDNdKVtDSDJdW0NIMl0z

> <s_epik_cmdline>
J2VwaWtfcHl0aG9uJywgJy1waCcsICc3LjAnLCAnLXRuJywgJzgnLCAnLW1hJywgJzIwMCcsICctbWV0YWxfYmluZGluZycsICctaW1hZScsICc8aW5maWxlLm1hZT4nLCAnLW9tYWUnLCAnPG91dGZpbGUubWFlPic=

> <r_epik_Ionization_Penalty>
5.9926

> <r_epik_Ionization_Penalty_Charging>
0.122107

> <r_epik_Ionization_Penalty_Neutral>
5.87049

> <r_epik_State_Penalty>
5.92685

> <r_epik_Charging_Adjusted_Penalty>
6.04896

> <i_epik_Tot_Q>
0

> <i_epik_Tot_abs_Q>
2

> <r_epik_Metal_State_Penalty>
1.88919

> <b_epik_Metal_Only>
1

> <s_lp_Force_Field>
OPLS_2005

> <r_lp_Energy>
50.2729

> <b_lp_Chiralities_Consistent>
1

> <s_lp_Variant>
AV-unprocessed.smi:512-3

> <Gold.Version>
5.8.1

> <Gold.Id.Protein>
6NUR|6NUR_protein|mol2

> <Gold.PLP.Fitness>
41.5719

> <Gold.PLP.PLP>
-29.2396

> <Gold.PLP.part.hbond>
-4.0000

> <Gold.PLP.part.metal>
0.0000

> <Gold.PLP.part.buried>
-2.3448

> <Gold.PLP.part.nonpolar>
-22.5529

> <Gold.PLP.part.repulsive>
0.1737

> <Gold.PLP.ligand.clash>
0.0000

> <Gold.PLP.ligand.torsion>
1.2448

> <Gold.PLP.Chemscore.Hbond>
4.7397

> <Gold.PLP.Chemscore.CHOScore>
0.0000

> <Gold.PLP.Chemscore.Metal>
0.0000

> <Gold.Chemscore.Hbonds>
donor molecule, donor type, donor heavy atom, donor atom, acceptor molecule, acceptor atom, score
      L1  H    11    48       P1 10175  2.00
      P1  H  6896  6908       L1    22  0.16
      P1  H  7989  7998       L1     3  0.33
      P1  H 10752 10763       L1    20  2.00

> <Gold.PLP.Chemscore.Internal.Correction>
0.6027

> <Gold.Rescore>
     Score         DG    S(hbond)    S(metal)    S(lipo)     H(rot)  DE(clash)    DE(int)     intcor
     11.64     -14.04       1.89        0.00      55.04       1.63       0.13       2.27       ----

> <Gold.Chemscore.Fitness>
11.6405

> <Gold.Chemscore.DG>
-14.0395

> <Gold.Chemscore.ZeroCoef>
-5.4800

> <Gold.Chemscore.Hbond>
1.8863

> <Gold.Chemscore.Metal>
0.0000

> <Gold.Chemscore.Lipo>
55.0374

> <Gold.Chemscore.Internal_Hbond>
0.0000

> <Gold.Chemscore.DEClash>
0.1308

> <Gold.Chemscore.DEInternal>
2.2682

> <Gold.Chemscore.Rot>
1.6328

> <Gold.Chemscore.Internal.Correction>
   9.000000E+99

> <Gold.Chemscore.Hbonds>
donor molecule, donor type, donor heavy atom, donor atom, acceptor molecule, acceptor atom, score
      L1  H    11    48       P1 10175  0.74
      P1  H  6896  6908       L1    22  0.16
      P1  H  7989  7998       L1     3  0.18
      P1  H 10752 10763       L1    20  0.24

> <Gold.Chemscore.Hbond.Weighted>
-6.3001

> <Gold.Chemscore.Metal.Weighted>
-0.0000

> <Gold.Chemscore.Lipo.Weighted>
-6.4394

> <Gold.Chemscore.Internal_Hbond.Weighted>
0.0000

> <Gold.Chemscore.DEClash.Weighted>
0.1308

> <Gold.Chemscore.DEInternal.Weighted>
2.2682

> <Gold.Chemscore.Rot.Weighted>
4.1800

> <Gold.Chemscore.Internal.Correction.Weighted>
   9.000000E+99

> <Gold.Protein.RotatedTorsions>
[ 6907 6896 6895 6894 ] final   66.31 input  -60.11 | X-H torsion
[ 7974 7965 7964 7962 ] final  101.99 input  175.53 | X-H torsion
[ 8008 7997 7996 7995 ] final -145.32 input   59.86 | X-H torsion
[ 10167 10162 10161 10158 ] final  136.65 input  -65.29 | X-H torsion
[ 10718 10713 10712 10709 ] final -139.05 input   66.30 | X-H torsion
[ 10763 10752 10751 10750 ] final  108.77 input  -60.55 | X-H torsion
[ 11005 11000 10999 10996 ] final -103.62 input  -57.11 | X-H torsion

> <Gold.Protein.ActiveResidues>
 VAL166  LYS551  ARG553  GLY616  TRP617  ASP618  TYR619  PRO620  LYS621  CYS622 
 ASP623  PHE694  ASN695  SER759  ASP760  ASP761  ALA762  ILE779  LEU786  VAL792 
 PHE793  MET794  SER795  GLU796  ALA797  LYS798  CYS799  TRP800  GLU811  SER814 

> <Gold.Protein.RotatedAtoms>
  152.4472  134.5470  159.9855 H   0  0  0  0  0  0  0  0  0  0  0  0  # atno 6907 bound_to 6896
  151.5552  133.3405  159.2968 H   0  0  0  0  0  0  0  0  0  0  0  0  # atno 6908 bound_to 6896
  150.8391  134.7708  159.6981 H   0  0  0  0  0  0  0  0  0  0  0  0  # atno 6909 bound_to 6896
  145.3651  139.2410  143.3485 H   0  0  0  0  0  0  0  0  0  0  0  0  # atno 7974 bound_to 7965
  155.5413  140.0608  157.2869 H   0  0  0  0  0  0  0  0  0  0  0  0  # atno 8008 bound_to 7997
  154.4451  140.1918  156.0638 H   0  0  0  0  0  0  0  0  0  0  0  0  # atno 8009 bound_to 7997
  156.0582  140.3276  155.7434 H   0  0  0  0  0  0  0  0  0  0  0  0  # atno 8010 bound_to 7997
  139.5172  144.6453  151.5457 H   0  0  0  0  0  0  0  0  0  0  0  0  # atno 10167 bound_to 10162
  156.3064  130.7457  151.1522 H   0  0  0  0  0  0  0  0  0  0  0  0  # atno 10718 bound_to 10713
  153.4253  135.3801  155.2137 H   0  0  0  0  0  0  0  0  0  0  0  0  # atno 10763 bound_to 10752
  154.8747  135.3827  154.4333 H   0  0  0  0  0  0  0  0  0  0  0  0  # atno 10764 bound_to 10752
  153.4859  135.7088  153.5974 H   0  0  0  0  0  0  0  0  0  0  0  0  # atno 10765 bound_to 10752
  141.1138  133.8655  157.1508 H   0  0  0  0  0  0  0  0  0  0  0  0  # atno 11005 bound_to 11000
  146.2910  140.4292  142.8739 LP  0  0  0  0  0  0  0  0  0  0  0  0  # atno 17320 bound_to 7965
  144.8618  140.7150  143.6103 LP  0  0  0  0  0  0  0  0  0  0  0  0  # atno 17321 bound_to 7965
  140.6235  143.9213  150.6545 LP  0  0  0  0  0  0  0  0  0  0  0  0  # atno 17342 bound_to 10162
  140.2494  143.3604  152.1418 LP  0  0  0  0  0  0  0  0  0  0  0  0  # atno 17343 bound_to 10162
  157.7380  131.0545  150.5318 LP  0  0  0  0  0  0  0  0  0  0  0  0  # atno 17370 bound_to 10713
  156.5452  130.4218  149.6134 LP  0  0  0  0  0  0  0  0  0  0  0  0  # atno 17371 bound_to 10713
  140.0047  135.0013  157.0266 LP  0  0  0  0  0  0  0  0  0  0  0  0  # atno 17394 bound_to 11000
  140.4704  134.1393  155.7202 LP  0  0  0  0  0  0  0  0  0  0  0  0  # atno 17395 bound_to 11000

$$$$
