AV-unprocessed.smi:1847|AV-procd|sdf|7518|dock2
  -GOLD-   22720 9223D 1   1.00000     0.00000
 Structure written by MMmdl.
 25 26  0  0  0  0  0  0  0  0  1 V2000
  152.5374  139.9329  157.5227 O   0  0  0  0  0  0  0  0  0  0  0  0
  151.7525  140.8687  157.3540 C   0  0  0  0  0  0  0  0  0  0  0  0
  150.6876  140.9385  156.4590 N   0  0  0  0  0  0  0  0  0  0  0  0
  150.4567  140.1054  155.5097 C   0  0  0  0  0  0  0  0  0  0  0  0
  149.2730  140.3993  154.6658 C   0  0  0  0  0  0  0  0  0  0  0  0
  148.9619  139.5857  153.6360 C   0  0  0  0  0  0  0  0  0  0  0  0
  149.7024  138.4571  153.3101 N   0  0  0  0  0  0  0  0  0  0  0  0
  150.8098  138.1351  154.0840 C   0  0  0  0  0  0  0  0  0  0  0  0
  151.2202  138.8715  155.1378 C   0  0  0  0  0  0  0  0  0  0  0  0
  151.8495  142.1105  158.1179 C   0  0  0  0  0  0  0  0  0  0  0  0
  151.0504  143.1570  157.8015 C   0  0  0  0  0  0  0  0  0  0  0  0
  151.0969  144.3729  158.4366 O   0  0  0  0  0  0  0  0  0  0  0  0
  152.2193  144.5535  159.2915 C   0  0  0  0  0  0  0  0  0  0  0  0
  152.5021  143.2664  160.0786 C   0  0  0  0  0  0  0  0  0  0  0  0
  152.7225  142.1831  159.1823 O   0  0  0  0  0  0  0  0  0  0  0  0
  148.6870  141.2746  154.9077 H   0  0  0  0  0  0  0  0  0  0  0  0
  148.1114  139.7581  152.9931 H   0  0  0  0  0  0  0  0  0  0  0  0
  151.3188  137.2350  153.7718 H   0  0  0  0  0  0  0  0  0  0  0  0
  152.0830  138.5637  155.7016 H   0  0  0  0  0  0  0  0  0  0  0  0
  150.3273  143.1612  156.9985 H   0  0  0  0  0  0  0  0  0  0  0  0
  153.0870  144.8312  158.6917 H   0  0  0  0  0  0  0  0  0  0  0  0
  152.0204  145.3816  159.9719 H   0  0  0  0  0  0  0  0  0  0  0  0
  153.3807  143.3904  160.7118 H   0  0  0  0  0  0  0  0  0  0  0  0
  151.6638  143.0263  160.7341 H   0  0  0  0  0  0  0  0  0  0  0  0
  149.4350  137.8754  152.5286 H   0  0  0  0  0  0  0  0  0  0  0  0
  1  2  2  0  0  0  0
  2  3  1  0  0  0  0
  2 10  1  0  0  0  0
  3  4  2  0  0  0  0
  4  9  1  0  0  0  0
  4  5  1  0  0  0  0
  5  6  2  0  0  0  0
  5 16  1  0  0  0  0
  6  7  1  0  0  0  0
  6 17  1  0  0  0  0
  7  8  1  0  0  0  0
  7 25  1  0  0  0  0
  8  9  2  0  0  0  0
  8 18  1  0  0  0  0
  9 19  1  0  0  0  0
 10 15  1  0  0  0  0
 10 11  2  0  0  0  0
 11 12  1  0  0  0  0
 11 20  1  0  0  0  0
 12 13  1  0  0  0  0
 13 14  1  0  0  0  0
 13 21  1  0  0  0  0
 13 22  1  0  0  0  0
 14 15  1  0  0  0  0
 14 23  1  0  0  0  0
 14 24  1  0  0  0  0
M  END
> <s_m_source_file>
AV-unprocessed.smi

> <i_m_source_file_index>
1847

> <i_lp_mmshare_version>
43012

> <i_f3d_flags>
0

> <s_epik_input>
TzFbQ0gyXVtDSDJdT1tDSF09QzFDKD1PKVtOSF1jMltjSF1bY0hdbltjSF1bY0hdMg==

> <s_epik_cmdline>
J2VwaWtfcHl0aG9uJywgJy1waCcsICc3LjAnLCAnLXRuJywgJzgnLCAnLW1hJywgJzIwMCcsICctbWV0YWxfYmluZGluZycsICctaW1hZScsICc8aW5maWxlLm1hZT4nLCAnLW9tYWUnLCAnPG91dGZpbGUubWFlPic=

> <r_epik_Ionization_Penalty>
6.73206

> <r_epik_Ionization_Penalty_Charging>
6.73206

> <r_epik_Ionization_Penalty_Neutral>
0

> <r_epik_State_Penalty>
8.39127

> <r_epik_Charging_Adjusted_Penalty>
15.1233

> <i_epik_Tot_Q>
0

> <i_epik_Tot_abs_Q>
0

> <r_epik_Metal_State_Penalty>
11.2314

> <b_epik_Metal_Only>
1

> <s_lp_Force_Field>
OPLS_2005

> <r_lp_Energy>
18.4122

> <b_lp_Chiralities_Consistent>
1

> <s_lp_Variant>
AV-unprocessed.smi:1847-4

> <Gold.Version>
5.8.1

> <Gold.Id.Protein>
6NUR|6NUR_protein|mol2

> <Gold.PLP.Fitness>
42.0076

> <Gold.PLP.PLP>
-29.8275

> <Gold.PLP.part.hbond>
-3.0000

> <Gold.PLP.part.metal>
0.0000

> <Gold.PLP.part.buried>
-1.5892

> <Gold.PLP.part.nonpolar>
-26.1543

> <Gold.PLP.part.repulsive>
0.2884

> <Gold.PLP.ligand.clash>
0.0000

> <Gold.PLP.ligand.torsion>
0.0551

> <Gold.PLP.Chemscore.Hbond>
2.0000

> <Gold.PLP.Chemscore.CHOScore>
2.0964

> <Gold.PLP.Chemscore.Metal>
0.0000

> <Gold.Chemscore.Hbonds>
donor molecule, donor type, donor heavy atom, donor atom, acceptor molecule, acceptor atom, score
      L1  H     7    25       P1  7948  1.00
      P1  H  7997  8010       L1     1  0.99
      L1  C     6    17       P1  7957  0.19
      L1  C     8    18       P1  7949  0.80
      L1  C    11    20       P1  8028  1.00

> <Gold.PLP.Chemscore.Internal.Correction>
0.0012

> <Gold.Rescore>
     Score         DG    S(hbond)    S(metal)    S(lipo)     H(rot)  DE(clash)    DE(int)     intcor
     19.74     -21.06       1.93        0.00      78.04       0.00       0.06       1.26       ----

> <Gold.Chemscore.Fitness>
19.7386

> <Gold.Chemscore.DG>
-21.0613

> <Gold.Chemscore.ZeroCoef>
-5.4800

> <Gold.Chemscore.Hbond>
1.9314

> <Gold.Chemscore.Metal>
0.0000

> <Gold.Chemscore.Lipo>
78.0371

> <Gold.Chemscore.Internal_Hbond>
0.0000

> <Gold.Chemscore.DEClash>
0.0615

> <Gold.Chemscore.DEInternal>
1.2612

> <Gold.Chemscore.Rot>
0.0000

> <Gold.Chemscore.Internal.Correction>
   9.000000E+99

> <Gold.Chemscore.Hbonds>
donor molecule, donor type, donor heavy atom, donor atom, acceptor molecule, acceptor atom, score
      L1  H     7    25       P1  7948  0.71
      P1  H  7997  8010       L1     1  0.88

> <Gold.Chemscore.Hbond.Weighted>
-6.4509

> <Gold.Chemscore.Metal.Weighted>
-0.0000

> <Gold.Chemscore.Lipo.Weighted>
-9.1303

> <Gold.Chemscore.Internal_Hbond.Weighted>
0.0000

> <Gold.Chemscore.DEClash.Weighted>
0.0615

> <Gold.Chemscore.DEInternal.Weighted>
1.2612

> <Gold.Chemscore.Rot.Weighted>
0.0000

> <Gold.Chemscore.Internal.Correction.Weighted>
   9.000000E+99

> <Gold.Protein.RotatedTorsions>
[ 6907 6896 6895 6894 ] final  141.69 input  -60.11 | X-H torsion
[ 7974 7965 7964 7962 ] final -128.72 input  175.53 | X-H torsion
[ 8008 7997 7996 7995 ] final   55.41 input   59.86 | X-H torsion
[ 10167 10162 10161 10158 ] final   53.10 input  -65.29 | X-H torsion
[ 10718 10713 10712 10709 ] final  -11.83 input   66.30 | X-H torsion
[ 10763 10752 10751 10750 ] final  -38.58 input  -60.55 | X-H torsion
[ 11005 11000 10999 10996 ] final  -88.04 input  -57.11 | X-H torsion

> <Gold.Protein.ActiveResidues>
 VAL166  LYS551  ARG553  GLY616  TRP617  ASP618  TYR619  PRO620  LYS621  CYS622 
 ASP623  PHE694  ASN695  SER759  ASP760  ASP761  ALA762  ILE779  LEU786  VAL792 
 PHE793  MET794  SER795  GLU796  ALA797  LYS798  CYS799  TRP800  GLU811  SER814 

> <Gold.Protein.RotatedAtoms>
  152.2278  133.5034  159.5198 H   0  0  0  0  0  0  0  0  0  0  0  0  # atno 6907 bound_to 6896
  150.7029  134.1256  159.4060 H   0  0  0  0  0  0  0  0  0  0  0  0  # atno 6908 bound_to 6896
  151.9177  135.0311  160.0570 H   0  0  0  0  0  0  0  0  0  0  0  0  # atno 6909 bound_to 6896
  144.9643  140.7479  143.4710 H   0  0  0  0  0  0  0  0  0  0  0  0  # atno 7974 bound_to 7965
  155.5006  140.3474  155.4370 H   0  0  0  0  0  0  0  0  0  0  0  0  # atno 8008 bound_to 7997
  156.0916  140.1412  156.9612 H   0  0  0  0  0  0  0  0  0  0  0  0  # atno 8009 bound_to 7997
  154.4638  140.0925  156.6943 H   0  0  0  0  0  0  0  0  0  0  0  0  # atno 8010 bound_to 7997
  140.2443  144.3549  150.6369 H   0  0  0  0  0  0  0  0  0  0  0  0  # atno 10167 bound_to 10162
  156.6534  130.4961  149.6054 H   0  0  0  0  0  0  0  0  0  0  0  0  # atno 10718 bound_to 10713
  153.9152  135.6788  153.4749 H   0  0  0  0  0  0  0  0  0  0  0  0  # atno 10763 bound_to 10752
  153.1057  135.4806  154.8945 H   0  0  0  0  0  0  0  0  0  0  0  0  # atno 10764 bound_to 10752
  154.7506  135.3184  154.8519 H   0  0  0  0  0  0  0  0  0  0  0  0  # atno 10765 bound_to 10752
  141.1608  133.7547  156.9394 H   0  0  0  0  0  0  0  0  0  0  0  0  # atno 11005 bound_to 11000
  145.2654  139.1976  143.4870 LP  0  0  0  0  0  0  0  0  0  0  0  0  # atno 17320 bound_to 7965
  146.3363  140.2591  142.8601 LP  0  0  0  0  0  0  0  0  0  0  0  0  # atno 17321 bound_to 7965
  140.6089  143.2168  151.6925 LP  0  0  0  0  0  0  0  0  0  0  0  0  # atno 17342 bound_to 10162
  139.5067  144.3673  152.0505 LP  0  0  0  0  0  0  0  0  0  0  0  0  # atno 17343 bound_to 10162
  156.2067  130.6653  151.1225 LP  0  0  0  0  0  0  0  0  0  0  0  0  # atno 17370 bound_to 10713
  157.7133  131.0723  150.6419 LP  0  0  0  0  0  0  0  0  0  0  0  0  # atno 17371 bound_to 10713
  140.1332  134.9342  157.2365 LP  0  0  0  0  0  0  0  0  0  0  0  0  # atno 17394 bound_to 11000
  140.2928  134.3221  155.7310 LP  0  0  0  0  0  0  0  0  0  0  0  0  # atno 17395 bound_to 11000

$$$$
