AV-unprocessed.smi:2605|AV-procd|sdf|10195|dock2
  -GOLD-   2272014203D 1   1.00000     0.00000
 Structure written by MMmdl.
 26 27  0  0  0  0  0  0  0  0  2 V2000
  146.2316  132.9957  150.8948 C   0  0  0  0  0  0  0  0  0  0  0  0
  146.4125  134.2571  151.4970 C   0  0  0  0  0  0  0  0  0  0  0  0
  145.3877  135.2190  151.3729 C   0  0  0  0  0  0  0  0  0  0  0  0
  145.5464  136.5973  151.9956 C   0  0  2  0  0  0  0  0  0  0  0  0
  145.8997  137.6908  150.9608 C   0  0  0  0  0  0  0  0  0  0  0  0
  146.0084  138.9881  151.6223 N   0  0  0  0  0  0  0  0  0  0  0  0
  147.0897  138.9301  152.6010 C   0  0  0  0  0  0  0  0  0  0  0  0
  146.7621  137.8798  153.6790 C   0  0  0  0  0  0  0  0  0  0  0  0
  146.5752  136.5539  153.0560 N   0  3  0  0  0  0  0  0  0  0  0  0
  144.2301  134.8727  150.6416 C   0  0  0  0  0  0  0  0  0  0  0  0
  144.1487  133.5832  150.0786 C   0  0  0  0  0  0  0  0  0  0  0  0
  145.1254  132.6592  150.1982 N   0  0  0  0  0  0  0  0  0  0  0  0
  146.9971  132.2381  150.9739 H   0  0  0  0  0  0  0  0  0  0  0  0
  147.3197  134.4735  152.0421 H   0  0  0  0  0  0  0  0  0  0  0  0
  144.5982  136.8635  152.4670 H   0  0  0  0  0  0  0  0  0  0  0  0
  146.8340  137.4677  150.4446 H   0  0  0  0  0  0  0  0  0  0  0  0
  145.1204  137.7516  150.2004 H   0  0  0  0  0  0  0  0  0  0  0  0
  146.2117  139.7016  150.9356 H   0  0  0  0  0  0  0  0  0  0  0  0
  148.0323  138.6973  152.1035 H   0  0  0  0  0  0  0  0  0  0  0  0
  147.2042  139.9127  153.0594 H   0  0  0  0  0  0  0  0  0  0  0  0
  147.5697  137.8194  154.4086 H   0  0  0  0  0  0  0  0  0  0  0  0
  145.8586  138.1576  154.2239 H   0  0  0  0  0  0  0  0  0  0  0  0
  146.3019  135.8844  153.7610 H   0  0  0  0  0  0  0  0  0  0  0  0
  143.4193  135.5732  150.5072 H   0  0  0  0  0  0  0  0  0  0  0  0
  143.2767  133.2879  149.5139 H   0  0  0  0  0  0  0  0  0  0  0  0
  147.4491  136.2618  152.6427 H   0  0  0  0  0  0  0  0  0  0  0  0
  1 12  1  0  0  0  0
  1  2  2  0  0  0  0
  1 13  1  0  0  0  0
  2  3  1  0  0  0  0
  2 14  1  0  0  0  0
  3  4  1  0  0  0  0
  3 10  2  0  0  0  0
  4  9  1  0  0  0  0
  4  5  1  0  0  0  0
  4 15  1  0  0  0  0
  5  6  1  0  0  0  0
  5 16  1  0  0  0  0
  5 17  1  0  0  0  0
  6  7  1  0  0  0  0
  6 18  1  0  0  0  0
  7  8  1  0  0  0  0
  7 19  1  0  0  0  0
  7 20  1  0  0  0  0
  8  9  1  0  0  0  0
  8 21  1  0  0  0  0
  8 22  1  0  0  0  0
  9 23  1  0  0  0  0
  9 26  1  0  0  0  0
 10 11  1  0  0  0  0
 10 24  1  0  0  0  0
 11 12  2  0  0  0  0
 11 25  1  0  0  0  0
M  CHG  1   9   1
M  END
> <s_m_source_file>
AV-unprocessed.smi

> <i_m_source_file_index>
2605

> <i_lp_mmshare_version>
43012

> <i_f3d_flags>
0

> <s_epik_input>
W2NIXTFbY0hdbltjSF1bY0hdYzFbQ0BASF0yW0NIMl1bTkhdW0NIMl1bQ0gyXVtOSF0y

> <s_epik_cmdline>
J2VwaWtfcHl0aG9uJywgJy1waCcsICc3LjAnLCAnLXRuJywgJzgnLCAnLW1hJywgJzIwMCcsICctbWV0YWxfYmluZGluZycsICctaW1hZScsICc8aW5maWxlLm1hZT4nLCAnLW9tYWUnLCAnPG91dGZpbGUubWFlPic=

> <r_epik_Ionization_Penalty>
0.0246915

> <r_epik_Ionization_Penalty_Charging>
0.015072

> <r_epik_Ionization_Penalty_Neutral>
0.00961942

> <r_epik_State_Penalty>
0.518662

> <r_epik_Charging_Adjusted_Penalty>
0.533734

> <i_epik_Tot_Q>
1

> <i_epik_Tot_abs_Q>
1

> <r_epik_Metal_State_Penalty>
0.520249

> <b_epik_Metal_Only>
0

> <s_lp_Force_Field>
OPLS_2005

> <r_lp_Energy>
7.08803

> <b_lp_Chiralities_Consistent>
1

> <s_lp_Variant>
AV-unprocessed.smi:2605-3

> <Gold.Version>
5.8.1

> <Gold.Id.Protein>
6NUR|6NUR_protein|mol2

> <Gold.PLP.Fitness>
32.3656

> <Gold.PLP.PLP>
-21.5754

> <Gold.PLP.part.hbond>
-3.0000

> <Gold.PLP.part.metal>
0.0000

> <Gold.PLP.part.buried>
1.9450

> <Gold.PLP.part.nonpolar>
-21.4766

> <Gold.PLP.part.repulsive>
0.1513

> <Gold.PLP.ligand.clash>
0.0000

> <Gold.PLP.ligand.torsion>
0.4947

> <Gold.PLP.Chemscore.Hbond>
2.0000

> <Gold.PLP.Chemscore.CHOScore>
1.9226

> <Gold.PLP.Chemscore.Metal>
0.0000

> <Gold.Chemscore.Hbonds>
donor molecule, donor type, donor heavy atom, donor atom, acceptor molecule, acceptor atom, score
      L1  H     9    26       P1  7948  2.00
      L1  C     1    13       P1 10747  1.00
      L1  C    11    25       P1 10186  0.92

> <Gold.PLP.Chemscore.Internal.Correction>
0.0118

> <Gold.Rescore>
     Score         DG    S(hbond)    S(metal)    S(lipo)     H(rot)  DE(clash)    DE(int)     intcor
     11.72     -13.66       1.00        0.00      63.27       1.00       1.73       0.21       ----

> <Gold.Chemscore.Fitness>
11.7198

> <Gold.Chemscore.DG>
-13.6573

> <Gold.Chemscore.ZeroCoef>
-5.4800

> <Gold.Chemscore.Hbond>
0.9985

> <Gold.Chemscore.Metal>
0.0000

> <Gold.Chemscore.Lipo>
63.2682

> <Gold.Chemscore.Internal_Hbond>
0.0000

> <Gold.Chemscore.DEClash>
1.7316

> <Gold.Chemscore.DEInternal>
0.2059

> <Gold.Chemscore.Rot>
1.0000

> <Gold.Chemscore.Internal.Correction>
   9.000000E+99

> <Gold.Chemscore.Hbonds>
donor molecule, donor type, donor heavy atom, donor atom, acceptor molecule, acceptor atom, score
      L1  H     9    26       P1  7948  1.00

> <Gold.Chemscore.Hbond.Weighted>
-3.3349

> <Gold.Chemscore.Metal.Weighted>
-0.0000

> <Gold.Chemscore.Lipo.Weighted>
-7.4024

> <Gold.Chemscore.Internal_Hbond.Weighted>
0.0000

> <Gold.Chemscore.DEClash.Weighted>
1.7316

> <Gold.Chemscore.DEInternal.Weighted>
0.2059

> <Gold.Chemscore.Rot.Weighted>
2.5600

> <Gold.Chemscore.Internal.Correction.Weighted>
   9.000000E+99

> <Gold.Protein.RotatedTorsions>
[ 6907 6896 6895 6894 ] final  141.54 input  -60.11 | X-H torsion
[ 7974 7965 7964 7962 ] final   32.23 input  175.53 | X-H torsion
[ 8008 7997 7996 7995 ] final   -2.76 input   59.86 | X-H torsion
[ 10167 10162 10161 10158 ] final  144.11 input  -65.29 | X-H torsion
[ 10718 10713 10712 10709 ] final  -37.37 input   66.30 | X-H torsion
[ 10763 10752 10751 10750 ] final   45.29 input  -60.55 | X-H torsion
[ 11005 11000 10999 10996 ] final  -87.49 input  -57.11 | X-H torsion

> <Gold.Protein.ActiveResidues>
 VAL166  LYS551  ARG553  GLY616  TRP617  ASP618  TYR619  PRO620  LYS621  CYS622 
 ASP623  PHE694  ASN695  SER759  ASP760  ASP761  ALA762  ILE779  LEU786  VAL792 
 PHE793  MET794  SER795  GLU796  ALA797  LYS798  CYS799  TRP800  GLU811  SER814 

> <Gold.Protein.RotatedAtoms>
  152.2297  133.5048  159.5208 H   0  0  0  0  0  0  0  0  0  0  0  0  # atno 6907 bound_to 6896
  150.7034  134.1232  159.4051 H   0  0  0  0  0  0  0  0  0  0  0  0  # atno 6908 bound_to 6896
  151.9154  135.0321  160.0568 H   0  0  0  0  0  0  0  0  0  0  0  0  # atno 6909 bound_to 6896
  146.1499  139.6553  142.9105 H   0  0  0  0  0  0  0  0  0  0  0  0  # atno 7974 bound_to 7965
  154.6322  140.2526  155.7420 H   0  0  0  0  0  0  0  0  0  0  0  0  # atno 8008 bound_to 7997
  156.2485  140.2904  156.0599 H   0  0  0  0  0  0  0  0  0  0  0  0  # atno 8009 bound_to 7997
  155.1727  140.0387  157.2856 H   0  0  0  0  0  0  0  0  0  0  0  0  # atno 8010 bound_to 7997
  139.4954  144.5995  151.6512 H   0  0  0  0  0  0  0  0  0  0  0  0  # atno 10167 bound_to 10162
  156.3160  130.4259  149.8005 H   0  0  0  0  0  0  0  0  0  0  0  0  # atno 10718 bound_to 10713
  152.9827  135.6044  154.3413 H   0  0  0  0  0  0  0  0  0  0  0  0  # atno 10763 bound_to 10752
  154.3109  135.2771  155.2568 H   0  0  0  0  0  0  0  0  0  0  0  0  # atno 10764 bound_to 10752
  154.4778  135.5925  153.6423 H   0  0  0  0  0  0  0  0  0  0  0  0  # atno 10765 bound_to 10752
  141.1616  133.7514  156.9314 H   0  0  0  0  0  0  0  0  0  0  0  0  # atno 11005 bound_to 11000
  145.4847  141.0438  143.2626 LP  0  0  0  0  0  0  0  0  0  0  0  0  # atno 17320 bound_to 7965
  144.7892  139.6364  143.7121 LP  0  0  0  0  0  0  0  0  0  0  0  0  # atno 17321 bound_to 7965
  140.5641  144.0220  150.6184 LP  0  0  0  0  0  0  0  0  0  0  0  0  # atno 17342 bound_to 10162
  140.3315  143.3074  152.0682 LP  0  0  0  0  0  0  0  0  0  0  0  0  # atno 17343 bound_to 10162
  156.5330  130.8266  151.3243 LP  0  0  0  0  0  0  0  0  0  0  0  0  # atno 17370 bound_to 10713
  157.7401  130.9845  150.2360 LP  0  0  0  0  0  0  0  0  0  0  0  0  # atno 17371 bound_to 10713
  140.1384  134.9310  157.2433 LP  0  0  0  0  0  0  0  0  0  0  0  0  # atno 17394 bound_to 11000
  140.2867  134.3287  155.7327 LP  0  0  0  0  0  0  0  0  0  0  0  0  # atno 17395 bound_to 11000

$$$$
