AV-unprocessed.smi:2644|AV-procd|sdf|10277|dock1
  -GOLD-   2272014283D 1   1.00000     0.00000
 Structure written by MMmdl.
 42 44  0  0  0  0  0  0  0  0  1 V2000
  151.3948  138.3130  154.6534 C   0  0  0  0  0  0  0  0  0  0  0  0
  150.9217  139.6516  154.6885 O   0  0  0  0  0  0  0  0  0  0  0  0
  149.5848  139.8720  154.4356 C   0  0  0  0  0  0  0  0  0  0  0  0
  149.1449  141.2111  154.4280 C   0  0  0  0  0  0  0  0  0  0  0  0
  147.7916  141.5224  154.1997 C   0  0  0  0  0  0  0  0  0  0  0  0
  146.8596  140.4925  153.9774 C   0  0  0  0  0  0  0  0  0  0  0  0
  147.2809  139.1459  153.9737 C   0  0  0  0  0  0  0  0  0  0  0  0
  146.2726  138.0162  153.7979 C   0  0  2  0  0  0  0  0  0  0  0  0
  144.9430  138.4865  153.7061 O   0  0  0  0  0  0  0  0  0  0  0  0
  146.3481  136.9720  154.9373 C   0  0  0  0  0  0  0  0  0  0  0  0
  147.0073  135.7280  154.5166 N   0  0  0  0  0  0  0  0  0  0  0  0
  146.3872  135.0894  153.4568 N   0  0  0  0  0  0  0  0  0  0  0  0
  146.7931  133.9355  153.0391 C   0  0  0  0  0  0  0  0  0  0  0  0
  146.0265  133.3304  151.9650 C   0  0  0  0  0  0  0  0  0  0  0  0
  146.0039  131.9704  151.7803 C   0  0  0  0  0  0  0  0  0  0  0  0
  145.1762  131.6000  150.6782 C   0  0  0  0  0  0  0  0  0  0  0  0
  144.5854  132.6708  150.0524 C   0  0  0  0  0  0  0  0  0  0  0  0
  143.6670  132.6468  148.8780 C   0  0  0  0  0  0  0  0  0  0  0  0
  145.0336  134.1798  150.8087 S   0  0  0  0  0  0  0  0  0  0  0  0
  147.9572  133.3210  153.6610 C   0  0  0  0  0  0  0  0  0  0  0  0
  148.5667  133.9555  154.6857 C   0  0  0  0  0  0  0  0  0  0  0  0
  148.0885  135.2405  155.1914 C   0  0  0  0  0  0  0  0  0  0  0  0
  148.5996  135.8223  156.1479 O   0  0  0  0  0  0  0  0  0  0  0  0
  148.6415  138.8418  154.1959 C   0  0  0  0  0  0  0  0  0  0  0  0
  152.4537  138.2984  154.9111 H   0  0  0  0  0  0  0  0  0  0  0  0
  151.2922  137.8801  153.6575 H   0  0  0  0  0  0  0  0  0  0  0  0
  150.8712  137.6861  155.3769 H   0  0  0  0  0  0  0  0  0  0  0  0
  149.8513  142.0082  154.6075 H   0  0  0  0  0  0  0  0  0  0  0  0
  147.4668  142.5523  154.2056 H   0  0  0  0  0  0  0  0  0  0  0  0
  145.8193  140.7393  153.8242 H   0  0  0  0  0  0  0  0  0  0  0  0
  146.4849  137.5171  152.8517 H   0  0  0  0  0  0  0  0  0  0  0  0
  144.9031  139.1364  153.0211 H   0  0  0  0  0  0  0  0  0  0  0  0
  146.8943  137.3971  155.7819 H   0  0  0  0  0  0  0  0  0  0  0  0
  145.3486  136.7593  155.3213 H   0  0  0  0  0  0  0  0  0  0  0  0
  146.5273  131.2276  152.3626 H   0  0  0  0  0  0  0  0  0  0  0  0
  145.0430  130.5688  150.3854 H   0  0  0  0  0  0  0  0  0  0  0  0
  143.5703  131.6383  148.4751 H   0  0  0  0  0  0  0  0  0  0  0  0
  144.0391  133.2921  148.0822 H   0  0  0  0  0  0  0  0  0  0  0  0
  142.6725  132.9944  149.1585 H   0  0  0  0  0  0  0  0  0  0  0  0
  148.3381  132.3715  153.3196 H   0  0  0  0  0  0  0  0  0  0  0  0
  149.4298  133.5001  155.1486 H   0  0  0  0  0  0  0  0  0  0  0  0
  148.9362  137.8034  154.2044 H   0  0  0  0  0  0  0  0  0  0  0  0
  1  2  1  0  0  0  0
  1 25  1  0  0  0  0
  1 26  1  0  0  0  0
  1 27  1  0  0  0  0
  2  3  1  0  0  0  0
  3 24  1  0  0  0  0
  3  4  2  0  0  0  0
  4  5  1  0  0  0  0
  4 28  1  0  0  0  0
  5  6  2  0  0  0  0
  5 29  1  0  0  0  0
  6  7  1  0  0  0  0
  6 30  1  0  0  0  0
  7  8  1  0  0  0  0
  7 24  2  0  0  0  0
  8  9  1  0  0  0  0
  8 10  1  0  0  0  0
  8 31  1  0  0  0  0
  9 32  1  0  0  0  0
 10 11  1  0  0  0  0
 10 33  1  0  0  0  0
 10 34  1  0  0  0  0
 11 22  1  0  0  0  0
 11 12  1  0  0  0  0
 12 13  2  0  0  0  0
 13 14  1  0  0  0  0
 13 20  1  0  0  0  0
 14 19  1  0  0  0  0
 14 15  2  0  0  0  0
 15 16  1  0  0  0  0
 15 35  1  0  0  0  0
 16 17  2  0  0  0  0
 16 36  1  0  0  0  0
 17 18  1  0  0  0  0
 17 19  1  0  0  0  0
 18 37  1  0  0  0  0
 18 38  1  0  0  0  0
 18 39  1  0  0  0  0
 20 21  2  0  0  0  0
 20 40  1  0  0  0  0
 21 22  1  0  0  0  0
 21 41  1  0  0  0  0
 22 23  2  0  0  0  0
 24 42  1  0  0  0  0
M  END
> <s_m_source_file>
AV-unprocessed.smi

> <i_m_source_file_index>
2644

> <i_lp_mmshare_version>
43012

> <i_f3d_flags>
0

> <s_epik_input>
W0NIM11PYzFbY0hdW2NIXVtjSF1jKFtjSF0xKVtDQEhdKFtPSF0pW0NIMl1uMm5jKFtjSF1bY0hdYzI9TyktYzNbY0hdW2NIXWMoczMpW0NIM10=

> <s_epik_cmdline>
J2VwaWtfcHl0aG9uJywgJy1waCcsICc3LjAnLCAnLXRuJywgJzgnLCAnLW1hJywgJzIwMCcsICctbWV0YWxfYmluZGluZycsICctaW1hZScsICc8aW5maWxlLm1hZT4nLCAnLW9tYWUnLCAnPG91dGZpbGUubWFlPic=

> <r_lp_tautomer_probability>
1

> <r_epik_Ionization_Penalty>
1.30631e-07

> <r_epik_Ionization_Penalty_Charging>
5.89185e-08

> <r_epik_Ionization_Penalty_Neutral>
7.1713e-08

> <r_epik_State_Penalty>
-0

> <r_epik_Charging_Adjusted_Penalty>
5.89185e-08

> <i_epik_Tot_Q>
0

> <i_epik_Tot_abs_Q>
0

> <r_epik_Metal_State_Penalty>
-0

> <b_epik_Metal_Only>
0

> <s_lp_Force_Field>
OPLS_2005

> <r_lp_Energy>
28.4714

> <b_lp_Chiralities_Consistent>
1

> <s_lp_Variant>
AV-unprocessed.smi:2644-1

> <Gold.Version>
5.8.1

> <Gold.Id.Protein>
6NUR|6NUR_protein|mol2

> <Gold.PLP.Fitness>
47.3222

> <Gold.PLP.PLP>
-43.8545

> <Gold.PLP.part.hbond>
-2.0000

> <Gold.PLP.part.metal>
0.0000

> <Gold.PLP.part.buried>
-4.2105

> <Gold.PLP.part.nonpolar>
-37.6464

> <Gold.PLP.part.repulsive>
0.7271

> <Gold.PLP.ligand.clash>
0.0000

> <Gold.PLP.ligand.torsion>
1.0054

> <Gold.PLP.Chemscore.Hbond>
1.7840

> <Gold.PLP.Chemscore.CHOScore>
0.0000

> <Gold.PLP.Chemscore.Metal>
0.0000

> <Gold.Chemscore.Hbonds>
donor molecule, donor type, donor heavy atom, donor atom, acceptor molecule, acceptor atom, score
      L1  H     9    32       P1 10175  0.72
      P1  H  7989  7998       L1     2  0.95

> <Gold.PLP.Chemscore.Internal.Correction>
0.1265

> <Gold.Rescore>
     Score         DG    S(hbond)    S(metal)    S(lipo)     H(rot)  DE(clash)    DE(int)     intcor
     17.12     -18.46       1.14        0.00     121.77       1.98       0.30       1.04       ----

> <Gold.Chemscore.Fitness>
17.1158

> <Gold.Chemscore.DG>
-18.4626

> <Gold.Chemscore.ZeroCoef>
-5.4800

> <Gold.Chemscore.Hbond>
1.1373

> <Gold.Chemscore.Metal>
0.0000

> <Gold.Chemscore.Lipo>
121.7685

> <Gold.Chemscore.Internal_Hbond>
0.0000

> <Gold.Chemscore.DEClash>
0.3023

> <Gold.Chemscore.DEInternal>
1.0445

> <Gold.Chemscore.Rot>
1.9777

> <Gold.Chemscore.Internal.Correction>
   9.000000E+99

> <Gold.Chemscore.Hbonds>
donor molecule, donor type, donor heavy atom, donor atom, acceptor molecule, acceptor atom, score
      L1  H     9    32       P1 10175  0.72
      P1  H  7989  7998       L1     2  0.21

> <Gold.Chemscore.Hbond.Weighted>
-3.7986

> <Gold.Chemscore.Metal.Weighted>
-0.0000

> <Gold.Chemscore.Lipo.Weighted>
-14.2469

> <Gold.Chemscore.Internal_Hbond.Weighted>
0.0000

> <Gold.Chemscore.DEClash.Weighted>
0.3023

> <Gold.Chemscore.DEInternal.Weighted>
1.0445

> <Gold.Chemscore.Rot.Weighted>
5.0629

> <Gold.Chemscore.Internal.Correction.Weighted>
   9.000000E+99

> <Gold.Protein.RotatedTorsions>
[ 6907 6896 6895 6894 ] final -168.95 input  -60.11 | X-H torsion
[ 7974 7965 7964 7962 ] final   52.75 input  175.53 | X-H torsion
[ 8008 7997 7996 7995 ] final -122.60 input   59.86 | X-H torsion
[ 10167 10162 10161 10158 ] final  122.59 input  -65.29 | X-H torsion
[ 10718 10713 10712 10709 ] final -154.41 input   66.30 | X-H torsion
[ 10763 10752 10751 10750 ] final  127.40 input  -60.55 | X-H torsion
[ 11005 11000 10999 10996 ] final  -87.50 input  -57.11 | X-H torsion

> <Gold.Protein.ActiveResidues>
 VAL166  LYS551  ARG553  GLY616  TRP617  ASP618  TYR619  PRO620  LYS621  CYS622 
 ASP623  PHE694  ASN695  SER759  ASP760  ASP761  ALA762  ILE779  LEU786  VAL792 
 PHE793  MET794  SER795  GLU796  ALA797  LYS798  CYS799  TRP800  GLU811  SER814 

> <Gold.Protein.RotatedAtoms>
  151.4839  133.3540  159.2842 H   0  0  0  0  0  0  0  0  0  0  0  0  # atno 6907 bound_to 6896
  150.8879  134.8281  159.7283 H   0  0  0  0  0  0  0  0  0  0  0  0  # atno 6908 bound_to 6896
  152.4805  134.4745  159.9698 H   0  0  0  0  0  0  0  0  0  0  0  0  # atno 6909 bound_to 6896
  145.9782  139.4215  143.0148 H   0  0  0  0  0  0  0  0  0  0  0  0  # atno 7974 bound_to 7965
  155.1669  140.0407  157.2855 H   0  0  0  0  0  0  0  0  0  0  0  0  # atno 8008 bound_to 7997
  154.6296  140.2521  155.7422 H   0  0  0  0  0  0  0  0  0  0  0  0  # atno 8009 bound_to 7997
  156.2478  140.2878  156.0642 H   0  0  0  0  0  0  0  0  0  0  0  0  # atno 8010 bound_to 7997
  139.5850  144.7002  151.3433 H   0  0  0  0  0  0  0  0  0  0  0  0  # atno 10167 bound_to 10162
  156.4989  130.8382  151.2601 H   0  0  0  0  0  0  0  0  0  0  0  0  # atno 10718 bound_to 10713
  153.7088  135.3271  155.3241 H   0  0  0  0  0  0  0  0  0  0  0  0  # atno 10763 bound_to 10752
  154.8391  135.4472  154.1335 H   0  0  0  0  0  0  0  0  0  0  0  0  # atno 10764 bound_to 10752
  153.2423  135.6972  153.7848 H   0  0  0  0  0  0  0  0  0  0  0  0  # atno 10765 bound_to 10752
  141.1616  133.7515  156.9315 H   0  0  0  0  0  0  0  0  0  0  0  0  # atno 11005 bound_to 11000
  145.7808  140.9857  143.1100 LP  0  0  0  0  0  0  0  0  0  0  0  0  # atno 17320 bound_to 7965
  144.6854  139.9562  143.7479 LP  0  0  0  0  0  0  0  0  0  0  0  0  # atno 17321 bound_to 7965
  140.7123  143.7359  150.7589 LP  0  0  0  0  0  0  0  0  0  0  0  0  # atno 17342 bound_to 10162
  140.0901  143.4886  152.2483 LP  0  0  0  0  0  0  0  0  0  0  0  0  # atno 17343 bound_to 10162
  157.7465  130.9988  150.2867 LP  0  0  0  0  0  0  0  0  0  0  0  0  # atno 17370 bound_to 10713
  156.3352  130.3806  149.7456 LP  0  0  0  0  0  0  0  0  0  0  0  0  # atno 17371 bound_to 10713
  140.1383  134.9310  157.2432 LP  0  0  0  0  0  0  0  0  0  0  0  0  # atno 17394 bound_to 11000
  140.2868  134.3286  155.7326 LP  0  0  0  0  0  0  0  0  0  0  0  0  # atno 17395 bound_to 11000

$$$$
