AV-unprocessed.smi:1723|AV-procd|sdf|6947|dock3
  -GOLD-   22720 8153D 1   1.00000     0.00000
 Structure written by MMmdl.
 37 37  0  0  0  0  0  0  0  0  2 V2000
  146.8752  142.0165  154.5639 C   0  0  0  0  0  0  0  0  0  0  0  0
  146.9262  140.7794  153.6606 C   0  0  0  0  0  0  0  0  0  0  0  0
  147.5190  139.5535  154.3724 C   0  0  0  0  0  0  0  0  0  0  0  0
  149.0417  139.6369  154.5348 C   0  0  0  0  0  0  0  0  0  0  0  0
  149.4780  138.5803  155.3829 O   0  0  0  0  0  0  0  0  0  0  0  0
  150.8763  138.3072  155.3488 C   0  0  2  0  0  0  0  0  0  0  0  0
  151.1168  137.0257  156.1600 C   0  0  0  0  0  0  0  0  0  0  0  0
  151.6639  139.4919  155.9315 C   0  0  0  0  0  0  0  0  0  0  0  0
  152.4190  140.1311  155.1994 O   0  0  0  0  0  0  0  0  0  0  0  0
  151.4747  139.7167  157.2468 N   0  0  0  0  0  0  0  0  0  0  0  0
  152.0300  140.6994  158.0847 C   0  0  0  0  0  0  0  0  0  0  0  0
  151.4291  141.8757  158.4182 C   0  0  0  0  0  0  0  0  0  0  0  0
  152.0580  142.8515  159.2994 C   0  0  0  0  0  0  0  0  0  0  0  0
  151.3835  144.1354  159.7500 C   0  0  0  0  0  0  0  0  0  0  0  0
  151.3647  144.2287  161.0800 F   0  0  0  0  0  0  0  0  0  0  0  0
  152.0443  145.1871  159.2687 F   0  0  0  0  0  0  0  0  0  0  0  0
  150.1277  144.1957  159.3065 F   0  0  0  0  0  0  0  0  0  0  0  0
  153.2883  142.4251  159.7606 C   0  0  0  0  0  0  0  0  0  0  0  0
  153.9556  141.2859  159.4744 N   0  5  0  0  0  0  0  0  0  0  0  0
  153.3620  140.3846  158.6422 C   0  0  0  0  0  0  0  0  0  0  0  0
  153.9105  139.3217  158.3483 O   0  0  0  0  0  0  0  0  0  0  0  0
  146.4515  142.8685  154.0322 H   0  0  0  0  0  0  0  0  0  0  0  0
  147.8725  142.2982  154.9025 H   0  0  0  0  0  0  0  0  0  0  0  0
  146.2600  141.8358  155.4457 H   0  0  0  0  0  0  0  0  0  0  0  0
  145.9194  140.5482  153.3111 H   0  0  0  0  0  0  0  0  0  0  0  0
  147.5149  141.0093  152.7718 H   0  0  0  0  0  0  0  0  0  0  0  0
  147.0545  139.4307  155.3515 H   0  0  0  0  0  0  0  0  0  0  0  0
  147.2742  138.6570  153.8018 H   0  0  0  0  0  0  0  0  0  0  0  0
  149.5199  139.5401  153.5592 H   0  0  0  0  0  0  0  0  0  0  0  0
  149.3152  140.6141  154.9344 H   0  0  0  0  0  0  0  0  0  0  0  0
  151.1848  138.1230  154.3178 H   0  0  0  0  0  0  0  0  0  0  0  0
  152.1766  136.7700  156.1919 H   0  0  0  0  0  0  0  0  0  0  0  0
  150.5879  136.1825  155.7152 H   0  0  0  0  0  0  0  0  0  0  0  0
  150.7648  137.1285  157.1874 H   0  0  0  0  0  0  0  0  0  0  0  0
  150.8640  139.0686  157.7233 H   0  0  0  0  0  0  0  0  0  0  0  0
  150.4502  142.1262  158.0463 H   0  0  0  0  0  0  0  0  0  0  0  0
  153.8150  143.0993  160.4692 H   0  0  0  0  0  0  0  0  0  0  0  0
  1  2  1  0  0  0  0
  1 22  1  0  0  0  0
  1 23  1  0  0  0  0
  1 24  1  0  0  0  0
  2  3  1  0  0  0  0
  2 25  1  0  0  0  0
  2 26  1  0  0  0  0
  3  4  1  0  0  0  0
  3 27  1  0  0  0  0
  3 28  1  0  0  0  0
  4  5  1  0  0  0  0
  4 29  1  0  0  0  0
  4 30  1  0  0  0  0
  5  6  1  0  0  0  0
  6  7  1  0  0  0  0
  6  8  1  0  0  0  0
  6 31  1  0  0  0  0
  7 32  1  0  0  0  0
  7 33  1  0  0  0  0
  7 34  1  0  0  0  0
  8  9  2  0  0  0  0
  8 10  1  0  0  0  0
 10 11  1  0  0  0  0
 10 35  1  0  0  0  0
 11 20  1  0  0  0  0
 11 12  2  0  0  0  0
 12 13  1  0  0  0  0
 12 36  1  0  0  0  0
 13 14  1  0  0  0  0
 13 18  2  0  0  0  0
 14 15  1  0  0  0  0
 14 16  1  0  0  0  0
 14 17  1  0  0  0  0
 18 19  1  0  0  0  0
 18 37  1  0  0  0  0
 19 20  1  0  0  0  0
 20 21  2  0  0  0  0
M  CHG  1  19  -1
M  END
> <s_m_source_file>
AV-unprocessed.smi

> <i_m_source_file_index>
1723

> <i_lp_mmshare_version>
43012

> <i_f3d_flags>
0

> <s_epik_input>
W0NIM11bQ0gyXVtDSDJdW0NIMl1PW0NASF0oW0NIM10pQyg9TylbTkhdYzFbY0hdYyhDKEYpKEYpRilbY0hdW25IXWMxPU8=

> <s_epik_cmdline>
J2VwaWtfcHl0aG9uJywgJy1waCcsICc3LjAnLCAnLXRuJywgJzgnLCAnLW1hJywgJzIwMCcsICctbWV0YWxfYmluZGluZycsICctaW1hZScsICc8aW5maWxlLm1hZT4nLCAnLW9tYWUnLCAnPG91dGZpbGUubWFlPic=

> <r_lp_tautomer_probability>
0.999

> <r_epik_Ionization_Penalty>
2.64397

> <r_epik_Ionization_Penalty_Charging>
0.0618254

> <r_epik_Ionization_Penalty_Neutral>
2.58215

> <r_epik_State_Penalty>
2.58023

> <r_epik_Charging_Adjusted_Penalty>
2.64205

> <i_epik_Tot_Q>
-1

> <i_epik_Tot_abs_Q>
1

> <r_epik_Metal_State_Penalty>
0.429101

> <b_epik_Metal_Only>
1

> <s_lp_Force_Field>
OPLS_2005

> <r_lp_Energy>
21.4098

> <b_lp_Chiralities_Consistent>
1

> <s_lp_Variant>
AV-unprocessed.smi:1723-3

> <Gold.Version>
5.8.1

> <Gold.Id.Protein>
6NUR|6NUR_protein|mol2

> <Gold.PLP.Fitness>
45.2931

> <Gold.PLP.PLP>
-41.6602

> <Gold.PLP.part.hbond>
-3.0000

> <Gold.PLP.part.metal>
0.0000

> <Gold.PLP.part.buried>
-3.3341

> <Gold.PLP.part.nonpolar>
-34.9270

> <Gold.PLP.part.repulsive>
0.1459

> <Gold.PLP.ligand.clash>
0.0000

> <Gold.PLP.ligand.torsion>
1.1440

> <Gold.PLP.Chemscore.Hbond>
1.9093

> <Gold.PLP.Chemscore.CHOScore>
0.0000

> <Gold.PLP.Chemscore.Metal>
0.0000

> <Gold.Chemscore.Hbonds>
donor molecule, donor type, donor heavy atom, donor atom, acceptor molecule, acceptor atom, score
      P1  H  7989  7998       L1     9  0.59
      P1  H  7997  8008       L1    21  0.67
      P1  H  7997  8009       L1     9  0.63

> <Gold.PLP.Chemscore.Internal.Correction>
0.1931

> <Gold.Rescore>
     Score         DG    S(hbond)    S(metal)    S(lipo)     H(rot)  DE(clash)    DE(int)     intcor
     14.21     -15.78       1.72        0.00      81.61       1.95       0.62       0.95       ----

> <Gold.Chemscore.Fitness>
14.2099

> <Gold.Chemscore.DG>
-15.7814

> <Gold.Chemscore.ZeroCoef>
-5.4800

> <Gold.Chemscore.Hbond>
1.7206

> <Gold.Chemscore.Metal>
0.0000

> <Gold.Chemscore.Lipo>
81.6118

> <Gold.Chemscore.Internal_Hbond>
0.0000

> <Gold.Chemscore.DEClash>
0.6227

> <Gold.Chemscore.DEInternal>
0.9488

> <Gold.Chemscore.Rot>
1.9507

> <Gold.Chemscore.Internal.Correction>
   9.000000E+99

> <Gold.Chemscore.Hbonds>
donor molecule, donor type, donor heavy atom, donor atom, acceptor molecule, acceptor atom, score
      P1  H  7989  7998       L1     9  0.56
      P1  H  7997  8008       L1    21  0.11
      P1  H  7997  8009       L1     9  0.57

> <Gold.Chemscore.Hbond.Weighted>
-5.7467

> <Gold.Chemscore.Metal.Weighted>
-0.0000

> <Gold.Chemscore.Lipo.Weighted>
-9.5486

> <Gold.Chemscore.Internal_Hbond.Weighted>
0.0000

> <Gold.Chemscore.DEClash.Weighted>
0.6227

> <Gold.Chemscore.DEInternal.Weighted>
0.9488

> <Gold.Chemscore.Rot.Weighted>
4.9939

> <Gold.Chemscore.Internal.Correction.Weighted>
   9.000000E+99

> <Gold.Protein.RotatedTorsions>
[ 6907 6896 6895 6894 ] final -152.34 input  -60.11 | X-H torsion
[ 7974 7965 7964 7962 ] final   54.13 input  175.53 | X-H torsion
[ 8008 7997 7996 7995 ] final -126.98 input   59.86 | X-H torsion
[ 10167 10162 10161 10158 ] final   72.09 input  -65.29 | X-H torsion
[ 10718 10713 10712 10709 ] final -143.94 input   66.30 | X-H torsion
[ 10763 10752 10751 10750 ] final  127.09 input  -60.55 | X-H torsion
[ 11005 11000 10999 10996 ] final  135.75 input  -57.11 | X-H torsion

> <Gold.Protein.ActiveResidues>
 VAL166  LYS551  ARG553  GLY616  TRP617  ASP618  TYR619  PRO620  LYS621  CYS622 
 ASP623  PHE694  ASN695  SER759  ASP760  ASP761  ALA762  ILE779  LEU786  VAL792 
 PHE793  MET794  SER795  GLU796  ALA797  LYS798  CYS799  TRP800  GLU811  SER814 

> <Gold.Protein.RotatedAtoms>
  151.2263  133.4474  159.2602 H   0  0  0  0  0  0  0  0  0  0  0  0  # atno 6907 bound_to 6896
  151.0837  134.9874  159.8378 H   0  0  0  0  0  0  0  0  0  0  0  0  # atno 6908 bound_to 6896
  152.5427  134.2201  159.8837 H   0  0  0  0  0  0  0  0  0  0  0  0  # atno 6909 bound_to 6896
  145.9640  139.4086  143.0231 H   0  0  0  0  0  0  0  0  0  0  0  0  # atno 7974 bound_to 7965
  155.2386  140.0428  157.2972 H   0  0  0  0  0  0  0  0  0  0  0  0  # atno 8008 bound_to 7997
  154.5843  140.2409  155.7980 H   0  0  0  0  0  0  0  0  0  0  0  0  # atno 8009 bound_to 7997
  156.2215  140.2968  155.9972 H   0  0  0  0  0  0  0  0  0  0  0  0  # atno 8010 bound_to 7997
  140.0391  144.5404  150.7448 H   0  0  0  0  0  0  0  0  0  0  0  0  # atno 10167 bound_to 10162
  156.3640  130.7753  151.1925 H   0  0  0  0  0  0  0  0  0  0  0  0  # atno 10718 bound_to 10713
  153.7038  135.3279  155.3231 H   0  0  0  0  0  0  0  0  0  0  0  0  # atno 10763 bound_to 10752
  154.8405  135.4460  154.1384 H   0  0  0  0  0  0  0  0  0  0  0  0  # atno 10764 bound_to 10752
  153.2458  135.6976  153.7811 H   0  0  0  0  0  0  0  0  0  0  0  0  # atno 10765 bound_to 10752
  140.0000  134.9482  157.0051 H   0  0  0  0  0  0  0  0  0  0  0  0  # atno 11005 bound_to 11000
  145.8000  140.9775  143.1004 LP  0  0  0  0  0  0  0  0  0  0  0  0  # atno 17320 bound_to 7965
  144.6821  139.9789  143.7483 LP  0  0  0  0  0  0  0  0  0  0  0  0  # atno 17321 bound_to 7965
  140.7268  143.2645  151.4091 LP  0  0  0  0  0  0  0  0  0  0  0  0  # atno 17342 bound_to 10162
  139.6026  144.1264  152.2214 LP  0  0  0  0  0  0  0  0  0  0  0  0  # atno 17343 bound_to 10162
  157.7477  131.0391  150.4537 LP  0  0  0  0  0  0  0  0  0  0  0  0  # atno 17370 bound_to 10713
  156.4753  130.4061  149.6494 LP  0  0  0  0  0  0  0  0  0  0  0  0  # atno 17371 bound_to 10713
  140.4745  134.1352  155.7208 LP  0  0  0  0  0  0  0  0  0  0  0  0  # atno 17394 bound_to 11000
  141.1634  133.8748  157.1782 LP  0  0  0  0  0  0  0  0  0  0  0  0  # atno 17395 bound_to 11000

$$$$
