AV-unprocessed.smi:527|AV-procd|sdf|2826|dock7
  -GOLD-   2262023313D 1   1.00000     0.00000
 Structure written by MMmdl.
 43 44  0  0  0  0  0  0  0  0  2 V2000
  145.1551  131.0485  151.7506 C   0  0  0  0  0  0  0  0  0  0  0  0
  145.7806  131.9259  150.6467 C   0  0  1  0  0  0  0  0  0  0  0  0
  144.7454  132.3063  149.5689 C   0  0  0  0  0  0  0  0  0  0  0  0
  143.7384  133.3511  150.0748 C   0  0  0  0  0  0  0  0  0  0  0  0
  144.4543  134.6033  150.5998 C   0  0  0  0  0  0  0  0  0  0  0  0
  145.4974  134.2598  151.6846 C   0  0  2  0  0  0  0  0  0  0  0  0
  146.2040  135.4740  152.0898 N   0  0  0  0  0  0  0  0  0  0  0  0
  145.6465  136.5296  152.7015 C   0  0  0  0  0  0  0  0  0  0  0  0
  144.4323  136.6439  152.8829 O   0  0  0  0  0  0  0  0  0  0  0  0
  146.5839  137.4217  153.0772 N   0  0  0  0  0  0  0  0  0  0  0  0
  146.4689  138.3910  154.0079 C   0  0  0  0  0  0  0  0  0  0  0  0
  145.4555  138.6114  154.6764 O   0  0  0  0  0  0  0  0  0  0  0  0
  147.7250  139.2503  154.2022 C   0  0  0  0  0  0  0  0  0  0  0  0
  147.4332  140.6881  154.2754 N   0  0  0  0  0  0  0  0  0  0  0  0
  146.2802  141.3236  153.8897 C   0  0  0  0  0  0  0  0  0  0  0  0
  146.4704  142.6597  154.1320 C   0  0  0  0  0  0  0  0  0  0  0  0
  147.7295  142.7836  154.6555 N   0  3  0  0  0  0  0  0  0  0  0  0
  148.3136  141.5840  154.7419 C   0  0  0  0  0  0  0  0  0  0  0  0
  146.5028  133.1945  151.1747 C   0  0  1  0  0  0  0  0  0  0  0  0
  147.5996  132.8597  152.2051 C   0  0  0  0  0  0  0  0  0  0  0  0
  144.4195  131.5916  152.3428 H   0  0  0  0  0  0  0  0  0  0  0  0
  145.9115  130.6644  152.4344 H   0  0  0  0  0  0  0  0  0  0  0  0
  144.6519  130.1830  151.3188 H   0  0  0  0  0  0  0  0  0  0  0  0
  146.5312  131.3055  150.1550 H   0  0  0  0  0  0  0  0  0  0  0  0
  145.2657  132.7079  148.6981 H   0  0  0  0  0  0  0  0  0  0  0  0
  144.2177  131.4180  149.2202 H   0  0  0  0  0  0  0  0  0  0  0  0
  143.0570  133.6268  149.2697 H   0  0  0  0  0  0  0  0  0  0  0  0
  143.1192  132.9233  150.8636 H   0  0  0  0  0  0  0  0  0  0  0  0
  144.9435  135.1110  149.7671 H   0  0  0  0  0  0  0  0  0  0  0  0
  143.7163  135.3029  150.9942 H   0  0  0  0  0  0  0  0  0  0  0  0
  144.9783  133.8528  152.5539 H   0  0  0  0  0  0  0  0  0  0  0  0
  147.1947  135.5025  151.8985 H   0  0  0  0  0  0  0  0  0  0  0  0
  147.4748  137.3566  152.6072 H   0  0  0  0  0  0  0  0  0  0  0  0
  148.2297  138.9617  155.1253 H   0  0  0  0  0  0  0  0  0  0  0  0
  148.4222  139.0817  153.3798 H   0  0  0  0  0  0  0  0  0  0  0  0
  145.4338  140.7925  153.4785 H   0  0  0  0  0  0  0  0  0  0  0  0
  145.8219  143.5093  153.9738 H   0  0  0  0  0  0  0  0  0  0  0  0
  149.3032  141.3809  155.1106 H   0  0  0  0  0  0  0  0  0  0  0  0
  147.0185  133.6301  150.3169 H   0  0  0  0  0  0  0  0  0  0  0  0
  147.1733  132.5351  153.1544 H   0  0  0  0  0  0  0  0  0  0  0  0
  148.2325  133.7230  152.4106 H   0  0  0  0  0  0  0  0  0  0  0  0
  148.2506  132.0645  151.8406 H   0  0  0  0  0  0  0  0  0  0  0  0
  148.1604  143.6562  154.9343 H   0  0  0  0  0  0  0  0  0  0  0  0
  1  2  1  0  0  0  0
  1 21  1  0  0  0  0
  1 22  1  0  0  0  0
  1 23  1  0  0  0  0
  2 19  1  0  0  0  0
  2  3  1  0  0  0  0
  2 24  1  0  0  0  0
  3  4  1  0  0  0  0
  3 25  1  0  0  0  0
  3 26  1  0  0  0  0
  4  5  1  0  0  0  0
  4 27  1  0  0  0  0
  4 28  1  0  0  0  0
  5  6  1  0  0  0  0
  5 29  1  0  0  0  0
  5 30  1  0  0  0  0
  6  7  1  0  0  0  0
  6 19  1  0  0  0  0
  6 31  1  0  0  0  0
  7  8  1  0  0  0  0
  7 32  1  0  0  0  0
  8  9  2  0  0  0  0
  8 10  1  0  0  0  0
 10 11  1  0  0  0  0
 10 33  1  0  0  0  0
 11 12  2  0  0  0  0
 11 13  1  0  0  0  0
 13 14  1  0  0  0  0
 13 34  1  0  0  0  0
 13 35  1  0  0  0  0
 14 18  1  0  0  0  0
 14 15  1  0  0  0  0
 15 16  2  0  0  0  0
 15 36  1  0  0  0  0
 16 17  1  0  0  0  0
 16 37  1  0  0  0  0
 17 18  2  0  0  0  0
 17 43  1  0  0  0  0
 18 38  1  0  0  0  0
 19 20  1  0  0  0  0
 19 39  1  0  0  0  0
 20 40  1  0  0  0  0
 20 41  1  0  0  0  0
 20 42  1  0  0  0  0
M  CHG  1  17   1
M  END
> <s_m_source_file>
AV-unprocessed.smi

> <i_m_source_file_index>
527

> <i_lp_mmshare_version>
43012

> <i_f3d_flags>
0

> <s_epik_input>
W0NIM11bQ0BASF0xW0NIMl1bQ0gyXVtDSDJdW0NASF0oW0NASF0xW0NIM10pW05IXUMoPU8pW05IXUMoPU8pW0NIMl1uMltjSF1bY0hdbltjSF0y

> <s_epik_cmdline>
J2VwaWtfcHl0aG9uJywgJy1waCcsICc3LjAnLCAnLXRuJywgJzgnLCAnLW1hJywgJzIwMCcsICctbWV0YWxfYmluZGluZycsICctaW1hZScsICc8aW5maWxlLm1hZT4nLCAnLW9tYWUnLCAnPG91dGZpbGUubWFlPic=

> <r_lp_tautomer_probability>
1

> <r_epik_Ionization_Penalty>
0.816441

> <r_epik_Ionization_Penalty_Charging>
0

> <r_epik_Ionization_Penalty_Neutral>
0.816441

> <r_epik_State_Penalty>
0.849034

> <r_epik_Charging_Adjusted_Penalty>
0.849034

> <i_epik_Tot_Q>
1

> <i_epik_Tot_abs_Q>
1

> <r_epik_Metal_State_Penalty>
0.984327

> <b_epik_Metal_Only>
0

> <s_lp_Force_Field>
OPLS_2005

> <r_lp_Energy>
18.63

> <b_lp_Chiralities_Consistent>
1

> <s_lp_Variant>
AV-unprocessed.smi:527-12

> <Gold.Version>
5.8.1

> <Gold.Id.Protein>
6NUR|6NUR_protein|mol2

> <Gold.PLP.Fitness>
49.0075

> <Gold.PLP.PLP>
-35.2167

> <Gold.PLP.part.hbond>
-2.7869

> <Gold.PLP.part.metal>
0.0000

> <Gold.PLP.part.buried>
-2.9805

> <Gold.PLP.part.nonpolar>
-30.6995

> <Gold.PLP.part.repulsive>
1.5218

> <Gold.PLP.ligand.clash>
0.0000

> <Gold.PLP.ligand.torsion>
0.5284

> <Gold.PLP.Chemscore.Hbond>
3.9440

> <Gold.PLP.Chemscore.CHOScore>
1.0000

> <Gold.PLP.Chemscore.Metal>
0.0000

> <Gold.Chemscore.Hbonds>
donor molecule, donor type, donor heavy atom, donor atom, acceptor molecule, acceptor atom, score
      L1  H     7    32       P1  7948  1.00
      L1  H    10    33       P1  7948  1.00
      L1  H    17    43       P1  8028  1.53
      L1  C    15    36       P1 10175  1.00

> <Gold.PLP.Chemscore.Internal.Correction>
0.0156

> <Gold.Rescore>
     Score         DG    S(hbond)    S(metal)    S(lipo)     H(rot)  DE(clash)    DE(int)     intcor
     16.20     -20.35       2.78        0.00      85.07       1.71       1.09       3.06       ----

> <Gold.Chemscore.Fitness>
16.1975

> <Gold.Chemscore.DG>
-20.3466

> <Gold.Chemscore.ZeroCoef>
-5.4800

> <Gold.Chemscore.Hbond>
2.7781

> <Gold.Chemscore.Metal>
0.0000

> <Gold.Chemscore.Lipo>
85.0695

> <Gold.Chemscore.Internal_Hbond>
0.0000

> <Gold.Chemscore.DEClash>
1.0926

> <Gold.Chemscore.DEInternal>
3.0565

> <Gold.Chemscore.Rot>
1.7052

> <Gold.Chemscore.Internal.Correction>
   9.000000E+99

> <Gold.Chemscore.Hbonds>
donor molecule, donor type, donor heavy atom, donor atom, acceptor molecule, acceptor atom, score
      L1  H     7    32       P1  7948  0.99
      L1  H    10    33       P1  7948  0.91
      L1  H    17    43       P1  8028  0.63

> <Gold.Chemscore.Hbond.Weighted>
-9.2788

> <Gold.Chemscore.Metal.Weighted>
-0.0000

> <Gold.Chemscore.Lipo.Weighted>
-9.9531

> <Gold.Chemscore.Internal_Hbond.Weighted>
0.0000

> <Gold.Chemscore.DEClash.Weighted>
1.0926

> <Gold.Chemscore.DEInternal.Weighted>
3.0565

> <Gold.Chemscore.Rot.Weighted>
4.3653

> <Gold.Chemscore.Internal.Correction.Weighted>
   9.000000E+99

> <Gold.Protein.RotatedTorsions>
[ 6907 6896 6895 6894 ] final  -30.74 input  -60.11 | X-H torsion
[ 7974 7965 7964 7962 ] final   69.10 input  175.53 | X-H torsion
[ 8008 7997 7996 7995 ] final  115.05 input   59.86 | X-H torsion
[ 10167 10162 10161 10158 ] final   78.54 input  -65.29 | X-H torsion
[ 10718 10713 10712 10709 ] final  -38.16 input   66.30 | X-H torsion
[ 10763 10752 10751 10750 ] final  -25.43 input  -60.55 | X-H torsion
[ 11005 11000 10999 10996 ] final  167.54 input  -57.11 | X-H torsion

> <Gold.Protein.ActiveResidues>
 VAL166  LYS551  ARG553  GLY616  TRP617  ASP618  TYR619  PRO620  LYS621  CYS622 
 ASP623  PHE694  ASN695  SER759  ASP760  ASP761  ALA762  ILE779  LEU786  VAL792 
 PHE793  MET794  SER795  GLU796  ALA797  LYS798  CYS799  TRP800  GLU811  SER814 

> <Gold.Protein.RotatedAtoms>
  151.1014  134.9974  159.8450 H   0  0  0  0  0  0  0  0  0  0  0  0  # atno 6907 bound_to 6896
  152.5437  134.1945  159.8697 H   0  0  0  0  0  0  0  0  0  0  0  0  # atno 6908 bound_to 6896
  151.1989  133.4578  159.2629 H   0  0  0  0  0  0  0  0  0  0  0  0  # atno 6909 bound_to 6896
  145.7946  139.2951  143.1190 H   0  0  0  0  0  0  0  0  0  0  0  0  # atno 7974 bound_to 7965
  156.2358  140.2946  156.0310 H   0  0  0  0  0  0  0  0  0  0  0  0  # atno 8008 bound_to 7997
  155.2094  140.0412  157.2948 H   0  0  0  0  0  0  0  0  0  0  0  0  # atno 8009 bound_to 7997
  154.6077  140.2443  155.7717 H   0  0  0  0  0  0  0  0  0  0  0  0  # atno 8010 bound_to 7997
  139.9699  144.5902  150.7995 H   0  0  0  0  0  0  0  0  0  0  0  0  # atno 10167 bound_to 10162
  156.3069  130.4247  149.8088 H   0  0  0  0  0  0  0  0  0  0  0  0  # atno 10718 bound_to 10713
  153.6998  135.6957  153.5066 H   0  0  0  0  0  0  0  0  0  0  0  0  # atno 10763 bound_to 10752
  153.2351  135.4324  155.0636 H   0  0  0  0  0  0  0  0  0  0  0  0  # atno 10764 bound_to 10752
  154.8348  135.3494  154.6537 H   0  0  0  0  0  0  0  0  0  0  0  0  # atno 10765 bound_to 10752
  140.2778  134.7774  157.3732 H   0  0  0  0  0  0  0  0  0  0  0  0  # atno 11005 bound_to 11000
  145.9941  140.8577  143.0051 LP  0  0  0  0  0  0  0  0  0  0  0  0  # atno 17320 bound_to 7965
  144.6777  140.2258  143.7361 LP  0  0  0  0  0  0  0  0  0  0  0  0  # atno 17321 bound_to 7965
  140.7525  143.2992  151.3124 LP  0  0  0  0  0  0  0  0  0  0  0  0  # atno 17342 bound_to 10162
  139.6489  144.0399  152.2612 LP  0  0  0  0  0  0  0  0  0  0  0  0  # atno 17343 bound_to 10162
  156.5445  130.8314  151.3280 LP  0  0  0  0  0  0  0  0  0  0  0  0  # atno 17370 bound_to 10713
  157.7382  130.9809  150.2237 LP  0  0  0  0  0  0  0  0  0  0  0  0  # atno 17371 bound_to 10713
  140.1312  134.5093  155.8104 LP  0  0  0  0  0  0  0  0  0  0  0  0  # atno 17394 bound_to 11000
  141.2167  133.6790  156.7042 LP  0  0  0  0  0  0  0  0  0  0  0  0  # atno 17395 bound_to 11000

$$$$
