AV-unprocessed.smi:2252|AV-procd|sdf|9114|dock3
  -GOLD-   2272012323D 1   1.00000     0.00000
 Structure written by MMmdl.
 44 46  0  0  0  0  0  0  0  0  1 V2000
  150.3535  138.3520  154.8469 C   0  0  0  0  0  0  0  0  0  0  0  0
  149.1426  139.0672  154.4914 N   0  0  0  0  0  0  0  0  0  0  0  0
  148.0035  138.5129  153.9227 C   0  0  0  0  0  0  0  0  0  0  0  0
  147.1035  139.5390  153.7637 C   0  0  0  0  0  0  0  0  0  0  0  0
  147.6674  140.7236  154.2253 N   0  0  0  0  0  0  0  0  0  0  0  0
  148.8841  140.3812  154.6381 C   0  0  0  0  0  0  0  0  0  0  0  0
  149.8585  141.3429  155.2425 C   0  0  0  0  0  0  0  0  0  0  0  0
  150.3570  140.8824  156.6220 C   0  0  0  0  0  0  0  0  0  0  0  0
  151.4806  141.6906  157.0783 N   0  0  0  0  0  0  0  0  0  0  0  0
  151.4929  142.4218  158.2039 C   0  0  0  0  0  0  0  0  0  0  0  0
  150.5331  142.4899  158.9729 O   0  0  0  0  0  0  0  0  0  0  0  0
  152.8009  143.1663  158.5275 C   0  0  1  0  0  0  0  0  0  0  0  0
  152.6473  144.6673  158.1962 C   0  0  0  0  0  0  0  0  0  0  0  0
  151.3165  145.3692  158.3802 C   0  0  0  0  0  0  0  0  0  0  0  0
  151.8459  145.1203  156.9940 C   0  0  0  0  0  0  0  0  0  0  0  0
  153.2315  142.9798  159.9357 N   0  0  0  0  0  0  0  0  0  0  0  0
  152.3070  143.4908  160.9471 C   0  0  0  0  0  0  0  0  0  0  0  0
  152.8039  142.8651  162.2510 C   0  0  0  0  0  0  0  0  0  0  0  0
  153.5547  141.6092  161.8194 C   0  0  0  0  0  0  0  0  0  0  0  0
  153.4140  141.5773  160.2979 C   0  0  0  0  0  0  0  0  0  0  0  0
  150.2045  137.2780  154.7308 H   0  0  0  0  0  0  0  0  0  0  0  0
  150.6176  138.5590  155.8844 H   0  0  0  0  0  0  0  0  0  0  0  0
  151.1710  138.6675  154.1983 H   0  0  0  0  0  0  0  0  0  0  0  0
  147.9276  137.4614  153.6875 H   0  0  0  0  0  0  0  0  0  0  0  0
  146.1023  139.5158  153.3590 H   0  0  0  0  0  0  0  0  0  0  0  0
  150.6953  141.4865  154.5582 H   0  0  0  0  0  0  0  0  0  0  0  0
  149.3732  142.3156  155.3320 H   0  0  0  0  0  0  0  0  0  0  0  0
  149.5549  140.9671  157.3556 H   0  0  0  0  0  0  0  0  0  0  0  0
  150.6431  139.8296  156.5955 H   0  0  0  0  0  0  0  0  0  0  0  0
  152.3126  141.6833  156.5063 H   0  0  0  0  0  0  0  0  0  0  0  0
  153.5725  142.7495  157.8765 H   0  0  0  0  0  0  0  0  0  0  0  0
  153.5214  145.2662  158.4479 H   0  0  0  0  0  0  0  0  0  0  0  0
  150.4646  144.7739  158.7033 H   0  0  0  0  0  0  0  0  0  0  0  0
  151.3374  146.3917  158.7511 H   0  0  0  0  0  0  0  0  0  0  0  0
  152.2218  145.9758  156.4367 H   0  0  0  0  0  0  0  0  0  0  0  0
  151.3524  144.3565  156.3964 H   0  0  0  0  0  0  0  0  0  0  0  0
  152.2987  144.5802  160.9983 H   0  0  0  0  0  0  0  0  0  0  0  0
  151.2922  143.1501  160.7326 H   0  0  0  0  0  0  0  0  0  0  0  0
  153.4805  143.5458  162.7694 H   0  0  0  0  0  0  0  0  0  0  0  0
  151.9775  142.6406  162.9261 H   0  0  0  0  0  0  0  0  0  0  0  0
  154.6052  141.6865  162.1026 H   0  0  0  0  0  0  0  0  0  0  0  0
  153.1516  140.7065  162.2796 H   0  0  0  0  0  0  0  0  0  0  0  0
  152.5342  140.9951  160.0168 H   0  0  0  0  0  0  0  0  0  0  0  0
  154.2855  141.1333  159.8159 H   0  0  0  0  0  0  0  0  0  0  0  0
  1  2  1  0  0  0  0
  1 21  1  0  0  0  0
  1 22  1  0  0  0  0
  1 23  1  0  0  0  0
  2  6  1  0  0  0  0
  2  3  1  0  0  0  0
  3  4  2  0  0  0  0
  3 24  1  0  0  0  0
  4  5  1  0  0  0  0
  4 25  1  0  0  0  0
  5  6  2  0  0  0  0
  6  7  1  0  0  0  0
  7  8  1  0  0  0  0
  7 26  1  0  0  0  0
  7 27  1  0  0  0  0
  8  9  1  0  0  0  0
  8 28  1  0  0  0  0
  8 29  1  0  0  0  0
  9 10  1  0  0  0  0
  9 30  1  0  0  0  0
 10 11  2  0  0  0  0
 10 12  1  0  0  0  0
 12 13  1  0  0  0  0
 12 16  1  0  0  0  0
 12 31  1  0  0  0  0
 13 15  1  0  0  0  0
 13 14  1  0  0  0  0
 13 32  1  0  0  0  0
 14 15  1  0  0  0  0
 14 33  1  0  0  0  0
 14 34  1  0  0  0  0
 15 35  1  0  0  0  0
 15 36  1  0  0  0  0
 16 20  1  0  0  0  0
 16 17  1  0  0  0  0
 17 18  1  0  0  0  0
 17 37  1  0  0  0  0
 17 38  1  0  0  0  0
 18 19  1  0  0  0  0
 18 39  1  0  0  0  0
 18 40  1  0  0  0  0
 19 20  1  0  0  0  0
 19 41  1  0  0  0  0
 19 42  1  0  0  0  0
 20 43  1  0  0  0  0
 20 44  1  0  0  0  0
M  END
> <s_m_source_file>
AV-unprocessed.smi

> <i_m_source_file_index>
2252

> <i_lp_mmshare_version>
43012

> <i_f3d_flags>
0

> <s_epik_input>
W0NIM11uMVtjSF1bY0hdbmMxW0NIMl1bQ0gyXVtOSF1DKD1PKVtDQEhdKFtDSF0yW0NIMl1bQ0gyXTIpTjNbQ0gyXVtDSDJdW0NIMl1bQ0gyXTM=

> <s_epik_cmdline>
J2VwaWtfcHl0aG9uJywgJy1waCcsICc3LjAnLCAnLXRuJywgJzgnLCAnLW1hJywgJzIwMCcsICctbWV0YWxfYmluZGluZycsICctaW1hZScsICc8aW5maWxlLm1hZT4nLCAnLW9tYWUnLCAnPG91dGZpbGUubWFlPic=

> <r_epik_Ionization_Penalty>
3.7689

> <r_epik_Ionization_Penalty_Charging>
1.29411

> <r_epik_Ionization_Penalty_Neutral>
2.4748

> <r_epik_State_Penalty>
3.85943

> <r_epik_Charging_Adjusted_Penalty>
5.15353

> <i_epik_Tot_Q>
0

> <i_epik_Tot_abs_Q>
0

> <r_epik_Metal_State_Penalty>
2.88358

> <b_epik_Metal_Only>
1

> <s_lp_Force_Field>
OPLS_2005

> <r_lp_Energy>
29.995

> <b_lp_Chiralities_Consistent>
1

> <s_lp_Variant>
AV-unprocessed.smi:2252-12

> <Gold.Version>
5.8.1

> <Gold.Id.Protein>
6NUR|6NUR_protein|mol2

> <Gold.PLP.Fitness>
50.9554

> <Gold.PLP.PLP>
-45.8442

> <Gold.PLP.part.hbond>
-1.0000

> <Gold.PLP.part.metal>
0.0000

> <Gold.PLP.part.buried>
-4.3406

> <Gold.PLP.part.nonpolar>
-40.7340

> <Gold.PLP.part.repulsive>
0.2324

> <Gold.PLP.ligand.clash>
0.0000

> <Gold.PLP.ligand.torsion>
1.0041

> <Gold.PLP.Chemscore.Hbond>
0.0000

> <Gold.PLP.Chemscore.CHOScore>
1.9790

> <Gold.PLP.Chemscore.Metal>
0.0000

> <Gold.Chemscore.Hbonds>
donor molecule, donor type, donor heavy atom, donor atom, acceptor molecule, acceptor atom, score
      L1  C     3    24       P1  7948  0.97
      L1  C     4    25       P1 10175  0.45

> <Gold.PLP.Chemscore.Internal.Correction>
1.1824

> <Gold.Rescore>
     Score         DG    S(hbond)    S(metal)    S(lipo)     H(rot)  DE(clash)    DE(int)     intcor
     11.75     -16.23       0.00        0.00     132.60       1.86       1.81       2.67       ----

> <Gold.Chemscore.Fitness>
11.7470

> <Gold.Chemscore.DG>
-16.2274

> <Gold.Chemscore.ZeroCoef>
-5.4800

> <Gold.Chemscore.Hbond>
0.0000

> <Gold.Chemscore.Metal>
0.0000

> <Gold.Chemscore.Lipo>
132.5978

> <Gold.Chemscore.Internal_Hbond>
0.0000

> <Gold.Chemscore.DEClash>
1.8096

> <Gold.Chemscore.DEInternal>
2.6709

> <Gold.Chemscore.Rot>
1.8619

> <Gold.Chemscore.Internal.Correction>
   9.000000E+99

> <Gold.Chemscore.Hbond.Weighted>
-0.0000

> <Gold.Chemscore.Metal.Weighted>
-0.0000

> <Gold.Chemscore.Lipo.Weighted>
-15.5139

> <Gold.Chemscore.Internal_Hbond.Weighted>
0.0000

> <Gold.Chemscore.DEClash.Weighted>
1.8096

> <Gold.Chemscore.DEInternal.Weighted>
2.6709

> <Gold.Chemscore.Rot.Weighted>
4.7665

> <Gold.Chemscore.Internal.Correction.Weighted>
   9.000000E+99

> <Gold.Protein.RotatedTorsions>
[ 6907 6896 6895 6894 ] final   66.92 input  -60.11 | X-H torsion
[ 7974 7965 7964 7962 ] final -112.70 input  175.53 | X-H torsion
[ 8008 7997 7996 7995 ] final    6.39 input   59.86 | X-H torsion
[ 10167 10162 10161 10158 ] final   26.51 input  -65.29 | X-H torsion
[ 10718 10713 10712 10709 ] final -103.38 input   66.30 | X-H torsion
[ 10763 10752 10751 10750 ] final   10.16 input  -60.55 | X-H torsion
[ 11005 11000 10999 10996 ] final   90.14 input  -57.11 | X-H torsion

> <Gold.Protein.ActiveResidues>
 VAL166  LYS551  ARG553  GLY616  TRP617  ASP618  TYR619  PRO620  LYS621  CYS622 
 ASP623  PHE694  ASN695  SER759  ASP760  ASP761  ALA762  ILE779  LEU786  VAL792 
 PHE793  MET794  SER795  GLU796  ALA797  LYS798  CYS799  TRP800  GLU811  SER814 

> <Gold.Protein.RotatedAtoms>
  152.4516  134.5382  159.9830 H   0  0  0  0  0  0  0  0  0  0  0  0  # atno 6907 bound_to 6896
  151.5453  133.3420  159.2951 H   0  0  0  0  0  0  0  0  0  0  0  0  # atno 6908 bound_to 6896
  150.8446  134.7782  159.7023 H   0  0  0  0  0  0  0  0  0  0  0  0  # atno 6909 bound_to 6896
  145.1409  140.8777  143.3703 H   0  0  0  0  0  0  0  0  0  0  0  0  # atno 7974 bound_to 7965
  154.7404  140.2748  155.6378 H   0  0  0  0  0  0  0  0  0  0  0  0  # atno 8008 bound_to 7997
  156.2872  140.2698  156.2056 H   0  0  0  0  0  0  0  0  0  0  0  0  # atno 8009 bound_to 7997
  155.0265  140.0371  157.2447 H   0  0  0  0  0  0  0  0  0  0  0  0  # atno 8010 bound_to 7997
  140.5017  144.0304  150.6335 H   0  0  0  0  0  0  0  0  0  0  0  0  # atno 10167 bound_to 10162
  156.0263  130.5464  150.7244 H   0  0  0  0  0  0  0  0  0  0  0  0  # atno 10718 bound_to 10713
  153.2062  135.6863  153.8170 H   0  0  0  0  0  0  0  0  0  0  0  0  # atno 10763 bound_to 10752
  153.7419  135.3237  155.3306 H   0  0  0  0  0  0  0  0  0  0  0  0  # atno 10764 bound_to 10752
  154.8198  135.4660  154.0849 H   0  0  0  0  0  0  0  0  0  0  0  0  # atno 10765 bound_to 10752
  139.8862  134.8595  156.3242 H   0  0  0  0  0  0  0  0  0  0  0  0  # atno 11005 bound_to 11000
  145.0533  139.3163  143.5917 LP  0  0  0  0  0  0  0  0  0  0  0  0  # atno 17320 bound_to 7965
  146.3505  139.9950  142.8682 LP  0  0  0  0  0  0  0  0  0  0  0  0  # atno 17321 bound_to 7965
  140.3602  143.2912  152.0392 LP  0  0  0  0  0  0  0  0  0  0  0  0  # atno 17342 bound_to 10162
  139.4874  144.6308  151.7073 LP  0  0  0  0  0  0  0  0  0  0  0  0  # atno 17343 bound_to 10162
  157.4852  131.0906  151.0490 LP  0  0  0  0  0  0  0  0  0  0  0  0  # atno 17370 bound_to 10713
  157.0913  130.5943  149.5440 LP  0  0  0  0  0  0  0  0  0  0  0  0  # atno 17371 bound_to 10713
  140.9767  133.7293  156.0612 LP  0  0  0  0  0  0  0  0  0  0  0  0  # atno 17394 bound_to 11000
  140.7802  134.3734  157.5489 LP  0  0  0  0  0  0  0  0  0  0  0  0  # atno 17395 bound_to 11000

$$$$
