#       Name:                AV-unprocessed.smi:813
#       Creating user name   scv26
#       Creation time:       Fri Mar 27 01:25:50 2020


#       File generated by GOLD software.
#

@<TRIPOS>MOLECULE
AV-unprocessed.smi:813
    42    43     1
SMALL
NO_CHARGES


@<TRIPOS>ATOM
      1 ****        -1.0449  -2.1214  -2.5562 C.3            1 S1                 0.0000
      2 ****        -0.4568  -1.5092  -1.2738 C.3            1 S1                 0.0000
      3 ****         0.9913  -1.7096  -1.2970 N.am           1 S1                 0.0000
      4 ****         1.7954  -1.6512  -0.2244 C.2            1 S1                 0.0000
      5 ****         1.3879  -1.4330   0.9170 O.2            1 S1                 0.0000
      6 ****         3.0794  -1.8570  -0.5663 N.am           1 S1                 0.0000
      7 ****         4.2201  -1.8915   0.2791 C.2            1 S1                 0.0000
      8 ****         4.1662  -1.7266   1.6101 N.2            1 S1                 0.0000
      9 ****         5.4229  -1.8102   2.1957 N.2            1 S1                 0.0000
     10 ****         6.3741  -2.0342   1.2847 C.2            1 S1                 0.0000
     11 ****         5.8275  -2.1662  -0.3780 S.3            1 S1                 0.0000
     12 ****        -0.7874  -0.0086  -1.2601 C.2            1 S1                 0.0000
     13 ****        -0.2071   0.7677  -2.0209 O.2            1 S1                 0.0000
     14 ****        -1.7300   0.3815  -0.3891 N.am           1 S1                 0.0000
     15 ****        -2.1820   1.7568  -0.1972 C.3            1 S1                 0.0000
     16 ****        -1.1907   2.5592   0.6688 C.3            1 S1                 0.0000
     17 ****        -1.8496   2.6913   2.0409 C.3            1 S1                 0.0000
     18 ****        -3.3414   2.7522   1.7294 C.3            1 S1                 0.0000
     19 ****        -3.5280   1.7894   0.5542 C.3            1 S1                 0.0000
     20 ****        -2.1293  -2.0074  -2.5877 H              1 S1                 0.0000
     21 ****        -0.8309  -3.1894  -2.6103 H              1 S1                 0.0000
     22 ****        -0.6350  -1.6581  -3.4551 H              1 S1                 0.0000
     23 ****        -0.8889  -2.0037  -0.4014 H              1 S1                 0.0000
     24 ****         1.4095  -1.8864  -2.1986 H              1 S1                 0.0000
     25 ****         3.2627  -2.0117  -1.5466 H              1 S1                 0.0000
     26 ****         7.4049  -2.1233   1.5939 H              1 S1                 0.0000
     27 ****        -2.1528  -0.3233   0.1975 H              1 S1                 0.0000
     28 ****        -2.2934   2.2399  -1.1699 H              1 S1                 0.0000
     29 ****        -0.1990   2.1088   0.7320 H              1 S1                 0.0000
     30 ****        -1.0625   3.5526   0.2372 H              1 S1                 0.0000
     31 ****        -1.6335   1.8052   2.6394 H              1 S1                 0.0000
     32 ****        -1.4981   3.5629   2.5934 H              1 S1                 0.0000
     33 ****        -3.9611   2.4911   2.5877 H              1 S1                 0.0000
     34 ****        -3.6088   3.7639   1.4214 H              1 S1                 0.0000
     35 ****        -4.3500   2.0987  -0.0920 H              1 S1                 0.0000
     36 ****        -3.7800   0.8005   0.9405 H              1 S1                 0.0000
     37 ****         0.4120  -1.2884   1.0804 LP             1 S1                 0.0000
     38 ****         2.0329  -1.4004   1.6805 LP             1 S1                 0.0000
     39 ****         3.3214  -1.5630   2.1197 LP             1 S1                 0.0000
     40 ****         5.5942  -1.7147   3.1763 LP             1 S1                 0.0000
     41 ****         0.4856   0.4228  -2.6543 LP             1 S1                 0.0000
     42 ****        -0.4288   1.7427  -2.0049 LP             1 S1                 0.0000
@<TRIPOS>BOND
    1    1    2 1     
    2    1   20 1     
    3    1   21 1     
    4    1   22 1     
    5    2    3 1     
    6    2   12 1     
    7    2   23 1     
    8    3    4 am    
    9    3   24 1     
   10    4    5 2     
   11    4    6 am    
   12    6    7 1     
   13    6   25 1     
   14    7   11 1     
   15    7    8 2     
   16    8    9 1     
   17    9   10 2     
   18   10   11 1     
   19   10   26 1     
   20   12   13 2     
   21   12   14 am    
   22   14   15 1     
   23   14   27 1     
   24   15   19 1     
   25   15   16 1     
   26   15   28 1     
   27   16   17 1     
   28   16   29 1     
   29   16   30 1     
   30   17   18 1     
   31   17   31 1     
   32   17   32 1     
   33   18   19 1     
   34   18   33 1     
   35   18   34 1     
   36   19   35 1     
   37   19   36 1     
   38    5   37 1     
   39    5   38 1     
   40    8   39 1     
   41    9   40 1     
   42   13   41 1     
   43   13   42 1     
@<TRIPOS>SUBSTRUCTURE
      1 S1             1
@<TRIPOS>SET
LONE_PAIRS      STATIC     ATOMS    <user>   **** ""
6 37 38 39 40 41 42
DONOR_HYDROGENS      STATIC     ATOMS    <user>   **** ""
3 24 25 27
ATOM$BLUE        STATIC     ATOMS    COLORGROUP SYSTEM
6 37 38 39 40 41 42
ATOM$RED        STATIC     ATOMS    COLORGROUP SYSTEM
3 24 25 27
