AV-unprocessed.smi:2857|AV-procd|sdf|10998|dock5
  -GOLD-   2272015453D 1   1.00000     0.00000
 Structure written by MMmdl.
 44 46  0  0  0  0  0  0  0  0  1 V2000
  154.3932  140.4011  161.7367 C   0  0  0  0  0  0  0  0  0  0  0  0
  153.5624  141.6027  161.3356 C   0  0  0  0  0  0  0  0  0  0  0  0
  153.3092  142.6347  162.2596 C   0  0  0  0  0  0  0  0  0  0  0  0
  152.5368  143.7459  161.8767 C   0  0  0  0  0  0  0  0  0  0  0  0
  152.0119  143.8321  160.5705 C   0  0  0  0  0  0  0  0  0  0  0  0
  151.1821  145.0388  160.1742 C   0  0  0  0  0  0  0  0  0  0  0  0
  152.2560  142.8017  159.6332 C   0  0  0  0  0  0  0  0  0  0  0  0
  151.7100  142.9460  158.3737 O   0  0  0  0  0  0  0  0  0  0  0  0
  151.6565  141.8057  157.5283 C   0  0  0  0  0  0  0  0  0  0  0  0
  150.2690  141.7274  156.8656 C   0  0  1  0  0  0  0  0  0  0  0  0
  150.1972  140.5290  156.1203 O   0  0  0  0  0  0  0  0  0  0  0  0
  149.0978  141.7079  157.8703 C   0  0  0  0  0  0  0  0  0  0  0  0
  147.8129  142.0007  157.2526 N   0  0  0  0  0  0  0  0  0  0  0  0
  147.6517  141.7977  155.9196 N   0  0  0  0  0  0  0  0  0  0  0  0
  146.3983  142.1547  155.6467 C   0  0  0  0  0  0  0  0  0  0  0  0
  145.7084  142.6056  156.8053 C   0  0  0  0  0  0  0  0  0  0  0  0
  144.3657  143.1078  157.0798 C   0  0  0  0  0  0  0  0  0  0  0  0
  144.0748  143.4485  158.2963 N   0  0  0  0  0  0  0  0  0  0  0  0
  145.0164  143.3428  159.3263 N   0  0  0  0  0  0  0  0  0  0  0  0
  144.5393  143.7738  160.6384 C   0  0  0  0  0  0  0  0  0  0  0  0
  146.2951  142.8837  159.1760 C   0  0  0  0  0  0  0  0  0  0  0  0
  147.1118  142.8067  160.0939 O   0  0  0  0  0  0  0  0  0  0  0  0
  146.6356  142.4877  157.7875 C   0  0  0  0  0  0  0  0  0  0  0  0
  153.0380  141.6863  160.0304 C   0  0  0  0  0  0  0  0  0  0  0  0
  154.8439  140.5388  162.7200 H   0  0  0  0  0  0  0  0  0  0  0  0
  155.1951  140.2365  161.0164 H   0  0  0  0  0  0  0  0  0  0  0  0
  153.7703  139.5067  161.7681 H   0  0  0  0  0  0  0  0  0  0  0  0
  153.7048  142.5793  163.2633 H   0  0  0  0  0  0  0  0  0  0  0  0
  152.3488  144.5331  162.5920 H   0  0  0  0  0  0  0  0  0  0  0  0
  150.1962  144.7250  159.8302 H   0  0  0  0  0  0  0  0  0  0  0  0
  151.6706  145.5828  159.3655 H   0  0  0  0  0  0  0  0  0  0  0  0
  151.0460  145.7238  161.0115 H   0  0  0  0  0  0  0  0  0  0  0  0
  152.4457  141.8266  156.7744 H   0  0  0  0  0  0  0  0  0  0  0  0
  151.8138  140.9290  158.1555 H   0  0  0  0  0  0  0  0  0  0  0  0
  150.1393  142.5714  156.1867 H   0  0  0  0  0  0  0  0  0  0  0  0
  149.4073  140.5445  155.6018 H   0  0  0  0  0  0  0  0  0  0  0  0
  149.0308  140.7256  158.3410 H   0  0  0  0  0  0  0  0  0  0  0  0
  149.2730  142.4149  158.6806 H   0  0  0  0  0  0  0  0  0  0  0  0
  146.0394  142.0789  154.6309 H   0  0  0  0  0  0  0  0  0  0  0  0
  143.6318  143.1926  156.2786 H   0  0  0  0  0  0  0  0  0  0  0  0
  144.5373  142.9369  161.3380 H   0  0  0  0  0  0  0  0  0  0  0  0
  143.5240  144.1709  160.5939 H   0  0  0  0  0  0  0  0  0  0  0  0
  145.1800  144.5580  161.0446 H   0  0  0  0  0  0  0  0  0  0  0  0
  153.2501  140.8765  159.3487 H   0  0  0  0  0  0  0  0  0  0  0  0
  1  2  1  0  0  0  0
  1 25  1  0  0  0  0
  1 26  1  0  0  0  0
  1 27  1  0  0  0  0
  2 24  1  0  0  0  0
  2  3  2  0  0  0  0
  3  4  1  0  0  0  0
  3 28  1  0  0  0  0
  4  5  2  0  0  0  0
  4 29  1  0  0  0  0
  5  6  1  0  0  0  0
  5  7  1  0  0  0  0
  6 30  1  0  0  0  0
  6 31  1  0  0  0  0
  6 32  1  0  0  0  0
  7  8  1  0  0  0  0
  7 24  2  0  0  0  0
  8  9  1  0  0  0  0
  9 10  1  0  0  0  0
  9 33  1  0  0  0  0
  9 34  1  0  0  0  0
 10 11  1  0  0  0  0
 10 12  1  0  0  0  0
 10 35  1  0  0  0  0
 11 36  1  0  0  0  0
 12 13  1  0  0  0  0
 12 37  1  0  0  0  0
 12 38  1  0  0  0  0
 13 23  1  0  0  0  0
 13 14  1  0  0  0  0
 14 15  2  0  0  0  0
 15 16  1  0  0  0  0
 15 39  1  0  0  0  0
 16 23  2  0  0  0  0
 16 17  1  0  0  0  0
 17 18  2  0  0  0  0
 17 40  1  0  0  0  0
 18 19  1  0  0  0  0
 19 20  1  0  0  0  0
 19 21  1  0  0  0  0
 20 41  1  0  0  0  0
 20 42  1  0  0  0  0
 20 43  1  0  0  0  0
 21 22  2  0  0  0  0
 21 23  1  0  0  0  0
 24 44  1  0  0  0  0
M  END
> <s_m_source_file>
AV-unprocessed.smi

> <i_m_source_file_index>
2857

> <i_lp_mmshare_version>
43012

> <i_f3d_flags>
0

> <s_epik_input>
W0NIM11jMVtjSF1bY0hdYyhbQ0gzXSljKFtjSF0xKU9bQ0gyXVtDQEhdKFtPSF0pW0NIMl1uKG5bY0hdMiljKGMyMyljKD1PKW4oW0NIM10pbltjSF0z

> <s_epik_cmdline>
J2VwaWtfcHl0aG9uJywgJy1waCcsICc3LjAnLCAnLXRuJywgJzgnLCAnLW1hJywgJzIwMCcsICctbWV0YWxfYmluZGluZycsICctaW1hZScsICc8aW5maWxlLm1hZT4nLCAnLW9tYWUnLCAnPG91dGZpbGUubWFlPic=

> <r_lp_tautomer_probability>
1

> <r_epik_Ionization_Penalty>
2.24607e-06

> <r_epik_Ionization_Penalty_Charging>
1.42095e-10

> <r_epik_Ionization_Penalty_Neutral>
2.24593e-06

> <r_epik_State_Penalty>
-0

> <r_epik_Charging_Adjusted_Penalty>
1.42095e-10

> <i_epik_Tot_Q>
0

> <i_epik_Tot_abs_Q>
0

> <r_epik_Metal_State_Penalty>
-0

> <b_epik_Metal_Only>
0

> <s_lp_Force_Field>
OPLS_2005

> <r_lp_Energy>
31.6427

> <b_lp_Chiralities_Consistent>
1

> <s_lp_Variant>
AV-unprocessed.smi:2857-2

> <Gold.Version>
5.8.1

> <Gold.Id.Protein>
6NUR|6NUR_protein|mol2

> <Gold.PLP.Fitness>
47.3484

> <Gold.PLP.PLP>
-44.5268

> <Gold.PLP.part.hbond>
-2.0000

> <Gold.PLP.part.metal>
0.0000

> <Gold.PLP.part.buried>
-7.9873

> <Gold.PLP.part.nonpolar>
-34.8797

> <Gold.PLP.part.repulsive>
0.2281

> <Gold.PLP.ligand.clash>
0.0000

> <Gold.PLP.ligand.torsion>
0.9684

> <Gold.PLP.Chemscore.Hbond>
1.5670

> <Gold.PLP.Chemscore.CHOScore>
0.0000

> <Gold.PLP.Chemscore.Metal>
0.0000

> <Gold.Chemscore.Hbonds>
donor molecule, donor type, donor heavy atom, donor atom, acceptor molecule, acceptor atom, score
      P1  H  6933  6944       L1    22  0.85
      P1  H  6934  6946       L1    22  0.80

> <Gold.PLP.Chemscore.Internal.Correction>
0.0573

> <Gold.Rescore>
     Score         DG    S(hbond)    S(metal)    S(lipo)     H(rot)  DE(clash)    DE(int)     intcor
     15.22     -17.44       1.34        0.00     114.90       2.32       0.05       2.17       ----

> <Gold.Chemscore.Fitness>
15.2210

> <Gold.Chemscore.DG>
-17.4388

> <Gold.Chemscore.ZeroCoef>
-5.4800

> <Gold.Chemscore.Hbond>
1.3366

> <Gold.Chemscore.Metal>
0.0000

> <Gold.Chemscore.Lipo>
114.8962

> <Gold.Chemscore.Internal_Hbond>
0.0000

> <Gold.Chemscore.DEClash>
0.0454

> <Gold.Chemscore.DEInternal>
2.1723

> <Gold.Chemscore.Rot>
2.3236

> <Gold.Chemscore.Internal.Correction>
   9.000000E+99

> <Gold.Chemscore.Hbonds>
donor molecule, donor type, donor heavy atom, donor atom, acceptor molecule, acceptor atom, score
      P1  H  6933  6944       L1    22  0.81
      P1  H  6934  6946       L1    22  0.33

> <Gold.Chemscore.Hbond.Weighted>
-4.4643

> <Gold.Chemscore.Metal.Weighted>
-0.0000

> <Gold.Chemscore.Lipo.Weighted>
-13.4429

> <Gold.Chemscore.Internal_Hbond.Weighted>
0.0000

> <Gold.Chemscore.DEClash.Weighted>
0.0454

> <Gold.Chemscore.DEInternal.Weighted>
2.1723

> <Gold.Chemscore.Rot.Weighted>
5.9484

> <Gold.Chemscore.Internal.Correction.Weighted>
   9.000000E+99

> <Gold.Protein.RotatedTorsions>
[ 6907 6896 6895 6894 ] final  -23.80 input  -60.11 | X-H torsion
[ 7974 7965 7964 7962 ] final  129.10 input  175.53 | X-H torsion
[ 8008 7997 7996 7995 ] final  103.92 input   59.86 | X-H torsion
[ 10167 10162 10161 10158 ] final  -78.94 input  -65.29 | X-H torsion
[ 10718 10713 10712 10709 ] final   73.31 input   66.30 | X-H torsion
[ 10763 10752 10751 10750 ] final -142.72 input  -60.55 | X-H torsion
[ 11005 11000 10999 10996 ] final  146.98 input  -57.11 | X-H torsion

> <Gold.Protein.ActiveResidues>
 VAL166  LYS551  ARG553  GLY616  TRP617  ASP618  TYR619  PRO620  LYS621  CYS622 
 ASP623  PHE694  ASN695  SER759  ASP760  ASP761  ALA762  ILE779  LEU786  VAL792 
 PHE793  MET794  SER795  GLU796  ALA797  LYS798  CYS799  TRP800  GLU811  SER814 

> <Gold.Protein.RotatedAtoms>
  151.1987  135.0433  159.8862 H   0  0  0  0  0  0  0  0  0  0  0  0  # atno 6907 bound_to 6896
  152.5434  134.0874  159.8272 H   0  0  0  0  0  0  0  0  0  0  0  0  # atno 6908 bound_to 6896
  151.1012  133.5195  159.2642 H   0  0  0  0  0  0  0  0  0  0  0  0  # atno 6909 bound_to 6896
  145.0323  139.4035  143.5143 H   0  0  0  0  0  0  0  0  0  0  0  0  # atno 7974 bound_to 7965
  156.1527  140.3156  155.8674 H   0  0  0  0  0  0  0  0  0  0  0  0  # atno 8008 bound_to 7997
  155.3939  140.0495  157.3056 H   0  0  0  0  0  0  0  0  0  0  0  0  # atno 8009 bound_to 7997
  154.5073  140.2151  155.9237 H   0  0  0  0  0  0  0  0  0  0  0  0  # atno 8010 bound_to 7997
  140.4637  143.2446  151.8310 H   0  0  0  0  0  0  0  0  0  0  0  0  # atno 10167 bound_to 10162
  157.6542  130.9622  150.1052 H   0  0  0  0  0  0  0  0  0  0  0  0  # atno 10718 bound_to 10713
  154.8498  135.3488  154.6074 H   0  0  0  0  0  0  0  0  0  0  0  0  # atno 10763 bound_to 10752
  153.6682  135.6986  153.5160 H   0  0  0  0  0  0  0  0  0  0  0  0  # atno 10764 bound_to 10752
  153.2763  135.4277  155.0993 H   0  0  0  0  0  0  0  0  0  0  0  0  # atno 10765 bound_to 10752
  140.0838  134.9082  157.1542 H   0  0  0  0  0  0  0  0  0  0  0  0  # atno 11005 bound_to 11000
  146.3500  139.9880  142.8688 LP  0  0  0  0  0  0  0  0  0  0  0  0  # atno 17320 bound_to 7965
  145.1754  140.9741  143.4297 LP  0  0  0  0  0  0  0  0  0  0  0  0  # atno 17321 bound_to 7965
  139.4809  144.4976  151.9102 LP  0  0  0  0  0  0  0  0  0  0  0  0  # atno 17342 bound_to 10162
  140.4062  144.2429  150.5890 LP  0  0  0  0  0  0  0  0  0  0  0  0  # atno 17343 bound_to 10162
  156.1963  130.3657  149.8844 LP  0  0  0  0  0  0  0  0  0  0  0  0  # atno 17370 bound_to 10713
  156.6760  130.8839  151.3569 LP  0  0  0  0  0  0  0  0  0  0  0  0  # atno 17371 bound_to 10713
  140.3450  134.2662  155.7206 LP  0  0  0  0  0  0  0  0  0  0  0  0  # atno 17394 bound_to 11000
  141.2055  133.7857  157.0226 LP  0  0  0  0  0  0  0  0  0  0  0  0  # atno 17395 bound_to 11000

$$$$
