#       Name:                AV-unprocessed.smi:1019
#       Creating user name   scv26
#       Creation time:       Fri Mar 27 02:41:42 2020


#       File generated by GOLD software.
#

@<TRIPOS>MOLECULE
AV-unprocessed.smi:1019
    47    49     1
SMALL
NO_CHARGES


@<TRIPOS>ATOM
      1 ****        -1.2773  -2.4878  -2.4948 C.3            1 S1                 0.0000
      2 ****        -0.8745  -1.4226  -1.5459 N.4            1 S1                 1.0000
      3 ****        -1.5228  -0.1179  -1.8396 C.3            1 S1                 0.0000
      4 ****        -3.0118  -0.1415  -1.5429 C.ar           1 S1                 0.0000
      5 ****        -3.9480  -0.2470  -2.5939 C.ar           1 S1                 0.0000
      6 ****        -5.3276  -0.2737  -2.3122 C.ar           1 S1                 0.0000
      7 ****        -5.7766  -0.1926  -0.9799 C.ar           1 S1                 0.0000
      8 ****        -4.8456  -0.0837   0.0710 C.ar           1 S1                 0.0000
      9 ****        -3.4656  -0.0571  -0.2097 C.ar           1 S1                 0.0000
     10 ****         0.6028  -1.3237  -1.4207 C.3            1 S1                 0.0000
     11 ****         1.0464  -0.7961  -0.0412 C.3            1 S1                 0.0000
     12 ****         0.6709  -1.7341   0.9494 O.3            1 S1                 0.0000
     13 ****         2.5712  -0.5765   0.0198 C.3            1 S1                 0.0000
     14 ****         3.0325  -0.1030   1.3318 N.pl3          1 S1                 0.0000
     15 ****         3.5834  -0.7935   2.3676 C.2            1 S1                 0.0000
     16 ****         3.8457   0.0980   3.3632 N.pl3          1 S1                 1.0000
     17 ****         3.4588   1.3771   2.9581 C.ar           1 S1                 0.0000
     18 ****         3.5258   2.6011   3.6163 C.ar           1 S1                 0.0000
     19 ****         3.0434   3.7247   2.9132 C.ar           1 S1                 0.0000
     20 ****         2.5198   3.6064   1.6091 C.ar           1 S1                 0.0000
     21 ****         2.4556   2.3601   0.9514 C.ar           1 S1                 0.0000
     22 ****         2.9356   1.2550   1.6532 C.ar           1 S1                 0.0000
     23 ****        -0.9427  -2.2557  -3.5066 H              1 S1                 0.0000
     24 ****        -2.3591  -2.6176  -2.5138 H              1 S1                 0.0000
     25 ****        -0.8463  -3.4465  -2.2044 H              1 S1                 0.0000
     26 ****        -1.0823   0.6748  -1.2355 H              1 S1                 0.0000
     27 ****        -1.3469   0.1602  -2.8801 H              1 S1                 0.0000
     28 ****        -3.6121  -0.3119  -3.6185 H              1 S1                 0.0000
     29 ****        -6.0420  -0.3567  -3.1182 H              1 S1                 0.0000
     30 ****        -6.8348  -0.2132  -0.7645 H              1 S1                 0.0000
     31 ****        -5.1906  -0.0202   1.0927 H              1 S1                 0.0000
     32 ****        -2.7568   0.0259   0.6015 H              1 S1                 0.0000
     33 ****         1.0563  -2.3044  -1.5742 H              1 S1                 0.0000
     34 ****         0.9874  -0.6866  -2.2188 H              1 S1                 0.0000
     35 ****         0.5474   0.1457   0.1845 H              1 S1                 0.0000
     36 ****         1.1421  -2.5398   0.7997 H              1 S1                 0.0000
     37 ****         3.0977  -1.5081  -0.1932 H              1 S1                 0.0000
     38 ****         2.8937   0.1394  -0.7374 H              1 S1                 0.0000
     39 ****         3.7773  -1.8561   2.3961 H              1 S1                 0.0000
     40 ****         3.9272   2.6950   4.6149 H              1 S1                 0.0000
     41 ****         3.0766   4.6970   3.3834 H              1 S1                 0.0000
     42 ****         2.1608   4.4907   1.1025 H              1 S1                 0.0000
     43 ****         2.0535   2.2804  -0.0474 H              1 S1                 0.0000
     44 ****        -1.2088  -1.7146  -0.6381 H              1 S1                 0.0000
     45 ****         4.2603  -0.1508   4.2524 H              1 S1                 0.0000
     46 ****        -0.3129  -1.9049   0.8950 LP             1 S1                 0.0000
     47 ****         0.8973  -1.3755   1.8550 LP             1 S1                 0.0000
@<TRIPOS>BOND
    1    1    2 1     
    2    1   23 1     
    3    1   24 1     
    4    1   25 1     
    5    2    3 1     
    6    2   10 1     
    7    2   44 1     
    8    3    4 1     
    9    3   26 1     
   10    3   27 1     
   11    4    9 ar    
   12    4    5 ar    
   13    5    6 ar    
   14    5   28 1     
   15    6    7 ar    
   16    6   29 1     
   17    7    8 ar    
   18    7   30 1     
   19    8    9 ar    
   20    8   31 1     
   21    9   32 1     
   22   10   11 1     
   23   10   33 1     
   24   10   34 1     
   25   11   12 1     
   26   11   13 1     
   27   11   35 1     
   28   12   36 1     
   29   13   14 1     
   30   13   37 1     
   31   13   38 1     
   32   14   22 1     
   33   14   15 1     
   34   15   16 2     
   35   15   39 1     
   36   16   17 1     
   37   16   45 1     
   38   17   22 ar    
   39   17   18 ar    
   40   18   19 ar    
   41   18   40 1     
   42   19   20 ar    
   43   19   41 1     
   44   20   21 ar    
   45   20   42 1     
   46   21   22 ar    
   47   21   43 1     
   48   12   46 1     
   49   12   47 1     
@<TRIPOS>SUBSTRUCTURE
      1 S1             1
@<TRIPOS>SET
LONE_PAIRS      STATIC     ATOMS    <user>   **** ""
2 46 47
DONOR_HYDROGENS      STATIC     ATOMS    <user>   **** ""
3 44 36 45
ATOM$BLUE        STATIC     ATOMS    COLORGROUP SYSTEM
2 46 47
ATOM$RED        STATIC     ATOMS    COLORGROUP SYSTEM
3 44 36 45
