#       Name:                AV-unprocessed.smi:1969
#       Creating user name   scv26
#       Creation time:       Fri Mar 27 10:12:50 2020


#       File generated by GOLD software.
#

@<TRIPOS>MOLECULE
AV-unprocessed.smi:1969
    52    53     1
SMALL
NO_CHARGES


@<TRIPOS>ATOM
      1 ****        -5.1729  -1.1350  -0.8327 C.3            1 S1                 0.0000
      2 ****        -4.7550   0.3259  -1.0780 C.3            1 S1                 0.0000
      3 ****        -3.2306   0.5137  -1.2067 C.3            1 S1                 0.0000
      4 ****        -2.5803   0.4332   0.0982 N.3            1 S1                 0.0000
      5 ****        -1.1757   0.2988   0.0686 C.ar           1 S1                 0.0000
      6 ****        -0.5783  -0.7392  -0.6839 C.ar           1 S1                 0.0000
      7 ****         0.8246  -0.8502  -0.7072 C.ar           1 S1                 0.0000
      8 ****         1.6011   0.0783   0.0121 C.ar           1 S1                 0.0000
      9 ****         3.0141  -0.0680  -0.0179 N.am           1 S1                 0.0000
     10 ****         3.9636   0.8500   0.2464 C.2            1 S1                 0.0000
     11 ****         3.7340   2.0209   0.5456 O.2            1 S1                 0.0000
     12 ****         5.4217   0.3909   0.1387 C.3            1 S1                 0.0000
     13 ****         5.4859  -0.9619  -0.2922 O.3            1 S1                 0.0000
     14 ****         6.8168  -1.4371  -0.4170 C.3            1 S1                 0.0000
     15 ****         6.7943  -2.9019  -0.8700 C.3            1 S1                 0.0000
     16 ****         8.0450  -3.3358  -1.0186 F              1 S1                 0.0000
     17 ****         6.1844  -3.6563   0.0437 F              1 S1                 0.0000
     18 ****         6.1612  -3.0135  -2.0375 F              1 S1                 0.0000
     19 ****         0.9165   1.0700   0.7534 C.ar           1 S1                 0.0000
     20 ****        -0.4288   1.1779   0.7802 N.ar           1 S1                 0.0000
     21 ****        -3.1650   1.3340   1.0877 C.3            1 S1                 0.0000
     22 ****        -4.6811   1.0939   1.2008 C.3            1 S1                 0.0000
     23 ****        -5.3531   2.1083   2.1320 C.3            1 S1                 0.0000
     24 ****        -5.2816   1.2125  -0.0882 O.3            1 S1                 0.0000
     25 ****        -4.8745  -1.7669  -1.6695 H              1 S1                 0.0000
     26 ****        -6.2547  -1.2170  -0.7273 H              1 S1                 0.0000
     27 ****        -4.7155  -1.5518   0.0643 H              1 S1                 0.0000
     28 ****        -5.2059   0.6261  -2.0242 H              1 S1                 0.0000
     29 ****        -2.8338  -0.2185  -1.9086 H              1 S1                 0.0000
     30 ****        -3.0192   1.4961  -1.6306 H              1 S1                 0.0000
     31 ****        -1.1766  -1.4546  -1.2284 H              1 S1                 0.0000
     32 ****         1.2955  -1.6402  -1.2741 H              1 S1                 0.0000
     33 ****         3.3517  -0.9658  -0.3341 H              1 S1                 0.0000
     34 ****         5.9463   1.0376  -0.5662 H              1 S1                 0.0000
     35 ****         5.9001   0.5001   1.1131 H              1 S1                 0.0000
     36 ****         7.3631  -0.8312  -1.1418 H              1 S1                 0.0000
     37 ****         7.3362  -1.3517   0.5389 H              1 S1                 0.0000
     38 ****         1.4381   1.7909   1.3630 H              1 S1                 0.0000
     39 ****        -2.7012   1.1766   2.0624 H              1 S1                 0.0000
     40 ****        -2.9666   2.3661   0.7946 H              1 S1                 0.0000
     41 ****        -4.8642   0.0967   1.6014 H              1 S1                 0.0000
     42 ****        -4.9377   2.0526   3.1383 H              1 S1                 0.0000
     43 ****        -6.4245   1.9200   2.2042 H              1 S1                 0.0000
     44 ****        -5.2178   3.1275   1.7692 H              1 S1                 0.0000
     45 ****        -2.8134  -0.4663   0.4678 LP             1 S1                 0.0000
     46 ****         2.7902   2.3458   0.6054 LP             1 S1                 0.0000
     47 ****         4.4912   2.6478   0.7289 LP             1 S1                 0.0000
     48 ****         5.0357  -1.0354  -1.1822 LP             1 S1                 0.0000
     49 ****         5.0042  -1.5323   0.3731 LP             1 S1                 0.0000
     50 ****        -0.8686   1.8970   1.3180 LP             1 S1                 0.0000
     51 ****        -6.2599   1.0279   0.0060 LP             1 S1                 0.0000
     52 ****        -5.1487   2.1505  -0.4084 LP             1 S1                 0.0000
@<TRIPOS>BOND
    1    1    2 1     
    2    1   25 1     
    3    1   26 1     
    4    1   27 1     
    5    2   24 1     
    6    2    3 1     
    7    2   28 1     
    8    3    4 1     
    9    3   29 1     
   10    3   30 1     
   11    4    5 1     
   12    4   21 1     
   13    5   20 ar    
   14    5    6 ar    
   15    6    7 ar    
   16    6   31 1     
   17    7    8 ar    
   18    7   32 1     
   19    8    9 1     
   20    8   19 ar    
   21    9   10 am    
   22    9   33 1     
   23   10   11 2     
   24   10   12 1     
   25   12   13 1     
   26   12   34 1     
   27   12   35 1     
   28   13   14 1     
   29   14   15 1     
   30   14   36 1     
   31   14   37 1     
   32   15   16 1     
   33   15   17 1     
   34   15   18 1     
   35   19   20 ar    
   36   19   38 1     
   37   21   22 1     
   38   21   39 1     
   39   21   40 1     
   40   22   23 1     
   41   22   24 1     
   42   22   41 1     
   43   23   42 1     
   44   23   43 1     
   45   23   44 1     
   46    4   45 1     
   47   11   46 1     
   48   11   47 1     
   49   13   48 1     
   50   13   49 1     
   51   20   50 1     
   52   24   51 1     
   53   24   52 1     
@<TRIPOS>SUBSTRUCTURE
      1 S1             1
@<TRIPOS>SET
LONE_PAIRS      STATIC     ATOMS    <user>   **** ""
8 45 46 47 48 49 50 51 52
DONOR_HYDROGENS      STATIC     ATOMS    <user>   **** ""
1 33
ATOM$BLUE        STATIC     ATOMS    COLORGROUP SYSTEM
8 45 46 47 48 49 50 51 52
ATOM$RED        STATIC     ATOMS    COLORGROUP SYSTEM
1 33
