AV-unprocessed.smi:40|AV-procd|sdf|380|dock3
  -GOLD-   2262016233D 1   1.00000     0.00000
 Structure written by MMmdl.
 47 48  0  0  0  0  0  0  0  0  1 V2000
  152.9400  143.4079  162.6322 C   0  0  0  0  0  0  0  0  0  0  0  0
  152.5575  142.8279  161.2662 C   0  0  0  0  0  0  0  0  0  0  0  0
  153.4055  141.6053  160.8898 C   0  0  0  0  0  0  0  0  0  0  0  0
  152.7911  140.7890  159.7411 C   0  0  0  0  0  0  0  0  0  0  0  0
  153.6314  139.5636  159.3566 C   0  0  0  0  0  0  0  0  0  0  0  0
  153.1412  139.0262  158.1397 O   0  0  0  0  0  0  0  0  0  0  0  0
  152.4194  137.8917  158.1317 C   0  0  0  0  0  0  0  0  0  0  0  0
  152.2140  137.1996  159.1284 O   0  0  0  0  0  0  0  0  0  0  0  0
  151.8861  137.6070  156.8089 N   0  0  0  0  0  0  0  0  0  0  0  0
  151.1172  136.5671  156.3991 C   0  0  0  0  0  0  0  0  0  0  0  0
  150.7875  135.5628  157.1940 N   0  0  0  0  0  0  0  0  0  0  0  0
  150.0031  134.5052  156.8201 C   0  0  0  0  0  0  0  0  0  0  0  0
  149.8280  133.5759  157.6059 O   0  0  0  0  0  0  0  0  0  0  0  0
  149.4358  134.5358  155.5160 N   0  0  0  0  0  0  0  0  0  0  0  0
  148.6001  133.3688  154.9883 C   0  0  1  0  0  0  0  0  0  0  0  0
  147.4067  133.8456  154.4305 O   0  0  0  0  0  0  0  0  0  0  0  0
  147.5482  134.0109  153.0294 C   0  0  2  0  0  0  0  0  0  0  0  0
  146.1925  134.2239  152.3397 C   0  0  0  0  0  0  0  0  0  0  0  0
  148.3194  132.7481  152.6528 C   0  0  2  0  0  0  0  0  0  0  0  0
  147.4469  131.6331  152.5646 O   0  0  0  0  0  0  0  0  0  0  0  0
  149.3097  132.6386  153.8120 C   0  0  2  0  0  0  0  0  0  0  0  0
  149.6571  131.2986  154.1084 O   0  0  0  0  0  0  0  0  0  0  0  0
  149.8236  135.5554  154.6532 C   0  0  0  0  0  0  0  0  0  0  0  0
  150.6172  136.5758  155.0437 C   0  0  0  0  0  0  0  0  0  0  0  0
  150.9415  137.5602  154.1874 F   0  0  0  0  0  0  0  0  0  0  0  0
  148.4056  132.7474  155.8634 H   0  0  0  0  0  0  0  0  0  0  0  0
  148.1784  134.8845  152.8513 H   0  0  0  0  0  0  0  0  0  0  0  0
  148.8303  132.8568  151.6954 H   0  0  0  0  0  0  0  0  0  0  0  0
  150.2051  133.1794  153.5080 H   0  0  0  0  0  0  0  0  0  0  0  0
  152.3246  144.2752  162.8723 H   0  0  0  0  0  0  0  0  0  0  0  0
  153.9830  143.7261  162.6461 H   0  0  0  0  0  0  0  0  0  0  0  0
  152.8024  142.6722  163.4249 H   0  0  0  0  0  0  0  0  0  0  0  0
  151.5017  142.5550  161.2723 H   0  0  0  0  0  0  0  0  0  0  0  0
  152.6729  143.6010  160.5053 H   0  0  0  0  0  0  0  0  0  0  0  0
  154.4032  141.9419  160.6071 H   0  0  0  0  0  0  0  0  0  0  0  0
  153.5335  140.9658  161.7637 H   0  0  0  0  0  0  0  0  0  0  0  0
  151.7942  140.4560  160.0311 H   0  0  0  0  0  0  0  0  0  0  0  0
  152.6589  141.4248  158.8649 H   0  0  0  0  0  0  0  0  0  0  0  0
  154.6811  139.8387  159.2465 H   0  0  0  0  0  0  0  0  0  0  0  0
  153.5687  138.8111  160.1441 H   0  0  0  0  0  0  0  0  0  0  0  0
  152.1448  138.2852  156.1072 H   0  0  0  0  0  0  0  0  0  0  0  0
  146.3090  134.2791  151.2572 H   0  0  0  0  0  0  0  0  0  0  0  0
  145.7350  135.1554  152.6730 H   0  0  0  0  0  0  0  0  0  0  0  0
  145.4928  133.4184  152.5635 H   0  0  0  0  0  0  0  0  0  0  0  0
  147.7384  131.0834  151.8531 H   0  0  0  0  0  0  0  0  0  0  0  0
  150.2573  131.2971  154.8382 H   0  0  0  0  0  0  0  0  0  0  0  0
  149.4986  135.5521  153.6235 H   0  0  0  0  0  0  0  0  0  0  0  0
  1  2  1  0  0  0  0
  1 30  1  0  0  0  0
  1 31  1  0  0  0  0
  1 32  1  0  0  0  0
  2  3  1  0  0  0  0
  2 33  1  0  0  0  0
  2 34  1  0  0  0  0
  3  4  1  0  0  0  0
  3 35  1  0  0  0  0
  3 36  1  0  0  0  0
  4  5  1  0  0  0  0
  4 37  1  0  0  0  0
  4 38  1  0  0  0  0
  5  6  1  0  0  0  0
  5 39  1  0  0  0  0
  5 40  1  0  0  0  0
  6  7  1  0  0  0  0
  7  8  2  0  0  0  0
  7  9  1  0  0  0  0
  9 10  1  0  0  0  0
  9 41  1  0  0  0  0
 10 24  1  0  0  0  0
 10 11  2  0  0  0  0
 11 12  1  0  0  0  0
 12 13  2  0  0  0  0
 12 14  1  0  0  0  0
 14 15  1  0  0  0  0
 14 23  1  0  0  0  0
 15 26  1  0  0  0  0
 15 21  1  0  0  0  0
 15 16  1  0  0  0  0
 16 17  1  0  0  0  0
 17 27  1  0  0  0  0
 17 18  1  0  0  0  0
 17 19  1  0  0  0  0
 18 42  1  0  0  0  0
 18 43  1  0  0  0  0
 18 44  1  0  0  0  0
 19 28  1  0  0  0  0
 19 20  1  0  0  0  0
 19 21  1  0  0  0  0
 20 45  1  0  0  0  0
 21 29  1  0  0  0  0
 21 22  1  0  0  0  0
 22 46  1  0  0  0  0
 23 24  2  0  0  0  0
 23 47  1  0  0  0  0
 24 25  1  0  0  0  0
M  END
> <s_m_source_file>
AV-unprocessed.smi

> <i_m_source_file_index>
40

> <i_lp_mmshare_version>
43012

> <i_f3d_flags>
0

> <s_epik_input>
W0NIM11bQ0gyXVtDSDJdW0NIMl1bQ0gyXU9DKD1PKVtOSF1jMW5jKD1PKW4oW2NIXWMxRilbQ0BASF0yT1tDQEhdKFtDSDNdKVtDQEBIXShbT0hdKVtDQEhdMltPSF0=

> <s_epik_cmdline>
J2VwaWtfcHl0aG9uJywgJy1waCcsICc3LjAnLCAnLXRuJywgJzgnLCAnLW1hJywgJzIwMCcsICctbWV0YWxfYmluZGluZycsICctaW1hZScsICc8aW5maWxlLm1hZT4nLCAnLW9tYWUnLCAnPG91dGZpbGUubWFlPic=

> <r_lp_tautomer_probability>
1

> <r_epik_Ionization_Penalty>
2.29506e-06

> <r_epik_Ionization_Penalty_Charging>
8.26867e-09

> <r_epik_Ionization_Penalty_Neutral>
2.2868e-06

> <r_epik_State_Penalty>
-0

> <r_epik_Charging_Adjusted_Penalty>
8.26867e-09

> <i_epik_Tot_Q>
0

> <i_epik_Tot_abs_Q>
0

> <r_epik_Metal_State_Penalty>
-0

> <b_epik_Metal_Only>
0

> <s_epik_Chemistry_Notes>
This compound has an ester and may undergo hydrolysis at high or low pH. This compound contains an acetal/aminal-like group ( X-CH(R)-Y where X, Y are N, S, or O) that may be acid/base labile, releasing an aldehyde.

> <s_lp_Force_Field>
OPLS_2005

> <r_lp_Energy>
41.2702

> <b_lp_Chiralities_Consistent>
1

> <s_lp_Variant>
AV-unprocessed.smi:40-14

> <Gold.Version>
5.8.1

> <Gold.Id.Protein>
6NUR|6NUR_protein|mol2

> <Gold.PLP.Fitness>
49.1551

> <Gold.PLP.PLP>
-38.3363

> <Gold.PLP.part.hbond>
-4.4041

> <Gold.PLP.part.metal>
0.0000

> <Gold.PLP.part.buried>
-0.7610

> <Gold.PLP.part.nonpolar>
-32.8728

> <Gold.PLP.part.repulsive>
0.1750

> <Gold.PLP.ligand.clash>
0.0000

> <Gold.PLP.ligand.torsion>
0.5485

> <Gold.PLP.Chemscore.Hbond>
2.9913

> <Gold.PLP.Chemscore.CHOScore>
0.9105

> <Gold.PLP.Chemscore.Metal>
0.0000

> <Gold.Chemscore.Hbonds>
donor molecule, donor type, donor heavy atom, donor atom, acceptor molecule, acceptor atom, score
      L1  H    20    45       P1 10747  0.96
      P1  H  6896  6907       L1    13  1.00
      P1  H  6896  6908       L1     8  0.37
      L1  C    23    47       P1  7948  0.70

> <Gold.PLP.Chemscore.Internal.Correction>
0.2107

> <Gold.Rescore>
     Score         DG    S(hbond)    S(metal)    S(lipo)     H(rot)  DE(clash)    DE(int)     intcor
     10.50     -13.78       2.49        0.00      80.73       3.70       1.46       1.82       ----

> <Gold.Chemscore.Fitness>
10.5012

> <Gold.Chemscore.DG>
-13.7831

> <Gold.Chemscore.ZeroCoef>
-5.4800

> <Gold.Chemscore.Hbond>
2.4906

> <Gold.Chemscore.Metal>
0.0000

> <Gold.Chemscore.Lipo>
80.7296

> <Gold.Chemscore.Internal_Hbond>
0.0000

> <Gold.Chemscore.DEClash>
1.4575

> <Gold.Chemscore.DEInternal>
1.8244

> <Gold.Chemscore.Rot>
3.6957

> <Gold.Chemscore.Internal.Correction>
   9.000000E+99

> <Gold.Chemscore.Hbonds>
donor molecule, donor type, donor heavy atom, donor atom, acceptor molecule, acceptor atom, score
      L1  H    20    45       P1 10747  0.88
      P1  H  6896  6907       L1    13  0.81
      P1  H  6896  6908       L1     8  0.36

> <Gold.Chemscore.Hbond.Weighted>
-8.3187

> <Gold.Chemscore.Metal.Weighted>
-0.0000

> <Gold.Chemscore.Lipo.Weighted>
-9.4454

> <Gold.Chemscore.Internal_Hbond.Weighted>
0.0000

> <Gold.Chemscore.DEClash.Weighted>
1.4575

> <Gold.Chemscore.DEInternal.Weighted>
1.8244

> <Gold.Chemscore.Rot.Weighted>
9.4610

> <Gold.Chemscore.Internal.Correction.Weighted>
   9.000000E+99

> <Gold.Protein.RotatedTorsions>
[ 6907 6896 6895 6894 ] final -115.96 input  -60.11 | X-H torsion
[ 7974 7965 7964 7962 ] final -140.83 input  175.53 | X-H torsion
[ 8008 7997 7996 7995 ] final -115.89 input   59.86 | X-H torsion
[ 10167 10162 10161 10158 ] final  151.51 input  -65.29 | X-H torsion
[ 10718 10713 10712 10709 ] final  136.56 input   66.30 | X-H torsion
[ 10763 10752 10751 10750 ] final  174.24 input  -60.55 | X-H torsion
[ 11005 11000 10999 10996 ] final  -69.98 input  -57.11 | X-H torsion

> <Gold.Protein.ActiveResidues>
 VAL166  LYS551  ARG553  GLY616  TRP617  ASP618  TYR619  PRO620  LYS621  CYS622 
 ASP623  PHE694  ASN695  SER759  ASP760  ASP761  ALA762  ILE779  LEU786  VAL792 
 PHE793  MET794  SER795  GLU796  ALA797  LYS798  CYS799  TRP800  GLU811  SER814 

> <Gold.Protein.RotatedAtoms>
  150.8018  133.8585  159.3224 H   0  0  0  0  0  0  0  0  0  0  0  0  # atno 6907 bound_to 6896
  151.6395  135.1012  160.0148 H   0  0  0  0  0  0  0  0  0  0  0  0  # atno 6908 bound_to 6896
  152.4106  133.6917  159.6429 H   0  0  0  0  0  0  0  0  0  0  0  0  # atno 6909 bound_to 6896
  144.8566  140.6153  143.5355 H   0  0  0  0  0  0  0  0  0  0  0  0  # atno 7974 bound_to 7965
  155.0592  140.0393  157.2571 H   0  0  0  0  0  0  0  0  0  0  0  0  # atno 8008 bound_to 7997
  154.7074  140.2685  155.6638 H   0  0  0  0  0  0  0  0  0  0  0  0  # atno 8009 bound_to 7997
  156.2779  140.2728  156.1704 H   0  0  0  0  0  0  0  0  0  0  0  0  # atno 8010 bound_to 7997
  139.4840  144.5435  151.7524 H   0  0  0  0  0  0  0  0  0  0  0  0  # atno 10167 bound_to 10162
  157.4453  131.1061  151.0096 H   0  0  0  0  0  0  0  0  0  0  0  0  # atno 10718 bound_to 10713
  154.4511  135.2765  155.1780 H   0  0  0  0  0  0  0  0  0  0  0  0  # atno 10763 bound_to 10752
  154.3607  135.6130  153.5692 H   0  0  0  0  0  0  0  0  0  0  0  0  # atno 10764 bound_to 10752
  152.9847  135.5833  154.4856 H   0  0  0  0  0  0  0  0  0  0  0  0  # atno 10765 bound_to 10752
  141.1565  133.6778  156.6682 H   0  0  0  0  0  0  0  0  0  0  0  0  # atno 11005 bound_to 11000
  145.4394  139.1538  143.3979 LP  0  0  0  0  0  0  0  0  0  0  0  0  # atno 17320 bound_to 7965
  146.2828  140.4514  142.8769 LP  0  0  0  0  0  0  0  0  0  0  0  0  # atno 17321 bound_to 7965
  140.4978  144.1215  150.5964 LP  0  0  0  0  0  0  0  0  0  0  0  0  # atno 17342 bound_to 10162
  140.4097  143.2663  151.9847 LP  0  0  0  0  0  0  0  0  0  0  0  0  # atno 17343 bound_to 10162
  157.0945  130.5956  149.5446 LP  0  0  0  0  0  0  0  0  0  0  0  0  # atno 17370 bound_to 10713
  155.9965  130.5034  150.7499 LP  0  0  0  0  0  0  0  0  0  0  0  0  # atno 17371 bound_to 10713
  140.3195  134.8019  157.4241 LP  0  0  0  0  0  0  0  0  0  0  0  0  # atno 17394 bound_to 11000
  140.1109  134.5347  155.8267 LP  0  0  0  0  0  0  0  0  0  0  0  0  # atno 17395 bound_to 11000

$$$$
