AV-unprocessed.smi:2953|AV-procd|sdf|11296|dock5
  -GOLD-   2272016193D 1   1.00000     0.00000
 Structure written by MMmdl.
 46 48  0  0  0  0  0  0  0  0  2 V2000
  152.8830  140.8283  161.0792 C   0  0  0  0  0  0  0  0  0  0  0  0
  152.2424  141.9579  160.2955 C   0  0  0  0  0  0  0  0  0  0  0  0
  152.2401  143.2573  160.8447 C   0  0  0  0  0  0  0  0  0  0  0  0
  151.6524  144.3247  160.1430 C   0  0  0  0  0  0  0  0  0  0  0  0
  151.0620  144.0944  158.8883 C   0  0  0  0  0  0  0  0  0  0  0  0
  151.0596  142.7996  158.3359 C   0  0  0  0  0  0  0  0  0  0  0  0
  151.6505  141.7137  159.0327 C   0  0  0  0  0  0  0  0  0  0  0  0
  151.6789  140.4216  158.5465 O   0  0  0  0  0  0  0  0  0  0  0  0
  150.6179  139.9991  157.6990 C   0  0  0  0  0  0  0  0  0  0  0  0
  150.8238  140.5693  156.2891 C   0  0  0  0  0  0  0  0  0  0  0  0
  150.1390  139.7808  155.2528 N   0  0  0  0  0  0  0  0  0  0  0  0
  150.4114  138.5430  154.7419 C   0  0  0  0  0  0  0  0  0  0  0  0
  151.5479  137.6346  155.1145 C   0  0  1  0  0  0  0  0  0  0  0  0
  152.9022  138.3250  154.8940 C   0  0  0  0  0  0  0  0  0  0  0  0
  151.4534  137.1974  156.5021 N   0  0  0  0  0  0  0  0  0  0  0  0
  152.3361  136.3935  157.1076 C   0  0  0  0  0  0  0  0  0  0  0  0
  153.3284  135.9410  156.5430 O   0  0  0  0  0  0  0  0  0  0  0  0
  149.4759  138.2943  153.7800 N   0  3  0  0  0  0  0  0  0  0  0  0
  148.5903  139.3673  153.6876 C   0  0  0  0  0  0  0  0  0  0  0  0
  147.4836  139.5680  152.8684 C   0  0  0  0  0  0  0  0  0  0  0  0
  146.7932  140.7878  153.0256 C   0  0  0  0  0  0  0  0  0  0  0  0
  147.2089  141.7502  153.9685 C   0  0  0  0  0  0  0  0  0  0  0  0
  148.3322  141.5341  154.7939 C   0  0  0  0  0  0  0  0  0  0  0  0
  149.0099  140.3260  154.6310 C   0  0  0  0  0  0  0  0  0  0  0  0
  153.5988  141.2122  161.8068 H   0  0  0  0  0  0  0  0  0  0  0  0
  153.4163  140.1421  160.4207 H   0  0  0  0  0  0  0  0  0  0  0  0
  152.1171  140.2718  161.6182 H   0  0  0  0  0  0  0  0  0  0  0  0
  152.6900  143.4409  161.8095 H   0  0  0  0  0  0  0  0  0  0  0  0
  151.6540  145.3180  160.5672 H   0  0  0  0  0  0  0  0  0  0  0  0
  150.6086  144.9122  158.3480 H   0  0  0  0  0  0  0  0  0  0  0  0
  150.5917  142.6675  157.3724 H   0  0  0  0  0  0  0  0  0  0  0  0
  150.5800  138.9095  157.6572 H   0  0  0  0  0  0  0  0  0  0  0  0
  149.6623  140.3541  158.0879 H   0  0  0  0  0  0  0  0  0  0  0  0
  150.4710  141.5996  156.2325 H   0  0  0  0  0  0  0  0  0  0  0  0
  151.8862  140.6003  156.0520 H   0  0  0  0  0  0  0  0  0  0  0  0
  151.5193  136.7557  154.4689 H   0  0  0  0  0  0  0  0  0  0  0  0
  153.0014  138.6728  153.8663 H   0  0  0  0  0  0  0  0  0  0  0  0
  153.7281  137.6409  155.0917 H   0  0  0  0  0  0  0  0  0  0  0  0
  153.0261  139.1895  155.5475 H   0  0  0  0  0  0  0  0  0  0  0  0
  150.6653  137.5290  157.0397 H   0  0  0  0  0  0  0  0  0  0  0  0
  152.0643  136.1963  158.1555 H   0  0  0  0  0  0  0  0  0  0  0  0
  147.1637  138.8323  152.1451 H   0  0  0  0  0  0  0  0  0  0  0  0
  145.9279  140.9896  152.4105 H   0  0  0  0  0  0  0  0  0  0  0  0
  146.6557  142.6740  154.0602 H   0  0  0  0  0  0  0  0  0  0  0  0
  148.6416  142.2774  155.5136 H   0  0  0  0  0  0  0  0  0  0  0  0
  149.4490  137.4469  153.2279 H   0  0  0  0  0  0  0  0  0  0  0  0
  1  2  1  0  0  0  0
  1 25  1  0  0  0  0
  1 26  1  0  0  0  0
  1 27  1  0  0  0  0
  2  7  1  0  0  0  0
  2  3  2  0  0  0  0
  3  4  1  0  0  0  0
  3 28  1  0  0  0  0
  4  5  2  0  0  0  0
  4 29  1  0  0  0  0
  5  6  1  0  0  0  0
  5 30  1  0  0  0  0
  6  7  2  0  0  0  0
  6 31  1  0  0  0  0
  7  8  1  0  0  0  0
  8  9  1  0  0  0  0
  9 10  1  0  0  0  0
  9 32  1  0  0  0  0
  9 33  1  0  0  0  0
 10 11  1  0  0  0  0
 10 34  1  0  0  0  0
 10 35  1  0  0  0  0
 11 24  1  0  0  0  0
 11 12  1  0  0  0  0
 12 13  1  0  0  0  0
 12 18  2  0  0  0  0
 13 14  1  0  0  0  0
 13 15  1  0  0  0  0
 13 36  1  0  0  0  0
 14 37  1  0  0  0  0
 14 38  1  0  0  0  0
 14 39  1  0  0  0  0
 15 16  1  0  0  0  0
 15 40  1  0  0  0  0
 16 17  2  0  0  0  0
 16 41  1  0  0  0  0
 18 19  1  0  0  0  0
 18 46  1  0  0  0  0
 19 24  2  0  0  0  0
 19 20  1  0  0  0  0
 20 21  2  0  0  0  0
 20 42  1  0  0  0  0
 21 22  1  0  0  0  0
 21 43  1  0  0  0  0
 22 23  2  0  0  0  0
 22 44  1  0  0  0  0
 23 24  1  0  0  0  0
 23 45  1  0  0  0  0
M  CHG  1  18   1
M  END
> <s_m_source_file>
AV-unprocessed.smi

> <i_m_source_file_index>
2953

> <i_lp_mmshare_version>
43012

> <i_f3d_flags>
0

> <s_epik_input>
W0NIM11jMVtjSF1bY0hdW2NIXVtjSF1jMU9bQ0gyXVtDSDJdbihjKG4yKVtDQEhdKFtDSDNdKVtOSF1bQ0hdPU8pYyhjMjMpW2NIXVtjSF1bY0hdW2NIXTM=

> <s_epik_cmdline>
J2VwaWtfcHl0aG9uJywgJy1waCcsICc3LjAnLCAnLXRuJywgJzgnLCAnLW1hJywgJzIwMCcsICctbWV0YWxfYmluZGluZycsICctaW1hZScsICc8aW5maWxlLm1hZT4nLCAnLW9tYWUnLCAnPG91dGZpbGUubWFlPic=

> <r_lp_tautomer_probability>
1

> <r_epik_Ionization_Penalty>
1.14644

> <r_epik_Ionization_Penalty_Charging>
1.14644

> <r_epik_Ionization_Penalty_Neutral>
5.5802e-08

> <r_epik_State_Penalty>
1.20743

> <r_epik_Charging_Adjusted_Penalty>
2.35387

> <i_epik_Tot_Q>
1

> <i_epik_Tot_abs_Q>
1

> <r_epik_Metal_State_Penalty>
1.28856

> <b_epik_Metal_Only>
0

> <s_lp_Force_Field>
OPLS_2005

> <r_lp_Energy>
17.243

> <b_lp_Chiralities_Consistent>
1

> <s_lp_Variant>
AV-unprocessed.smi:2953-4

> <Gold.Version>
5.8.1

> <Gold.Id.Protein>
6NUR|6NUR_protein|mol2

> <Gold.PLP.Fitness>
62.8379

> <Gold.PLP.PLP>
-55.1651

> <Gold.PLP.part.hbond>
-2.6487

> <Gold.PLP.part.metal>
0.0000

> <Gold.PLP.part.buried>
0.4661

> <Gold.PLP.part.nonpolar>
-53.3654

> <Gold.PLP.part.repulsive>
0.1350

> <Gold.PLP.ligand.clash>
0.0000

> <Gold.PLP.ligand.torsion>
0.7119

> <Gold.PLP.Chemscore.Hbond>
3.0000

> <Gold.PLP.Chemscore.CHOScore>
0.0000

> <Gold.PLP.Chemscore.Metal>
0.0000

> <Gold.Chemscore.Hbonds>
donor molecule, donor type, donor heavy atom, donor atom, acceptor molecule, acceptor atom, score
      L1  H    18    46       P1  7948  2.00
      P1  H 10752 10763       L1    17  0.52

> <Gold.PLP.Chemscore.Internal.Correction>
0.0967

> <Gold.Rescore>
     Score         DG    S(hbond)    S(metal)    S(lipo)     H(rot)  DE(clash)    DE(int)     intcor
     19.02     -22.82       1.73        0.00     149.71       2.32       1.53       2.27       ----

> <Gold.Chemscore.Fitness>
19.0160

> <Gold.Chemscore.DG>
-22.8156

> <Gold.Chemscore.ZeroCoef>
-5.4800

> <Gold.Chemscore.Hbond>
1.7260

> <Gold.Chemscore.Metal>
0.0000

> <Gold.Chemscore.Lipo>
149.7073

> <Gold.Chemscore.Internal_Hbond>
0.0000

> <Gold.Chemscore.DEClash>
1.5280

> <Gold.Chemscore.DEInternal>
2.2716

> <Gold.Chemscore.Rot>
2.3223

> <Gold.Chemscore.Internal.Correction>
   9.000000E+99

> <Gold.Chemscore.Hbonds>
donor molecule, donor type, donor heavy atom, donor atom, acceptor molecule, acceptor atom, score
      L1  H    18    46       P1  7948  0.92
      P1  H 10752 10763       L1    17  0.52

> <Gold.Chemscore.Hbond.Weighted>
-5.7649

> <Gold.Chemscore.Metal.Weighted>
-0.0000

> <Gold.Chemscore.Lipo.Weighted>
-17.5158

> <Gold.Chemscore.Internal_Hbond.Weighted>
0.0000

> <Gold.Chemscore.DEClash.Weighted>
1.5280

> <Gold.Chemscore.DEInternal.Weighted>
2.2716

> <Gold.Chemscore.Rot.Weighted>
5.9450

> <Gold.Chemscore.Internal.Correction.Weighted>
   9.000000E+99

> <Gold.Protein.RotatedTorsions>
[ 6907 6896 6895 6894 ] final  130.87 input  -60.11 | X-H torsion
[ 7974 7965 7964 7962 ] final  -93.31 input  175.53 | X-H torsion
[ 8008 7997 7996 7995 ] final   94.00 input   59.86 | X-H torsion
[ 10167 10162 10161 10158 ] final  118.94 input  -65.29 | X-H torsion
[ 10718 10713 10712 10709 ] final -158.68 input   66.30 | X-H torsion
[ 10763 10752 10751 10750 ] final  123.99 input  -60.55 | X-H torsion
[ 11005 11000 10999 10996 ] final   74.90 input  -57.11 | X-H torsion

> <Gold.Protein.ActiveResidues>
 VAL166  LYS551  ARG553  GLY616  TRP617  ASP618  TYR619  PRO620  LYS621  CYS622 
 ASP623  PHE694  ASN695  SER759  ASP760  ASP761  ALA762  ILE779  LEU786  VAL792 
 PHE793  MET794  SER795  GLU796  ALA797  LYS798  CYS799  TRP800  GLU811  SER814 

> <Gold.Protein.RotatedAtoms>
  152.3483  133.6149  159.5926 H   0  0  0  0  0  0  0  0  0  0  0  0  # atno 6907 bound_to 6896
  150.7522  133.9614  159.3525 H   0  0  0  0  0  0  0  0  0  0  0  0  # atno 6908 bound_to 6896
  151.7469  135.0842  160.0375 H   0  0  0  0  0  0  0  0  0  0  0  0  # atno 6909 bound_to 6896
  145.3883  140.9525  143.2355 H   0  0  0  0  0  0  0  0  0  0  0  0  # atno 7974 bound_to 7965
  156.0530  140.3305  155.7373 H   0  0  0  0  0  0  0  0  0  0  0  0  # atno 8008 bound_to 7997
  155.5572  140.0615  157.2854 H   0  0  0  0  0  0  0  0  0  0  0  0  # atno 8009 bound_to 7997
  154.4445  140.1884  156.0734 H   0  0  0  0  0  0  0  0  0  0  0  0  # atno 8010 bound_to 7997
  139.6078  144.7074  151.2912 H   0  0  0  0  0  0  0  0  0  0  0  0  # atno 10167 bound_to 10162
  156.5575  130.8632  151.2799 H   0  0  0  0  0  0  0  0  0  0  0  0  # atno 10718 bound_to 10713
  153.6543  135.3357  155.3109 H   0  0  0  0  0  0  0  0  0  0  0  0  # atno 10763 bound_to 10752
  154.8530  135.4348  154.1871 H   0  0  0  0  0  0  0  0  0  0  0  0  # atno 10764 bound_to 10752
  153.2822  135.7010  153.7449 H   0  0  0  0  0  0  0  0  0  0  0  0  # atno 10765 bound_to 10752
  139.9369  134.7472  156.1205 H   0  0  0  0  0  0  0  0  0  0  0  0  # atno 11005 bound_to 11000
  144.8458  139.5399  143.6879 LP  0  0  0  0  0  0  0  0  0  0  0  0  # atno 17320 bound_to 7965
  146.2810  139.6876  142.9229 LP  0  0  0  0  0  0  0  0  0  0  0  0  # atno 17321 bound_to 7965
  140.7298  143.6899  150.7931 LP  0  0  0  0  0  0  0  0  0  0  0  0  # atno 17342 bound_to 10162
  140.0488  143.5271  152.2684 LP  0  0  0  0  0  0  0  0  0  0  0  0  # atno 17343 bound_to 10162
  157.7375  130.9797  150.2198 LP  0  0  0  0  0  0  0  0  0  0  0  0  # atno 17370 bound_to 10713
  156.2828  130.3735  149.7918 LP  0  0  0  0  0  0  0  0  0  0  0  0  # atno 17371 bound_to 10713
  141.0986  133.6686  156.2702 LP  0  0  0  0  0  0  0  0  0  0  0  0  # atno 17394 bound_to 11000
  140.6053  134.5513  157.5524 LP  0  0  0  0  0  0  0  0  0  0  0  0  # atno 17395 bound_to 11000

$$$$
