AV-unprocessed.smi:363|AV-procd|sdf|2424|dock2
  -GOLD-   2262022363D 1   1.00000     0.00000
 Structure written by MMmdl.
 39 40  0  0  0  0  0  0  0  0  1 V2000
  153.8761  134.5984  163.3670 C   0  0  0  0  0  0  0  0  0  0  0  0
  154.1257  136.0299  162.9086 C   0  0  0  0  0  0  0  0  0  0  0  0
  153.4321  136.4925  161.7292 C   0  0  0  0  0  0  0  0  0  0  0  0
  153.6366  137.7267  161.2422 C   0  0  0  0  0  0  0  0  0  0  0  0
  152.9043  138.2001  159.9909 C   0  0  0  0  0  0  0  0  0  0  0  0
  154.5340  138.6188  161.8915 N   0  0  0  0  0  0  0  0  0  0  0  0
  154.7497  139.9739  161.3327 C   0  0  0  0  0  0  0  0  0  0  0  0
  154.1261  141.0865  162.2099 C   0  0  1  0  0  0  0  0  0  0  0  0
  155.1456  141.7107  162.9640 O   0  0  0  0  0  0  0  0  0  0  0  0
  153.3912  142.1066  161.3526 C   0  0  0  0  0  0  0  0  0  0  0  0
  152.8537  143.2760  161.9346 C   0  0  0  0  0  0  0  0  0  0  0  0
  152.1835  144.2234  161.1368 C   0  0  0  0  0  0  0  0  0  0  0  0
  152.0483  144.0085  159.7516 C   0  0  0  0  0  0  0  0  0  0  0  0
  151.2278  145.1698  158.7742 Cl  0  0  0  0  0  0  0  0  0  0  0  0
  152.5841  142.8454  159.1654 C   0  0  0  0  0  0  0  0  0  0  0  0
  153.2535  141.8971  159.9634 C   0  0  0  0  0  0  0  0  0  0  0  0
  155.2067  138.2718  163.0355 C   0  0  0  0  0  0  0  0  0  0  0  0
  155.9285  139.0952  163.6073 O   0  0  0  0  0  0  0  0  0  0  0  0
  154.9884  136.8823  163.5247 C   0  0  0  0  0  0  0  0  0  0  0  0
  155.7360  136.4816  164.7331 C   0  0  0  0  0  0  0  0  0  0  0  0
  156.8220  137.2193  165.0027 N   0  0  0  0  0  0  0  0  0  0  0  0
  155.4726  135.5025  165.4296 O   0  0  0  0  0  0  0  0  0  0  0  0
  153.2946  134.0446  162.6294 H   0  0  0  0  0  0  0  0  0  0  0  0
  153.3181  134.5880  164.3035 H   0  0  0  0  0  0  0  0  0  0  0  0
  154.8149  134.0626  163.5109 H   0  0  0  0  0  0  0  0  0  0  0  0
  152.7428  135.8298  161.2259 H   0  0  0  0  0  0  0  0  0  0  0  0
  152.1000  137.5109  159.7317 H   0  0  0  0  0  0  0  0  0  0  0  0
  153.5854  138.2384  159.1405 H   0  0  0  0  0  0  0  0  0  0  0  0
  152.4459  139.1784  160.1219 H   0  0  0  0  0  0  0  0  0  0  0  0
  155.8032  140.1867  161.1401 H   0  0  0  0  0  0  0  0  0  0  0  0
  154.3222  140.0146  160.3318 H   0  0  0  0  0  0  0  0  0  0  0  0
  153.4191  140.6552  162.9194 H   0  0  0  0  0  0  0  0  0  0  0  0
  155.9754  141.5409  162.5450 H   0  0  0  0  0  0  0  0  0  0  0  0
  152.9569  143.4502  162.9956 H   0  0  0  0  0  0  0  0  0  0  0  0
  151.7753  145.1154  161.5891 H   0  0  0  0  0  0  0  0  0  0  0  0
  152.4838  142.6792  158.1029 H   0  0  0  0  0  0  0  0  0  0  0  0
  153.6621  141.0096  159.5025 H   0  0  0  0  0  0  0  0  0  0  0  0
  157.3968  136.9977  165.8029 H   0  0  0  0  0  0  0  0  0  0  0  0
  157.0715  137.9848  164.3936 H   0  0  0  0  0  0  0  0  0  0  0  0
  1  2  1  0  0  0  0
  1 23  1  0  0  0  0
  1 24  1  0  0  0  0
  1 25  1  0  0  0  0
  2 19  2  0  0  0  0
  2  3  1  0  0  0  0
  3  4  2  0  0  0  0
  3 26  1  0  0  0  0
  4  5  1  0  0  0  0
  4  6  1  0  0  0  0
  5 27  1  0  0  0  0
  5 28  1  0  0  0  0
  5 29  1  0  0  0  0
  6  7  1  0  0  0  0
  6 17  1  0  0  0  0
  7  8  1  0  0  0  0
  7 30  1  0  0  0  0
  7 31  1  0  0  0  0
  8  9  1  0  0  0  0
  8 10  1  0  0  0  0
  8 32  1  0  0  0  0
  9 33  1  0  0  0  0
 10 16  1  0  0  0  0
 10 11  2  0  0  0  0
 11 12  1  0  0  0  0
 11 34  1  0  0  0  0
 12 13  2  0  0  0  0
 12 35  1  0  0  0  0
 13 14  1  0  0  0  0
 13 15  1  0  0  0  0
 15 16  2  0  0  0  0
 15 36  1  0  0  0  0
 16 37  1  0  0  0  0
 17 18  2  0  0  0  0
 17 19  1  0  0  0  0
 19 20  1  0  0  0  0
 20 21  1  0  0  0  0
 20 22  2  0  0  0  0
 21 38  1  0  0  0  0
 21 39  1  0  0  0  0
M  END
> <s_m_source_file>
AV-unprocessed.smi

> <i_m_source_file_index>
363

> <i_lp_mmshare_version>
43012

> <i_f3d_flags>
0

> <s_epik_input>
W0NIM11jMVtjSF1jKFtDSDNdKW4oYyg9TyljMUMoPU8pW05IMl0pW0NIMl1bQ0BIXShbT0hdKWMyW2NIXVtjSF1jKENsKVtjSF1bY0hdMg==

> <s_epik_cmdline>
J2VwaWtfcHl0aG9uJywgJy1waCcsICc3LjAnLCAnLXRuJywgJzgnLCAnLW1hJywgJzIwMCcsICctbWV0YWxfYmluZGluZycsICctaW1hZScsICc8aW5maWxlLm1hZT4nLCAnLW9tYWUnLCAnPG91dGZpbGUubWFlPic=

> <r_lp_tautomer_probability>
1

> <r_epik_Ionization_Penalty>
3.91973e-07

> <r_epik_Ionization_Penalty_Charging>
1.35363e-07

> <r_epik_Ionization_Penalty_Neutral>
2.5661e-07

> <r_epik_State_Penalty>
-0

> <r_epik_Charging_Adjusted_Penalty>
1.35363e-07

> <i_epik_Tot_Q>
0

> <i_epik_Tot_abs_Q>
0

> <r_epik_Metal_State_Penalty>
-0

> <b_epik_Metal_Only>
0

> <s_lp_Force_Field>
OPLS_2005

> <r_lp_Energy>
39.726

> <b_lp_Chiralities_Consistent>
1

> <s_lp_Variant>
AV-unprocessed.smi:363-2

> <Gold.Version>
5.8.1

> <Gold.Id.Protein>
6NUR|6NUR_protein|mol2

> <Gold.PLP.Fitness>
44.2635

> <Gold.PLP.PLP>
-45.8470

> <Gold.PLP.part.hbond>
-1.0000

> <Gold.PLP.part.metal>
0.0000

> <Gold.PLP.part.buried>
-4.4852

> <Gold.PLP.part.nonpolar>
-40.0640

> <Gold.PLP.part.repulsive>
0.1222

> <Gold.PLP.ligand.clash>
0.0000

> <Gold.PLP.ligand.torsion>
0.9360

> <Gold.PLP.Chemscore.Hbond>
0.0000

> <Gold.PLP.Chemscore.CHOScore>
0.0000

> <Gold.PLP.Chemscore.Metal>
0.0000

> <Gold.PLP.Chemscore.Internal.Correction>
0.2885

> <Gold.Rescore>
     Score         DG    S(hbond)    S(metal)    S(lipo)     H(rot)  DE(clash)    DE(int)     intcor
     12.03     -15.47       0.00        0.00     128.00       1.95       0.29       3.15       ----

> <Gold.Chemscore.Fitness>
12.0270

> <Gold.Chemscore.DG>
-15.4654

> <Gold.Chemscore.ZeroCoef>
-5.4800

> <Gold.Chemscore.Hbond>
0.0000

> <Gold.Chemscore.Metal>
0.0000

> <Gold.Chemscore.Lipo>
128.0014

> <Gold.Chemscore.Internal_Hbond>
0.0000

> <Gold.Chemscore.DEClash>
0.2925

> <Gold.Chemscore.DEInternal>
3.1458

> <Gold.Chemscore.Rot>
1.9495

> <Gold.Chemscore.Internal.Correction>
   9.000000E+99

> <Gold.Chemscore.Hbond.Weighted>
-0.0000

> <Gold.Chemscore.Metal.Weighted>
-0.0000

> <Gold.Chemscore.Lipo.Weighted>
-14.9762

> <Gold.Chemscore.Internal_Hbond.Weighted>
0.0000

> <Gold.Chemscore.DEClash.Weighted>
0.2925

> <Gold.Chemscore.DEInternal.Weighted>
3.1458

> <Gold.Chemscore.Rot.Weighted>
4.9908

> <Gold.Chemscore.Internal.Correction.Weighted>
   9.000000E+99

> <Gold.Protein.RotatedTorsions>
[ 6907 6896 6895 6894 ] final  101.34 input  -60.11 | X-H torsion
[ 7974 7965 7964 7962 ] final  -49.75 input  175.53 | X-H torsion
[ 8008 7997 7996 7995 ] final   25.14 input   59.86 | X-H torsion
[ 10167 10162 10161 10158 ] final  -79.92 input  -65.29 | X-H torsion
[ 10718 10713 10712 10709 ] final   48.26 input   66.30 | X-H torsion
[ 10763 10752 10751 10750 ] final  120.22 input  -60.55 | X-H torsion
[ 11005 11000 10999 10996 ] final   60.67 input  -57.11 | X-H torsion

> <Gold.Protein.ActiveResidues>
 VAL166  LYS551  ARG553  GLY616  TRP617  ASP618  TYR619  PRO620  LYS621  CYS622 
 ASP623  PHE694  ASN695  SER759  ASP760  ASP761  ALA762  ILE779  LEU786  VAL792 
 PHE793  MET794  SER795  GLU796  ALA797  LYS798  CYS799  TRP800  GLU811  SER814 

> <Gold.Protein.RotatedAtoms>
  152.5351  134.0141  159.7951 H   0  0  0  0  0  0  0  0  0  0  0  0  # atno 6907 bound_to 6896
  151.0338  133.5759  159.2665 H   0  0  0  0  0  0  0  0  0  0  0  0  # atno 6908 bound_to 6896
  151.2753  135.0704  159.9203 H   0  0  0  0  0  0  0  0  0  0  0  0  # atno 6909 bound_to 6896
  145.9373  140.7695  142.9570 H   0  0  0  0  0  0  0  0  0  0  0  0  # atno 7974 bound_to 7965
  155.0071  140.3132  155.4844 H   0  0  0  0  0  0  0  0  0  0  0  0  # atno 8008 bound_to 7997
  156.2915  140.2221  156.5124 H   0  0  0  0  0  0  0  0  0  0  0  0  # atno 8009 bound_to 7997
  154.7567  140.0462  157.0927 H   0  0  0  0  0  0  0  0  0  0  0  0  # atno 8010 bound_to 7997
  140.4550  143.2471  151.8433 H   0  0  0  0  0  0  0  0  0  0  0  0  # atno 10167 bound_to 10162
  157.4669  130.8231  149.7946 H   0  0  0  0  0  0  0  0  0  0  0  0  # atno 10718 bound_to 10713
  153.5951  135.3458  155.2925 H   0  0  0  0  0  0  0  0  0  0  0  0  # atno 10763 bound_to 10752
  154.8646  135.4214  154.2474 H   0  0  0  0  0  0  0  0  0  0  0  0  # atno 10764 bound_to 10752
  153.3290  135.7043  153.7035 H   0  0  0  0  0  0  0  0  0  0  0  0  # atno 10765 bound_to 10752
  140.0215  134.6145  155.9633 H   0  0  0  0  0  0  0  0  0  0  0  0  # atno 11005 bound_to 11000
  144.6773  140.2223  143.7365 LP  0  0  0  0  0  0  0  0  0  0  0  0  # atno 17320 bound_to 7965
  145.8347  139.2102  143.1862 LP  0  0  0  0  0  0  0  0  0  0  0  0  # atno 17321 bound_to 7965
  139.4800  144.5075  151.8977 LP  0  0  0  0  0  0  0  0  0  0  0  0  # atno 17342 bound_to 10162
  140.4162  144.2304  150.5887 LP  0  0  0  0  0  0  0  0  0  0  0  0  # atno 17343 bound_to 10162
  156.0054  130.3858  150.2449 LP  0  0  0  0  0  0  0  0  0  0  0  0  # atno 17370 bound_to 10713
  157.0629  131.0095  151.3216 LP  0  0  0  0  0  0  0  0  0  0  0  0  # atno 17371 bound_to 10713
  141.1777  133.6542  156.4893 LP  0  0  0  0  0  0  0  0  0  0  0  0  # atno 17394 bound_to 11000
  140.4379  134.7042  157.4976 LP  0  0  0  0  0  0  0  0  0  0  0  0  # atno 17395 bound_to 11000

$$$$
