AV-unprocessed.smi:1703|AV-procd|sdf|6863|dock9
  -GOLD-   22720 8 53D 1   1.00000     0.00000
 Structure written by MMmdl.
 49 51  0  0  0  0  0  0  0  0  2 V2000
  144.3167  139.3059  157.4252 C   0  0  0  0  0  0  0  0  0  0  0  0
  144.5547  140.1709  156.1826 C   0  0  2  0  0  0  0  0  0  0  0  0
  145.8107  139.7352  155.4045 C   0  0  0  0  0  0  0  0  0  0  0  0
  146.0543  140.6414  154.2575 N   0  3  2  0  0  0  0  0  0  0  0  0
  147.2197  140.2177  153.4405 C   0  0  0  0  0  0  0  0  0  0  0  0
  148.5710  140.5316  154.1199 C   0  0  2  0  0  0  0  0  0  0  0  0
  149.4173  141.1707  153.1858 O   0  0  0  0  0  0  0  0  0  0  0  0
  149.3074  139.2817  154.6430 C   0  0  0  0  0  0  0  0  0  0  0  0
  150.5559  139.6063  155.3205 N   0  0  0  0  0  0  0  0  0  0  0  0
  151.8173  139.2084  155.0125 C   0  0  0  0  0  0  0  0  0  0  0  0
  152.1186  138.3163  153.8471 C   0  0  0  0  0  0  0  0  0  0  0  0
  151.5174  137.0450  153.9639 O   0  0  0  0  0  0  0  0  0  0  0  0
  152.7798  139.6582  155.8180 N   0  0  0  0  0  0  0  0  0  0  0  0
  152.0821  140.4296  156.7261 C   0  0  0  0  0  0  0  0  0  0  0  0
  152.5361  141.1797  157.8344 C   0  0  0  0  0  0  0  0  0  0  0  0
  151.6225  141.9013  158.6303 C   0  0  0  0  0  0  0  0  0  0  0  0
  150.2450  141.8834  158.3299 C   0  0  0  0  0  0  0  0  0  0  0  0
  149.7715  141.1412  157.2309 C   0  0  0  0  0  0  0  0  0  0  0  0
  150.6875  140.4214  156.4406 C   0  0  0  0  0  0  0  0  0  0  0  0
  146.1289  142.0490  154.7211 C   0  0  0  0  0  0  0  0  0  0  0  0
  144.8614  142.4223  155.5131 C   0  0  2  0  0  0  0  0  0  0  0  0
  144.9275  143.8473  156.0735 C   0  0  0  0  0  0  0  0  0  0  0  0
  144.7136  141.5210  156.6048 O   0  0  0  0  0  0  0  0  0  0  0  0
  144.1710  138.2601  157.1538 H   0  0  0  0  0  0  0  0  0  0  0  0
  143.4284  139.6354  157.9647 H   0  0  0  0  0  0  0  0  0  0  0  0
  145.1617  139.3591  158.1123 H   0  0  0  0  0  0  0  0  0  0  0  0
  143.6780  140.0982  155.5366 H   0  0  0  0  0  0  0  0  0  0  0  0
  146.6831  139.7374  156.0606 H   0  0  0  0  0  0  0  0  0  0  0  0
  145.6822  138.7135  155.0449 H   0  0  0  0  0  0  0  0  0  0  0  0
  147.1242  139.1524  153.2264 H   0  0  0  0  0  0  0  0  0  0  0  0
  147.1936  140.7254  152.4751 H   0  0  0  0  0  0  0  0  0  0  0  0
  148.4226  141.2147  154.9550 H   0  0  0  0  0  0  0  0  0  0  0  0
  149.6618  140.5455  152.5202 H   0  0  0  0  0  0  0  0  0  0  0  0
  148.6628  138.7143  155.3137 H   0  0  0  0  0  0  0  0  0  0  0  0
  149.5406  138.6124  153.8138 H   0  0  0  0  0  0  0  0  0  0  0  0
  151.7612  138.7873  152.9306 H   0  0  0  0  0  0  0  0  0  0  0  0
  153.1968  138.2017  153.7386 H   0  0  0  0  0  0  0  0  0  0  0  0
  151.1036  136.8302  153.1420 H   0  0  0  0  0  0  0  0  0  0  0  0
  153.5894  141.2017  158.0717 H   0  0  0  0  0  0  0  0  0  0  0  0
  151.9808  142.4727  159.4743 H   0  0  0  0  0  0  0  0  0  0  0  0
  149.5524  142.4414  158.9430 H   0  0  0  0  0  0  0  0  0  0  0  0
  148.7174  141.1285  156.9977 H   0  0  0  0  0  0  0  0  0  0  0  0
  147.0149  142.1815  155.3444 H   0  0  0  0  0  0  0  0  0  0  0  0
  146.2330  142.7245  153.8729 H   0  0  0  0  0  0  0  0  0  0  0  0
  143.9872  142.3466  154.8637 H   0  0  0  0  0  0  0  0  0  0  0  0
  145.0346  144.5797  155.2729 H   0  0  0  0  0  0  0  0  0  0  0  0
  145.7724  143.9674  156.7523 H   0  0  0  0  0  0  0  0  0  0  0  0
  144.0197  144.0912  156.6256 H   0  0  0  0  0  0  0  0  0  0  0  0
  145.2437  140.5678  153.6587 H   0  0  0  0  0  0  0  0  0  0  0  0
  1  2  1  0  0  0  0
  1 24  1  0  0  0  0
  1 25  1  0  0  0  0
  1 26  1  0  0  0  0
  2 23  1  0  0  0  0
  2  3  1  0  0  0  0
  2 27  1  0  0  0  0
  3  4  1  0  0  0  0
  3 28  1  0  0  0  0
  3 29  1  0  0  0  0
  4  5  1  0  0  0  0
  4 20  1  0  0  0  0
  4 49  1  0  0  0  0
  5  6  1  0  0  0  0
  5 30  1  0  0  0  0
  5 31  1  0  0  0  0
  6  7  1  0  0  0  0
  6  8  1  0  0  0  0
  6 32  1  0  0  0  0
  7 33  1  0  0  0  0
  8  9  1  0  0  0  0
  8 34  1  0  0  0  0
  8 35  1  0  0  0  0
  9 19  1  0  0  0  0
  9 10  1  0  0  0  0
 10 11  1  0  0  0  0
 10 13  2  0  0  0  0
 11 12  1  0  0  0  0
 11 36  1  0  0  0  0
 11 37  1  0  0  0  0
 12 38  1  0  0  0  0
 13 14  1  0  0  0  0
 14 19  2  0  0  0  0
 14 15  1  0  0  0  0
 15 16  2  0  0  0  0
 15 39  1  0  0  0  0
 16 17  1  0  0  0  0
 16 40  1  0  0  0  0
 17 18  2  0  0  0  0
 17 41  1  0  0  0  0
 18 19  1  0  0  0  0
 18 42  1  0  0  0  0
 20 21  1  0  0  0  0
 20 43  1  0  0  0  0
 20 44  1  0  0  0  0
 21 22  1  0  0  0  0
 21 23  1  0  0  0  0
 21 45  1  0  0  0  0
 22 46  1  0  0  0  0
 22 47  1  0  0  0  0
 22 48  1  0  0  0  0
M  CHG  1   4   1
M  END
> <s_m_source_file>
AV-unprocessed.smi

> <i_m_source_file_index>
1703

> <i_lp_mmshare_version>
43012

> <i_f3d_flags>
0

> <s_epik_input>
W0NIM11bQ0BASF0xW0NIMl1OKFtDSDJdW0NASF0oTzEpW0NIM10pW0NIMl1bQ0BIXShbT0hdKVtDSDJdbihjKG4yKVtDSDJdW09IXSljKGMyMylbY0hdW2NIXVtjSF1bY0hdMw==

> <s_epik_cmdline>
J2VwaWtfcHl0aG9uJywgJy1waCcsICc3LjAnLCAnLXRuJywgJzgnLCAnLW1hJywgJzIwMCcsICctbWV0YWxfYmluZGluZycsICctaW1hZScsICc8aW5maWxlLm1hZT4nLCAnLW9tYWUnLCAnPG91dGZpbGUubWFlPic=

> <r_epik_Ionization_Penalty>
0.655661

> <r_epik_Ionization_Penalty_Charging>
0.608065

> <r_epik_Ionization_Penalty_Neutral>
0.0475963

> <r_epik_State_Penalty>
0.695267

> <r_epik_Charging_Adjusted_Penalty>
1.30333

> <i_epik_Tot_Q>
1

> <i_epik_Tot_abs_Q>
1

> <r_epik_Metal_State_Penalty>
0.653591

> <b_epik_Metal_Only>
0

> <s_lp_Force_Field>
OPLS_2005

> <r_lp_Energy>
21.8251

> <b_lp_Chiralities_Consistent>
1

> <s_lp_Variant>
AV-unprocessed.smi:1703-11

> <Gold.Version>
5.8.1

> <Gold.Id.Protein>
6NUR|6NUR_protein|mol2

> <Gold.PLP.Fitness>
56.0002

> <Gold.PLP.PLP>
-37.4277

> <Gold.PLP.part.hbond>
-6.1972

> <Gold.PLP.part.metal>
0.0000

> <Gold.PLP.part.buried>
-5.5530

> <Gold.PLP.part.nonpolar>
-24.5493

> <Gold.PLP.part.repulsive>
0.0627

> <Gold.PLP.ligand.clash>
0.0000

> <Gold.PLP.ligand.torsion>
0.7670

> <Gold.PLP.Chemscore.Hbond>
6.6801

> <Gold.PLP.Chemscore.CHOScore>
0.0000

> <Gold.PLP.Chemscore.Metal>
0.0000

> <Gold.Chemscore.Hbonds>
donor molecule, donor type, donor heavy atom, donor atom, acceptor molecule, acceptor atom, score
      L1  H     4    49       P1 10175  2.00
      L1  H     7    33       P1  7957  0.78
      L1  H    12    38       P1  7949  0.99
      P1  H  7997  8010       L1    13  1.00
      P1  H  8011  8017       L1     7  0.70
      P1  H 10752 10763       L1    12  1.00

> <Gold.PLP.Chemscore.Internal.Correction>
0.0661

> <Gold.Rescore>
     Score         DG    S(hbond)    S(metal)    S(lipo)     H(rot)  DE(clash)    DE(int)     intcor
     16.65     -17.58       3.54        0.00      67.07       2.96       0.53       0.39       ----

> <Gold.Chemscore.Fitness>
16.6540

> <Gold.Chemscore.DG>
-17.5767

> <Gold.Chemscore.ZeroCoef>
-5.4800

> <Gold.Chemscore.Hbond>
3.5417

> <Gold.Chemscore.Metal>
0.0000

> <Gold.Chemscore.Lipo>
67.0733

> <Gold.Chemscore.Internal_Hbond>
0.0000

> <Gold.Chemscore.DEClash>
0.5307

> <Gold.Chemscore.DEInternal>
0.3920

> <Gold.Chemscore.Rot>
2.9611

> <Gold.Chemscore.Internal.Correction>
   9.000000E+99

> <Gold.Chemscore.Hbonds>
donor molecule, donor type, donor heavy atom, donor atom, acceptor molecule, acceptor atom, score
      L1  H     4    49       P1 10175  0.97
      L1  H     7    33       P1  7957  0.75
      L1  H    12    38       P1  7949  0.37
      P1  H  7997  8010       L1    13  0.45
      P1  H  8011  8017       L1     7  0.07
      P1  H 10752 10763       L1    12  0.40

> <Gold.Chemscore.Hbond.Weighted>
-11.8294

> <Gold.Chemscore.Metal.Weighted>
-0.0000

> <Gold.Chemscore.Lipo.Weighted>
-7.8476

> <Gold.Chemscore.Internal_Hbond.Weighted>
0.0000

> <Gold.Chemscore.DEClash.Weighted>
0.5307

> <Gold.Chemscore.DEInternal.Weighted>
0.3920

> <Gold.Chemscore.Rot.Weighted>
7.5803

> <Gold.Chemscore.Internal.Correction.Weighted>
   9.000000E+99

> <Gold.Protein.RotatedTorsions>
[ 6907 6896 6895 6894 ] final -173.11 input  -60.11 | X-H torsion
[ 7974 7965 7964 7962 ] final  134.64 input  175.53 | X-H torsion
[ 8008 7997 7996 7995 ] final   98.53 input   59.86 | X-H torsion
[ 10167 10162 10161 10158 ] final  -69.28 input  -65.29 | X-H torsion
[ 10718 10713 10712 10709 ] final -103.34 input   66.30 | X-H torsion
[ 10763 10752 10751 10750 ] final   41.79 input  -60.55 | X-H torsion
[ 11005 11000 10999 10996 ] final -129.15 input  -57.11 | X-H torsion

> <Gold.Protein.ActiveResidues>
 VAL166  LYS551  ARG553  GLY616  TRP617  ASP618  TYR619  PRO620  LYS621  CYS622 
 ASP623  PHE694  ASN695  SER759  ASP760  ASP761  ALA762  ILE779  LEU786  VAL792 
 PHE793  MET794  SER795  GLU796  ALA797  LYS798  CYS799  TRP800  GLU811  SER814 

> <Gold.Protein.RotatedAtoms>
  151.5509  133.3417  159.2952 H   0  0  0  0  0  0  0  0  0  0  0  0  # atno 6907 bound_to 6896
  150.8479  134.7797  159.6996 H   0  0  0  0  0  0  0  0  0  0  0  0  # atno 6908 bound_to 6896
  152.4532  134.5356  159.9875 H   0  0  0  0  0  0  0  0  0  0  0  0  # atno 6909 bound_to 6896
  144.9743  139.4572  143.5417 H   0  0  0  0  0  0  0  0  0  0  0  0  # atno 7974 bound_to 7965
  156.1014  140.3242  155.7947 H   0  0  0  0  0  0  0  0  0  0  0  0  # atno 8008 bound_to 7997
  155.4831  140.0555  157.2981 H   0  0  0  0  0  0  0  0  0  0  0  0  # atno 8009 bound_to 7997
  154.4699  140.2006  156.0036 H   0  0  0  0  0  0  0  0  0  0  0  0  # atno 8010 bound_to 7997
  140.5442  143.2313  151.7032 H   0  0  0  0  0  0  0  0  0  0  0  0  # atno 10167 bound_to 10162
  156.0262  130.5463  150.7239 H   0  0  0  0  0  0  0  0  0  0  0  0  # atno 10718 bound_to 10713
  152.9899  135.6151  154.2844 H   0  0  0  0  0  0  0  0  0  0  0  0  # atno 10763 bound_to 10752
  154.2572  135.2783  155.2794 H   0  0  0  0  0  0  0  0  0  0  0  0  # atno 10764 bound_to 10752
  154.5237  135.5807  153.6759 H   0  0  0  0  0  0  0  0  0  0  0  0  # atno 10765 bound_to 10752
  140.9456  134.1135  157.4111 H   0  0  0  0  0  0  0  0  0  0  0  0  # atno 11005 bound_to 11000
  146.3391  139.8976  142.8799 LP  0  0  0  0  0  0  0  0  0  0  0  0  # atno 17320 bound_to 7965
  145.2513  141.0045  143.3879 LP  0  0  0  0  0  0  0  0  0  0  0  0  # atno 17321 bound_to 7965
  139.5001  144.3920  152.0270 LP  0  0  0  0  0  0  0  0  0  0  0  0  # atno 17342 bound_to 10162
  140.3032  144.3623  150.6054 LP  0  0  0  0  0  0  0  0  0  0  0  0  # atno 17343 bound_to 10162
  157.4848  131.0905  151.0495 LP  0  0  0  0  0  0  0  0  0  0  0  0  # atno 17370 bound_to 10713
  157.0918  130.5945  149.5441 LP  0  0  0  0  0  0  0  0  0  0  0  0  # atno 17371 bound_to 10713
  139.8832  135.0050  156.6286 LP  0  0  0  0  0  0  0  0  0  0  0  0  # atno 17394 bound_to 11000
  140.7674  133.8766  155.8465 LP  0  0  0  0  0  0  0  0  0  0  0  0  # atno 17395 bound_to 11000

$$$$
