AV-unprocessed.smi:1543|AV-procd|sdf|6210|dock3
  -GOLD-   22720 6383D 1   1.00000     0.00000
 Structure written by MMmdl.
 49 50  0  0  0  0  0  0  0  0  2 V2000
  145.8791  136.4969  151.8806 C   0  0  0  0  0  0  0  0  0  0  0  0
  145.4296  137.6658  152.7643 C   0  0  2  0  0  0  0  0  0  0  0  0
  146.5260  138.7373  152.9139 C   0  0  0  0  0  0  0  0  0  0  0  0
  146.0767  139.8237  153.8295 N   0  3  2  0  0  0  0  0  0  0  0  0
  146.9797  141.0283  153.9145 C   0  0  0  0  0  0  0  0  0  0  0  0
  147.2378  141.5936  152.4951 C   0  0  0  0  0  0  0  0  0  0  0  0
  146.2604  142.1543  154.6997 C   0  0  0  0  0  0  0  0  0  0  0  0
  148.3377  140.6713  154.5913 C   0  0  0  0  0  0  0  0  0  0  0  0
  148.8978  141.7631  155.3870 N   0  0  0  0  0  0  0  0  0  0  0  0
  149.7415  141.6228  156.4196 C   0  0  0  0  0  0  0  0  0  0  0  0
  150.1413  140.5318  156.8252 O   0  0  0  0  0  0  0  0  0  0  0  0
  150.0892  142.8171  156.9280 N   0  0  0  0  0  0  0  0  0  0  0  0
  150.9398  143.0947  158.0322 C   0  0  0  0  0  0  0  0  0  0  0  0
  151.8721  142.1757  158.5722 C   0  0  0  0  0  0  0  0  0  0  0  0
  152.6461  142.5657  159.6819 C   0  0  0  0  0  0  0  0  0  0  0  0
  152.4557  143.8551  160.2153 C   0  0  0  0  0  0  0  0  0  0  0  0
  151.5615  144.7361  159.7198 N   0  0  0  0  0  0  0  0  0  0  0  0
  150.8220  144.3547  158.6565 C   0  0  0  0  0  0  0  0  0  0  0  0
  145.6587  139.2321  155.1324 C   0  0  0  0  0  0  0  0  0  0  0  0
  144.5861  138.1480  154.9172 C   0  0  2  0  0  0  0  0  0  0  0  0
  144.1755  137.4708  156.2297 C   0  0  0  0  0  0  0  0  0  0  0  0
  145.1040  137.1492  154.0482 O   0  0  0  0  0  0  0  0  0  0  0  0
  146.1280  136.8372  150.8751 H   0  0  0  0  0  0  0  0  0  0  0  0
  145.0894  135.7504  151.7915 H   0  0  0  0  0  0  0  0  0  0  0  0
  146.7584  136.0031  152.2948 H   0  0  0  0  0  0  0  0  0  0  0  0
  144.5386  138.1119  152.3190 H   0  0  0  0  0  0  0  0  0  0  0  0
  147.4370  138.2766  153.2969 H   0  0  0  0  0  0  0  0  0  0  0  0
  146.7525  139.1216  151.9213 H   0  0  0  0  0  0  0  0  0  0  0  0
  147.7068  142.5774  152.5314 H   0  0  0  0  0  0  0  0  0  0  0  0
  146.3085  141.7045  151.9353 H   0  0  0  0  0  0  0  0  0  0  0  0
  147.9088  140.9622  151.9130 H   0  0  0  0  0  0  0  0  0  0  0  0
  146.7782  143.1093  154.6050 H   0  0  0  0  0  0  0  0  0  0  0  0
  146.2060  141.9458  155.7679 H   0  0  0  0  0  0  0  0  0  0  0  0
  145.2443  142.3081  154.3345 H   0  0  0  0  0  0  0  0  0  0  0  0
  148.2449  139.7790  155.2109 H   0  0  0  0  0  0  0  0  0  0  0  0
  149.0864  140.4308  153.8374 H   0  0  0  0  0  0  0  0  0  0  0  0
  148.6276  142.6994  155.1230 H   0  0  0  0  0  0  0  0  0  0  0  0
  149.7466  143.6282  156.4339 H   0  0  0  0  0  0  0  0  0  0  0  0
  151.9990  141.1822  158.1716 H   0  0  0  0  0  0  0  0  0  0  0  0
  153.3667  141.8892  160.1170 H   0  0  0  0  0  0  0  0  0  0  0  0
  153.0328  144.1850  161.0663 H   0  0  0  0  0  0  0  0  0  0  0  0
  150.1143  145.0838  158.2898 H   0  0  0  0  0  0  0  0  0  0  0  0
  146.5187  138.7949  155.6403 H   0  0  0  0  0  0  0  0  0  0  0  0
  145.2418  139.9860  155.7972 H   0  0  0  0  0  0  0  0  0  0  0  0
  143.6976  138.5936  154.4659 H   0  0  0  0  0  0  0  0  0  0  0  0
  143.7593  138.1937  156.9318 H   0  0  0  0  0  0  0  0  0  0  0  0
  145.0275  136.9896  156.7111 H   0  0  0  0  0  0  0  0  0  0  0  0
  143.4181  136.7067  156.0534 H   0  0  0  0  0  0  0  0  0  0  0  0
  145.2248  140.1767  153.4173 H   0  0  0  0  0  0  0  0  0  0  0  0
  1  2  1  0  0  0  0
  1 23  1  0  0  0  0
  1 24  1  0  0  0  0
  1 25  1  0  0  0  0
  2 22  1  0  0  0  0
  2  3  1  0  0  0  0
  2 26  1  0  0  0  0
  3  4  1  0  0  0  0
  3 27  1  0  0  0  0
  3 28  1  0  0  0  0
  4  5  1  0  0  0  0
  4 19  1  0  0  0  0
  4 49  1  0  0  0  0
  5  6  1  0  0  0  0
  5  7  1  0  0  0  0
  5  8  1  0  0  0  0
  6 29  1  0  0  0  0
  6 30  1  0  0  0  0
  6 31  1  0  0  0  0
  7 32  1  0  0  0  0
  7 33  1  0  0  0  0
  7 34  1  0  0  0  0
  8  9  1  0  0  0  0
  8 35  1  0  0  0  0
  8 36  1  0  0  0  0
  9 10  1  0  0  0  0
  9 37  1  0  0  0  0
 10 11  2  0  0  0  0
 10 12  1  0  0  0  0
 12 13  1  0  0  0  0
 12 38  1  0  0  0  0
 13 18  1  0  0  0  0
 13 14  2  0  0  0  0
 14 15  1  0  0  0  0
 14 39  1  0  0  0  0
 15 16  2  0  0  0  0
 15 40  1  0  0  0  0
 16 17  1  0  0  0  0
 16 41  1  0  0  0  0
 17 18  2  0  0  0  0
 18 42  1  0  0  0  0
 19 20  1  0  0  0  0
 19 43  1  0  0  0  0
 19 44  1  0  0  0  0
 20 21  1  0  0  0  0
 20 22  1  0  0  0  0
 20 45  1  0  0  0  0
 21 46  1  0  0  0  0
 21 47  1  0  0  0  0
 21 48  1  0  0  0  0
M  CHG  1   4   1
M  END
> <s_m_source_file>
AV-unprocessed.smi

> <i_m_source_file_index>
1543

> <i_lp_mmshare_version>
43012

> <i_f3d_flags>
0

> <s_epik_input>
W0NIM11bQ0BASF0xW0NIMl1OKFtDSDJdW0NASF0oTzEpW0NIM10pQyhbQ0gzXSkoW0NIM10pW0NIMl1bTkhdQyg9TylbTkhdYzJbY0hdW2NIXVtjSF1uW2NIXTI=

> <s_epik_cmdline>
J2VwaWtfcHl0aG9uJywgJy1waCcsICc3LjAnLCAnLXRuJywgJzgnLCAnLW1hJywgJzIwMCcsICctbWV0YWxfYmluZGluZycsICctaW1hZScsICc8aW5maWxlLm1hZT4nLCAnLW9tYWUnLCAnPG91dGZpbGUubWFlPic=

> <r_epik_Ionization_Penalty>
0.60676

> <r_epik_Ionization_Penalty_Charging>
0.602531

> <r_epik_Ionization_Penalty_Neutral>
0.00422967

> <r_epik_State_Penalty>
0.607492

> <r_epik_Charging_Adjusted_Penalty>
1.21002

> <i_epik_Tot_Q>
1

> <i_epik_Tot_abs_Q>
1

> <r_epik_Metal_State_Penalty>
0.604589

> <b_epik_Metal_Only>
0

> <s_lp_Force_Field>
OPLS_2005

> <r_lp_Energy>
27.1707

> <b_lp_Chiralities_Consistent>
1

> <s_lp_Variant>
AV-unprocessed.smi:1543-6

> <Gold.Version>
5.8.1

> <Gold.Id.Protein>
6NUR|6NUR_protein|mol2

> <Gold.PLP.Fitness>
42.9611

> <Gold.PLP.PLP>
-30.4587

> <Gold.PLP.part.hbond>
-2.9083

> <Gold.PLP.part.metal>
0.0000

> <Gold.PLP.part.buried>
-4.7914

> <Gold.PLP.part.nonpolar>
-23.6216

> <Gold.PLP.part.repulsive>
0.3689

> <Gold.PLP.ligand.clash>
0.0000

> <Gold.PLP.ligand.torsion>
0.9788

> <Gold.PLP.Chemscore.Hbond>
3.7905

> <Gold.PLP.Chemscore.CHOScore>
0.9937

> <Gold.PLP.Chemscore.Metal>
0.0000

> <Gold.Chemscore.Hbonds>
donor molecule, donor type, donor heavy atom, donor atom, acceptor molecule, acceptor atom, score
      L1  H     4    49       P1 10175  2.00
      L1  H     9    37       P1  8028  0.73
      L1  H    12    38       P1  8028  1.00
      L1  C    18    42       P1  8028  0.03
      L1  C    18    42       P1  8029  0.89

> <Gold.PLP.Chemscore.Internal.Correction>
0.1073

> <Gold.Rescore>
     Score         DG    S(hbond)    S(metal)    S(lipo)     H(rot)  DE(clash)    DE(int)     intcor
     19.20     -23.44       2.90        0.00     102.63       1.46       2.09       2.14       ----

> <Gold.Chemscore.Fitness>
19.2039

> <Gold.Chemscore.DG>
-23.4366

> <Gold.Chemscore.ZeroCoef>
-5.4800

> <Gold.Chemscore.Hbond>
2.9027

> <Gold.Chemscore.Metal>
0.0000

> <Gold.Chemscore.Lipo>
102.6282

> <Gold.Chemscore.Internal_Hbond>
0.0000

> <Gold.Chemscore.DEClash>
2.0920

> <Gold.Chemscore.DEInternal>
2.1407

> <Gold.Chemscore.Rot>
1.4632

> <Gold.Chemscore.Internal.Correction>
   9.000000E+99

> <Gold.Chemscore.Hbonds>
donor molecule, donor type, donor heavy atom, donor atom, acceptor molecule, acceptor atom, score
      L1  H     4    49       P1 10175  1.00
      L1  H     9    37       P1  8028  0.70
      L1  H    12    38       P1  8028  0.98

> <Gold.Chemscore.Hbond.Weighted>
-9.6950

> <Gold.Chemscore.Metal.Weighted>
-0.0000

> <Gold.Chemscore.Lipo.Weighted>
-12.0075

> <Gold.Chemscore.Internal_Hbond.Weighted>
0.0000

> <Gold.Chemscore.DEClash.Weighted>
2.0920

> <Gold.Chemscore.DEInternal.Weighted>
2.1407

> <Gold.Chemscore.Rot.Weighted>
3.7459

> <Gold.Chemscore.Internal.Correction.Weighted>
   9.000000E+99

> <Gold.Protein.RotatedTorsions>
[ 6907 6896 6895 6894 ] final   16.15 input  -60.11 | X-H torsion
[ 7974 7965 7964 7962 ] final   76.96 input  175.53 | X-H torsion
[ 8008 7997 7996 7995 ] final  -76.61 input   59.86 | X-H torsion
[ 10167 10162 10161 10158 ] final  170.84 input  -65.29 | X-H torsion
[ 10718 10713 10712 10709 ] final  -31.19 input   66.30 | X-H torsion
[ 10763 10752 10751 10750 ] final  159.76 input  -60.55 | X-H torsion
[ 11005 11000 10999 10996 ] final  -61.60 input  -57.11 | X-H torsion

> <Gold.Protein.ActiveResidues>
 VAL166  LYS551  ARG553  GLY616  TRP617  ASP618  TYR619  PRO620  LYS621  CYS622 
 ASP623  PHE694  ASN695  SER759  ASP760  ASP761  ALA762  ILE779  LEU786  VAL792 
 PHE793  MET794  SER795  GLU796  ALA797  LYS798  CYS799  TRP800  GLU811  SER814 

> <Gold.Protein.RotatedAtoms>
  151.8294  135.0626  160.0434 H   0  0  0  0  0  0  0  0  0  0  0  0  # atno 6907 bound_to 6896
  152.2892  133.5540  159.5555 H   0  0  0  0  0  0  0  0  0  0  0  0  # atno 6908 bound_to 6896
  150.7222  134.0369  159.3794 H   0  0  0  0  0  0  0  0  0  0  0  0  # atno 6909 bound_to 6896
  145.6962  139.2568  143.1731 H   0  0  0  0  0  0  0  0  0  0  0  0  # atno 7974 bound_to 7965
  154.5520  140.0724  156.8684 H   0  0  0  0  0  0  0  0  0  0  0  0  # atno 8008 bound_to 7997
  155.2974  140.3382  155.4231 H   0  0  0  0  0  0  0  0  0  0  0  0  # atno 8009 bound_to 7997
  156.1970  140.1707  156.7964 H   0  0  0  0  0  0  0  0  0  0  0  0  # atno 8010 bound_to 7997
  139.5030  144.3551  151.9882 H   0  0  0  0  0  0  0  0  0  0  0  0  # atno 10167 bound_to 10162
  156.3904  130.4372  149.7399 H   0  0  0  0  0  0  0  0  0  0  0  0  # atno 10718 bound_to 10713
  154.2369  135.2776  155.2869 H   0  0  0  0  0  0  0  0  0  0  0  0  # atno 10763 bound_to 10752
  154.5578  135.5656  153.6983 H   0  0  0  0  0  0  0  0  0  0  0  0  # atno 10764 bound_to 10752
  153.0008  135.6290  154.2512 H   0  0  0  0  0  0  0  0  0  0  0  0  # atno 10765 bound_to 10752
  141.1330  133.6632  156.5400 H   0  0  0  0  0  0  0  0  0  0  0  0  # atno 11005 bound_to 11000
  146.0838  140.7733  142.9628 LP  0  0  0  0  0  0  0  0  0  0  0  0  # atno 17320 bound_to 7965
  144.6982  140.3531  143.7178 LP  0  0  0  0  0  0  0  0  0  0  0  0  # atno 17321 bound_to 7965
  140.2988  144.3670  150.6066 LP  0  0  0  0  0  0  0  0  0  0  0  0  # atno 17342 bound_to 10162
  140.5889  143.2169  151.7289 LP  0  0  0  0  0  0  0  0  0  0  0  0  # atno 17343 bound_to 10162
  156.4455  130.7881  151.2903 LP  0  0  0  0  0  0  0  0  0  0  0  0  # atno 17370 bound_to 10713
  157.7498  131.0111  150.3334 LP  0  0  0  0  0  0  0  0  0  0  0  0  # atno 17371 bound_to 10713
  140.4147  134.7241  157.4856 LP  0  0  0  0  0  0  0  0  0  0  0  0  # atno 17394 bound_to 11000
  140.0402  134.6278  155.8990 LP  0  0  0  0  0  0  0  0  0  0  0  0  # atno 17395 bound_to 11000

$$$$
