#       Name:                AV-unprocessed.smi:1586
#       Creating user name   scv26
#       Creation time:       Fri Mar 27 07:00:56 2020


#       File generated by GOLD software.
#

@<TRIPOS>MOLECULE
AV-unprocessed.smi:1586
    53    54     1
SMALL
NO_CHARGES


@<TRIPOS>ATOM
      1 ****        -3.3694  -5.3357   3.2165 C.3            1 S1                 0.0000
      2 ****        -3.4261  -3.8162   3.4287 C.3            1 S1                 0.0000
      3 ****        -2.8745  -3.0203   2.3338 N.3            1 S1                 0.0000
      4 ****        -3.1547  -1.6012   2.5292 C.3            1 S1                 0.0000
      5 ****        -2.6028  -0.7476   1.3738 C.3            1 S1                 0.0000
      6 ****        -1.1465  -0.8870   1.2190 N.3            1 S1                 0.0000
      7 ****        -0.6094  -0.0601   0.1128 C.3            1 S1                 0.0000
      8 ****        -0.9500   1.4437   0.2744 C.3            1 S1                 0.0000
      9 ****         0.9262  -0.2193  -0.0784 C.3            1 S1                 0.0000
     10 ****         1.4461   0.5446  -1.2106 N.am           1 S1                 0.0000
     11 ****         2.2348   1.6267  -1.1269 C.2            1 S1                 0.0000
     12 ****         2.6236   2.1082  -0.0625 O.2            1 S1                 0.0000
     13 ****         2.5278   2.1095  -2.3463 N.am           1 S1                 0.0000
     14 ****         3.2969   3.2593  -2.6588 C.2            1 S1                 0.0000
     15 ****         3.5019   3.6537  -4.0076 C.2            1 S1                 0.0000
     16 ****         4.2674   4.7792  -3.8859 C.2            1 S1                 0.0000
     17 ****         4.8545   5.7192  -4.8821 C.3            1 S1                 0.0000
     18 ****         4.5113   5.0470  -2.5743 O.3            1 S1                 0.0000
     19 ****         3.8855   4.0692  -1.7921 N.2            1 S1                 0.0000
     20 ****        -0.8630  -2.3211   1.0516 C.3            1 S1                 0.0000
     21 ****        -1.4261  -3.1733   2.2046 C.3            1 S1                 0.0000
     22 ****        -3.8865  -5.8539   4.0240 H              1 S1                 0.0000
     23 ****        -2.3453  -5.7074   3.1985 H              1 S1                 0.0000
     24 ****        -3.8500  -5.6201   2.2800 H              1 S1                 0.0000
     25 ****        -4.4737  -3.5455   3.5663 H              1 S1                 0.0000
     26 ****        -2.9256  -3.5597   4.3636 H              1 S1                 0.0000
     27 ****        -4.2315  -1.4449   2.6030 H              1 S1                 0.0000
     28 ****        -2.7255  -1.2599   3.4729 H              1 S1                 0.0000
     29 ****        -3.1066  -1.0143   0.4433 H              1 S1                 0.0000
     30 ****        -2.8694   0.2842   1.5935 H              1 S1                 0.0000
     31 ****        -1.0804  -0.3935  -0.8133 H              1 S1                 0.0000
     32 ****        -0.5345   2.0537  -0.5260 H              1 S1                 0.0000
     33 ****        -0.5672   1.8352   1.2174 H              1 S1                 0.0000
     34 ****        -2.0211   1.6349   0.2385 H              1 S1                 0.0000
     35 ****         1.4480   0.0323   0.8466 H              1 S1                 0.0000
     36 ****         1.1892  -1.2506  -0.3054 H              1 S1                 0.0000
     37 ****         1.1774   0.2251  -2.1298 H              1 S1                 0.0000
     38 ****         2.1453   1.6108  -3.1359 H              1 S1                 0.0000
     39 ****         3.1459   3.1910  -4.9162 H              1 S1                 0.0000
     40 ****         4.4229   5.5592  -5.8702 H              1 S1                 0.0000
     41 ****         5.9328   5.5781  -4.9564 H              1 S1                 0.0000
     42 ****         4.6670   6.7543  -4.5960 H              1 S1                 0.0000
     43 ****        -1.2654  -2.6744   0.1010 H              1 S1                 0.0000
     44 ****         0.2097  -2.5011   1.0283 H              1 S1                 0.0000
     45 ****        -0.9344  -2.8961   3.1386 H              1 S1                 0.0000
     46 ****        -1.1733  -4.2164   2.0170 H              1 S1                 0.0000
     47 ****        -3.3153  -3.3584   1.5023 LP             1 S1                 0.0000
     48 ****        -0.6784  -0.5405   2.0318 LP             1 S1                 0.0000
     49 ****         2.3519   1.6900   0.8042 LP             1 S1                 0.0000
     50 ****         3.2110   2.9175  -0.0648 LP             1 S1                 0.0000
     51 ****         4.1463   5.9484  -2.3415 LP             1 S1                 0.0000
     52 ****         5.4968   5.0327  -2.4057 LP             1 S1                 0.0000
     53 ****         3.8834   3.9978  -0.7947 LP             1 S1                 0.0000
@<TRIPOS>BOND
    1    1    2 1     
    2    1   22 1     
    3    1   23 1     
    4    1   24 1     
    5    2    3 1     
    6    2   25 1     
    7    2   26 1     
    8    3   21 1     
    9    3    4 1     
   10    4    5 1     
   11    4   27 1     
   12    4   28 1     
   13    5    6 1     
   14    5   29 1     
   15    5   30 1     
   16    6    7 1     
   17    6   20 1     
   18    7    8 1     
   19    7    9 1     
   20    7   31 1     
   21    8   32 1     
   22    8   33 1     
   23    8   34 1     
   24    9   10 1     
   25    9   35 1     
   26    9   36 1     
   27   10   11 am    
   28   10   37 1     
   29   11   12 2     
   30   11   13 am    
   31   13   14 1     
   32   13   38 1     
   33   14   19 2     
   34   14   15 1     
   35   15   16 2     
   36   15   39 1     
   37   16   17 1     
   38   16   18 1     
   39   17   40 1     
   40   17   41 1     
   41   17   42 1     
   42   18   19 1     
   43   20   21 1     
   44   20   43 1     
   45   20   44 1     
   46   21   45 1     
   47   21   46 1     
   48    3   47 1     
   49    6   48 1     
   50   12   49 1     
   51   12   50 1     
   52   18   51 1     
   53   18   52 1     
   54   19   53 1     
@<TRIPOS>SUBSTRUCTURE
      1 S1             1
@<TRIPOS>SET
LONE_PAIRS      STATIC     ATOMS    <user>   **** ""
7 47 48 49 50 51 52 53
DONOR_HYDROGENS      STATIC     ATOMS    <user>   **** ""
2 37 38
ATOM$BLUE        STATIC     ATOMS    COLORGROUP SYSTEM
7 47 48 49 50 51 52 53
ATOM$RED        STATIC     ATOMS    COLORGROUP SYSTEM
2 37 38
