AV-unprocessed.smi:13|AV-procd|sdf|69|dock4
  -GOLD-   2262015193D 1   1.00000     0.00000
 Structure written by MMmdl.
 54 58  0  0  0  0  0  0  0  0  1 V2000
  152.1491  145.3788  159.5126 C   0  0  0  0  0  0  0  0  0  0  0  0
  151.0645  144.3150  159.2970 C   0  0  0  0  0  0  0  0  0  0  0  0
  149.9220  144.6535  160.2539 C   0  0  0  0  0  0  0  0  0  0  0  0
  150.6592  144.0657  157.8360 C   0  0  0  0  0  0  0  0  0  0  0  0
  151.5922  142.9509  157.8406 N   0  0  0  0  0  0  0  0  0  0  0  0
  151.1701  141.8047  157.1159 C   0  0  0  0  0  0  0  0  0  0  0  0
  152.1513  141.0040  156.6292 N   0  0  0  0  0  0  0  0  0  0  0  0
  151.8623  139.8954  155.9425 C   0  0  0  0  0  0  0  0  0  0  0  0
  150.6662  139.3993  155.6274 N   0  0  0  0  0  0  0  0  0  0  0  0
  149.6670  140.1919  156.1068 C   0  0  0  0  0  0  0  0  0  0  0  0
  149.8277  141.3958  156.8515 C   0  0  0  0  0  0  0  0  0  0  0  0
  148.5778  141.9186  157.1664 N   0  0  0  0  0  0  0  0  0  0  0  0
  147.7323  141.0758  156.6408 C   0  0  0  0  0  0  0  0  0  0  0  0
  148.3008  140.0121  155.9790 N   0  0  0  0  0  0  0  0  0  0  0  0
  147.5994  138.9337  155.2998 C   0  0  0  0  0  0  0  0  0  0  0  0
  147.7589  138.9757  153.7626 C   0  0  1  0  0  0  0  0  0  0  0  0
  149.0525  138.5060  153.4236 O   0  0  0  0  0  0  0  0  0  0  0  0
  146.7283  138.1455  153.0038 C   0  0  0  0  0  0  0  0  0  0  0  0
  146.5762  138.9099  151.6966 C   0  0  0  0  0  0  0  0  0  0  0  0
  146.6173  140.2620  152.1207 O   0  0  0  0  0  0  0  0  0  0  0  0
  147.5792  140.3852  153.1645 C   0  0  0  0  0  0  0  0  0  0  0  0
  151.5103  142.8372  159.2916 C   0  0  1  0  0  0  0  0  0  0  0  0
  152.8423  142.3909  159.8950 C   0  0  2  0  0  0  0  0  0  0  0  0
  153.2045  140.9360  159.5979 C   0  0  0  0  0  0  0  0  0  0  0  0
  154.1215  140.5565  160.7488 C   0  0  0  0  0  0  0  0  0  0  0  0
  153.8536  141.6317  161.8061 C   0  0  0  0  0  0  0  0  0  0  0  0
  152.7510  142.3786  161.3103 O   0  0  0  0  0  0  0  0  0  0  0  0
  151.7671  146.3825  159.3241 H   0  0  0  0  0  0  0  0  0  0  0  0
  152.9984  145.2311  158.8448 H   0  0  0  0  0  0  0  0  0  0  0  0
  152.5322  145.3592  160.5335 H   0  0  0  0  0  0  0  0  0  0  0  0
  149.0942  143.9509  160.1518 H   0  0  0  0  0  0  0  0  0  0  0  0
  149.5226  145.6505  160.0657 H   0  0  0  0  0  0  0  0  0  0  0  0
  150.2488  144.6173  161.2936 H   0  0  0  0  0  0  0  0  0  0  0  0
  149.6145  143.7768  157.7169 H   0  0  0  0  0  0  0  0  0  0  0  0
  150.9401  144.8645  157.1490 H   0  0  0  0  0  0  0  0  0  0  0  0
  152.7116  139.3250  155.5959 H   0  0  0  0  0  0  0  0  0  0  0  0
  146.6632  141.2111  156.7160 H   0  0  0  0  0  0  0  0  0  0  0  0
  147.9727  137.9855  155.6892 H   0  0  0  0  0  0  0  0  0  0  0  0
  146.5448  138.9815  155.5745 H   0  0  0  0  0  0  0  0  0  0  0  0
  149.2938  138.8731  152.5868 H   0  0  0  0  0  0  0  0  0  0  0  0
  147.0161  137.1022  152.8650 H   0  0  0  0  0  0  0  0  0  0  0  0
  145.7722  138.1594  153.5283 H   0  0  0  0  0  0  0  0  0  0  0  0
  147.4106  138.7079  151.0231 H   0  0  0  0  0  0  0  0  0  0  0  0
  145.6462  138.6783  151.1773 H   0  0  0  0  0  0  0  0  0  0  0  0
  147.2086  141.1009  153.8990 H   0  0  0  0  0  0  0  0  0  0  0  0
  148.5117  140.7853  152.7631 H   0  0  0  0  0  0  0  0  0  0  0  0
  150.6821  142.2024  159.6073 H   0  0  0  0  0  0  0  0  0  0  0  0
  153.6612  143.0507  159.6012 H   0  0  0  0  0  0  0  0  0  0  0  0
  152.3099  140.3120  159.6229 H   0  0  0  0  0  0  0  0  0  0  0  0
  153.6732  140.8091  158.6217 H   0  0  0  0  0  0  0  0  0  0  0  0
  153.8939  139.5559  161.1176 H   0  0  0  0  0  0  0  0  0  0  0  0
  155.1683  140.5731  160.4436 H   0  0  0  0  0  0  0  0  0  0  0  0
  153.6289  141.2091  162.7856 H   0  0  0  0  0  0  0  0  0  0  0  0
  154.7167  142.2909  161.9094 H   0  0  0  0  0  0  0  0  0  0  0  0
  1  2  1  0  0  0  0
  1 28  1  0  0  0  0
  1 29  1  0  0  0  0
  1 30  1  0  0  0  0
  2 22  1  0  0  0  0
  2  3  1  0  0  0  0
  2  4  1  0  0  0  0
  3 31  1  0  0  0  0
  3 32  1  0  0  0  0
  3 33  1  0  0  0  0
  4  5  1  0  0  0  0
  4 34  1  0  0  0  0
  4 35  1  0  0  0  0
  5  6  1  0  0  0  0
  5 22  1  0  0  0  0
  6 11  1  0  0  0  0
  6  7  2  0  0  0  0
  7  8  1  0  0  0  0
  8  9  2  0  0  0  0
  8 36  1  0  0  0  0
  9 10  1  0  0  0  0
 10 14  1  0  0  0  0
 10 11  2  0  0  0  0
 11 12  1  0  0  0  0
 12 13  2  0  0  0  0
 13 14  1  0  0  0  0
 13 37  1  0  0  0  0
 14 15  1  0  0  0  0
 15 16  1  0  0  0  0
 15 38  1  0  0  0  0
 15 39  1  0  0  0  0
 16 21  1  0  0  0  0
 16 17  1  0  0  0  0
 16 18  1  0  0  0  0
 17 40  1  0  0  0  0
 18 19  1  0  0  0  0
 18 41  1  0  0  0  0
 18 42  1  0  0  0  0
 19 20  1  0  0  0  0
 19 43  1  0  0  0  0
 19 44  1  0  0  0  0
 20 21  1  0  0  0  0
 21 45  1  0  0  0  0
 21 46  1  0  0  0  0
 22 23  1  0  0  0  0
 22 47  1  0  0  0  0
 23 27  1  0  0  0  0
 23 24  1  0  0  0  0
 23 48  1  0  0  0  0
 24 25  1  0  0  0  0
 24 49  1  0  0  0  0
 24 50  1  0  0  0  0
 25 26  1  0  0  0  0
 25 51  1  0  0  0  0
 25 52  1  0  0  0  0
 26 27  1  0  0  0  0
 26 53  1  0  0  0  0
 26 54  1  0  0  0  0
M  END
> <s_m_source_file>
AV-unprocessed.smi

> <i_m_source_file_index>
13

> <i_lp_mmshare_version>
43012

> <i_f3d_flags>
0

> <s_epik_input>
TzFbQ0gyXVtDSDJdW0NIMl1bQ0BIXTFbQ0BASF0yTihbQ0gyXUMyKFtDSDNdKVtDSDNdKWMobltjSF1uMyljKGMzNCluW2NIXW40W0NIMl1bQ0BAXTUoW09IXSlbQ0gyXVtDSDJdT1tDSDJdNQ==

> <s_epik_cmdline>
J2VwaWtfcHl0aG9uJywgJy1waCcsICc3LjAnLCAnLXRuJywgJzgnLCAnLW1hJywgJzIwMCcsICctbWV0YWxfYmluZGluZycsICctaW1hZScsICc8aW5maWxlLm1hZT4nLCAnLW9tYWUnLCAnPG91dGZpbGUubWFlPic=

> <r_lp_tautomer_probability>
1

> <r_epik_Ionization_Penalty>
0.00202764

> <r_epik_Ionization_Penalty_Charging>
0

> <r_epik_Ionization_Penalty_Neutral>
0.00202764

> <r_epik_State_Penalty>
0.00134017

> <r_epik_Charging_Adjusted_Penalty>
0.00134017

> <i_epik_Tot_Q>
0

> <i_epik_Tot_abs_Q>
0

> <r_epik_Metal_State_Penalty>
-0

> <b_epik_Metal_Only>
0

> <s_lp_Force_Field>
OPLS_2005

> <r_lp_Energy>
60.4132

> <b_lp_Chiralities_Consistent>
1

> <s_lp_Variant>
AV-unprocessed.smi:13-1

> <Gold.Version>
5.8.1

> <Gold.Id.Protein>
6NUR|6NUR_protein|mol2

> <Gold.PLP.Fitness>
42.8724

> <Gold.PLP.PLP>
-41.3582

> <Gold.PLP.part.hbond>
-2.6559

> <Gold.PLP.part.metal>
0.0000

> <Gold.PLP.part.buried>
2.3990

> <Gold.PLP.part.nonpolar>
-42.1874

> <Gold.PLP.part.repulsive>
1.9301

> <Gold.PLP.ligand.clash>
0.0000

> <Gold.PLP.ligand.torsion>
0.9973

> <Gold.PLP.Chemscore.Hbond>
1.0187

> <Gold.PLP.Chemscore.CHOScore>
0.0000

> <Gold.PLP.Chemscore.Metal>
0.0000

> <Gold.Chemscore.Hbonds>
donor molecule, donor type, donor heavy atom, donor atom, acceptor molecule, acceptor atom, score
      L1  H    17    40       P1  7957  1.00
      P1  H  7997  8008       L1     7  0.01

> <Gold.PLP.Chemscore.Internal.Correction>
0.4527

> <Gold.Rescore>
     Score         DG    S(hbond)    S(metal)    S(lipo)     H(rot)  DE(clash)    DE(int)     intcor
     12.59     -17.68       0.99        0.00     126.30       2.30       3.63       1.46       ----

> <Gold.Chemscore.Fitness>
12.5893

> <Gold.Chemscore.DG>
-17.6807

> <Gold.Chemscore.ZeroCoef>
-5.4800

> <Gold.Chemscore.Hbond>
0.9912

> <Gold.Chemscore.Metal>
0.0000

> <Gold.Chemscore.Lipo>
126.2984

> <Gold.Chemscore.Internal_Hbond>
0.0000

> <Gold.Chemscore.DEClash>
3.6332

> <Gold.Chemscore.DEInternal>
1.4582

> <Gold.Chemscore.Rot>
2.2996

> <Gold.Chemscore.Internal.Correction>
   9.000000E+99

> <Gold.Chemscore.Hbonds>
donor molecule, donor type, donor heavy atom, donor atom, acceptor molecule, acceptor atom, score
      L1  H    17    40       P1  7957  0.94

> <Gold.Chemscore.Hbond.Weighted>
-3.3107

> <Gold.Chemscore.Metal.Weighted>
-0.0000

> <Gold.Chemscore.Lipo.Weighted>
-14.7769

> <Gold.Chemscore.Internal_Hbond.Weighted>
0.0000

> <Gold.Chemscore.DEClash.Weighted>
3.6332

> <Gold.Chemscore.DEInternal.Weighted>
1.4582

> <Gold.Chemscore.Rot.Weighted>
5.8869

> <Gold.Chemscore.Internal.Correction.Weighted>
   9.000000E+99

> <Gold.Protein.RotatedTorsions>
[ 6907 6896 6895 6894 ] final  -47.28 input  -60.11 | X-H torsion
[ 7974 7965 7964 7962 ] final  122.30 input  175.53 | X-H torsion
[ 8008 7997 7996 7995 ] final  -50.77 input   59.86 | X-H torsion
[ 10167 10162 10161 10158 ] final  139.68 input  -65.29 | X-H torsion
[ 10718 10713 10712 10709 ] final  150.62 input   66.30 | X-H torsion
[ 10763 10752 10751 10750 ] final -135.64 input  -60.55 | X-H torsion
[ 11005 11000 10999 10996 ] final  115.53 input  -57.11 | X-H torsion

> <Gold.Protein.ActiveResidues>
 VAL166  LYS551  ARG553  GLY616  TRP617  ASP618  TYR619  PRO620  LYS621  CYS622 
 ASP623  PHE694  ASN695  SER759  ASP760  ASP761  ALA762  ILE779  LEU786  VAL792 
 PHE793  MET794  SER795  GLU796  ALA797  LYS798  CYS799  TRP800  GLU811  SER814 

> <Gold.Protein.RotatedAtoms>
  150.9024  134.8437  159.7368 H   0  0  0  0  0  0  0  0  0  0  0  0  # atno 6907 bound_to 6896
  152.4899  134.4483  159.9576 H   0  0  0  0  0  0  0  0  0  0  0  0  # atno 6908 bound_to 6896
  151.4533  133.3572  159.2833 H   0  0  0  0  0  0  0  0  0  0  0  0  # atno 6909 bound_to 6896
  145.1092  139.3465  143.4772 H   0  0  0  0  0  0  0  0  0  0  0  0  # atno 7974 bound_to 7965
  154.4069  140.1264  156.4721 H   0  0  0  0  0  0  0  0  0  0  0  0  # atno 8008 bound_to 7997
  155.7169  140.3493  155.4979 H   0  0  0  0  0  0  0  0  0  0  0  0  # atno 8009 bound_to 7997
  155.9250  140.1059  157.1167 H   0  0  0  0  0  0  0  0  0  0  0  0  # atno 8010 bound_to 7997
  139.5071  144.6280  151.5889 H   0  0  0  0  0  0  0  0  0  0  0  0  # atno 10167 bound_to 10162
  157.2811  131.0835  151.1531 H   0  0  0  0  0  0  0  0  0  0  0  0  # atno 10718 bound_to 10713
  154.8699  135.3697  154.4931 H   0  0  0  0  0  0  0  0  0  0  0  0  # atno 10763 bound_to 10752
  153.5577  135.7023  153.5567 H   0  0  0  0  0  0  0  0  0  0  0  0  # atno 10764 bound_to 10752
  153.3657  135.4034  155.1715 H   0  0  0  0  0  0  0  0  0  0  0  0  # atno 10765 bound_to 10752
  139.9013  134.9585  156.7060 H   0  0  0  0  0  0  0  0  0  0  0  0  # atno 11005 bound_to 11000
  146.3527  140.1003  142.8608 LP  0  0  0  0  0  0  0  0  0  0  0  0  # atno 17320 bound_to 7965
  145.0867  140.9257  143.4793 LP  0  0  0  0  0  0  0  0  0  0  0  0  # atno 17321 bound_to 7965
  140.6003  143.9622  150.6382 LP  0  0  0  0  0  0  0  0  0  0  0  0  # atno 17342 bound_to 10162
  140.2831  143.3375  152.1132 LP  0  0  0  0  0  0  0  0  0  0  0  0  # atno 17343 bound_to 10162
  157.2964  130.6821  149.6141 LP  0  0  0  0  0  0  0  0  0  0  0  0  # atno 17370 bound_to 10713
  155.9664  130.4405  150.5303 LP  0  0  0  0  0  0  0  0  0  0  0  0  # atno 17371 bound_to 10713
  140.7113  133.9221  155.8086 LP  0  0  0  0  0  0  0  0  0  0  0  0  # atno 17394 bound_to 11000
  141.0298  134.0772  157.4027 LP  0  0  0  0  0  0  0  0  0  0  0  0  # atno 17395 bound_to 11000

$$$$
