#       Name:                AV-unprocessed.smi:47
#       Creating user name   scv26
#       Creation time:       Thu Mar 26 16:30:49 2020


#       File generated by GOLD software.
#

@<TRIPOS>MOLECULE
AV-unprocessed.smi:47
    36    38     1
SMALL
NO_CHARGES


@<TRIPOS>ATOM
      1 ****        -4.5664  -0.7064  -1.8713 O.3            1 S1                 0.0000
      2 ****        -4.0338  -0.7750  -0.5658 C.3            1 S1                 0.0000
      3 ****        -3.7121   0.6025   0.0068 C.3            1 S1                 0.0000
      4 ****        -2.7012   0.3776   1.0377 N.3            1 S1                 0.0000
      5 ****        -2.0881  -0.9362   0.8016 C.3            1 S1                 0.0000
      6 ****        -0.5908  -0.9119   0.7893 C.2            1 S1                 0.0000
      7 ****         0.1085  -1.9577   1.2184 N.2            1 S1                 0.0000
      8 ****         1.3760  -1.5494   1.0055 N.pl3          1 S1                 0.0000
      9 ****         1.3861  -0.3264   0.4603 C.2            1 S1                 0.0000
     10 ****         2.5958   0.4159   0.0989 C.ar           1 S1                 0.0000
     11 ****         3.8742  -0.0993   0.4158 C.ar           1 S1                 0.0000
     12 ****         5.0381   0.6138   0.0684 C.ar           1 S1                 0.0000
     13 ****         4.9364   1.8476  -0.6009 C.ar           1 S1                 0.0000
     14 ****         3.6690   2.3680  -0.9227 C.ar           1 S1                 0.0000
     15 ****         2.5044   1.6563  -0.5745 C.ar           1 S1                 0.0000
     16 ****         0.1442   0.1268   0.2884 N.2            1 S1                 0.0000
     17 ****        -2.6787  -1.4644  -0.5125 C.3            1 S1                 0.0000
     18 ****        -4.7394  -1.2929   0.0857 H              1 S1                 0.0000
     19 ****        -2.4091  -1.6028   1.6033 H              1 S1                 0.0000
     20 ****         2.1789  -2.1189   1.2311 H              1 S1                 0.0000
     21 ****        -5.3844  -0.2344  -1.8376 H              1 S1                 0.0000
     22 ****        -3.2908   1.2360  -0.7751 H              1 S1                 0.0000
     23 ****        -4.5925   1.1090   0.4032 H              1 S1                 0.0000
     24 ****        -3.1613   0.3575   1.9419 H              1 S1                 0.0000
     25 ****         3.9760  -1.0437   0.9299 H              1 S1                 0.0000
     26 ****         6.0102   0.2134   0.3162 H              1 S1                 0.0000
     27 ****         5.8291   2.3943  -0.8671 H              1 S1                 0.0000
     28 ****         3.5890   3.3142  -1.4373 H              1 S1                 0.0000
     29 ****         1.5416   2.0733  -0.8314 H              1 S1                 0.0000
     30 ****        -2.7390  -2.5525  -0.5483 H              1 S1                 0.0000
     31 ****        -2.0700  -1.1340  -1.3566 H              1 S1                 0.0000
     32 ****        -4.7243  -1.6302  -2.2201 LP             1 S1                 0.0000
     33 ****        -3.9257  -0.2283  -2.4722 LP             1 S1                 0.0000
     34 ****        -2.0099   1.0997   1.0141 LP             1 S1                 0.0000
     35 ****        -0.2197  -2.8219   1.5996 LP             1 S1                 0.0000
     36 ****        -0.1664   0.9935  -0.1020 LP             1 S1                 0.0000
@<TRIPOS>BOND
    1    1    2 1     
    2    1   21 1     
    3    2   18 1     
    4    2   17 1     
    5    2    3 1     
    6    3    4 1     
    7    3   22 1     
    8    3   23 1     
    9    4    5 1     
   10    4   24 1     
   11    5   19 1     
   12    5    6 1     
   13    5   17 1     
   14    6   16 1     
   15    6    7 2     
   16    7    8 1     
   17    8   20 1     
   18    8    9 1     
   19    9   10 1     
   20    9   16 2     
   21   10   15 ar    
   22   10   11 ar    
   23   11   12 ar    
   24   11   25 1     
   25   12   13 ar    
   26   12   26 1     
   27   13   14 ar    
   28   13   27 1     
   29   14   15 ar    
   30   14   28 1     
   31   15   29 1     
   32   17   30 1     
   33   17   31 1     
   34    1   32 1     
   35    1   33 1     
   36    4   34 1     
   37    7   35 1     
   38   16   36 1     
@<TRIPOS>SUBSTRUCTURE
      1 S1             1
@<TRIPOS>SET
LONE_PAIRS      STATIC     ATOMS    <user>   **** ""
5 32 33 34 35 36
DONOR_HYDROGENS      STATIC     ATOMS    <user>   **** ""
3 21 24 20
ATOM$BLUE        STATIC     ATOMS    COLORGROUP SYSTEM
5 32 33 34 35 36
ATOM$RED        STATIC     ATOMS    COLORGROUP SYSTEM
3 21 24 20
