AV-unprocessed.smi:3043|AV-procd|sdf|11604|dock5
  -GOLD-   2272016583D 1   1.00000     0.00000
 Structure written by MMmdl.
 44 45  0  0  0  0  0  0  0  0  2 V2000
  151.8480  140.5129  158.4407 C   0  0  0  0  0  0  0  0  0  0  0  0
  151.9831  139.5626  157.2489 C   0  0  0  0  0  0  0  0  0  0  0  0
  152.4740  138.4515  157.4484 O   0  0  0  0  0  0  0  0  0  0  0  0
  151.5603  139.9668  156.0267 N   0  0  0  0  0  0  0  0  0  0  0  0
  151.5951  139.0943  154.8472 C   0  0  0  0  0  0  0  0  0  0  0  0
  150.1521  138.7250  154.4594 C   0  0  0  0  0  0  0  0  0  0  0  0
  149.2969  139.9858  154.2029 C   0  0  0  0  0  0  0  0  0  0  0  0
  147.8326  139.6117  153.9106 C   0  0  0  0  0  0  0  0  0  0  0  0
  147.7254  138.7284  152.7295 N   0  3  0  0  0  0  0  0  0  0  0  0
  146.3839  138.1546  152.4802 C   0  0  1  0  0  0  0  0  0  0  0  0
  146.2813  137.7432  151.0014 C   0  0  0  0  0  0  0  0  0  0  0  0
  146.0865  136.9881  153.4510 C   0  0  0  0  0  0  0  0  0  0  0  0
  144.7109  136.5283  153.3809 N   0  0  0  0  0  0  0  0  0  0  0  0
  143.6544  137.0896  152.6949 C   0  0  0  0  0  0  0  0  0  0  0  0
  142.5592  136.3076  152.9258 C   0  0  0  0  0  0  0  0  0  0  0  0
  143.0505  135.2807  153.7793 C   0  0  0  0  0  0  0  0  0  0  0  0
  144.3385  135.4162  154.0507 N   0  0  0  0  0  0  0  0  0  0  0  0
  149.4249  140.9747  155.3863 C   0  0  0  0  0  0  0  0  0  0  0  0
  150.8999  141.2452  155.7346 C   0  0  0  0  0  0  0  0  0  0  0  0
  150.8050  140.7875  158.6013 H   0  0  0  0  0  0  0  0  0  0  0  0
  152.4343  141.4183  158.2826 H   0  0  0  0  0  0  0  0  0  0  0  0
  152.2105  140.0379  159.3530 H   0  0  0  0  0  0  0  0  0  0  0  0
  152.0842  139.6178  154.0245 H   0  0  0  0  0  0  0  0  0  0  0  0
  152.1785  138.1868  155.0090 H   0  0  0  0  0  0  0  0  0  0  0  0
  150.1618  138.0916  153.5719 H   0  0  0  0  0  0  0  0  0  0  0  0
  149.7052  138.1303  155.2578 H   0  0  0  0  0  0  0  0  0  0  0  0
  149.7043  140.4731  153.3155 H   0  0  0  0  0  0  0  0  0  0  0  0
  147.4110  139.0993  154.7751 H   0  0  0  0  0  0  0  0  0  0  0  0
  147.2399  140.5141  153.7533 H   0  0  0  0  0  0  0  0  0  0  0  0
  147.9710  139.2825  151.9216 H   0  0  0  0  0  0  0  0  0  0  0  0
  145.6480  138.9431  152.6456 H   0  0  0  0  0  0  0  0  0  0  0  0
  145.2728  137.4205  150.7416 H   0  0  0  0  0  0  0  0  0  0  0  0
  146.9630  136.9240  150.7697 H   0  0  0  0  0  0  0  0  0  0  0  0
  146.5286  138.5775  150.3442 H   0  0  0  0  0  0  0  0  0  0  0  0
  146.7486  136.1459  153.2414 H   0  0  0  0  0  0  0  0  0  0  0  0
  146.2790  137.2834  154.4824 H   0  0  0  0  0  0  0  0  0  0  0  0
  143.7685  137.9871  152.1048 H   0  0  0  0  0  0  0  0  0  0  0  0
  141.5586  136.4483  152.5445 H   0  0  0  0  0  0  0  0  0  0  0  0
  142.5132  134.4469  154.2069 H   0  0  0  0  0  0  0  0  0  0  0  0
  148.9306  141.9171  155.1484 H   0  0  0  0  0  0  0  0  0  0  0  0
  148.9162  140.5723  156.2636 H   0  0  0  0  0  0  0  0  0  0  0  0
  150.9604  141.9646  156.5497 H   0  0  0  0  0  0  0  0  0  0  0  0
  151.4007  141.7213  154.8904 H   0  0  0  0  0  0  0  0  0  0  0  0
  148.3938  137.9759  152.8142 H   0  0  0  0  0  0  0  0  0  0  0  0
  1  2  1  0  0  0  0
  1 20  1  0  0  0  0
  1 21  1  0  0  0  0
  1 22  1  0  0  0  0
  2  3  2  0  0  0  0
  2  4  1  0  0  0  0
  4 19  1  0  0  0  0
  4  5  1  0  0  0  0
  5  6  1  0  0  0  0
  5 23  1  0  0  0  0
  5 24  1  0  0  0  0
  6  7  1  0  0  0  0
  6 25  1  0  0  0  0
  6 26  1  0  0  0  0
  7  8  1  0  0  0  0
  7 18  1  0  0  0  0
  7 27  1  0  0  0  0
  8  9  1  0  0  0  0
  8 28  1  0  0  0  0
  8 29  1  0  0  0  0
  9 10  1  0  0  0  0
  9 30  1  0  0  0  0
  9 44  1  0  0  0  0
 10 11  1  0  0  0  0
 10 12  1  0  0  0  0
 10 31  1  0  0  0  0
 11 32  1  0  0  0  0
 11 33  1  0  0  0  0
 11 34  1  0  0  0  0
 12 13  1  0  0  0  0
 12 35  1  0  0  0  0
 12 36  1  0  0  0  0
 13 17  1  0  0  0  0
 13 14  1  0  0  0  0
 14 15  2  0  0  0  0
 14 37  1  0  0  0  0
 15 16  1  0  0  0  0
 15 38  1  0  0  0  0
 16 17  2  0  0  0  0
 16 39  1  0  0  0  0
 18 19  1  0  0  0  0
 18 40  1  0  0  0  0
 18 41  1  0  0  0  0
 19 42  1  0  0  0  0
 19 43  1  0  0  0  0
M  CHG  1   9   1
M  END
> <s_m_source_file>
AV-unprocessed.smi

> <i_m_source_file_index>
3043

> <i_lp_mmshare_version>
43012

> <i_f3d_flags>
0

> <s_epik_input>
W0NIM11DKD1PKU4xW0NIMl1bQ0gyXVtDSF0oW0NIMl1bQ0gyXTEpW0NIMl1bTkhdW0NASF0oW0NIM10pW0NIMl1uMltjSF1bY0hdW2NIXW4y

> <s_epik_cmdline>
J2VwaWtfcHl0aG9uJywgJy1waCcsICc3LjAnLCAnLXRuJywgJzgnLCAnLW1hJywgJzIwMCcsICctbWV0YWxfYmluZGluZycsICctaW1hZScsICc8aW5maWxlLm1hZT4nLCAnLW9tYWUnLCAnPG91dGZpbGUubWFlPic=

> <r_lp_tautomer_probability>
1

> <r_epik_Ionization_Penalty>
0.00300549

> <r_epik_Ionization_Penalty_Charging>
0.00299781

> <r_epik_Ionization_Penalty_Neutral>
7.6831e-06

> <r_epik_State_Penalty>
0.00210473

> <r_epik_Charging_Adjusted_Penalty>
0.00510254

> <i_epik_Tot_Q>
1

> <i_epik_Tot_abs_Q>
1

> <r_epik_Metal_State_Penalty>
-0

> <b_epik_Metal_Only>
0

> <s_lp_Force_Field>
OPLS_2005

> <r_lp_Energy>
28.9571

> <b_lp_Chiralities_Consistent>
1

> <s_lp_Variant>
AV-unprocessed.smi:3043-2

> <Gold.Version>
5.8.1

> <Gold.Id.Protein>
6NUR|6NUR_protein|mol2

> <Gold.PLP.Fitness>
48.1497

> <Gold.PLP.PLP>
-32.2446

> <Gold.PLP.part.hbond>
-2.0000

> <Gold.PLP.part.metal>
0.0000

> <Gold.PLP.part.buried>
1.2896

> <Gold.PLP.part.nonpolar>
-31.6951

> <Gold.PLP.part.repulsive>
0.1098

> <Gold.PLP.ligand.clash>
0.0000

> <Gold.PLP.ligand.torsion>
0.2949

> <Gold.PLP.Chemscore.Hbond>
2.4960

> <Gold.PLP.Chemscore.CHOScore>
2.9894

> <Gold.PLP.Chemscore.Metal>
0.0000

> <Gold.Chemscore.Hbonds>
donor molecule, donor type, donor heavy atom, donor atom, acceptor molecule, acceptor atom, score
      L1  H     9    30       P1  7957  0.75
      L1  H     9    44       P1  7948  1.53
      L1  C    14    37       P1 10171  1.00
      L1  C    14    37       P1 10175  1.00
      L1  C    16    39       P1 10957  0.48

> <Gold.PLP.Chemscore.Internal.Correction>
0.0386

> <Gold.Rescore>
     Score         DG    S(hbond)    S(metal)    S(lipo)     H(rot)  DE(clash)    DE(int)     intcor
     14.12     -15.90       1.66        0.00      79.87       1.74       1.48       0.30       ----

> <Gold.Chemscore.Fitness>
14.1224

> <Gold.Chemscore.DG>
-15.8994

> <Gold.Chemscore.ZeroCoef>
-5.4800

> <Gold.Chemscore.Hbond>
1.6572

> <Gold.Chemscore.Metal>
0.0000

> <Gold.Chemscore.Lipo>
79.8653

> <Gold.Chemscore.Internal_Hbond>
0.0000

> <Gold.Chemscore.DEClash>
1.4816

> <Gold.Chemscore.DEInternal>
0.2954

> <Gold.Chemscore.Rot>
1.7422

> <Gold.Chemscore.Internal.Correction>
   9.000000E+99

> <Gold.Chemscore.Hbonds>
donor molecule, donor type, donor heavy atom, donor atom, acceptor molecule, acceptor atom, score
      L1  H     9    30       P1  7957  0.75
      L1  H     9    44       P1  7948  0.73

> <Gold.Chemscore.Hbond.Weighted>
-5.5351

> <Gold.Chemscore.Metal.Weighted>
-0.0000

> <Gold.Chemscore.Lipo.Weighted>
-9.3442

> <Gold.Chemscore.Internal_Hbond.Weighted>
0.0000

> <Gold.Chemscore.DEClash.Weighted>
1.4816

> <Gold.Chemscore.DEInternal.Weighted>
0.2954

> <Gold.Chemscore.Rot.Weighted>
4.4600

> <Gold.Chemscore.Internal.Correction.Weighted>
   9.000000E+99

> <Gold.Protein.RotatedTorsions>
[ 6907 6896 6895 6894 ] final  112.79 input  -60.11 | X-H torsion
[ 7974 7965 7964 7962 ] final   32.20 input  175.53 | X-H torsion
[ 8008 7997 7996 7995 ] final    2.59 input   59.86 | X-H torsion
[ 10167 10162 10161 10158 ] final  151.24 input  -65.29 | X-H torsion
[ 10718 10713 10712 10709 ] final   56.98 input   66.30 | X-H torsion
[ 10763 10752 10751 10750 ] final   34.03 input  -60.55 | X-H torsion
[ 11005 11000 10999 10996 ] final -106.65 input  -57.11 | X-H torsion

> <Gold.Protein.ActiveResidues>
 VAL166  LYS551  ARG553  GLY616  TRP617  ASP618  TYR619  PRO620  LYS621  CYS622 
 ASP623  PHE694  ASN695  SER759  ASP760  ASP761  ALA762  ILE779  LEU786  VAL792 
 PHE793  MET794  SER795  GLU796  ALA797  LYS798  CYS799  TRP800  GLU811  SER814 

> <Gold.Protein.RotatedAtoms>
  152.4897  133.8466  159.7179 H   0  0  0  0  0  0  0  0  0  0  0  0  # atno 6907 bound_to 6896
  150.9015  133.7103  159.2884 H   0  0  0  0  0  0  0  0  0  0  0  0  # atno 6908 bound_to 6896
  151.4543  135.1037  159.9759 H   0  0  0  0  0  0  0  0  0  0  0  0  # atno 6909 bound_to 6896
  146.1502  139.6557  142.9104 H   0  0  0  0  0  0  0  0  0  0  0  0  # atno 7974 bound_to 7965
  154.6934  140.2658  155.6790 H   0  0  0  0  0  0  0  0  0  0  0  0  # atno 8008 bound_to 7997
  156.2740  140.2786  156.1443 H   0  0  0  0  0  0  0  0  0  0  0  0  # atno 8009 bound_to 7997
  155.0865  140.0373  157.2645 H   0  0  0  0  0  0  0  0  0  0  0  0  # atno 8010 bound_to 7997
  139.4842  144.5457  151.7488 H   0  0  0  0  0  0  0  0  0  0  0  0  # atno 10167 bound_to 10162
  157.5476  130.8742  149.8915 H   0  0  0  0  0  0  0  0  0  0  0  0  # atno 10718 bound_to 10713
  153.0183  135.6371  154.1604 H   0  0  0  0  0  0  0  0  0  0  0  0  # atno 10763 bound_to 10752
  154.1341  135.2838  155.3179 H   0  0  0  0  0  0  0  0  0  0  0  0  # atno 10764 bound_to 10752
  154.6172  135.5537  153.7598 H   0  0  0  0  0  0  0  0  0  0  0  0  # atno 10765 bound_to 10752
  141.0994  133.8912  157.1881 H   0  0  0  0  0  0  0  0  0  0  0  0  # atno 11005 bound_to 11000
  145.4842  141.0438  143.2629 LP  0  0  0  0  0  0  0  0  0  0  0  0  # atno 17320 bound_to 7965
  144.7894  139.6358  143.7120 LP  0  0  0  0  0  0  0  0  0  0  0  0  # atno 17321 bound_to 7965
  140.5003  144.1179  150.5969 LP  0  0  0  0  0  0  0  0  0  0  0  0  # atno 17342 bound_to 10162
  140.4069  143.2676  151.9879 LP  0  0  0  0  0  0  0  0  0  0  0  0  # atno 17343 bound_to 10162
  156.0549  130.3710  150.1115 LP  0  0  0  0  0  0  0  0  0  0  0  0  # atno 17370 bound_to 10713
  156.9290  130.9707  151.3536 LP  0  0  0  0  0  0  0  0  0  0  0  0  # atno 17371 bound_to 10713
  139.9840  135.0088  156.9819 LP  0  0  0  0  0  0  0  0  0  0  0  0  # atno 17394 bound_to 11000
  140.5060  134.1050  155.7260 LP  0  0  0  0  0  0  0  0  0  0  0  0  # atno 17395 bound_to 11000

$$$$
