AV-unprocessed.smi:1709|AV-procd|sdf|6894|dock2
  -GOLD-   22720 8103D 1   1.00000     0.00000
 Structure written by MMmdl.
 43 45  0  0  0  0  0  0  0  0  2 V2000
  149.9329  138.1076  154.2924 C   0  0  0  0  0  0  0  0  0  0  0  0
  148.9844  139.2960  154.2756 C   0  0  0  0  0  0  0  0  0  0  0  0
  149.3964  140.5120  154.8610 C   0  0  0  0  0  0  0  0  0  0  0  0
  148.5227  141.6122  154.8441 C   0  0  0  0  0  0  0  0  0  0  0  0
  147.2670  141.4490  154.2366 C   0  0  0  0  0  0  0  0  0  0  0  0
  146.8655  140.2904  153.6744 N   0  0  0  0  0  0  0  0  0  0  0  0
  147.6938  139.2138  153.6863 C   0  0  0  0  0  0  0  0  0  0  0  0
  147.3544  137.9538  153.1023 N   0  0  0  0  0  0  0  0  0  0  0  0
  146.1691  137.3244  152.9558 C   0  0  0  0  0  0  0  0  0  0  0  0
  145.1250  137.8326  153.3601 O   0  0  0  0  0  0  0  0  0  0  0  0
  146.2051  136.1264  152.3492 N   0  0  0  0  0  0  0  0  0  0  0  0
  145.0589  135.2533  152.1081 C   0  0  1  0  0  0  0  0  0  0  0  0
  144.5927  135.2767  150.6393 C   0  0  0  0  0  0  0  0  0  0  0  0
  144.2981  133.8123  150.2991 C   0  0  0  0  0  0  0  0  0  0  0  0
  145.2752  133.0820  151.1146 N   0  3  2  0  0  0  0  0  0  0  0  0
  145.1328  131.6175  151.2416 C   0  0  0  0  0  0  0  0  0  0  0  0
  146.3689  131.0692  151.9865 C   0  0  0  0  0  0  0  0  0  0  0  0
  146.6200  131.8038  153.3228 C   0  0  0  0  0  0  0  0  0  0  0  0
  146.6297  133.3367  153.1412 C   0  0  0  0  0  0  0  0  0  0  0  0
  145.3392  133.7642  152.4184 C   0  0  1  0  0  0  0  0  0  0  0  0
  150.8581  138.3451  154.8181 H   0  0  0  0  0  0  0  0  0  0  0  0
  150.1913  137.8119  153.2752 H   0  0  0  0  0  0  0  0  0  0  0  0
  149.4723  137.2566  154.7951 H   0  0  0  0  0  0  0  0  0  0  0  0
  150.3705  140.6041  155.3182 H   0  0  0  0  0  0  0  0  0  0  0  0
  148.8087  142.5561  155.2842 H   0  0  0  0  0  0  0  0  0  0  0  0
  146.5652  142.2689  154.1998 H   0  0  0  0  0  0  0  0  0  0  0  0
  148.1348  137.4723  152.6797 H   0  0  0  0  0  0  0  0  0  0  0  0
  147.1084  135.7877  152.0479 H   0  0  0  0  0  0  0  0  0  0  0  0
  144.2242  135.5826  152.7303 H   0  0  0  0  0  0  0  0  0  0  0  0
  143.7275  135.9218  150.4833 H   0  0  0  0  0  0  0  0  0  0  0  0
  145.3936  135.6402  149.9933 H   0  0  0  0  0  0  0  0  0  0  0  0
  143.2862  133.5420  150.6049 H   0  0  0  0  0  0  0  0  0  0  0  0
  144.4095  133.5956  149.2362 H   0  0  0  0  0  0  0  0  0  0  0  0
  144.2144  131.3738  151.7779 H   0  0  0  0  0  0  0  0  0  0  0  0
  145.0601  131.1667  150.2513 H   0  0  0  0  0  0  0  0  0  0  0  0
  146.2557  129.9993  152.1633 H   0  0  0  0  0  0  0  0  0  0  0  0
  147.2475  131.1824  151.3501 H   0  0  0  0  0  0  0  0  0  0  0  0
  145.8384  131.5312  154.0332 H   0  0  0  0  0  0  0  0  0  0  0  0
  147.5617  131.4725  153.7610 H   0  0  0  0  0  0  0  0  0  0  0  0
  146.7032  133.8221  154.1146 H   0  0  0  0  0  0  0  0  0  0  0  0
  147.5065  133.6393  152.5667 H   0  0  0  0  0  0  0  0  0  0  0  0
  144.4927  133.4129  153.0126 H   0  0  0  0  0  0  0  0  0  0  0  0
  146.1685  133.2453  150.6722 H   0  0  0  0  0  0  0  0  0  0  0  0
  1  2  1  0  0  0  0
  1 21  1  0  0  0  0
  1 22  1  0  0  0  0
  1 23  1  0  0  0  0
  2  7  1  0  0  0  0
  2  3  2  0  0  0  0
  3  4  1  0  0  0  0
  3 24  1  0  0  0  0
  4  5  2  0  0  0  0
  4 25  1  0  0  0  0
  5  6  1  0  0  0  0
  5 26  1  0  0  0  0
  6  7  2  0  0  0  0
  7  8  1  0  0  0  0
  8  9  1  0  0  0  0
  8 27  1  0  0  0  0
  9 10  2  0  0  0  0
  9 11  1  0  0  0  0
 11 12  1  0  0  0  0
 11 28  1  0  0  0  0
 12 20  1  0  0  0  0
 12 13  1  0  0  0  0
 12 29  1  0  0  0  0
 13 14  1  0  0  0  0
 13 30  1  0  0  0  0
 13 31  1  0  0  0  0
 14 15  1  0  0  0  0
 14 32  1  0  0  0  0
 14 33  1  0  0  0  0
 15 20  1  0  0  0  0
 15 16  1  0  0  0  0
 15 43  1  0  0  0  0
 16 17  1  0  0  0  0
 16 34  1  0  0  0  0
 16 35  1  0  0  0  0
 17 18  1  0  0  0  0
 17 36  1  0  0  0  0
 17 37  1  0  0  0  0
 18 19  1  0  0  0  0
 18 38  1  0  0  0  0
 18 39  1  0  0  0  0
 19 20  1  0  0  0  0
 19 40  1  0  0  0  0
 19 41  1  0  0  0  0
 20 42  1  0  0  0  0
M  CHG  1  15   1
M  END
> <s_m_source_file>
AV-unprocessed.smi

> <i_m_source_file_index>
1709

> <i_lp_mmshare_version>
43012

> <i_f3d_flags>
0

> <s_epik_input>
W0NIM11jMVtjSF1bY0hdW2NIXW5jMVtOSF1DKD1PKVtOSF1bQ0BIXShbQ0gyXVtDSDJdMilbQ0BASF0oTjIzKVtDSDJdW0NIMl1bQ0gyXVtDSDJdMw==

> <s_epik_cmdline>
J2VwaWtfcHl0aG9uJywgJy1waCcsICc3LjAnLCAnLXRuJywgJzgnLCAnLW1hJywgJzIwMCcsICctbWV0YWxfYmluZGluZycsICctaW1hZScsICc8aW5maWxlLm1hZT4nLCAnLW9tYWUnLCAnPG91dGZpbGUubWFlPic=

> <r_epik_Ionization_Penalty>
0.00101524

> <r_epik_Ionization_Penalty_Charging>
0.000974069

> <r_epik_Ionization_Penalty_Neutral>
4.11757e-05

> <r_epik_State_Penalty>
0.000633842

> <r_epik_Charging_Adjusted_Penalty>
0.00160791

> <i_epik_Tot_Q>
1

> <i_epik_Tot_abs_Q>
1

> <r_epik_Metal_State_Penalty>
-0

> <b_epik_Metal_Only>
0

> <s_lp_Force_Field>
OPLS_2005

> <r_lp_Energy>
46.0591

> <b_lp_Chiralities_Consistent>
1

> <s_lp_Variant>
AV-unprocessed.smi:1709-4

> <Gold.Version>
5.8.1

> <Gold.Id.Protein>
6NUR|6NUR_protein|mol2

> <Gold.PLP.Fitness>
36.6804

> <Gold.PLP.PLP>
-31.8078

> <Gold.PLP.part.hbond>
-2.0000

> <Gold.PLP.part.metal>
0.0000

> <Gold.PLP.part.buried>
-2.4760

> <Gold.PLP.part.nonpolar>
-28.3595

> <Gold.PLP.part.repulsive>
1.5158

> <Gold.PLP.ligand.clash>
0.0000

> <Gold.PLP.ligand.torsion>
0.4082

> <Gold.PLP.Chemscore.Hbond>
1.8960

> <Gold.PLP.Chemscore.CHOScore>
0.0000

> <Gold.PLP.Chemscore.Metal>
0.0000

> <Gold.Chemscore.Hbonds>
donor molecule, donor type, donor heavy atom, donor atom, acceptor molecule, acceptor atom, score
      L1  H     8    27       P1  7948  1.00
      L1  H    11    28       P1  7948  0.91

> <Gold.PLP.Chemscore.Internal.Correction>
0.0010

> <Gold.Rescore>
     Score         DG    S(hbond)    S(metal)    S(lipo)     H(rot)  DE(clash)    DE(int)     intcor
     17.13     -18.43       1.91        0.00      78.13       1.00       0.05       1.25       ----

> <Gold.Chemscore.Fitness>
17.1302

> <Gold.Chemscore.DG>
-18.4306

> <Gold.Chemscore.ZeroCoef>
-5.4800

> <Gold.Chemscore.Hbond>
1.9071

> <Gold.Chemscore.Metal>
0.0000

> <Gold.Chemscore.Lipo>
78.1274

> <Gold.Chemscore.Internal_Hbond>
0.0000

> <Gold.Chemscore.DEClash>
0.0530

> <Gold.Chemscore.DEInternal>
1.2473

> <Gold.Chemscore.Rot>
1.0000

> <Gold.Chemscore.Internal.Correction>
   9.000000E+99

> <Gold.Chemscore.Hbonds>
donor molecule, donor type, donor heavy atom, donor atom, acceptor molecule, acceptor atom, score
      L1  H     8    27       P1  7948  0.99
      L1  H    11    28       P1  7948  0.89

> <Gold.Chemscore.Hbond.Weighted>
-6.3697

> <Gold.Chemscore.Metal.Weighted>
-0.0000

> <Gold.Chemscore.Lipo.Weighted>
-9.1409

> <Gold.Chemscore.Internal_Hbond.Weighted>
0.0000

> <Gold.Chemscore.DEClash.Weighted>
0.0530

> <Gold.Chemscore.DEInternal.Weighted>
1.2473

> <Gold.Chemscore.Rot.Weighted>
2.5600

> <Gold.Chemscore.Internal.Correction.Weighted>
   9.000000E+99

> <Gold.Protein.RotatedTorsions>
[ 6907 6896 6895 6894 ] final  -13.03 input  -60.11 | X-H torsion
[ 7974 7965 7964 7962 ] final  152.57 input  175.53 | X-H torsion
[ 8008 7997 7996 7995 ] final -123.22 input   59.86 | X-H torsion
[ 10167 10162 10161 10158 ] final  -70.06 input  -65.29 | X-H torsion
[ 10718 10713 10712 10709 ] final -121.59 input   66.30 | X-H torsion
[ 10763 10752 10751 10750 ] final  142.53 input  -60.55 | X-H torsion
[ 11005 11000 10999 10996 ] final    7.16 input  -57.11 | X-H torsion

> <Gold.Protein.ActiveResidues>
 VAL166  LYS551  ARG553  GLY616  TRP617  ASP618  TYR619  PRO620  LYS621  CYS622 
 ASP623  PHE694  ASN695  SER759  ASP760  ASP761  ALA762  ILE779  LEU786  VAL792 
 PHE793  MET794  SER795  GLU796  ALA797  LYS798  CYS799  TRP800  GLU811  SER814 

> <Gold.Protein.RotatedAtoms>
  151.3613  135.0904  159.9435 H   0  0  0  0  0  0  0  0  0  0  0  0  # atno 6907 bound_to 6896
  152.5161  133.9255  159.7565 H   0  0  0  0  0  0  0  0  0  0  0  0  # atno 6908 bound_to 6896
  150.9650  133.6350  159.2777 H   0  0  0  0  0  0  0  0  0  0  0  0  # atno 6909 bound_to 6896
  144.8213  139.6686  143.6099 H   0  0  0  0  0  0  0  0  0  0  0  0  # atno 7974 bound_to 7965
  155.1770  140.0409  157.2874 H   0  0  0  0  0  0  0  0  0  0  0  0  # atno 8008 bound_to 7997
  154.6230  140.2505  155.7499 H   0  0  0  0  0  0  0  0  0  0  0  0  # atno 8009 bound_to 7997
  156.2444  140.2891  156.0547 H   0  0  0  0  0  0  0  0  0  0  0  0  # atno 8010 bound_to 7997
  140.5382  143.2316  151.7138 H   0  0  0  0  0  0  0  0  0  0  0  0  # atno 10167 bound_to 10162
  156.1349  130.6423  150.9681 H   0  0  0  0  0  0  0  0  0  0  0  0  # atno 10718 bound_to 10713
  153.9573  135.2964  155.3435 H   0  0  0  0  0  0  0  0  0  0  0  0  # atno 10763 bound_to 10752
  154.7394  135.5031  153.9100 H   0  0  0  0  0  0  0  0  0  0  0  0  # atno 10764 bound_to 10752
  153.0964  135.6722  153.9865 H   0  0  0  0  0  0  0  0  0  0  0  0  # atno 10765 bound_to 10752
  140.5513  134.0280  155.7938 H   0  0  0  0  0  0  0  0  0  0  0  0  # atno 11005 bound_to 11000
  146.2519  139.6217  142.9421 LP  0  0  0  0  0  0  0  0  0  0  0  0  # atno 17320 bound_to 7965
  145.5098  141.0435  143.2494 LP  0  0  0  0  0  0  0  0  0  0  0  0  # atno 17321 bound_to 7965
  139.4979  144.4010  152.0181 LP  0  0  0  0  0  0  0  0  0  0  0  0  # atno 17342 bound_to 10162
  140.3117  144.3530  150.6032 LP  0  0  0  0  0  0  0  0  0  0  0  0  # atno 17343 bound_to 10162
  157.6523  131.0895  150.8024 LP  0  0  0  0  0  0  0  0  0  0  0  0  # atno 17370 bound_to 10713
  156.8104  130.4950  149.5356 LP  0  0  0  0  0  0  0  0  0  0  0  0  # atno 17371 bound_to 10713
  141.1170  133.9524  157.2804 LP  0  0  0  0  0  0  0  0  0  0  0  0  # atno 17394 bound_to 11000
  139.9454  135.0185  156.8835 LP  0  0  0  0  0  0  0  0  0  0  0  0  # atno 17395 bound_to 11000

$$$$
