AV-unprocessed.smi:33|AV-procd|sdf|205|dock5
  -GOLD-   2262015493D 1   1.00000     0.00000
 Structure written by MMmdl.
 67 72  0  0  0  0  0  0  0  0  1 V2000
  154.3419  139.8922  158.8831 O   0  0  0  0  0  0  0  0  0  0  0  0
  153.8824  140.2085  159.9822 C   0  0  0  0  0  0  0  0  0  0  0  0
  153.8667  139.3863  161.0488 O   0  0  0  0  0  0  0  0  0  0  0  0
  154.8760  138.4020  161.2060 C   0  0  0  0  0  0  0  0  0  0  0  0
  154.7819  137.7964  162.6151 C   0  0  2  0  0  0  0  0  0  0  0  0
  155.4371  138.6876  163.5173 O   0  0  0  0  0  0  0  0  0  0  0  0
  156.4517  138.0309  164.2175 C   0  0  2  0  0  0  0  0  0  0  0  0
  157.5779  138.9835  164.4974 N   0  0  0  0  0  0  0  0  0  0  0  0
  158.8626  138.6846  164.9029 C   0  0  0  0  0  0  0  0  0  0  0  0
  159.6350  139.7114  165.1337 N   0  0  0  0  0  0  0  0  0  0  0  0
  158.8126  140.8053  164.9041 C   0  0  0  0  0  0  0  0  0  0  0  0
  158.9948  142.2121  164.9902 C   0  0  0  0  0  0  0  0  0  0  0  0
  160.1668  142.7824  165.3567 N   0  0  0  0  0  0  0  0  0  0  0  0
  161.4037  142.1033  164.9420 C   0  0  0  0  0  0  0  0  0  0  0  0
  161.3923  141.3755  163.9473 O   0  0  0  0  0  0  0  0  0  0  0  0
  162.6891  142.3345  165.6850 C   0  0  0  0  0  0  0  0  0  0  0  0
  163.9254  142.0802  165.0517 C   0  0  0  0  0  0  0  0  0  0  0  0
  165.1338  142.2794  165.7469 C   0  0  0  0  0  0  0  0  0  0  0  0
  165.1136  142.7166  167.0850 C   0  0  0  0  0  0  0  0  0  0  0  0
  163.8840  142.9454  167.7314 C   0  0  0  0  0  0  0  0  0  0  0  0
  162.6752  142.7462  167.0371 C   0  0  0  0  0  0  0  0  0  0  0  0
  160.0933  144.0237  166.1410 C   0  0  0  0  0  0  0  0  0  0  0  0
  161.0377  144.8150  166.1185 O   0  0  0  0  0  0  0  0  0  0  0  0
  158.8580  144.3522  166.9305 C   0  0  0  0  0  0  0  0  0  0  0  0
  158.3954  145.6847  166.9992 C   0  0  0  0  0  0  0  0  0  0  0  0
  157.2427  145.9981  167.7455 C   0  0  0  0  0  0  0  0  0  0  0  0
  156.5582  144.9855  168.4444 C   0  0  0  0  0  0  0  0  0  0  0  0
  157.0319  143.6603  168.4047 C   0  0  0  0  0  0  0  0  0  0  0  0
  158.1824  143.3454  167.6565 C   0  0  0  0  0  0  0  0  0  0  0  0
  157.9349  143.0117  164.7044 N   0  0  0  0  0  0  0  0  0  0  0  0
  156.7661  142.4649  164.3595 C   0  0  0  0  0  0  0  0  0  0  0  0
  156.4518  141.1731  164.2405 N   0  0  0  0  0  0  0  0  0  0  0  0
  157.5163  140.3639  164.5184 C   0  0  0  0  0  0  0  0  0  0  0  0
  156.8590  136.8343  163.3474 C   0  0  2  0  0  0  0  0  0  0  0  0
  157.7772  137.1775  162.3230 O   0  0  0  0  0  0  0  0  0  0  0  0
  155.5014  136.4520  162.7900 C   0  0  2  0  0  0  0  0  0  0  0  0
  155.5684  135.6915  161.6955 F   0  0  0  0  0  0  0  0  0  0  0  0
  153.2829  141.5433  160.2710 C   0  0  0  0  0  0  0  0  0  0  0  0
  152.6606  142.2648  159.2257 C   0  0  0  0  0  0  0  0  0  0  0  0
  152.0862  143.5277  159.4687 C   0  0  0  0  0  0  0  0  0  0  0  0
  152.1277  144.0849  160.7599 C   0  0  0  0  0  0  0  0  0  0  0  0
  152.7443  143.3775  161.8083 C   0  0  0  0  0  0  0  0  0  0  0  0
  153.3185  142.1141  161.5674 C   0  0  0  0  0  0  0  0  0  0  0  0
  154.7893  137.6273  160.4435 H   0  0  0  0  0  0  0  0  0  0  0  0
  155.8471  138.8806  161.0737 H   0  0  0  0  0  0  0  0  0  0  0  0
  153.7347  137.7098  162.9075 H   0  0  0  0  0  0  0  0  0  0  0  0
  156.0878  137.7337  165.2022 H   0  0  0  0  0  0  0  0  0  0  0  0
  159.2157  137.6704  165.0217 H   0  0  0  0  0  0  0  0  0  0  0  0
  163.9528  141.7441  164.0251 H   0  0  0  0  0  0  0  0  0  0  0  0
  166.0765  142.0955  165.2530 H   0  0  0  0  0  0  0  0  0  0  0  0
  166.0408  142.8693  167.6175 H   0  0  0  0  0  0  0  0  0  0  0  0
  163.8675  143.2727  168.7606 H   0  0  0  0  0  0  0  0  0  0  0  0
  161.7378  142.9202  167.5455 H   0  0  0  0  0  0  0  0  0  0  0  0
  158.9124  146.4694  166.4656 H   0  0  0  0  0  0  0  0  0  0  0  0
  156.8835  147.0160  167.7821 H   0  0  0  0  0  0  0  0  0  0  0  0
  155.6743  145.2265  169.0162 H   0  0  0  0  0  0  0  0  0  0  0  0
  156.5136  142.8848  168.9492 H   0  0  0  0  0  0  0  0  0  0  0  0
  158.5396  142.3256  167.6363 H   0  0  0  0  0  0  0  0  0  0  0  0
  155.9675  143.1612  164.1512 H   0  0  0  0  0  0  0  0  0  0  0  0
  157.2905  136.0465  163.9654 H   0  0  0  0  0  0  0  0  0  0  0  0
  157.4291  137.9129  161.8422 H   0  0  0  0  0  0  0  0  0  0  0  0
  154.9677  135.8625  163.5367 H   0  0  0  0  0  0  0  0  0  0  0  0
  152.6162  141.8575  158.2257 H   0  0  0  0  0  0  0  0  0  0  0  0
  151.6131  144.0688  158.6626 H   0  0  0  0  0  0  0  0  0  0  0  0
  151.6875  145.0534  160.9460 H   0  0  0  0  0  0  0  0  0  0  0  0
  152.7772  143.8043  162.7999 H   0  0  0  0  0  0  0  0  0  0  0  0
  153.7839  141.5983  162.3945 H   0  0  0  0  0  0  0  0  0  0  0  0
  1  2  2  0  0  0  0
  2  3  1  0  0  0  0
  2 38  1  0  0  0  0
  3  4  1  0  0  0  0
  4  5  1  0  0  0  0
  4 44  1  0  0  0  0
  4 45  1  0  0  0  0
  5 36  1  0  0  0  0
  5  6  1  0  0  0  0
  5 46  1  0  0  0  0
  6  7  1  0  0  0  0
  7  8  1  0  0  0  0
  7 34  1  0  0  0  0
  7 47  1  0  0  0  0
  8 33  1  0  0  0  0
  8  9  1  0  0  0  0
  9 10  2  0  0  0  0
  9 48  1  0  0  0  0
 10 11  1  0  0  0  0
 11 33  2  0  0  0  0
 11 12  1  0  0  0  0
 12 13  1  0  0  0  0
 12 30  2  0  0  0  0
 13 14  1  0  0  0  0
 13 22  1  0  0  0  0
 14 15  2  0  0  0  0
 14 16  1  0  0  0  0
 16 21  1  0  0  0  0
 16 17  2  0  0  0  0
 17 18  1  0  0  0  0
 17 49  1  0  0  0  0
 18 19  2  0  0  0  0
 18 50  1  0  0  0  0
 19 20  1  0  0  0  0
 19 51  1  0  0  0  0
 20 21  2  0  0  0  0
 20 52  1  0  0  0  0
 21 53  1  0  0  0  0
 22 23  2  0  0  0  0
 22 24  1  0  0  0  0
 24 29  1  0  0  0  0
 24 25  2  0  0  0  0
 25 26  1  0  0  0  0
 25 54  1  0  0  0  0
 26 27  2  0  0  0  0
 26 55  1  0  0  0  0
 27 28  1  0  0  0  0
 27 56  1  0  0  0  0
 28 29  2  0  0  0  0
 28 57  1  0  0  0  0
 29 58  1  0  0  0  0
 30 31  1  0  0  0  0
 31 32  2  0  0  0  0
 31 59  1  0  0  0  0
 32 33  1  0  0  0  0
 34 35  1  0  0  0  0
 34 36  1  0  0  0  0
 34 60  1  0  0  0  0
 35 61  1  0  0  0  0
 36 37  1  0  0  0  0
 36 62  1  0  0  0  0
 38 43  1  0  0  0  0
 38 39  2  0  0  0  0
 39 40  1  0  0  0  0
 39 63  1  0  0  0  0
 40 41  2  0  0  0  0
 40 64  1  0  0  0  0
 41 42  1  0  0  0  0
 41 65  1  0  0  0  0
 42 43  2  0  0  0  0
 42 66  1  0  0  0  0
 43 67  1  0  0  0  0
M  END
> <s_m_source_file>
AV-unprocessed.smi

> <i_m_source_file_index>
33

> <i_lp_mmshare_version>
43012

> <i_f3d_flags>
0

> <s_epik_input>
W2NIXTFbY0hdW2NIXVtjSF1bY0hdYzFDKD1PKU9bQ0gyXVtDQEBIXTJPW0NASF0oW0NAQEhdKFtPSF0pW0NAQEhdMkYpbihbY0hdbjMpYyhjMzQpbltjSF1uYzROKEMoPU8pYzVbY0hdW2NIXVtjSF1bY0hdW2NIXTUpQyg9TyljNltjSF1bY0hdW2NIXVtjSF1bY0hdNg==

> <s_epik_cmdline>
J2VwaWtfcHl0aG9uJywgJy1waCcsICc3LjAnLCAnLXRuJywgJzgnLCAnLW1hJywgJzIwMCcsICctbWV0YWxfYmluZGluZycsICctaW1hZScsICc8aW5maWxlLm1hZT4nLCAnLW9tYWUnLCAnPG91dGZpbGUubWFlPic=

> <r_lp_tautomer_probability>
1

> <r_epik_Ionization_Penalty>
0.00067664

> <r_epik_Ionization_Penalty_Charging>
0

> <r_epik_Ionization_Penalty_Neutral>
0.00067664

> <r_epik_State_Penalty>
0.000428095

> <r_epik_Charging_Adjusted_Penalty>
0.000428095

> <i_epik_Tot_Q>
0

> <i_epik_Tot_abs_Q>
0

> <r_epik_Metal_State_Penalty>
-0

> <b_epik_Metal_Only>
0

> <s_epik_Chemistry_Notes>
This compound has an ester and may undergo hydrolysis at high or low pH. This compound contains an acetal/aminal-like group ( X-CH(R)-Y where X, Y are N, S, or O) that may be acid/base labile, releasing an aldehyde.

> <s_lp_Force_Field>
OPLS_2005

> <r_lp_Energy>
85.1188

> <b_lp_Chiralities_Consistent>
1

> <s_lp_Variant>
AV-unprocessed.smi:33-7

> <Gold.Version>
5.8.1

> <Gold.Id.Protein>
6NUR|6NUR_protein|mol2

> <Gold.PLP.Fitness>
47.2359

> <Gold.PLP.PLP>
-46.4689

> <Gold.PLP.part.hbond>
-1.0000

> <Gold.PLP.part.metal>
0.0000

> <Gold.PLP.part.buried>
-1.9651

> <Gold.PLP.part.nonpolar>
-42.8470

> <Gold.PLP.part.repulsive>
0.0048

> <Gold.PLP.ligand.clash>
0.0000

> <Gold.PLP.ligand.torsion>
3.1606

> <Gold.PLP.Chemscore.Hbond>
1.0000

> <Gold.PLP.Chemscore.CHOScore>
0.0000

> <Gold.PLP.Chemscore.Metal>
0.0000

> <Gold.Chemscore.Hbonds>
donor molecule, donor type, donor heavy atom, donor atom, acceptor molecule, acceptor atom, score
      P1  H  7997  8008       L1     1  1.00

> <Gold.PLP.Chemscore.Internal.Correction>
4.0882

> <Gold.Rescore>
     Score         DG    S(hbond)    S(metal)    S(lipo)     H(rot)  DE(clash)    DE(int)     intcor
      7.50     -16.17       0.98        0.00     118.80       2.52       0.13       8.55       ----

> <Gold.Chemscore.Fitness>
7.4973

> <Gold.Chemscore.DG>
-16.1731

> <Gold.Chemscore.ZeroCoef>
-5.4800

> <Gold.Chemscore.Hbond>
0.9752

> <Gold.Chemscore.Metal>
0.0000

> <Gold.Chemscore.Lipo>
118.7965

> <Gold.Chemscore.Internal_Hbond>
0.0000

> <Gold.Chemscore.DEClash>
0.1274

> <Gold.Chemscore.DEInternal>
8.5484

> <Gold.Chemscore.Rot>
2.5247

> <Gold.Chemscore.Internal.Correction>
   9.000000E+99

> <Gold.Chemscore.Hbonds>
donor molecule, donor type, donor heavy atom, donor atom, acceptor molecule, acceptor atom, score
      P1  H  7997  8008       L1     1  0.95

> <Gold.Chemscore.Hbond.Weighted>
-3.2572

> <Gold.Chemscore.Metal.Weighted>
-0.0000

> <Gold.Chemscore.Lipo.Weighted>
-13.8992

> <Gold.Chemscore.Internal_Hbond.Weighted>
0.0000

> <Gold.Chemscore.DEClash.Weighted>
0.1274

> <Gold.Chemscore.DEInternal.Weighted>
8.5484

> <Gold.Chemscore.Rot.Weighted>
6.4633

> <Gold.Chemscore.Internal.Correction.Weighted>
   9.000000E+99

> <Gold.Protein.RotatedTorsions>
[ 6907 6896 6895 6894 ] final   30.82 input  -60.11 | X-H torsion
[ 7974 7965 7964 7962 ] final -114.59 input  175.53 | X-H torsion
[ 8008 7997 7996 7995 ] final -123.36 input   59.86 | X-H torsion
[ 10167 10162 10161 10158 ] final  -30.43 input  -65.29 | X-H torsion
[ 10718 10713 10712 10709 ] final -111.21 input   66.30 | X-H torsion
[ 10763 10752 10751 10750 ] final   65.75 input  -60.55 | X-H torsion
[ 11005 11000 10999 10996 ] final   -0.93 input  -57.11 | X-H torsion

> <Gold.Protein.ActiveResidues>
 VAL166  LYS551  ARG553  GLY616  TRP617  ASP618  TYR619  PRO620  LYS621  CYS622 
 ASP623  PHE694  ASN695  SER759  ASP760  ASP761  ALA762  ILE779  LEU786  VAL792 
 PHE793  MET794  SER795  GLU796  ALA797  LYS798  CYS799  TRP800  GLU811  SER814 

> <Gold.Protein.RotatedAtoms>
  152.0515  134.9651  160.0574 H   0  0  0  0  0  0  0  0  0  0  0  0  # atno 6907 bound_to 6896
  152.1050  133.4265  159.4613 H   0  0  0  0  0  0  0  0  0  0  0  0  # atno 6908 bound_to 6896
  150.6841  134.2635  159.4602 H   0  0  0  0  0  0  0  0  0  0  0  0  # atno 6909 bound_to 6896
  145.1184  140.8654  143.3828 H   0  0  0  0  0  0  0  0  0  0  0  0  # atno 7974 bound_to 7965
  155.1792  140.0410  157.2879 H   0  0  0  0  0  0  0  0  0  0  0  0  # atno 8008 bound_to 7997
  154.6215  140.2502  155.7516 H   0  0  0  0  0  0  0  0  0  0  0  0  # atno 8009 bound_to 7997
  156.2436  140.2894  156.0525 H   0  0  0  0  0  0  0  0  0  0  0  0  # atno 8010 bound_to 7997
  140.7249  143.3849  151.1533 H   0  0  0  0  0  0  0  0  0  0  0  0  # atno 10167 bound_to 10162
  156.0634  130.5856  150.8343 H   0  0  0  0  0  0  0  0  0  0  0  0  # atno 10718 bound_to 10713
  153.0110  135.5345  154.6717 H   0  0  0  0  0  0  0  0  0  0  0  0  # atno 10763 bound_to 10752
  154.5900  135.2858  155.0648 H   0  0  0  0  0  0  0  0  0  0  0  0  # atno 10764 bound_to 10752
  154.1744  135.6526  153.5070 H   0  0  0  0  0  0  0  0  0  0  0  0  # atno 10765 bound_to 10752
  140.6418  133.9483  155.8330 H   0  0  0  0  0  0  0  0  0  0  0  0  # atno 11005 bound_to 11000
  145.0768  139.2990  143.5804 LP  0  0  0  0  0  0  0  0  0  0  0  0  # atno 17320 bound_to 7965
  146.3522  140.0261  142.8654 LP  0  0  0  0  0  0  0  0  0  0  0  0  # atno 17321 bound_to 7965
  139.7445  143.8874  152.3059 LP  0  0  0  0  0  0  0  0  0  0  0  0  # atno 17342 bound_to 10162
  139.8706  144.7070  150.8992 LP  0  0  0  0  0  0  0  0  0  0  0  0  # atno 17343 bound_to 10162
  157.5659  131.0946  150.9490 LP  0  0  0  0  0  0  0  0  0  0  0  0  # atno 17370 bound_to 10713
  156.9717  130.5493  149.5291 LP  0  0  0  0  0  0  0  0  0  0  0  0  # atno 17371 bound_to 10713
  141.0601  134.0358  157.3669 LP  0  0  0  0  0  0  0  0  0  0  0  0  # atno 17394 bound_to 11000
  139.9077  135.0183  156.7560 LP  0  0  0  0  0  0  0  0  0  0  0  0  # atno 17395 bound_to 11000

$$$$
