AV-unprocessed.smi:530|AV-procd|sdf|2845|dock1
  -GOLD-   2262023333D 1   1.00000     0.00000
 Structure written by MMmdl.
 36 38  0  0  0  0  0  0  0  0  2 V2000
  151.7083  137.7979  154.8109 C   0  0  0  0  0  0  0  0  0  0  0  0
  150.5641  138.7181  154.5473 C   0  0  0  0  0  0  0  0  0  0  0  0
  149.4669  138.4380  153.7893 N   0  3  0  0  0  0  0  0  0  0  0  0
  148.6091  139.5388  153.7756 C   0  0  0  0  0  0  0  0  0  0  0  0
  147.3812  139.7285  153.1490 C   0  0  0  0  0  0  0  0  0  0  0  0
  146.7608  140.9809  153.3383 C   0  0  0  0  0  0  0  0  0  0  0  0
  147.3618  141.9865  154.1228 C   0  0  0  0  0  0  0  0  0  0  0  0
  148.6076  141.7830  154.7521 C   0  0  0  0  0  0  0  0  0  0  0  0
  149.2134  140.5408  154.5629 C   0  0  0  0  0  0  0  0  0  0  0  0
  150.4175  139.9892  155.0179 N   0  0  0  0  0  0  0  0  0  0  0  0
  151.3065  140.7838  155.8807 C   0  0  0  0  0  0  0  0  0  0  0  0
  150.9374  140.6915  157.3750 C   0  0  1  0  0  0  0  0  0  0  0  0
  151.2554  139.4084  157.8790 O   0  0  0  0  0  0  0  0  0  0  0  0
  151.5993  141.8037  158.1732 C   0  0  0  0  0  0  0  0  0  0  0  0
  151.4071  143.1573  157.8175 C   0  0  0  0  0  0  0  0  0  0  0  0
  152.0153  144.1820  158.5684 C   0  0  0  0  0  0  0  0  0  0  0  0
  152.8167  143.8602  159.6804 C   0  0  0  0  0  0  0  0  0  0  0  0
  153.0087  142.5130  160.0420 C   0  0  0  0  0  0  0  0  0  0  0  0
  152.4011  141.4877  159.2911 C   0  0  0  0  0  0  0  0  0  0  0  0
  151.5646  136.8490  154.2936 H   0  0  0  0  0  0  0  0  0  0  0  0
  151.7932  137.6008  155.8797 H   0  0  0  0  0  0  0  0  0  0  0  0
  152.6395  138.2453  154.4635 H   0  0  0  0  0  0  0  0  0  0  0  0
  146.9197  138.9604  152.5463 H   0  0  0  0  0  0  0  0  0  0  0  0
  145.8057  141.1743  152.8716 H   0  0  0  0  0  0  0  0  0  0  0  0
  146.8580  142.9347  154.2440 H   0  0  0  0  0  0  0  0  0  0  0  0
  149.0609  142.5636  155.3449 H   0  0  0  0  0  0  0  0  0  0  0  0
  152.3401  140.4838  155.7081 H   0  0  0  0  0  0  0  0  0  0  0  0
  151.2351  141.8196  155.5469 H   0  0  0  0  0  0  0  0  0  0  0  0
  149.8566  140.8006  157.4739 H   0  0  0  0  0  0  0  0  0  0  0  0
  150.4776  138.8725  157.8429 H   0  0  0  0  0  0  0  0  0  0  0  0
  150.7903  143.4153  156.9689 H   0  0  0  0  0  0  0  0  0  0  0  0
  151.8654  145.2154  158.2925 H   0  0  0  0  0  0  0  0  0  0  0  0
  153.2822  144.6462  160.2568 H   0  0  0  0  0  0  0  0  0  0  0  0
  153.6211  142.2657  160.8966 H   0  0  0  0  0  0  0  0  0  0  0  0
  152.5524  140.4576  159.5792 H   0  0  0  0  0  0  0  0  0  0  0  0
  149.3178  137.5558  153.3164 H   0  0  0  0  0  0  0  0  0  0  0  0
  1  2  1  0  0  0  0
  1 20  1  0  0  0  0
  1 21  1  0  0  0  0
  1 22  1  0  0  0  0
  2 10  1  0  0  0  0
  2  3  2  0  0  0  0
  3  4  1  0  0  0  0
  3 36  1  0  0  0  0
  4  9  2  0  0  0  0
  4  5  1  0  0  0  0
  5  6  2  0  0  0  0
  5 23  1  0  0  0  0
  6  7  1  0  0  0  0
  6 24  1  0  0  0  0
  7  8  2  0  0  0  0
  7 25  1  0  0  0  0
  8  9  1  0  0  0  0
  8 26  1  0  0  0  0
  9 10  1  0  0  0  0
 10 11  1  0  0  0  0
 11 12  1  0  0  0  0
 11 27  1  0  0  0  0
 11 28  1  0  0  0  0
 12 13  1  0  0  0  0
 12 14  1  0  0  0  0
 12 29  1  0  0  0  0
 13 30  1  0  0  0  0
 14 19  1  0  0  0  0
 14 15  2  0  0  0  0
 15 16  1  0  0  0  0
 15 31  1  0  0  0  0
 16 17  2  0  0  0  0
 16 32  1  0  0  0  0
 17 18  1  0  0  0  0
 17 33  1  0  0  0  0
 18 19  2  0  0  0  0
 18 34  1  0  0  0  0
 19 35  1  0  0  0  0
M  CHG  1   3   1
M  END
> <s_m_source_file>
AV-unprocessed.smi

> <i_m_source_file_index>
530

> <i_lp_mmshare_version>
43012

> <i_f3d_flags>
0

> <s_epik_input>
W2NIXTFbY0hdW2NIXVtjSF1jKGMxMiluKGMobjIpW0NIM10pW0NIMl1bQ0BIXShbT0hdKWMzW2NIXVtjSF1bY0hdW2NIXVtjSF0z

> <s_epik_cmdline>
J2VwaWtfcHl0aG9uJywgJy1waCcsICc3LjAnLCAnLXRuJywgJzgnLCAnLW1hJywgJzIwMCcsICctbWV0YWxfYmluZGluZycsICctaW1hZScsICc8aW5maWxlLm1hZT4nLCAnLW9tYWUnLCAnPG91dGZpbGUubWFlPic=

> <r_epik_Ionization_Penalty>
0.963869

> <r_epik_Ionization_Penalty_Charging>
0.963868

> <r_epik_Ionization_Penalty_Neutral>
1.34362e-06

> <r_epik_State_Penalty>
1.00924

> <r_epik_Charging_Adjusted_Penalty>
1.9731

> <i_epik_Tot_Q>
1

> <i_epik_Tot_abs_Q>
1

> <r_epik_Metal_State_Penalty>
4.98304

> <b_epik_Metal_Only>
0

> <s_lp_Force_Field>
OPLS_2005

> <r_lp_Energy>
15.219

> <b_lp_Chiralities_Consistent>
1

> <s_lp_Variant>
AV-unprocessed.smi:530-4

> <Gold.Version>
5.8.1

> <Gold.Id.Protein>
6NUR|6NUR_protein|mol2

> <Gold.PLP.Fitness>
51.4421

> <Gold.PLP.PLP>
-46.3579

> <Gold.PLP.part.hbond>
-1.8529

> <Gold.PLP.part.metal>
0.0000

> <Gold.PLP.part.buried>
1.5638

> <Gold.PLP.part.nonpolar>
-45.7262

> <Gold.PLP.part.repulsive>
0.0544

> <Gold.PLP.ligand.clash>
0.0000

> <Gold.PLP.ligand.torsion>
0.4737

> <Gold.PLP.Chemscore.Hbond>
2.0000

> <Gold.PLP.Chemscore.CHOScore>
0.0000

> <Gold.PLP.Chemscore.Metal>
0.0000

> <Gold.Chemscore.Hbonds>
donor molecule, donor type, donor heavy atom, donor atom, acceptor molecule, acceptor atom, score
      L1  H     3    36       P1  7948  2.00

> <Gold.PLP.Chemscore.Internal.Correction>
0.0316

> <Gold.Rescore>
     Score         DG    S(hbond)    S(metal)    S(lipo)     H(rot)  DE(clash)    DE(int)     intcor
     18.40     -19.00       0.91        0.00     127.81       1.76       0.15       0.44       ----

> <Gold.Chemscore.Fitness>
18.3997

> <Gold.Chemscore.DG>
-18.9955

> <Gold.Chemscore.ZeroCoef>
-5.4800

> <Gold.Chemscore.Hbond>
0.9149

> <Gold.Chemscore.Metal>
0.0000

> <Gold.Chemscore.Lipo>
127.8119

> <Gold.Chemscore.Internal_Hbond>
0.0000

> <Gold.Chemscore.DEClash>
0.1519

> <Gold.Chemscore.DEInternal>
0.4438

> <Gold.Chemscore.Rot>
1.7555

> <Gold.Chemscore.Internal.Correction>
   9.000000E+99

> <Gold.Chemscore.Hbonds>
donor molecule, donor type, donor heavy atom, donor atom, acceptor molecule, acceptor atom, score
      L1  H     3    36       P1  7948  0.95

> <Gold.Chemscore.Hbond.Weighted>
-3.0557

> <Gold.Chemscore.Metal.Weighted>
-0.0000

> <Gold.Chemscore.Lipo.Weighted>
-14.9540

> <Gold.Chemscore.Internal_Hbond.Weighted>
0.0000

> <Gold.Chemscore.DEClash.Weighted>
0.1519

> <Gold.Chemscore.DEInternal.Weighted>
0.4438

> <Gold.Chemscore.Rot.Weighted>
4.4942

> <Gold.Chemscore.Internal.Correction.Weighted>
   9.000000E+99

> <Gold.Protein.RotatedTorsions>
[ 6907 6896 6895 6894 ] final   45.35 input  -60.11 | X-H torsion
[ 7974 7965 7964 7962 ] final   38.55 input  175.53 | X-H torsion
[ 8008 7997 7996 7995 ] final -133.49 input   59.86 | X-H torsion
[ 10167 10162 10161 10158 ] final  -86.53 input  -65.29 | X-H torsion
[ 10718 10713 10712 10709 ] final  -16.05 input   66.30 | X-H torsion
[ 10763 10752 10751 10750 ] final   -1.81 input  -60.55 | X-H torsion
[ 11005 11000 10999 10996 ] final -134.96 input  -57.11 | X-H torsion

> <Gold.Protein.ActiveResidues>
 VAL166  LYS551  ARG553  GLY616  TRP617  ASP618  TYR619  PRO620  LYS621  CYS622 
 ASP623  PHE694  ASN695  SER759  ASP760  ASP761  ALA762  ILE779  LEU786  VAL792 
 PHE793  MET794  SER795  GLU796  ALA797  LYS798  CYS799  TRP800  GLU811  SER814 

> <Gold.Protein.RotatedAtoms>
  152.2434  134.8205  160.0456 H   0  0  0  0  0  0  0  0  0  0  0  0  # atno 6907 bound_to 6896
  151.8911  133.3511  159.3807 H   0  0  0  0  0  0  0  0  0  0  0  0  # atno 6908 bound_to 6896
  150.7061  134.4849  159.5532 H   0  0  0  0  0  0  0  0  0  0  0  0  # atno 6909 bound_to 6896
  146.1053  139.5758  142.9387 H   0  0  0  0  0  0  0  0  0  0  0  0  # atno 7974 bound_to 7965
  155.3464  140.0475  157.3045 H   0  0  0  0  0  0  0  0  0  0  0  0  # atno 8008 bound_to 7997
  154.5250  140.2238  155.8871 H   0  0  0  0  0  0  0  0  0  0  0  0  # atno 8009 bound_to 7997
  156.1730  140.3091  155.9014 H   0  0  0  0  0  0  0  0  0  0  0  0  # atno 8010 bound_to 7997
  140.3933  143.2695  151.9237 H   0  0  0  0  0  0  0  0  0  0  0  0  # atno 10167 bound_to 10162
  156.5930  130.4804  149.6271 H   0  0  0  0  0  0  0  0  0  0  0  0  # atno 10718 bound_to 10713
  153.3498  135.6985  153.6798 H   0  0  0  0  0  0  0  0  0  0  0  0  # atno 10763 bound_to 10752
  153.5529  135.3550  155.2768 H   0  0  0  0  0  0  0  0  0  0  0  0  # atno 10764 bound_to 10752
  154.8651  135.4231  154.2731 H   0  0  0  0  0  0  0  0  0  0  0  0  # atno 10765 bound_to 10752
  140.8942  134.1773  157.4506 H   0  0  0  0  0  0  0  0  0  0  0  0  # atno 11005 bound_to 11000
  145.5773  141.0387  143.2141 LP  0  0  0  0  0  0  0  0  0  0  0  0  # atno 17320 bound_to 7965
  144.7466  139.7305  143.7290 LP  0  0  0  0  0  0  0  0  0  0  0  0  # atno 17321 bound_to 7965
  139.4788  144.5706  151.8094 LP  0  0  0  0  0  0  0  0  0  0  0  0  # atno 17342 bound_to 10162
  140.4817  144.1440  150.5934 LP  0  0  0  0  0  0  0  0  0  0  0  0  # atno 17343 bound_to 10162
  156.2533  130.6920  151.1665 LP  0  0  0  0  0  0  0  0  0  0  0  0  # atno 17370 bound_to 10713
  157.7299  131.0621  150.5753 LP  0  0  0  0  0  0  0  0  0  0  0  0  # atno 17371 bound_to 10713
  139.8733  134.9871  156.5354 LP  0  0  0  0  0  0  0  0  0  0  0  0  # atno 17394 bound_to 11000
  140.8310  133.8279  155.8984 LP  0  0  0  0  0  0  0  0  0  0  0  0  # atno 17395 bound_to 11000

$$$$
