#       Name:                AV-unprocessed.smi:2804
#       Creating user name   scv26
#       Creation time:       Fri Mar 27 15:24:37 2020


#       File generated by GOLD software.
#

@<TRIPOS>MOLECULE
AV-unprocessed.smi:2804
    39    40     1
SMALL
NO_CHARGES


@<TRIPOS>ATOM
      1 ****        -3.9349   2.5522  -1.0193 C.3            1 S1                 0.0000
      2 ****        -2.6904   1.6673  -0.8983 C.3            1 S1                 0.0000
      3 ****        -2.2201   1.5103   0.5561 C.3            1 S1                 0.0000
      4 ****        -1.0341   0.6620   0.6375 N.am           1 S1                 0.0000
      5 ****         0.2553   1.0731   0.6129 C.2            1 S1                 0.0000
      6 ****         0.6423   2.2390   0.5341 O.2            1 S1                 0.0000
      7 ****         1.0477  -0.0233   0.6710 N.am           1 S1                 0.0000
      8 ****         2.5097  -0.0391   0.6480 C.3            1 S1                 0.0000
      9 ****         3.0601   0.1196  -0.7851 C.3            1 S1                 0.0000
     10 ****         2.9742  -1.1322  -1.4384 O.3            1 S1                 0.0000
     11 ****         4.5341   0.5693  -0.8093 C.3            1 S1                 0.0000
     12 ****         4.9636   0.6690  -2.0676 F              1 S1                 0.0000
     13 ****         4.6446   1.7705  -0.2422 F              1 S1                 0.0000
     14 ****         5.3044  -0.2903  -0.1413 F              1 S1                 0.0000
     15 ****         0.2417  -1.1704   0.7164 C.ar           1 S1                 0.0000
     16 ****         0.5736  -2.5360   0.7635 C.ar           1 S1                 0.0000
     17 ****        -0.4963  -3.4612   0.7884 C.ar           1 S1                 0.0000
     18 ****        -1.8436  -3.0161   0.7641 C.ar           1 S1                 0.0000
     19 ****        -2.1498  -1.6360   0.7153 C.ar           1 S1                 0.0000
     20 ****        -1.0681  -0.7384   0.6937 C.ar           1 S1                 0.0000
     21 ****        -4.2478   2.6419  -2.0597 H              1 S1                 0.0000
     22 ****        -3.7414   3.5566  -0.6418 H              1 S1                 0.0000
     23 ****        -4.7698   2.1357  -0.4551 H              1 S1                 0.0000
     24 ****        -2.9068   0.6862  -1.3227 H              1 S1                 0.0000
     25 ****        -1.8876   2.0938  -1.5009 H              1 S1                 0.0000
     26 ****        -2.0044   2.4892   0.9873 H              1 S1                 0.0000
     27 ****        -3.0152   1.0805   1.1662 H              1 S1                 0.0000
     28 ****         2.8569   0.7882   1.2685 H              1 S1                 0.0000
     29 ****         2.8995  -0.9408   1.1213 H              1 S1                 0.0000
     30 ****         2.4653   0.8445  -1.3426 H              1 S1                 0.0000
     31 ****         3.5405  -1.7422  -0.9909 H              1 S1                 0.0000
     32 ****         1.5999  -2.8714   0.7760 H              1 S1                 0.0000
     33 ****        -0.2849  -4.5197   0.8234 H              1 S1                 0.0000
     34 ****        -2.6452  -3.7398   0.7808 H              1 S1                 0.0000
     35 ****        -3.1730  -1.2913   0.6924 H              1 S1                 0.0000
     36 ****        -0.0226   2.9840   0.4812 LP             1 S1                 0.0000
     37 ****         1.6216   2.4411   0.5229 LP             1 S1                 0.0000
     38 ****         3.2656  -1.0370  -2.3903 LP             1 S1                 0.0000
     39 ****         2.0312  -1.4638  -1.4101 LP             1 S1                 0.0000
@<TRIPOS>BOND
    1    1    2 1     
    2    1   21 1     
    3    1   22 1     
    4    1   23 1     
    5    2    3 1     
    6    2   24 1     
    7    2   25 1     
    8    3    4 1     
    9    3   26 1     
   10    3   27 1     
   11    4   20 1     
   12    4    5 am    
   13    5    6 2     
   14    5    7 am    
   15    7    8 1     
   16    7   15 1     
   17    8    9 1     
   18    8   28 1     
   19    8   29 1     
   20    9   10 1     
   21    9   11 1     
   22    9   30 1     
   23   10   31 1     
   24   11   12 1     
   25   11   13 1     
   26   11   14 1     
   27   15   20 ar    
   28   15   16 ar    
   29   16   17 ar    
   30   16   32 1     
   31   17   18 ar    
   32   17   33 1     
   33   18   19 ar    
   34   18   34 1     
   35   19   20 ar    
   36   19   35 1     
   37    6   36 1     
   38    6   37 1     
   39   10   38 1     
   40   10   39 1     
@<TRIPOS>SUBSTRUCTURE
      1 S1             1
@<TRIPOS>SET
LONE_PAIRS      STATIC     ATOMS    <user>   **** ""
4 36 37 38 39
DONOR_HYDROGENS      STATIC     ATOMS    <user>   **** ""
1 31
ATOM$BLUE        STATIC     ATOMS    COLORGROUP SYSTEM
4 36 37 38 39
ATOM$RED        STATIC     ATOMS    COLORGROUP SYSTEM
1 31
