#       Name:                AV-unprocessed.smi:109
#       Creating user name   scv26
#       Creation time:       Thu Mar 26 18:13:15 2020


#       File generated by GOLD software.
#

@<TRIPOS>MOLECULE
AV-unprocessed.smi:109
    71    74     1
SMALL
NO_CHARGES


@<TRIPOS>ATOM
      1 ****        -5.0908   0.6498   3.6816 O.3            1 S1                 0.0000
      2 ****        -3.8329   0.7828   3.0560 C.3            1 S1                 0.0000
      3 ****        -4.0200   0.9584   1.5408 C.3            1 S1                 0.0000
      4 ****        -2.6855   1.1530   0.7871 C.3            1 S1                 0.0000
      5 ****        -1.9047  -0.0830   0.8359 N.pl3          1 S1                 0.0000
      6 ****        -0.5553  -0.0744   0.7528 C.ar           1 S1                 0.0000
      7 ****         0.1446   1.0896   0.7273 N.ar           1 S1                 0.0000
      8 ****         1.4782   1.0655   0.6521 C.ar           1 S1                 0.0000
      9 ****         2.2912   0.0087   0.5979 N.ar           1 S1                 0.0000
     10 ****         1.5957  -1.1648   0.6249 C.ar           1 S1                 0.0000
     11 ****         0.1795  -1.2869   0.6971 C.ar           1 S1                 0.0000
     12 ****        -0.1787  -2.6281   0.6970 N.2            1 S1                 0.0000
     13 ****         0.9628  -3.2588   0.6338 C.2            1 S1                 0.0000
     14 ****         2.0826  -2.4578   0.5895 N.pl3          1 S1                 0.0000
     15 ****         3.5122  -2.9081   0.5264 C.3            1 S1                 0.0000
     16 ****         4.3068  -2.0503   1.2926 O.3            1 S1                 0.0000
     17 ****         5.3035  -1.4292   0.4806 C.3            1 S1                 0.0000
     18 ****         6.5662  -1.1696   1.3162 C.3            1 S1                 0.0000
     19 ****         6.4264   0.0314   2.0448 O.3            1 S1                 0.0000
     20 ****         5.5075  -2.4489  -0.6413 C.3            1 S1                 0.0000
     21 ****         6.1270  -1.9058  -1.7915 O.3            1 S1                 0.0000
     22 ****         4.0875  -2.9300  -0.9026 C.3            1 S1                 0.0000
     23 ****         3.3868  -2.0946  -1.8120 O.3            1 S1                 0.0000
     24 ****        -2.8509   1.6440  -0.6779 C.3            1 S1                 0.0000
     25 ****        -3.3541   3.1014  -0.7672 C.3            1 S1                 0.0000
     26 ****        -3.4096   3.5890  -2.2242 C.3            1 S1                 0.0000
     27 ****        -4.2802   2.6621  -3.0868 C.3            1 S1                 0.0000
     28 ****        -3.7885   1.2086  -3.0063 C.3            1 S1                 0.0000
     29 ****        -3.7303   0.7189  -1.5498 C.3            1 S1                 0.0000
     30 ****         3.5109  -3.8930   0.9950 H              1 S1                 0.0000
     31 ****         4.9128  -0.5010   0.0601 H              1 S1                 0.0000
     32 ****         6.1090  -3.2820  -0.2736 H              1 S1                 0.0000
     33 ****         4.0691  -3.9495  -1.2890 H              1 S1                 0.0000
     34 ****        -4.9548   0.5562   4.6121 H              1 S1                 0.0000
     35 ****        -3.3156   1.6432   3.4815 H              1 S1                 0.0000
     36 ****        -3.2343  -0.1012   3.2775 H              1 S1                 0.0000
     37 ****        -4.5571   0.0987   1.1380 H              1 S1                 0.0000
     38 ****        -4.6658   1.8210   1.3830 H              1 S1                 0.0000
     39 ****        -2.1379   1.9249   1.3292 H              1 S1                 0.0000
     40 ****        -2.4431  -0.9371   0.8639 H              1 S1                 0.0000
     41 ****         1.9639   2.0301   0.6358 H              1 S1                 0.0000
     42 ****         1.0201  -4.3376   0.6208 H              1 S1                 0.0000
     43 ****         6.7753  -2.0013   1.9896 H              1 S1                 0.0000
     44 ****         7.4320  -1.0556   0.6631 H              1 S1                 0.0000
     45 ****         7.2188   0.1786   2.5379 H              1 S1                 0.0000
     46 ****         5.5650  -1.2283  -2.1368 H              1 S1                 0.0000
     47 ****         2.4799  -2.3597  -1.8237 H              1 S1                 0.0000
     48 ****        -1.8561   1.6460  -1.1258 H              1 S1                 0.0000
     49 ****        -4.3481   3.1924  -0.3306 H              1 S1                 0.0000
     50 ****        -2.7014   3.7565  -0.1893 H              1 S1                 0.0000
     51 ****        -3.8010   4.6060  -2.2607 H              1 S1                 0.0000
     52 ****        -2.4002   3.6308  -2.6355 H              1 S1                 0.0000
     53 ****        -5.3163   2.7161  -2.7504 H              1 S1                 0.0000
     54 ****        -4.2726   3.0012  -4.1230 H              1 S1                 0.0000
     55 ****        -4.4441   0.5617  -3.5899 H              1 S1                 0.0000
     56 ****        -2.7984   1.1325  -3.4575 H              1 S1                 0.0000
     57 ****        -3.3446  -0.3007  -1.5280 H              1 S1                 0.0000
     58 ****        -4.7439   0.6757  -1.1505 H              1 S1                 0.0000
     59 ****        -5.5603  -0.1585   3.3264 LP             1 S1                 0.0000
     60 ****        -5.6445   1.4629   3.5018 LP             1 S1                 0.0000
     61 ****        -0.3384   1.9645   0.7649 LP             1 S1                 0.0000
     62 ****         3.2879   0.0694   0.5441 LP             1 S1                 0.0000
     63 ****        -1.0977  -3.0202   0.7363 LP             1 S1                 0.0000
     64 ****         4.7535  -2.5754   2.0170 LP             1 S1                 0.0000
     65 ****         3.7287  -1.3439   1.7011 LP             1 S1                 0.0000
     66 ****         5.6494  -0.0422   2.6699 LP             1 S1                 0.0000
     67 ****         6.2758   0.7926   1.4140 LP             1 S1                 0.0000
     68 ****         6.2549  -2.6220  -2.4775 LP             1 S1                 0.0000
     69 ****         7.0150  -1.5168  -1.5462 LP             1 S1                 0.0000
     70 ****         3.7780  -2.1893  -2.7274 LP             1 S1                 0.0000
     71 ****         3.4561  -1.1416  -1.5169 LP             1 S1                 0.0000
@<TRIPOS>BOND
    1    1    2 1     
    2    1   34 1     
    3    2    3 1     
    4    2   35 1     
    5    2   36 1     
    6    3    4 1     
    7    3   37 1     
    8    3   38 1     
    9    4    5 1     
   10    4   24 1     
   11    4   39 1     
   12    5    6 1     
   13    5   40 1     
   14    6   11 ar    
   15    6    7 ar    
   16    7    8 ar    
   17    8    9 ar    
   18    8   41 1     
   19    9   10 ar    
   20   10   14 1     
   21   10   11 ar    
   22   11   12 1     
   23   12   13 2     
   24   13   14 1     
   25   13   42 1     
   26   14   15 1     
   27   15   30 1     
   28   15   22 1     
   29   15   16 1     
   30   16   17 1     
   31   17   31 1     
   32   17   18 1     
   33   17   20 1     
   34   18   19 1     
   35   18   43 1     
   36   18   44 1     
   37   19   45 1     
   38   20   32 1     
   39   20   21 1     
   40   20   22 1     
   41   21   46 1     
   42   22   33 1     
   43   22   23 1     
   44   23   47 1     
   45   24   29 1     
   46   24   25 1     
   47   24   48 1     
   48   25   26 1     
   49   25   49 1     
   50   25   50 1     
   51   26   27 1     
   52   26   51 1     
   53   26   52 1     
   54   27   28 1     
   55   27   53 1     
   56   27   54 1     
   57   28   29 1     
   58   28   55 1     
   59   28   56 1     
   60   29   57 1     
   61   29   58 1     
   62    1   59 1     
   63    1   60 1     
   64    7   61 1     
   65    9   62 1     
   66   12   63 1     
   67   16   64 1     
   68   16   65 1     
   69   19   66 1     
   70   19   67 1     
   71   21   68 1     
   72   21   69 1     
   73   23   70 1     
   74   23   71 1     
@<TRIPOS>SUBSTRUCTURE
      1 S1             1
@<TRIPOS>SET
LONE_PAIRS      STATIC     ATOMS    <user>   **** ""
13 59 60 61 62 63 64 65 66 67 68 69 70 71
DONOR_HYDROGENS      STATIC     ATOMS    <user>   **** ""
5 34 40 45 46 47
ATOM$BLUE        STATIC     ATOMS    COLORGROUP SYSTEM
13 59 60 61 62 63 64 65 66 67 68 69 70 71
ATOM$RED        STATIC     ATOMS    COLORGROUP SYSTEM
5 34 40 45 46 47
