AV-unprocessed.smi:3271|AV-procd|sdf|12517|dock6
  -GOLD-   2272018433D 1   1.00000     0.00000
 Structure written by MMmdl.
 41 41  0  0  0  0  0  0  0  0  1 V2000
  145.9905  142.8647  154.1348 C   0  0  0  0  0  0  0  0  0  0  0  0
  147.0455  142.0475  154.8975 C   0  0  0  0  0  0  0  0  0  0  0  0
  148.2744  141.6383  154.0528 C   0  0  0  0  0  0  0  0  0  0  0  0
  147.9029  140.5118  153.0615 C   0  0  0  0  0  0  0  0  0  0  0  0
  147.5388  139.1747  153.7267 C   0  0  0  0  0  0  0  0  0  0  0  0
  149.4579  141.2284  154.9459 C   0  0  0  0  0  0  0  0  0  0  0  0
  150.0355  140.1570  154.7606 O   0  0  0  0  0  0  0  0  0  0  0  0
  149.7980  142.0904  155.9154 N   0  0  0  0  0  0  0  0  0  0  0  0
  150.8448  141.8696  156.9096 C   0  0  0  0  0  0  0  0  0  0  0  0
  150.8583  142.9361  158.0360 C   0  0  2  0  0  0  0  0  0  0  0  0
  149.4288  143.1842  158.5479 C   0  0  0  0  0  0  0  0  0  0  0  0
  151.2493  144.1598  157.4425 O   0  0  0  0  0  0  0  0  0  0  0  0
  151.7632  142.5558  159.1908 C   0  0  0  0  0  0  0  0  0  0  0  0
  152.0031  143.2700  160.4016 C   0  0  0  0  0  0  0  0  0  0  0  0
  152.8687  142.6650  161.1985 N   0  0  0  0  0  0  0  0  0  0  0  0
  153.2051  141.5413  160.5345 N   0  0  0  0  0  0  0  0  0  0  0  0
  154.1552  140.6220  161.1228 C   0  0  0  0  0  0  0  0  0  0  0  0
  152.5518  141.4462  159.3254 C   0  0  0  0  0  0  0  0  0  0  0  0
  145.1095  143.0317  154.7546 H   0  0  0  0  0  0  0  0  0  0  0  0
  145.6671  142.3482  153.2305 H   0  0  0  0  0  0  0  0  0  0  0  0
  146.3737  143.8431  153.8456 H   0  0  0  0  0  0  0  0  0  0  0  0
  147.3654  142.6059  155.7787 H   0  0  0  0  0  0  0  0  0  0  0  0
  146.5636  141.1458  155.2772 H   0  0  0  0  0  0  0  0  0  0  0  0
  148.5715  142.5099  153.4666 H   0  0  0  0  0  0  0  0  0  0  0  0
  147.0794  140.8328  152.4219 H   0  0  0  0  0  0  0  0  0  0  0  0
  148.7459  140.3369  152.3922 H   0  0  0  0  0  0  0  0  0  0  0  0
  147.3481  138.4101  152.9733 H   0  0  0  0  0  0  0  0  0  0  0  0
  146.6417  139.2579  154.3405 H   0  0  0  0  0  0  0  0  0  0  0  0
  148.3495  138.8182  154.3624 H   0  0  0  0  0  0  0  0  0  0  0  0
  149.2673  142.9453  155.9951 H   0  0  0  0  0  0  0  0  0  0  0  0
  150.8166  140.8551  157.3120 H   0  0  0  0  0  0  0  0  0  0  0  0
  151.7799  141.9367  156.3526 H   0  0  0  0  0  0  0  0  0  0  0  0
  149.0134  142.2897  159.0134 H   0  0  0  0  0  0  0  0  0  0  0  0
  148.7578  143.4718  157.7373 H   0  0  0  0  0  0  0  0  0  0  0  0
  149.4064  143.9804  159.2934 H   0  0  0  0  0  0  0  0  0  0  0  0
  150.6022  144.4029  156.7982 H   0  0  0  0  0  0  0  0  0  0  0  0
  151.5822  144.2125  160.7196 H   0  0  0  0  0  0  0  0  0  0  0  0
  154.1885  139.6979  160.5447 H   0  0  0  0  0  0  0  0  0  0  0  0
  153.8611  140.3881  162.1468 H   0  0  0  0  0  0  0  0  0  0  0  0
  155.1476  141.0736  161.1287 H   0  0  0  0  0  0  0  0  0  0  0  0
  152.7049  140.6091  158.6603 H   0  0  0  0  0  0  0  0  0  0  0  0
  1  2  1  0  0  0  0
  1 19  1  0  0  0  0
  1 20  1  0  0  0  0
  1 21  1  0  0  0  0
  2  3  1  0  0  0  0
  2 22  1  0  0  0  0
  2 23  1  0  0  0  0
  3  4  1  0  0  0  0
  3  6  1  0  0  0  0
  3 24  1  0  0  0  0
  4  5  1  0  0  0  0
  4 25  1  0  0  0  0
  4 26  1  0  0  0  0
  5 27  1  0  0  0  0
  5 28  1  0  0  0  0
  5 29  1  0  0  0  0
  6  7  2  0  0  0  0
  6  8  1  0  0  0  0
  8  9  1  0  0  0  0
  8 30  1  0  0  0  0
  9 10  1  0  0  0  0
  9 31  1  0  0  0  0
  9 32  1  0  0  0  0
 10 11  1  0  0  0  0
 10 12  1  0  0  0  0
 10 13  1  0  0  0  0
 11 33  1  0  0  0  0
 11 34  1  0  0  0  0
 11 35  1  0  0  0  0
 12 36  1  0  0  0  0
 13 18  2  0  0  0  0
 13 14  1  0  0  0  0
 14 15  2  0  0  0  0
 14 37  1  0  0  0  0
 15 16  1  0  0  0  0
 16 17  1  0  0  0  0
 16 18  1  0  0  0  0
 17 38  1  0  0  0  0
 17 39  1  0  0  0  0
 17 40  1  0  0  0  0
 18 41  1  0  0  0  0
M  END
> <s_m_source_file>
AV-unprocessed.smi

> <i_m_source_file_index>
3271

> <i_lp_mmshare_version>
43012

> <i_f3d_flags>
0

> <s_epik_input>
W0NIM11bQ0gyXVtDSF0oW0NIMl1bQ0gzXSlDKD1PKVtOSF1bQ0gyXVtDQEBdKFtDSDNdKShbT0hdKWMxW2NIXW5uKFtDSDNdKVtjSF0x

> <s_epik_cmdline>
J2VwaWtfcHl0aG9uJywgJy1waCcsICc3LjAnLCAnLXRuJywgJzgnLCAnLW1hJywgJzIwMCcsICctbWV0YWxfYmluZGluZycsICctaW1hZScsICc8aW5maWxlLm1hZT4nLCAnLW9tYWUnLCAnPG91dGZpbGUubWFlPic=

> <r_lp_tautomer_probability>
1

> <r_epik_Ionization_Penalty>
6.03488e-05

> <r_epik_Ionization_Penalty_Charging>
0

> <r_epik_Ionization_Penalty_Neutral>
6.03488e-05

> <r_epik_State_Penalty>
-0

> <r_epik_Charging_Adjusted_Penalty>
0

> <i_epik_Tot_Q>
0

> <i_epik_Tot_abs_Q>
0

> <r_epik_Metal_State_Penalty>
-0

> <b_epik_Metal_Only>
0

> <s_lp_Force_Field>
OPLS_2005

> <r_lp_Energy>
0.383254

> <b_lp_Chiralities_Consistent>
1

> <s_lp_Variant>
AV-unprocessed.smi:3271-2

> <Gold.Version>
5.8.1

> <Gold.Id.Protein>
6NUR|6NUR_protein|mol2

> <Gold.PLP.Fitness>
49.3509

> <Gold.PLP.PLP>
-41.0183

> <Gold.PLP.part.hbond>
-3.0000

> <Gold.PLP.part.metal>
0.0000

> <Gold.PLP.part.buried>
-2.2479

> <Gold.PLP.part.nonpolar>
-36.3169

> <Gold.PLP.part.repulsive>
0.2448

> <Gold.PLP.ligand.clash>
0.0000

> <Gold.PLP.ligand.torsion>
0.3924

> <Gold.PLP.Chemscore.Hbond>
3.0000

> <Gold.PLP.Chemscore.CHOScore>
0.0000

> <Gold.PLP.Chemscore.Metal>
0.0000

> <Gold.Chemscore.Hbonds>
donor molecule, donor type, donor heavy atom, donor atom, acceptor molecule, acceptor atom, score
      L1  H     8    30       P1  8028  1.00
      L1  H    12    36       P1  8028  0.94
      P1  H  7989  7998       L1     7  0.63

> <Gold.PLP.Chemscore.Internal.Correction>
0.1174

> <Gold.Rescore>
     Score         DG    S(hbond)    S(metal)    S(lipo)     H(rot)  DE(clash)    DE(int)     intcor
     17.35     -19.10       2.53        0.00      95.17       2.33       1.35       0.39       ----

> <Gold.Chemscore.Fitness>
17.3528

> <Gold.Chemscore.DG>
-19.0961

> <Gold.Chemscore.ZeroCoef>
-5.4800

> <Gold.Chemscore.Hbond>
2.5319

> <Gold.Chemscore.Metal>
0.0000

> <Gold.Chemscore.Lipo>
95.1705

> <Gold.Chemscore.Internal_Hbond>
0.0000

> <Gold.Chemscore.DEClash>
1.3485

> <Gold.Chemscore.DEInternal>
0.3947

> <Gold.Chemscore.Rot>
2.3341

> <Gold.Chemscore.Internal.Correction>
   9.000000E+99

> <Gold.Chemscore.Hbonds>
donor molecule, donor type, donor heavy atom, donor atom, acceptor molecule, acceptor atom, score
      L1  H     8    30       P1  8028  0.98
      L1  H    12    36       P1  8028  0.87
      P1  H  7989  7998       L1     7  0.12

> <Gold.Chemscore.Hbond.Weighted>
-8.4564

> <Gold.Chemscore.Metal.Weighted>
-0.0000

> <Gold.Chemscore.Lipo.Weighted>
-11.1349

> <Gold.Chemscore.Internal_Hbond.Weighted>
0.0000

> <Gold.Chemscore.DEClash.Weighted>
1.3485

> <Gold.Chemscore.DEInternal.Weighted>
0.3947

> <Gold.Chemscore.Rot.Weighted>
5.9753

> <Gold.Chemscore.Internal.Correction.Weighted>
   9.000000E+99

> <Gold.Protein.RotatedTorsions>
[ 6907 6896 6895 6894 ] final   92.35 input  -60.11 | X-H torsion
[ 7974 7965 7964 7962 ] final  178.24 input  175.53 | X-H torsion
[ 8008 7997 7996 7995 ] final   45.12 input   59.86 | X-H torsion
[ 10167 10162 10161 10158 ] final   10.32 input  -65.29 | X-H torsion
[ 10718 10713 10712 10709 ] final  141.58 input   66.30 | X-H torsion
[ 10763 10752 10751 10750 ] final  -59.85 input  -60.55 | X-H torsion
[ 11005 11000 10999 10996 ] final   75.34 input  -57.11 | X-H torsion

> <Gold.Protein.ActiveResidues>
 VAL166  LYS551  ARG553  GLY616  TRP617  ASP618  TYR619  PRO620  LYS621  CYS622 
 ASP623  PHE694  ASN695  SER759  ASP760  ASP761  ALA762  ILE779  LEU786  VAL792 
 PHE793  MET794  SER795  GLU796  ALA797  LYS798  CYS799  TRP800  GLU811  SER814 

> <Gold.Protein.RotatedAtoms>
  152.5452  134.1516  159.8520 H   0  0  0  0  0  0  0  0  0  0  0  0  # atno 6907 bound_to 6896
  151.1542  133.4880  159.2602 H   0  0  0  0  0  0  0  0  0  0  0  0  # atno 6908 bound_to 6896
  151.1440  135.0204  159.8693 H   0  0  0  0  0  0  0  0  0  0  0  0  # atno 6909 bound_to 6896
  144.7158  140.0367  143.6438 H   0  0  0  0  0  0  0  0  0  0  0  0  # atno 7974 bound_to 7965
  155.3306  140.3402  155.4239 H   0  0  0  0  0  0  0  0  0  0  0  0  # atno 8008 bound_to 7997
  156.1863  140.1682  156.8214 H   0  0  0  0  0  0  0  0  0  0  0  0  # atno 8009 bound_to 7997
  154.5391  140.0729  156.8461 H   0  0  0  0  0  0  0  0  0  0  0  0  # atno 8010 bound_to 7997
  140.6201  143.8222  150.7165 H   0  0  0  0  0  0  0  0  0  0  0  0  # atno 10167 bound_to 10162
  157.3904  131.1004  151.0652 H   0  0  0  0  0  0  0  0  0  0  0  0  # atno 10718 bound_to 10713
  154.2601  135.6310  153.5271 H   0  0  0  0  0  0  0  0  0  0  0  0  # atno 10763 bound_to 10752
  152.9897  135.5585  154.5714 H   0  0  0  0  0  0  0  0  0  0  0  0  # atno 10764 bound_to 10752
  154.5261  135.2885  155.1196 H   0  0  0  0  0  0  0  0  0  0  0  0  # atno 10765 bound_to 10752
  139.9348  134.7509  156.1259 H   0  0  0  0  0  0  0  0  0  0  0  0  # atno 11005 bound_to 11000
  146.0057  139.3128  143.0900 LP  0  0  0  0  0  0  0  0  0  0  0  0  # atno 17320 bound_to 7965
  145.8740  140.9402  143.0635 LP  0  0  0  0  0  0  0  0  0  0  0  0  # atno 17321 bound_to 7965
  140.1811  143.4114  152.1932 LP  0  0  0  0  0  0  0  0  0  0  0  0  # atno 17342 bound_to 10162
  139.5432  144.7275  151.4668 LP  0  0  0  0  0  0  0  0  0  0  0  0  # atno 17343 bound_to 10162
  157.1688  130.6258  149.5634 LP  0  0  0  0  0  0  0  0  0  0  0  0  # atno 17370 bound_to 10713
  155.9797  130.4792  150.6729 LP  0  0  0  0  0  0  0  0  0  0  0  0  # atno 17371 bound_to 10713
  141.0956  133.6697  156.2638 LP  0  0  0  0  0  0  0  0  0  0  0  0  # atno 17394 bound_to 11000
  140.6104  134.5464  157.5532 LP  0  0  0  0  0  0  0  0  0  0  0  0  # atno 17395 bound_to 11000

$$$$
