AV-unprocessed.smi:1859|AV-procd|sdf|7546|dock2
  -GOLD-   22720 9263D 1   1.00000     0.00000
 Structure written by MMmdl.
 46 48  0  0  0  0  0  0  0  0  2 V2000
  148.1187  139.1864  153.5159 O   0  0  0  0  0  0  0  0  0  0  0  0
  147.0416  139.7463  153.3084 C   0  0  0  0  0  0  0  0  0  0  0  0
  146.0445  139.1696  152.6203 N   0  0  0  0  0  0  0  0  0  0  0  0
  146.1186  137.8559  151.9937 C   0  0  0  0  0  0  0  0  0  0  0  0
  145.0040  136.9268  152.5048 C   0  0  0  0  0  0  0  0  0  0  0  0
  145.0850  135.5450  151.8877 C   0  0  0  0  0  0  0  0  0  0  0  0
  143.9346  134.8260  151.4964 C   0  0  0  0  0  0  0  0  0  0  0  0
  144.0839  133.5387  150.9392 C   0  0  0  0  0  0  0  0  0  0  0  0
  145.3777  132.9987  150.7858 C   0  0  0  0  0  0  0  0  0  0  0  0
  146.4917  133.7608  151.1937 C   0  0  0  0  0  0  0  0  0  0  0  0
  146.3075  134.9899  151.7237 N   0  3  0  0  0  0  0  0  0  0  0  0
  146.7757  141.1729  153.8251 C   0  0  1  0  0  0  0  0  0  0  0  0
  145.8505  141.2048  155.0698 C   0  0  0  0  0  0  0  0  0  0  0  0
  146.5776  140.8799  156.3938 C   0  0  0  0  0  0  0  0  0  0  0  0
  147.8886  141.6755  156.5229 C   0  0  0  0  0  0  0  0  0  0  0  0
  148.7226  141.4096  155.3419 N   0  0  0  0  0  0  0  0  0  0  0  0
  149.8476  140.6513  155.3150 C   0  0  0  0  0  0  0  0  0  0  0  0
  150.4436  140.3952  154.2671 O   0  0  0  0  0  0  0  0  0  0  0  0
  150.3504  140.1328  156.6251 C   0  0  0  0  0  0  0  0  0  0  0  0
  150.6671  141.1386  157.7168 C   0  0  0  0  0  0  0  0  0  0  0  0
  151.7875  140.4521  156.9813 C   0  0  0  0  0  0  0  0  0  0  0  0
  148.0922  141.9328  154.1209 C   0  0  0  0  0  0  0  0  0  0  0  0
  145.1879  139.6902  152.4966 H   0  0  0  0  0  0  0  0  0  0  0  0
  146.0680  137.9594  150.9084 H   0  0  0  0  0  0  0  0  0  0  0  0
  147.0944  137.4251  152.2195 H   0  0  0  0  0  0  0  0  0  0  0  0
  145.0595  136.8389  153.5906 H   0  0  0  0  0  0  0  0  0  0  0  0
  144.0229  137.3494  152.2819 H   0  0  0  0  0  0  0  0  0  0  0  0
  142.9500  135.2524  151.6233 H   0  0  0  0  0  0  0  0  0  0  0  0
  143.2160  132.9719  150.6350 H   0  0  0  0  0  0  0  0  0  0  0  0
  145.5136  132.0143  150.3623 H   0  0  0  0  0  0  0  0  0  0  0  0
  147.5162  133.4272  151.1144 H   0  0  0  0  0  0  0  0  0  0  0  0
  146.2567  141.7032  153.0250 H   0  0  0  0  0  0  0  0  0  0  0  0
  145.4216  142.2043  155.1501 H   0  0  0  0  0  0  0  0  0  0  0  0
  145.0032  140.5306  154.9368 H   0  0  0  0  0  0  0  0  0  0  0  0
  145.9233  141.1024  157.2370 H   0  0  0  0  0  0  0  0  0  0  0  0
  146.7930  139.8131  156.4544 H   0  0  0  0  0  0  0  0  0  0  0  0
  147.6708  142.7433  156.5740 H   0  0  0  0  0  0  0  0  0  0  0  0
  148.3712  141.4357  157.4688 H   0  0  0  0  0  0  0  0  0  0  0  0
  149.9351  139.1845  156.9617 H   0  0  0  0  0  0  0  0  0  0  0  0
  150.5226  142.1990  157.5184 H   0  0  0  0  0  0  0  0  0  0  0  0
  150.4679  140.8330  158.7418 H   0  0  0  0  0  0  0  0  0  0  0  0
  152.3485  139.6792  157.5025 H   0  0  0  0  0  0  0  0  0  0  0  0
  152.3681  141.0503  156.2807 H   0  0  0  0  0  0  0  0  0  0  0  0
  148.7560  141.8910  153.2556 H   0  0  0  0  0  0  0  0  0  0  0  0
  147.8787  142.9937  154.2599 H   0  0  0  0  0  0  0  0  0  0  0  0
  147.1272  135.5241  152.0134 H   0  0  0  0  0  0  0  0  0  0  0  0
  1  2  2  0  0  0  0
  2  3  1  0  0  0  0
  2 12  1  0  0  0  0
  3  4  1  0  0  0  0
  3 23  1  0  0  0  0
  4  5  1  0  0  0  0
  4 24  1  0  0  0  0
  4 25  1  0  0  0  0
  5  6  1  0  0  0  0
  5 26  1  0  0  0  0
  5 27  1  0  0  0  0
  6 11  1  0  0  0  0
  6  7  2  0  0  0  0
  7  8  1  0  0  0  0
  7 28  1  0  0  0  0
  8  9  2  0  0  0  0
  8 29  1  0  0  0  0
  9 10  1  0  0  0  0
  9 30  1  0  0  0  0
 10 11  2  0  0  0  0
 10 31  1  0  0  0  0
 11 46  1  0  0  0  0
 12 22  1  0  0  0  0
 12 13  1  0  0  0  0
 12 32  1  0  0  0  0
 13 14  1  0  0  0  0
 13 33  1  0  0  0  0
 13 34  1  0  0  0  0
 14 15  1  0  0  0  0
 14 35  1  0  0  0  0
 14 36  1  0  0  0  0
 15 16  1  0  0  0  0
 15 37  1  0  0  0  0
 15 38  1  0  0  0  0
 16 17  1  0  0  0  0
 16 22  1  0  0  0  0
 17 18  2  0  0  0  0
 17 19  1  0  0  0  0
 19 21  1  0  0  0  0
 19 20  1  0  0  0  0
 19 39  1  0  0  0  0
 20 21  1  0  0  0  0
 20 40  1  0  0  0  0
 20 41  1  0  0  0  0
 21 42  1  0  0  0  0
 21 43  1  0  0  0  0
 22 44  1  0  0  0  0
 22 45  1  0  0  0  0
M  CHG  1  11   1
M  END
> <s_m_source_file>
AV-unprocessed.smi

> <i_m_source_file_index>
1859

> <i_lp_mmshare_version>
43012

> <i_f3d_flags>
0

> <s_epik_input>
W0NIMl0xW0NIMl1bQ0hdMUMoPU8pTihbQ0gyXTIpW0NIMl1bQ0gyXVtDSDJdW0NASF0yQyg9TylbTkhdW0NIMl1bQ0gyXWMzW2NIXVtjSF1bY0hdW2NIXW4z

> <s_epik_cmdline>
J2VwaWtfcHl0aG9uJywgJy1waCcsICc3LjAnLCAnLXRuJywgJzgnLCAnLW1hJywgJzIwMCcsICctbWV0YWxfYmluZGluZycsICctaW1hZScsICc8aW5maWxlLm1hZT4nLCAnLW9tYWUnLCAnPG91dGZpbGUubWFlPic=

> <r_epik_Ionization_Penalty>
1.84754

> <r_epik_Ionization_Penalty_Charging>
1.84754

> <r_epik_Ionization_Penalty_Neutral>
7.35743e-08

> <r_epik_State_Penalty>
1.96477

> <r_epik_Charging_Adjusted_Penalty>
3.81231

> <i_epik_Tot_Q>
1

> <i_epik_Tot_abs_Q>
1

> <r_epik_Metal_State_Penalty>
1.99062

> <b_epik_Metal_Only>
0

> <s_lp_Force_Field>
OPLS_2005

> <r_lp_Energy>
29.7098

> <b_lp_Chiralities_Consistent>
1

> <s_lp_Variant>
AV-unprocessed.smi:1859-4

> <Gold.Version>
5.8.1

> <Gold.Id.Protein>
6NUR|6NUR_protein|mol2

> <Gold.PLP.Fitness>
47.6068

> <Gold.PLP.PLP>
-37.1377

> <Gold.PLP.part.hbond>
-2.8226

> <Gold.PLP.part.metal>
0.0000

> <Gold.PLP.part.buried>
-4.1898

> <Gold.PLP.part.nonpolar>
-31.4160

> <Gold.PLP.part.repulsive>
1.8702

> <Gold.PLP.ligand.clash>
0.0000

> <Gold.PLP.ligand.torsion>
0.8416

> <Gold.PLP.Chemscore.Hbond>
4.0000

> <Gold.PLP.Chemscore.CHOScore>
0.0000

> <Gold.PLP.Chemscore.Metal>
0.0000

> <Gold.Chemscore.Hbonds>
donor molecule, donor type, donor heavy atom, donor atom, acceptor molecule, acceptor atom, score
      L1  H     3    23       P1 10175  1.00
      L1  H    11    46       P1  7948  2.00
      P1  H  7989  7998       L1    18  0.89

> <Gold.PLP.Chemscore.Internal.Correction>
0.1522

> <Gold.Rescore>
     Score         DG    S(hbond)    S(metal)    S(lipo)     H(rot)  DE(clash)    DE(int)     intcor
     14.56     -20.29       2.97        0.00      78.80       1.70       1.07       4.67       ----

> <Gold.Chemscore.Fitness>
14.5565

> <Gold.Chemscore.DG>
-20.2883

> <Gold.Chemscore.ZeroCoef>
-5.4800

> <Gold.Chemscore.Hbond>
2.9747

> <Gold.Chemscore.Metal>
0.0000

> <Gold.Chemscore.Lipo>
78.8017

> <Gold.Chemscore.Internal_Hbond>
0.0000

> <Gold.Chemscore.DEClash>
1.0650

> <Gold.Chemscore.DEInternal>
4.6668

> <Gold.Chemscore.Rot>
1.6980

> <Gold.Chemscore.Internal.Correction>
   9.000000E+99

> <Gold.Chemscore.Hbonds>
donor molecule, donor type, donor heavy atom, donor atom, acceptor molecule, acceptor atom, score
      L1  H     3    23       P1 10175  1.00
      L1  H    11    46       P1  7948  0.97
      P1  H  7989  7998       L1    18  0.81

> <Gold.Chemscore.Hbond.Weighted>
-9.9354

> <Gold.Chemscore.Metal.Weighted>
-0.0000

> <Gold.Chemscore.Lipo.Weighted>
-9.2198

> <Gold.Chemscore.Internal_Hbond.Weighted>
0.0000

> <Gold.Chemscore.DEClash.Weighted>
1.0650

> <Gold.Chemscore.DEInternal.Weighted>
4.6668

> <Gold.Chemscore.Rot.Weighted>
4.3469

> <Gold.Chemscore.Internal.Correction.Weighted>
   9.000000E+99

> <Gold.Protein.RotatedTorsions>
[ 6907 6896 6895 6894 ] final  -47.63 input  -60.11 | X-H torsion
[ 7974 7965 7964 7962 ] final   73.85 input  175.53 | X-H torsion
[ 8008 7997 7996 7995 ] final  -86.27 input   59.86 | X-H torsion
[ 10167 10162 10161 10158 ] final -110.40 input  -65.29 | X-H torsion
[ 10718 10713 10712 10709 ] final   -6.54 input   66.30 | X-H torsion
[ 10763 10752 10751 10750 ] final    2.97 input  -60.55 | X-H torsion
[ 11005 11000 10999 10996 ] final   40.89 input  -57.11 | X-H torsion

> <Gold.Protein.ActiveResidues>
 VAL166  LYS551  ARG553  GLY616  TRP617  ASP618  TYR619  PRO620  LYS621  CYS622 
 ASP623  PHE694  ASN695  SER759  ASP760  ASP761  ALA762  ILE779  LEU786  VAL792 
 PHE793  MET794  SER795  GLU796  ALA797  LYS798  CYS799  TRP800  GLU811  SER814 

> <Gold.Protein.RotatedAtoms>
  150.8988  134.8399  159.7345 H   0  0  0  0  0  0  0  0  0  0  0  0  # atno 6907 bound_to 6896
  152.4880  134.4534  159.9592 H   0  0  0  0  0  0  0  0  0  0  0  0  # atno 6908 bound_to 6896
  151.4588  133.3559  159.2841 H   0  0  0  0  0  0  0  0  0  0  0  0  # atno 6909 bound_to 6896
  145.7357  139.2701  143.1515 H   0  0  0  0  0  0  0  0  0  0  0  0  # atno 7974 bound_to 7965
  154.6500  140.0580  156.9944 H   0  0  0  0  0  0  0  0  0  0  0  0  # atno 8008 bound_to 7997
  155.1386  140.3263  155.4439 H   0  0  0  0  0  0  0  0  0  0  0  0  # atno 8009 bound_to 7997
  156.2571  140.1968  156.6502 H   0  0  0  0  0  0  0  0  0  0  0  0  # atno 8010 bound_to 7997
  140.1449  143.4248  152.1536 H   0  0  0  0  0  0  0  0  0  0  0  0  # atno 10167 bound_to 10162
  156.7304  130.5178  149.5847 H   0  0  0  0  0  0  0  0  0  0  0  0  # atno 10718 bound_to 10713
  153.2890  135.6947  153.7311 H   0  0  0  0  0  0  0  0  0  0  0  0  # atno 10763 bound_to 10752
  153.6269  135.3417  155.3030 H   0  0  0  0  0  0  0  0  0  0  0  0  # atno 10764 bound_to 10752
  154.8518  135.4399  154.1967 H   0  0  0  0  0  0  0  0  0  0  0  0  # atno 10765 bound_to 10752
  140.1887  134.4013  155.8158 H   0  0  0  0  0  0  0  0  0  0  0  0  # atno 11005 bound_to 11000
  146.0496  140.8083  142.9788 LP  0  0  0  0  0  0  0  0  0  0  0  0  # atno 17320 bound_to 7965
  144.6882  140.3032  143.7260 LP  0  0  0  0  0  0  0  0  0  0  0  0  # atno 17321 bound_to 7965
  139.5454  144.7293  151.4600 LP  0  0  0  0  0  0  0  0  0  0  0  0  # atno 17342 bound_to 10162
  140.6738  143.8235  150.7032 LP  0  0  0  0  0  0  0  0  0  0  0  0  # atno 17343 bound_to 10162
  156.1532  130.6324  151.0623 LP  0  0  0  0  0  0  0  0  0  0  0  0  # atno 17370 bound_to 10713
  157.6861  131.0824  150.7239 LP  0  0  0  0  0  0  0  0  0  0  0  0  # atno 17371 bound_to 10713
  141.2225  133.7036  156.8058 LP  0  0  0  0  0  0  0  0  0  0  0  0  # atno 17394 bound_to 11000
  140.2184  134.8775  157.3350 LP  0  0  0  0  0  0  0  0  0  0  0  0  # atno 17395 bound_to 11000

$$$$
