AV-unprocessed.smi:461|AV-procd|sdf|2630|dock10
  -GOLD-   2262023 33D 1   1.00000     0.00000
 Structure written by MMmdl.
 33 34  0  0  0  0  0  0  0  0  1 V2000
  152.2024  143.6889  161.4220 C   0  0  0  0  0  0  0  0  0  0  0  0
  152.6744  142.5168  160.6834 N   0  0  0  0  0  0  0  0  0  0  0  0
  152.0462  142.3408  159.4613 N   0  0  0  0  0  0  0  0  0  0  0  0
  152.4054  141.3095  158.7545 C   0  0  0  0  0  0  0  0  0  0  0  0
  151.8946  140.9555  157.5124 N   0  0  0  0  0  0  0  0  0  0  0  0
  150.8637  141.6864  156.7897 C   0  0  0  0  0  0  0  0  0  0  0  0
  150.0791  140.7901  155.8160 C   0  0  2  0  0  0  0  0  0  0  0  0
  149.3708  139.6232  156.4976 C   0  0  0  0  0  0  0  0  0  0  0  0
  149.1515  138.6485  155.3547 C   0  0  0  0  0  0  0  0  0  0  0  0
  150.2409  139.0210  154.3443 C   0  0  0  0  0  0  0  0  0  0  0  0
  150.9472  140.1135  154.9201 O   0  0  0  0  0  0  0  0  0  0  0  0
  153.4766  140.3534  159.2550 C   0  0  0  0  0  0  0  0  0  0  0  0
  153.8077  139.3753  158.5782 O   0  0  0  0  0  0  0  0  0  0  0  0
  154.0221  140.6500  160.4672 N   0  0  0  0  0  0  0  0  0  0  0  0
  155.0655  139.7365  160.9678 C   0  0  0  0  0  0  0  0  0  0  0  0
  153.6453  141.7228  161.2233 C   0  0  0  0  0  0  0  0  0  0  0  0
  154.1400  141.9707  162.3257 O   0  0  0  0  0  0  0  0  0  0  0  0
  153.0238  144.3808  161.6128 H   0  0  0  0  0  0  0  0  0  0  0  0
  151.7739  143.3930  162.3806 H   0  0  0  0  0  0  0  0  0  0  0  0
  151.4335  144.2385  160.8760 H   0  0  0  0  0  0  0  0  0  0  0  0
  151.3669  142.4742  156.2286 H   0  0  0  0  0  0  0  0  0  0  0  0
  150.1895  142.1878  157.4859 H   0  0  0  0  0  0  0  0  0  0  0  0
  149.3553  141.3776  155.2475 H   0  0  0  0  0  0  0  0  0  0  0  0
  150.0239  139.1717  157.2456 H   0  0  0  0  0  0  0  0  0  0  0  0
  148.4438  139.9174  156.9904 H   0  0  0  0  0  0  0  0  0  0  0  0
  149.2249  137.6118  155.6841 H   0  0  0  0  0  0  0  0  0  0  0  0
  148.1652  138.7921  154.9120 H   0  0  0  0  0  0  0  0  0  0  0  0
  150.9233  138.1936  154.1487 H   0  0  0  0  0  0  0  0  0  0  0  0
  149.7986  139.3283  153.3959 H   0  0  0  0  0  0  0  0  0  0  0  0
  155.5451  140.0550  161.8940 H   0  0  0  0  0  0  0  0  0  0  0  0
  155.8652  139.6259  160.2332 H   0  0  0  0  0  0  0  0  0  0  0  0
  154.6430  138.7478  161.1537 H   0  0  0  0  0  0  0  0  0  0  0  0
  152.1821  140.0956  157.0673 H   0  0  0  0  0  0  0  0  0  0  0  0
  1 18  1  0  0  0  0
  1 19  1  0  0  0  0
  1 20  1  0  0  0  0
  1  2  1  0  0  0  0
  2 16  1  0  0  0  0
  2  3  1  0  0  0  0
  3  4  2  0  0  0  0
  4 12  1  0  0  0  0
  4  5  1  0  0  0  0
  5  6  1  0  0  0  0
  5 33  1  0  0  0  0
  6  7  1  0  0  0  0
  6 21  1  0  0  0  0
  6 22  1  0  0  0  0
  7 11  1  0  0  0  0
  7  8  1  0  0  0  0
  7 23  1  0  0  0  0
  8  9  1  0  0  0  0
  8 24  1  0  0  0  0
  8 25  1  0  0  0  0
  9 10  1  0  0  0  0
  9 26  1  0  0  0  0
  9 27  1  0  0  0  0
 10 11  1  0  0  0  0
 10 28  1  0  0  0  0
 10 29  1  0  0  0  0
 12 13  2  0  0  0  0
 12 14  1  0  0  0  0
 14 15  1  0  0  0  0
 14 16  1  0  0  0  0
 15 30  1  0  0  0  0
 15 31  1  0  0  0  0
 15 32  1  0  0  0  0
 16 17  2  0  0  0  0
M  END
> <s_m_source_file>
AV-unprocessed.smi

> <i_m_source_file_index>
461

> <i_lp_mmshare_version>
43012

> <i_f3d_flags>
0

> <s_epik_input>
Tz1jMW4oW0NIM10pYyg9TyljKG5uMVtDSDNdKVtOSF1bQ0gyXVtDQEBIXTJbQ0gyXVtDSDJdW0NIMl1PMg==

> <s_epik_cmdline>
J2VwaWtfcHl0aG9uJywgJy1waCcsICc3LjAnLCAnLXRuJywgJzgnLCAnLW1hJywgJzIwMCcsICctbWV0YWxfYmluZGluZycsICctaW1hZScsICc8aW5maWxlLm1hZT4nLCAnLW9tYWUnLCAnPG91dGZpbGUubWFlPic=

> <r_lp_tautomer_probability>
1

> <r_epik_Ionization_Penalty>
0.000103292

> <r_epik_Ionization_Penalty_Charging>
5.59445e-09

> <r_epik_Ionization_Penalty_Neutral>
0.000103287

> <r_epik_State_Penalty>
-0

> <r_epik_Charging_Adjusted_Penalty>
5.59445e-09

> <i_epik_Tot_Q>
0

> <i_epik_Tot_abs_Q>
0

> <r_epik_Metal_State_Penalty>
-0

> <b_epik_Metal_Only>
0

> <s_lp_Force_Field>
OPLS_2005

> <r_lp_Energy>
41.4084

> <b_lp_Chiralities_Consistent>
1

> <s_lp_Variant>
AV-unprocessed.smi:461-1

> <Gold.Version>
5.8.1

> <Gold.Id.Protein>
6NUR|6NUR_protein|mol2

> <Gold.PLP.Fitness>
39.3594

> <Gold.PLP.PLP>
-33.7198

> <Gold.PLP.part.hbond>
-3.0000

> <Gold.PLP.part.metal>
0.0000

> <Gold.PLP.part.buried>
-4.4563

> <Gold.PLP.part.nonpolar>
-26.1987

> <Gold.PLP.part.repulsive>
0.1539

> <Gold.PLP.ligand.clash>
0.0000

> <Gold.PLP.ligand.torsion>
0.1848

> <Gold.PLP.Chemscore.Hbond>
2.0000

> <Gold.PLP.Chemscore.CHOScore>
0.0000

> <Gold.PLP.Chemscore.Metal>
0.0000

> <Gold.Chemscore.Hbonds>
donor molecule, donor type, donor heavy atom, donor atom, acceptor molecule, acceptor atom, score
      P1  H  7989  7998       L1    11  1.00
      P1  H  7997  8009       L1    13  1.00

> <Gold.PLP.Chemscore.Internal.Correction>
0.0092

> <Gold.Rescore>
     Score         DG    S(hbond)    S(metal)    S(lipo)     H(rot)  DE(clash)    DE(int)     intcor
     13.30     -13.50       1.83        0.00      44.79       1.30       0.00       0.20       ----

> <Gold.Chemscore.Fitness>
13.3013

> <Gold.Chemscore.DG>
-13.5017

> <Gold.Chemscore.ZeroCoef>
-5.4800

> <Gold.Chemscore.Hbond>
1.8255

> <Gold.Chemscore.Metal>
0.0000

> <Gold.Chemscore.Lipo>
44.7926

> <Gold.Chemscore.Internal_Hbond>
0.0000

> <Gold.Chemscore.DEClash>
0.0000

> <Gold.Chemscore.DEInternal>
0.2003

> <Gold.Chemscore.Rot>
1.2954

> <Gold.Chemscore.Internal.Correction>
   9.000000E+99

> <Gold.Chemscore.Hbonds>
donor molecule, donor type, donor heavy atom, donor atom, acceptor molecule, acceptor atom, score
      P1  H  7989  7998       L1    11  0.34
      P1  H  7997  8009       L1    13  0.55

> <Gold.Chemscore.Hbond.Weighted>
-6.0973

> <Gold.Chemscore.Metal.Weighted>
-0.0000

> <Gold.Chemscore.Lipo.Weighted>
-5.2407

> <Gold.Chemscore.Internal_Hbond.Weighted>
0.0000

> <Gold.Chemscore.DEClash.Weighted>
0.0000

> <Gold.Chemscore.DEInternal.Weighted>
0.2003

> <Gold.Chemscore.Rot.Weighted>
3.3163

> <Gold.Chemscore.Internal.Correction.Weighted>
   9.000000E+99

> <Gold.Protein.RotatedTorsions>
[ 6907 6896 6895 6894 ] final   18.42 input  -60.11 | X-H torsion
[ 7974 7965 7964 7962 ] final  -55.96 input  175.53 | X-H torsion
[ 8008 7997 7996 7995 ] final  144.32 input   59.86 | X-H torsion
[ 10167 10162 10161 10158 ] final -139.80 input  -65.29 | X-H torsion
[ 10718 10713 10712 10709 ] final  176.37 input   66.30 | X-H torsion
[ 10763 10752 10751 10750 ] final   44.74 input  -60.55 | X-H torsion
[ 11005 11000 10999 10996 ] final  149.20 input  -57.11 | X-H torsion

> <Gold.Protein.ActiveResidues>
 VAL166  LYS551  ARG553  GLY616  TRP617  ASP618  TYR619  PRO620  LYS621  CYS622 
 ASP623  PHE694  ASN695  SER759  ASP760  ASP761  ALA762  ILE779  LEU786  VAL792 
 PHE793  MET794  SER795  GLU796  ALA797  LYS798  CYS799  TRP800  GLU811  SER814 

> <Gold.Protein.RotatedAtoms>
  151.8649  135.0510  160.0473 H   0  0  0  0  0  0  0  0  0  0  0  0  # atno 6907 bound_to 6896
  152.2633  133.5312  159.5403 H   0  0  0  0  0  0  0  0  0  0  0  0  # atno 6908 bound_to 6896
  150.7124  134.0715  159.3908 H   0  0  0  0  0  0  0  0  0  0  0  0  # atno 6909 bound_to 6896
  145.8681  140.8236  142.9902 H   0  0  0  0  0  0  0  0  0  0  0  0  # atno 7974 bound_to 7965
  156.2911  140.2239  156.5033 H   0  0  0  0  0  0  0  0  0  0  0  0  # atno 8008 bound_to 7997
  154.7671  140.0469  157.1042 H   0  0  0  0  0  0  0  0  0  0  0  0  # atno 8009 bound_to 7997
  154.9920  140.3091  155.4906 H   0  0  0  0  0  0  0  0  0  0  0  0  # atno 8010 bound_to 7997
  139.8344  143.7404  152.2665 H   0  0  0  0  0  0  0  0  0  0  0  0  # atno 10167 bound_to 10162
  156.9212  130.9941  151.3004 H   0  0  0  0  0  0  0  0  0  0  0  0  # atno 10718 bound_to 10713
  152.9836  135.6061  154.3323 H   0  0  0  0  0  0  0  0  0  0  0  0  # atno 10763 bound_to 10752
  154.3026  135.2772  155.2606 H   0  0  0  0  0  0  0  0  0  0  0  0  # atno 10764 bound_to 10752
  154.4851  135.5907  153.6474 H   0  0  0  0  0  0  0  0  0  0  0  0  # atno 10765 bound_to 10752
  140.1025  134.8974  157.1817 H   0  0  0  0  0  0  0  0  0  0  0  0  # atno 11005 bound_to 11000
  144.6726  140.1198  143.7450 LP  0  0  0  0  0  0  0  0  0  0  0  0  # atno 17320 bound_to 7965
  145.9169  139.2521  143.1404 LP  0  0  0  0  0  0  0  0  0  0  0  0  # atno 17321 bound_to 7965
  139.7622  144.7503  151.0348 LP  0  0  0  0  0  0  0  0  0  0  0  0  # atno 17342 bound_to 10162
  140.7804  143.4738  151.0109 LP  0  0  0  0  0  0  0  0  0  0  0  0  # atno 17343 bound_to 10162
  157.5907  130.8441  149.8654 LP  0  0  0  0  0  0  0  0  0  0  0  0  # atno 17370 bound_to 10713
  156.0490  130.3721  150.1247 LP  0  0  0  0  0  0  0  0  0  0  0  0  # atno 17371 bound_to 10713
  140.3201  134.2926  155.7248 LP  0  0  0  0  0  0  0  0  0  0  0  0  # atno 17394 bound_to 11000
  141.2109  133.7704  156.9898 LP  0  0  0  0  0  0  0  0  0  0  0  0  # atno 17395 bound_to 11000

$$$$
