AV-unprocessed.smi:951|AV-procd|sdf|4253|dock8
  -GOLD-   22720 2163D 1   1.00000     0.00000
 Structure written by MMmdl.
 52 54  0  0  0  0  0  0  0  0  2 V2000
  148.3077  137.6375  154.5562 O   0  0  0  0  0  0  0  0  0  0  0  0
  147.3441  138.3784  154.3553 C   0  0  0  0  0  0  0  0  0  0  0  0
  146.2188  137.9715  153.7490 N   0  0  0  0  0  0  0  0  0  0  0  0
  145.9699  136.6155  153.2758 C   0  0  0  0  0  0  0  0  0  0  0  0
  145.5836  136.5967  151.7874 C   0  0  0  0  0  0  0  0  0  0  0  0
  145.5571  135.1907  151.2212 C   0  0  0  0  0  0  0  0  0  0  0  0
  144.4033  134.6440  150.6185 C   0  0  0  0  0  0  0  0  0  0  0  0
  144.4466  133.3257  150.1184 C   0  0  0  0  0  0  0  0  0  0  0  0
  145.6402  132.5831  150.2320 C   0  0  0  0  0  0  0  0  0  0  0  0
  146.7619  133.1778  150.8454 C   0  0  0  0  0  0  0  0  0  0  0  0
  146.6810  134.4433  151.3119 N   0  3  0  0  0  0  0  0  0  0  0  0
  147.3921  139.8593  154.7802 C   0  0  2  0  0  0  0  0  0  0  0  0
  146.7894  140.7351  153.6704 C   0  0  0  0  0  0  0  0  0  0  0  0
  147.5087  142.0627  153.7961 C   0  0  0  0  0  0  0  0  0  0  0  0
  148.8871  141.7045  154.3479 C   0  0  0  0  0  0  0  0  0  0  0  0
  148.7469  140.4037  155.0104 N   0  0  0  0  0  0  0  0  0  0  0  0
  149.6992  139.8367  155.7968 C   0  0  0  0  0  0  0  0  0  0  0  0
  149.4793  138.8084  156.4375 O   0  0  0  0  0  0  0  0  0  0  0  0
  151.0948  140.5007  155.9070 C   0  0  0  0  0  0  0  0  0  0  0  0
  152.1128  139.6624  156.7226 C   0  0  0  0  0  0  0  0  0  0  0  0
  151.9315  139.7527  158.2517 C   0  0  0  0  0  0  0  0  0  0  0  0
  151.8689  141.2109  158.7294 C   0  0  0  0  0  0  0  0  0  0  0  0
  150.7780  141.9925  157.9836 C   0  0  0  0  0  0  0  0  0  0  0  0
  151.0061  141.9415  156.4624 C   0  0  0  0  0  0  0  0  0  0  0  0
  145.4786  138.6462  153.6194 H   0  0  0  0  0  0  0  0  0  0  0  0
  146.8494  135.9943  153.4542 H   0  0  0  0  0  0  0  0  0  0  0  0
  145.1636  136.1905  153.8742 H   0  0  0  0  0  0  0  0  0  0  0  0
  144.6038  137.0565  151.6504 H   0  0  0  0  0  0  0  0  0  0  0  0
  146.2867  137.1935  151.2046 H   0  0  0  0  0  0  0  0  0  0  0  0
  143.4955  135.2247  150.5411 H   0  0  0  0  0  0  0  0  0  0  0  0
  143.5742  132.8895  149.6541 H   0  0  0  0  0  0  0  0  0  0  0  0
  145.6943  131.5723  149.8550 H   0  0  0  0  0  0  0  0  0  0  0  0
  147.7136  132.6838  150.9761 H   0  0  0  0  0  0  0  0  0  0  0  0
  146.8262  139.9987  155.7033 H   0  0  0  0  0  0  0  0  0  0  0  0
  146.9951  140.3198  152.6818 H   0  0  0  0  0  0  0  0  0  0  0  0
  145.7080  140.8404  153.7630 H   0  0  0  0  0  0  0  0  0  0  0  0
  147.5575  142.6124  152.8558 H   0  0  0  0  0  0  0  0  0  0  0  0
  146.9819  142.6878  154.5185 H   0  0  0  0  0  0  0  0  0  0  0  0
  149.5964  141.6091  153.5246 H   0  0  0  0  0  0  0  0  0  0  0  0
  149.2484  142.4801  155.0245 H   0  0  0  0  0  0  0  0  0  0  0  0
  151.5228  140.5617  154.9080 H   0  0  0  0  0  0  0  0  0  0  0  0
  152.0758  138.6177  156.4106 H   0  0  0  0  0  0  0  0  0  0  0  0
  153.1182  140.0061  156.4754 H   0  0  0  0  0  0  0  0  0  0  0  0
  151.0287  139.2282  158.5625 H   0  0  0  0  0  0  0  0  0  0  0  0
  152.7564  139.2403  158.7476 H   0  0  0  0  0  0  0  0  0  0  0  0
  151.6820  141.2425  159.8031 H   0  0  0  0  0  0  0  0  0  0  0  0
  152.8355  141.6901  158.5692 H   0  0  0  0  0  0  0  0  0  0  0  0
  149.7967  141.5869  158.2317 H   0  0  0  0  0  0  0  0  0  0  0  0
  150.7730  143.0295  158.3201 H   0  0  0  0  0  0  0  0  0  0  0  0
  151.9316  142.4681  156.2263 H   0  0  0  0  0  0  0  0  0  0  0  0
  150.2140  142.4956  155.9574 H   0  0  0  0  0  0  0  0  0  0  0  0
  147.5048  134.8540  151.7525 H   0  0  0  0  0  0  0  0  0  0  0  0
  1  2  2  0  0  0  0
  2  3  1  0  0  0  0
  2 12  1  0  0  0  0
  3  4  1  0  0  0  0
  3 25  1  0  0  0  0
  4  5  1  0  0  0  0
  4 26  1  0  0  0  0
  4 27  1  0  0  0  0
  5  6  1  0  0  0  0
  5 28  1  0  0  0  0
  5 29  1  0  0  0  0
  6 11  1  0  0  0  0
  6  7  2  0  0  0  0
  7  8  1  0  0  0  0
  7 30  1  0  0  0  0
  8  9  2  0  0  0  0
  8 31  1  0  0  0  0
  9 10  1  0  0  0  0
  9 32  1  0  0  0  0
 10 11  2  0  0  0  0
 10 33  1  0  0  0  0
 11 52  1  0  0  0  0
 12 16  1  0  0  0  0
 12 13  1  0  0  0  0
 12 34  1  0  0  0  0
 13 14  1  0  0  0  0
 13 35  1  0  0  0  0
 13 36  1  0  0  0  0
 14 15  1  0  0  0  0
 14 37  1  0  0  0  0
 14 38  1  0  0  0  0
 15 16  1  0  0  0  0
 15 39  1  0  0  0  0
 15 40  1  0  0  0  0
 16 17  1  0  0  0  0
 17 18  2  0  0  0  0
 17 19  1  0  0  0  0
 19 24  1  0  0  0  0
 19 20  1  0  0  0  0
 19 41  1  0  0  0  0
 20 21  1  0  0  0  0
 20 42  1  0  0  0  0
 20 43  1  0  0  0  0
 21 22  1  0  0  0  0
 21 44  1  0  0  0  0
 21 45  1  0  0  0  0
 22 23  1  0  0  0  0
 22 46  1  0  0  0  0
 22 47  1  0  0  0  0
 23 24  1  0  0  0  0
 23 48  1  0  0  0  0
 23 49  1  0  0  0  0
 24 50  1  0  0  0  0
 24 51  1  0  0  0  0
M  CHG  1  11   1
M  END
> <s_m_source_file>
AV-unprocessed.smi

> <i_m_source_file_index>
951

> <i_lp_mmshare_version>
43012

> <i_f3d_flags>
0

> <s_epik_input>
bjFbY0hdW2NIXVtjSF1bY0hdYzFbQ0gyXVtDSDJdW05IXUMoPU8pW0NAQEhdMltDSDJdW0NIMl1bQ0gyXU4yQyg9TylbQ0hdM1tDSDJdW0NIMl1bQ0gyXVtDSDJdW0NIMl0z

> <s_epik_cmdline>
J2VwaWtfcHl0aG9uJywgJy1waCcsICc3LjAnLCAnLXRuJywgJzgnLCAnLW1hJywgJzIwMCcsICctbWV0YWxfYmluZGluZycsICctaW1hZScsICc8aW5maWxlLm1hZT4nLCAnLW9tYWUnLCAnPG91dGZpbGUubWFlPic=

> <r_epik_Ionization_Penalty>
1.85306

> <r_epik_Ionization_Penalty_Charging>
1.85306

> <r_epik_Ionization_Penalty_Neutral>
5.78903e-08

> <r_epik_State_Penalty>
1.97071

> <r_epik_Charging_Adjusted_Penalty>
3.82377

> <i_epik_Tot_Q>
1

> <i_epik_Tot_abs_Q>
1

> <r_epik_Metal_State_Penalty>
1.99634

> <b_epik_Metal_Only>
0

> <s_lp_Force_Field>
OPLS_2005

> <r_lp_Energy>
27.2114

> <b_lp_Chiralities_Consistent>
1

> <s_lp_Variant>
AV-unprocessed.smi:951-3

> <Gold.Version>
5.8.1

> <Gold.Id.Protein>
6NUR|6NUR_protein|mol2

> <Gold.PLP.Fitness>
44.5578

> <Gold.PLP.PLP>
-39.6941

> <Gold.PLP.part.hbond>
-1.0000

> <Gold.PLP.part.metal>
0.0000

> <Gold.PLP.part.buried>
-3.7696

> <Gold.PLP.part.nonpolar>
-35.0133

> <Gold.PLP.part.repulsive>
0.2291

> <Gold.PLP.ligand.clash>
0.0000

> <Gold.PLP.ligand.torsion>
0.6133

> <Gold.PLP.Chemscore.Hbond>
2.0000

> <Gold.PLP.Chemscore.CHOScore>
0.0000

> <Gold.PLP.Chemscore.Metal>
0.0000

> <Gold.Chemscore.Hbonds>
donor molecule, donor type, donor heavy atom, donor atom, acceptor molecule, acceptor atom, score
      L1  H    11    52       P1  7948  2.00

> <Gold.PLP.Chemscore.Internal.Correction>
0.0904

> <Gold.Rescore>
     Score         DG    S(hbond)    S(metal)    S(lipo)     H(rot)  DE(clash)    DE(int)     intcor
     11.81     -16.88       0.85        0.00     109.24       1.65       0.26       4.81       ----

> <Gold.Chemscore.Fitness>
11.8106

> <Gold.Chemscore.DG>
-16.8759

> <Gold.Chemscore.ZeroCoef>
-5.4800

> <Gold.Chemscore.Hbond>
0.8536

> <Gold.Chemscore.Metal>
0.0000

> <Gold.Chemscore.Lipo>
109.2392

> <Gold.Chemscore.Internal_Hbond>
0.0000

> <Gold.Chemscore.DEClash>
0.2563

> <Gold.Chemscore.DEInternal>
4.8090

> <Gold.Chemscore.Rot>
1.6548

> <Gold.Chemscore.Internal.Correction>
   9.000000E+99

> <Gold.Chemscore.Hbonds>
donor molecule, donor type, donor heavy atom, donor atom, acceptor molecule, acceptor atom, score
      L1  H    11    52       P1  7948  0.62

> <Gold.Chemscore.Hbond.Weighted>
-2.8511

> <Gold.Chemscore.Metal.Weighted>
-0.0000

> <Gold.Chemscore.Lipo.Weighted>
-12.7810

> <Gold.Chemscore.Internal_Hbond.Weighted>
0.0000

> <Gold.Chemscore.DEClash.Weighted>
0.2563

> <Gold.Chemscore.DEInternal.Weighted>
4.8090

> <Gold.Chemscore.Rot.Weighted>
4.2362

> <Gold.Chemscore.Internal.Correction.Weighted>
   9.000000E+99

> <Gold.Protein.RotatedTorsions>
[ 6907 6896 6895 6894 ] final  -96.06 input  -60.11 | X-H torsion
[ 7974 7965 7964 7962 ] final  -57.51 input  175.53 | X-H torsion
[ 8008 7997 7996 7995 ] final   84.76 input   59.86 | X-H torsion
[ 10167 10162 10161 10158 ] final -158.87 input  -65.29 | X-H torsion
[ 10718 10713 10712 10709 ] final  -56.77 input   66.30 | X-H torsion
[ 10763 10752 10751 10750 ] final -104.79 input  -60.55 | X-H torsion
[ 11005 11000 10999 10996 ] final   80.02 input  -57.11 | X-H torsion

> <Gold.Protein.ActiveResidues>
 VAL166  LYS551  ARG553  GLY616  TRP617  ASP618  TYR619  PRO620  LYS621  CYS622 
 ASP623  PHE694  ASN695  SER759  ASP760  ASP761  ALA762  ILE779  LEU786  VAL792 
 PHE793  MET794  SER795  GLU796  ALA797  LYS798  CYS799  TRP800  GLU811  SER814 

> <Gold.Protein.RotatedAtoms>
  150.6979  134.1561  159.4158 H   0  0  0  0  0  0  0  0  0  0  0  0  # atno 6907 bound_to 6896
  151.9543  135.0152  160.0553 H   0  0  0  0  0  0  0  0  0  0  0  0  # atno 6908 bound_to 6896
  152.1983  133.4788  159.5082 H   0  0  0  0  0  0  0  0  0  0  0  0  # atno 6909 bound_to 6896
  145.8502  140.8358  142.9990 H   0  0  0  0  0  0  0  0  0  0  0  0  # atno 7974 bound_to 7965
  155.9412  140.3408  155.6329 H   0  0  0  0  0  0  0  0  0  0  0  0  # atno 8008 bound_to 7997
  155.7037  140.0763  157.2418 H   0  0  0  0  0  0  0  0  0  0  0  0  # atno 8009 bound_to 7997
  154.4103  140.1635  156.2206 H   0  0  0  0  0  0  0  0  0  0  0  0  # atno 8010 bound_to 7997
  139.6659  143.9831  152.2254 H   0  0  0  0  0  0  0  0  0  0  0  0  # atno 10167 bound_to 10162
  156.1263  130.4162  150.0350 H   0  0  0  0  0  0  0  0  0  0  0  0  # atno 10718 bound_to 10713
  154.7902  135.4773  154.0036 H   0  0  0  0  0  0  0  0  0  0  0  0  # atno 10763 bound_to 10752
  153.1620  135.6810  153.8736 H   0  0  0  0  0  0  0  0  0  0  0  0  # atno 10764 bound_to 10752
  153.8346  135.3187  155.3399 H   0  0  0  0  0  0  0  0  0  0  0  0  # atno 10765 bound_to 10752
  139.9150  134.7888  156.1855 H   0  0  0  0  0  0  0  0  0  0  0  0  # atno 11005 bound_to 11000
  144.6729  140.0941  143.7464 LP  0  0  0  0  0  0  0  0  0  0  0  0  # atno 17320 bound_to 7965
  145.9366  139.2641  143.1293 LP  0  0  0  0  0  0  0  0  0  0  0  0  # atno 17321 bound_to 7965
  139.9582  144.6575  150.8105 LP  0  0  0  0  0  0  0  0  0  0  0  0  # atno 17342 bound_to 10162
  140.7599  143.3139  151.2780 LP  0  0  0  0  0  0  0  0  0  0  0  0  # atno 17343 bound_to 10162
  156.8274  130.9380  151.3638 LP  0  0  0  0  0  0  0  0  0  0  0  0  # atno 17370 bound_to 10713
  157.6444  130.8832  149.9510 LP  0  0  0  0  0  0  0  0  0  0  0  0  # atno 17371 bound_to 10713
  141.0616  133.6839  156.1963 LP  0  0  0  0  0  0  0  0  0  0  0  0  # atno 17394 bound_to 11000
  140.6652  134.4926  157.5585 LP  0  0  0  0  0  0  0  0  0  0  0  0  # atno 17395 bound_to 11000

$$$$
