AV-unprocessed.smi:2170|AV-procd|sdf|8825|dock5
  -GOLD-   2272012 23D 1   1.00000     0.00000
 Structure written by MMmdl.
 45 46  0  0  0  0  0  0  0  0  2 V2000
  153.9082  134.7288  164.8365 C   0  0  0  0  0  0  0  0  0  0  0  0
  154.0277  134.2516  163.3781 C   0  0  0  0  0  0  0  0  0  0  0  0
  154.3364  132.7454  163.2991 C   0  0  0  0  0  0  0  0  0  0  0  0
  155.0092  135.0679  162.6206 N   0  0  0  0  0  0  0  0  0  0  0  0
  156.0399  135.7507  163.4286 C   0  0  0  0  0  0  0  0  0  0  0  0
  154.4503  135.8860  161.1863 S   0  0  0  0  0  0  0  0  0  0  0  0
  155.6475  136.2623  160.4162 O   0  0  0  0  0  0  0  0  0  0  0  0
  153.4855  134.9726  160.5521 O   0  0  0  0  0  0  0  0  0  0  0  0
  153.7612  137.1541  161.9252 N   0  5  0  0  0  0  0  0  0  0  0  0
  154.5891  138.2885  162.2901 C   0  0  0  0  0  0  0  0  0  0  0  0
  154.0345  139.5920  161.7336 C   0  0  0  0  0  0  0  0  0  0  0  0
  154.2998  140.8257  162.3666 C   0  0  0  0  0  0  0  0  0  0  0  0
  153.7637  142.0065  161.8162 C   0  0  0  0  0  0  0  0  0  0  0  0
  152.9759  141.9276  160.6435 C   0  0  0  0  0  0  0  0  0  0  0  0
  152.4347  143.1002  160.0723 N   0  0  0  0  0  0  0  0  0  0  0  0
  152.9299  143.5139  158.7604 C   0  0  0  0  0  0  0  0  0  0  0  0
  152.0429  144.6282  158.1803 C   0  0  0  0  0  0  0  0  0  0  0  0
  151.9687  145.7095  159.1033 O   0  0  0  0  0  0  0  0  0  0  0  0
  151.3827  145.3118  160.3383 C   0  0  0  0  0  0  0  0  0  0  0  0
  152.2400  144.2160  160.9949 C   0  0  0  0  0  0  0  0  0  0  0  0
  152.7151  140.7403  160.0429 N   0  0  0  0  0  0  0  0  0  0  0  0
  153.2328  139.6098  160.5707 C   0  0  0  0  0  0  0  0  0  0  0  0
  153.1327  134.1716  165.3624 H   0  0  0  0  0  0  0  0  0  0  0  0
  153.6406  135.7841  164.8904 H   0  0  0  0  0  0  0  0  0  0  0  0
  154.8388  134.5914  165.3872 H   0  0  0  0  0  0  0  0  0  0  0  0
  153.0549  134.3835  162.9052 H   0  0  0  0  0  0  0  0  0  0  0  0
  153.5093  132.1632  163.7059 H   0  0  0  0  0  0  0  0  0  0  0  0
  155.2262  132.4775  163.8692 H   0  0  0  0  0  0  0  0  0  0  0  0
  154.4834  132.4263  162.2667 H   0  0  0  0  0  0  0  0  0  0  0  0
  155.5817  136.4609  164.1159 H   0  0  0  0  0  0  0  0  0  0  0  0
  156.7305  136.3058  162.7949 H   0  0  0  0  0  0  0  0  0  0  0  0
  156.6356  135.0375  163.9960 H   0  0  0  0  0  0  0  0  0  0  0  0
  154.6825  138.3869  163.3722 H   0  0  0  0  0  0  0  0  0  0  0  0
  155.6084  138.1778  161.9185 H   0  0  0  0  0  0  0  0  0  0  0  0
  154.9027  140.8846  163.2625 H   0  0  0  0  0  0  0  0  0  0  0  0
  153.9528  142.9501  162.3052 H   0  0  0  0  0  0  0  0  0  0  0  0
  153.9575  143.8676  158.8565 H   0  0  0  0  0  0  0  0  0  0  0  0
  152.9385  142.6655  158.0750 H   0  0  0  0  0  0  0  0  0  0  0  0
  152.4615  144.9905  157.2411 H   0  0  0  0  0  0  0  0  0  0  0  0
  151.0418  144.2540  157.9594 H   0  0  0  0  0  0  0  0  0  0  0  0
  151.3172  146.1793  160.9952 H   0  0  0  0  0  0  0  0  0  0  0  0
  150.3630  144.9601  160.1729 H   0  0  0  0  0  0  0  0  0  0  0  0
  151.7590  143.8978  161.9187 H   0  0  0  0  0  0  0  0  0  0  0  0
  153.2155  144.6200  161.2683 H   0  0  0  0  0  0  0  0  0  0  0  0
  152.9884  138.7018  160.0364 H   0  0  0  0  0  0  0  0  0  0  0  0
  1  2  1  0  0  0  0
  1 23  1  0  0  0  0
  1 24  1  0  0  0  0
  1 25  1  0  0  0  0
  2  3  1  0  0  0  0
  2  4  1  0  0  0  0
  2 26  1  0  0  0  0
  3 27  1  0  0  0  0
  3 28  1  0  0  0  0
  3 29  1  0  0  0  0
  4  5  1  0  0  0  0
  4  6  1  0  0  0  0
  5 30  1  0  0  0  0
  5 31  1  0  0  0  0
  5 32  1  0  0  0  0
  6  7  2  0  0  0  0
  6  8  2  0  0  0  0
  6  9  1  0  0  0  0
  9 10  1  0  0  0  0
 10 11  1  0  0  0  0
 10 33  1  0  0  0  0
 10 34  1  0  0  0  0
 11 22  1  0  0  0  0
 11 12  2  0  0  0  0
 12 13  1  0  0  0  0
 12 35  1  0  0  0  0
 13 14  2  0  0  0  0
 13 36  1  0  0  0  0
 14 15  1  0  0  0  0
 14 21  1  0  0  0  0
 15 20  1  0  0  0  0
 15 16  1  0  0  0  0
 16 17  1  0  0  0  0
 16 37  1  0  0  0  0
 16 38  1  0  0  0  0
 17 18  1  0  0  0  0
 17 39  1  0  0  0  0
 17 40  1  0  0  0  0
 18 19  1  0  0  0  0
 19 20  1  0  0  0  0
 19 41  1  0  0  0  0
 19 42  1  0  0  0  0
 20 43  1  0  0  0  0
 20 44  1  0  0  0  0
 21 22  2  0  0  0  0
 22 45  1  0  0  0  0
M  CHG  1   9  -1
M  END
> <s_m_source_file>
AV-unprocessed.smi

> <i_m_source_file_index>
2170

> <i_lp_mmshare_version>
43012

> <i_f3d_flags>
0

> <s_epik_input>
W0NIM11bQ0hdKFtDSDNdKU4oW0NIM10pUyg9TykoPU8pW05IXVtDSDJdYzFbY0hdW2NIXWMobltjSF0xKU4yW0NIMl1bQ0gyXU9bQ0gyXVtDSDJdMg==

> <s_epik_cmdline>
J2VwaWtfcHl0aG9uJywgJy1waCcsICc3LjAnLCAnLXRuJywgJzgnLCAnLW1hJywgJzIwMCcsICctbWV0YWxfYmluZGluZycsICctaW1hZScsICc8aW5maWxlLm1hZT4nLCAnLW9tYWUnLCAnPG91dGZpbGUubWFlPic=

> <r_lp_tautomer_probability>
1

> <r_epik_Ionization_Penalty>
3.3971

> <r_epik_Ionization_Penalty_Charging>
3.31706

> <r_epik_Ionization_Penalty_Neutral>
0.0800436

> <r_epik_State_Penalty>
3.32044

> <r_epik_Charging_Adjusted_Penalty>
6.63751

> <i_epik_Tot_Q>
-1

> <i_epik_Tot_abs_Q>
1

> <r_epik_Metal_State_Penalty>
0.488406

> <b_epik_Metal_Only>
1

> <s_lp_Force_Field>
OPLS_2005

> <r_lp_Energy>
16.8192

> <b_lp_Chiralities_Consistent>
1

> <s_lp_Variant>
AV-unprocessed.smi:2170-2

> <Gold.Version>
5.8.1

> <Gold.Id.Protein>
6NUR|6NUR_protein|mol2

> <Gold.PLP.Fitness>
43.6854

> <Gold.PLP.PLP>
-41.9295

> <Gold.PLP.part.hbond>
-2.0000

> <Gold.PLP.part.metal>
0.0000

> <Gold.PLP.part.buried>
-5.9121

> <Gold.PLP.part.nonpolar>
-35.0583

> <Gold.PLP.part.repulsive>
0.1182

> <Gold.PLP.ligand.clash>
0.0000

> <Gold.PLP.ligand.torsion>
2.6462

> <Gold.PLP.Chemscore.Hbond>
1.0000

> <Gold.PLP.Chemscore.CHOScore>
0.0000

> <Gold.PLP.Chemscore.Metal>
0.0000

> <Gold.Chemscore.Hbonds>
donor molecule, donor type, donor heavy atom, donor atom, acceptor molecule, acceptor atom, score
      P1  H  6896  6909       L1     8  0.23

> <Gold.PLP.Chemscore.Internal.Correction>
4.0484

> <Gold.Rescore>
     Score         DG    S(hbond)    S(metal)    S(lipo)     H(rot)  DE(clash)    DE(int)     intcor
     14.43     -17.11       1.00        0.00     104.57       1.54       0.07       2.61       ----

> <Gold.Chemscore.Fitness>
14.4300

> <Gold.Chemscore.DG>
-17.1061

> <Gold.Chemscore.ZeroCoef>
-5.4800

> <Gold.Chemscore.Hbond>
0.9993

> <Gold.Chemscore.Metal>
0.0000

> <Gold.Chemscore.Lipo>
104.5699

> <Gold.Chemscore.Internal_Hbond>
0.0000

> <Gold.Chemscore.DEClash>
0.0671

> <Gold.Chemscore.DEInternal>
2.6090

> <Gold.Chemscore.Rot>
1.5415

> <Gold.Chemscore.Internal.Correction>
   9.000000E+99

> <Gold.Chemscore.Hbonds>
donor molecule, donor type, donor heavy atom, donor atom, acceptor molecule, acceptor atom, score
      P1  H  6896  6909       L1     8  0.22

> <Gold.Chemscore.Hbond.Weighted>
-3.3377

> <Gold.Chemscore.Metal.Weighted>
-0.0000

> <Gold.Chemscore.Lipo.Weighted>
-12.2347

> <Gold.Chemscore.Internal_Hbond.Weighted>
0.0000

> <Gold.Chemscore.DEClash.Weighted>
0.0671

> <Gold.Chemscore.DEInternal.Weighted>
2.6090

> <Gold.Chemscore.Rot.Weighted>
3.9462

> <Gold.Chemscore.Internal.Correction.Weighted>
   9.000000E+99

> <Gold.Protein.RotatedTorsions>
[ 6907 6896 6895 6894 ] final  171.79 input  -60.11 | X-H torsion
[ 7974 7965 7964 7962 ] final  132.84 input  175.53 | X-H torsion
[ 8008 7997 7996 7995 ] final  -41.84 input   59.86 | X-H torsion
[ 10167 10162 10161 10158 ] final   65.31 input  -65.29 | X-H torsion
[ 10718 10713 10712 10709 ] final  -97.70 input   66.30 | X-H torsion
[ 10763 10752 10751 10750 ] final   40.34 input  -60.55 | X-H torsion
[ 11005 11000 10999 10996 ] final -155.96 input  -57.11 | X-H torsion

> <Gold.Protein.ActiveResidues>
 VAL166  LYS551  ARG553  GLY616  TRP617  ASP618  TYR619  PRO620  LYS621  CYS622 
 ASP623  PHE694  ASN695  SER759  ASP760  ASP761  ALA762  ILE779  LEU786  VAL792 
 PHE793  MET794  SER795  GLU796  ALA797  LYS798  CYS799  TRP800  GLU811  SER814 

> <Gold.Protein.RotatedAtoms>
  151.7946  133.3363  159.3508 H   0  0  0  0  0  0  0  0  0  0  0  0  # atno 6907 bound_to 6896
  150.7380  134.5811  159.5948 H   0  0  0  0  0  0  0  0  0  0  0  0  # atno 6908 bound_to 6896
  152.3186  134.7410  160.0370 H   0  0  0  0  0  0  0  0  0  0  0  0  # atno 6909 bound_to 6896
  144.9927  139.4390  143.5331 H   0  0  0  0  0  0  0  0  0  0  0  0  # atno 7974 bound_to 7965
  154.4002  140.1489  156.3257 H   0  0  0  0  0  0  0  0  0  0  0  0  # atno 8008 bound_to 7997
  155.8489  140.3458  155.5659 H   0  0  0  0  0  0  0  0  0  0  0  0  # atno 8009 bound_to 7997
  155.8006  140.0869  157.1949 H   0  0  0  0  0  0  0  0  0  0  0  0  # atno 8010 bound_to 7997
  140.1127  144.4803  150.6968 H   0  0  0  0  0  0  0  0  0  0  0  0  # atno 10167 bound_to 10162
  156.0089  130.5205  150.6413 H   0  0  0  0  0  0  0  0  0  0  0  0  # atno 10718 bound_to 10713
  152.9939  135.6194  154.2611 H   0  0  0  0  0  0  0  0  0  0  0  0  # atno 10763 bound_to 10752
  154.2347  135.2791  155.2878 H   0  0  0  0  0  0  0  0  0  0  0  0  # atno 10764 bound_to 10752
  154.5420  135.5758  153.6905 H   0  0  0  0  0  0  0  0  0  0  0  0  # atno 10765 bound_to 10752
  140.6807  134.4147  157.5226 H   0  0  0  0  0  0  0  0  0  0  0  0  # atno 11005 bound_to 11000
  146.3435  139.9268  142.8759 LP  0  0  0  0  0  0  0  0  0  0  0  0  # atno 17320 bound_to 7965
  145.2263  140.9955  143.4016 LP  0  0  0  0  0  0  0  0  0  0  0  0  # atno 17321 bound_to 7965
  140.6916  143.2379  151.5114 LP  0  0  0  0  0  0  0  0  0  0  0  0  # atno 17342 bound_to 10162
  139.5610  144.2155  152.1692 LP  0  0  0  0  0  0  0  0  0  0  0  0  # atno 17343 bound_to 10162
  157.4192  131.0834  151.1147 LP  0  0  0  0  0  0  0  0  0  0  0  0  # atno 17370 bound_to 10713
  157.1754  130.6286  149.5654 LP  0  0  0  0  0  0  0  0  0  0  0  0  # atno 17371 bound_to 10713
  139.8952  134.8687  156.2140 LP  0  0  0  0  0  0  0  0  0  0  0  0  # atno 17394 bound_to 11000
  141.0319  133.6984  156.1445 LP  0  0  0  0  0  0  0  0  0  0  0  0  # atno 17395 bound_to 11000

$$$$
