AV-unprocessed.smi:1854|AV-procd|sdf|7530|dock4
  -GOLD-   22720 9243D 1   1.00000     0.00000
 Structure written by MMmdl.
 40 42  0  0  0  0  0  0  0  0  2 V2000
  150.4062  135.2901  156.2067 O   0  0  0  0  0  0  0  0  0  0  0  0
  150.6269  135.2079  154.9997 C   0  0  0  0  0  0  0  0  0  0  0  0
  151.0869  136.2168  154.2458 N   0  0  0  0  0  0  0  0  0  0  0  0
  151.4445  137.5399  154.7492 C   0  0  0  0  0  0  0  0  0  0  0  0
  150.3888  138.5864  154.5478 C   0  0  0  0  0  0  0  0  0  0  0  0
  149.2612  138.4828  153.7850 N   0  3  0  0  0  0  0  0  0  0  0  0
  148.5328  139.6711  153.8484 C   0  0  0  0  0  0  0  0  0  0  0  0
  147.3335  140.0399  153.2467 C   0  0  0  0  0  0  0  0  0  0  0  0
  146.8632  141.3416  153.5189 C   0  0  0  0  0  0  0  0  0  0  0  0
  147.5778  142.2197  154.3599 C   0  0  0  0  0  0  0  0  0  0  0  0
  148.7914  141.8333  154.9661 C   0  0  0  0  0  0  0  0  0  0  0  0
  149.2478  140.5444  154.6922 C   0  0  0  0  0  0  0  0  0  0  0  0
  150.3788  139.8315  155.1042 N   0  0  0  0  0  0  0  0  0  0  0  0
  151.3378  140.4725  156.0126 C   0  0  0  0  0  0  0  0  0  0  0  0
  151.1334  140.0312  157.4666 C   0  0  0  0  0  0  0  0  0  0  0  0
  152.1823  140.5804  158.2499 O   0  0  0  0  0  0  0  0  0  0  0  0
  152.0855  141.8979  158.6465 C   0  0  0  0  0  0  0  0  0  0  0  0
  151.3820  142.8926  157.9198 C   0  0  0  0  0  0  0  0  0  0  0  0
  151.3284  144.2186  158.3912 C   0  0  0  0  0  0  0  0  0  0  0  0
  151.9748  144.5689  159.5902 C   0  0  0  0  0  0  0  0  0  0  0  0
  152.6753  143.5905  160.3188 C   0  0  0  0  0  0  0  0  0  0  0  0
  152.7298  142.2632  159.8500 C   0  0  0  0  0  0  0  0  0  0  0  0
  153.5961  141.0815  160.7649 Cl  0  0  0  0  0  0  0  0  0  0  0  0
  150.4713  134.3021  154.3936 H   0  0  0  0  0  0  0  0  0  0  0  0
  151.2315  136.0473  153.2608 H   0  0  0  0  0  0  0  0  0  0  0  0
  151.6940  137.4855  155.8102 H   0  0  0  0  0  0  0  0  0  0  0  0
  152.3516  137.8584  154.2349 H   0  0  0  0  0  0  0  0  0  0  0  0
  146.7852  139.3690  152.6018 H   0  0  0  0  0  0  0  0  0  0  0  0
  145.9365  141.6735  153.0733 H   0  0  0  0  0  0  0  0  0  0  0  0
  147.1876  143.2102  154.5442 H   0  0  0  0  0  0  0  0  0  0  0  0
  149.3322  142.5130  155.6079 H   0  0  0  0  0  0  0  0  0  0  0  0
  152.3498  140.2512  155.6718 H   0  0  0  0  0  0  0  0  0  0  0  0
  151.2113  141.5520  155.9259 H   0  0  0  0  0  0  0  0  0  0  0  0
  150.1665  140.3860  157.8270 H   0  0  0  0  0  0  0  0  0  0  0  0
  151.1449  138.9420  157.5307 H   0  0  0  0  0  0  0  0  0  0  0  0
  150.8736  142.6648  156.9956 H   0  0  0  0  0  0  0  0  0  0  0  0
  150.7901  144.9686  157.8304 H   0  0  0  0  0  0  0  0  0  0  0  0
  151.9338  145.5863  159.9504 H   0  0  0  0  0  0  0  0  0  0  0  0
  153.1719  143.8591  161.2395 H   0  0  0  0  0  0  0  0  0  0  0  0
  149.0103  137.6528  153.2633 H   0  0  0  0  0  0  0  0  0  0  0  0
  1  2  2  0  0  0  0
  2  3  1  0  0  0  0
  2 24  1  0  0  0  0
  3  4  1  0  0  0  0
  3 25  1  0  0  0  0
  4  5  1  0  0  0  0
  4 26  1  0  0  0  0
  4 27  1  0  0  0  0
  5 13  1  0  0  0  0
  5  6  2  0  0  0  0
  6  7  1  0  0  0  0
  6 40  1  0  0  0  0
  7 12  2  0  0  0  0
  7  8  1  0  0  0  0
  8  9  2  0  0  0  0
  8 28  1  0  0  0  0
  9 10  1  0  0  0  0
  9 29  1  0  0  0  0
 10 11  2  0  0  0  0
 10 30  1  0  0  0  0
 11 12  1  0  0  0  0
 11 31  1  0  0  0  0
 12 13  1  0  0  0  0
 13 14  1  0  0  0  0
 14 15  1  0  0  0  0
 14 32  1  0  0  0  0
 14 33  1  0  0  0  0
 15 16  1  0  0  0  0
 15 34  1  0  0  0  0
 15 35  1  0  0  0  0
 16 17  1  0  0  0  0
 17 22  1  0  0  0  0
 17 18  2  0  0  0  0
 18 19  1  0  0  0  0
 18 36  1  0  0  0  0
 19 20  2  0  0  0  0
 19 37  1  0  0  0  0
 20 21  1  0  0  0  0
 20 38  1  0  0  0  0
 21 22  2  0  0  0  0
 21 39  1  0  0  0  0
 22 23  1  0  0  0  0
M  CHG  1   6   1
M  END
> <s_m_source_file>
AV-unprocessed.smi

> <i_m_source_file_index>
1854

> <i_lp_mmshare_version>
43012

> <i_f3d_flags>
0

> <s_epik_input>
Tz1bQ0hdW05IXVtDSDJdYyhuMSluKGMoYzEyKVtjSF1bY0hdW2NIXVtjSF0yKVtDSDJdW0NIMl1PYzNbY0hdW2NIXVtjSF1bY0hdYzNDbA==

> <s_epik_cmdline>
J2VwaWtfcHl0aG9uJywgJy1waCcsICc3LjAnLCAnLXRuJywgJzgnLCAnLW1hJywgJzIwMCcsICctbWV0YWxfYmluZGluZycsICctaW1hZScsICc8aW5maWxlLm1hZT4nLCAnLW9tYWUnLCAnPG91dGZpbGUubWFlPic=

> <r_lp_tautomer_probability>
1

> <r_epik_Ionization_Penalty>
1.43948

> <r_epik_Ionization_Penalty_Charging>
1.43948

> <r_epik_Ionization_Penalty_Neutral>
7.38905e-08

> <r_epik_State_Penalty>
1.52475

> <r_epik_Charging_Adjusted_Penalty>
2.96423

> <i_epik_Tot_Q>
1

> <i_epik_Tot_abs_Q>
1

> <r_epik_Metal_State_Penalty>
1.5754

> <b_epik_Metal_Only>
0

> <s_lp_Force_Field>
OPLS_2005

> <r_lp_Energy>
16.1695

> <b_lp_Chiralities_Consistent>
1

> <s_lp_Variant>
AV-unprocessed.smi:1854-2

> <Gold.Version>
5.8.1

> <Gold.Id.Protein>
6NUR|6NUR_protein|mol2

> <Gold.PLP.Fitness>
61.4752

> <Gold.PLP.PLP>
-54.4929

> <Gold.PLP.part.hbond>
-3.6595

> <Gold.PLP.part.metal>
0.0000

> <Gold.PLP.part.buried>
0.0394

> <Gold.PLP.part.nonpolar>
-51.4215

> <Gold.PLP.part.repulsive>
0.4322

> <Gold.PLP.ligand.clash>
0.0000

> <Gold.PLP.ligand.torsion>
1.0203

> <Gold.PLP.Chemscore.Hbond>
3.0000

> <Gold.PLP.Chemscore.CHOScore>
0.0000

> <Gold.PLP.Chemscore.Metal>
0.0000

> <Gold.Chemscore.Hbonds>
donor molecule, donor type, donor heavy atom, donor atom, acceptor molecule, acceptor atom, score
      L1  H     3    25       P1  7949  1.00
      L1  H     6    40       P1  7948  2.00

> <Gold.PLP.Chemscore.Internal.Correction>
0.0230

> <Gold.Rescore>
     Score         DG    S(hbond)    S(metal)    S(lipo)     H(rot)  DE(clash)    DE(int)     intcor
     19.16     -21.61       2.06        0.00     133.46       2.49       1.82       0.63       ----

> <Gold.Chemscore.Fitness>
19.1561

> <Gold.Chemscore.DG>
-21.6057

> <Gold.Chemscore.ZeroCoef>
-5.4800

> <Gold.Chemscore.Hbond>
2.0580

> <Gold.Chemscore.Metal>
0.0000

> <Gold.Chemscore.Lipo>
133.4599

> <Gold.Chemscore.Internal_Hbond>
0.0000

> <Gold.Chemscore.DEClash>
1.8235

> <Gold.Chemscore.DEInternal>
0.6261

> <Gold.Chemscore.Rot>
2.4854

> <Gold.Chemscore.Internal.Correction>
   9.000000E+99

> <Gold.Chemscore.Hbonds>
donor molecule, donor type, donor heavy atom, donor atom, acceptor molecule, acceptor atom, score
      L1  H     3    25       P1  7949  0.50
      L1  H     6    40       P1  7948  0.98

> <Gold.Chemscore.Hbond.Weighted>
-6.8736

> <Gold.Chemscore.Metal.Weighted>
-0.0000

> <Gold.Chemscore.Lipo.Weighted>
-15.6148

> <Gold.Chemscore.Internal_Hbond.Weighted>
0.0000

> <Gold.Chemscore.DEClash.Weighted>
1.8235

> <Gold.Chemscore.DEInternal.Weighted>
0.6261

> <Gold.Chemscore.Rot.Weighted>
6.3627

> <Gold.Chemscore.Internal.Correction.Weighted>
   9.000000E+99

> <Gold.Protein.RotatedTorsions>
[ 6907 6896 6895 6894 ] final   13.47 input  -60.11 | X-H torsion
[ 7974 7965 7964 7962 ] final  -68.13 input  175.53 | X-H torsion
[ 8008 7997 7996 7995 ] final  -74.36 input   59.86 | X-H torsion
[ 10167 10162 10161 10158 ] final  -57.36 input  -65.29 | X-H torsion
[ 10718 10713 10712 10709 ] final  -88.13 input   66.30 | X-H torsion
[ 10763 10752 10751 10750 ] final -142.96 input  -60.55 | X-H torsion
[ 11005 11000 10999 10996 ] final   31.77 input  -57.11 | X-H torsion

> <Gold.Protein.ActiveResidues>
 VAL166  LYS551  ARG553  GLY616  TRP617  ASP618  TYR619  PRO620  LYS621  CYS622 
 ASP623  PHE694  ASN695  SER759  ASP760  ASP761  ALA762  ILE779  LEU786  VAL792 
 PHE793  MET794  SER795  GLU796  ALA797  LYS798  CYS799  TRP800  GLU811  SER814 

> <Gold.Protein.RotatedAtoms>
  151.7869  135.0746  160.0381 H   0  0  0  0  0  0  0  0  0  0  0  0  # atno 6907 bound_to 6896
  152.3184  133.5823  159.5736 H   0  0  0  0  0  0  0  0  0  0  0  0  # atno 6908 bound_to 6896
  150.7356  133.9964  159.3666 H   0  0  0  0  0  0  0  0  0  0  0  0  # atno 6909 bound_to 6896
  145.7204  140.9041  143.0633 H   0  0  0  0  0  0  0  0  0  0  0  0  # atno 7974 bound_to 7965
  154.5324  140.0763  156.8368 H   0  0  0  0  0  0  0  0  0  0  0  0  # atno 8008 bound_to 7997
  155.3348  140.3404  155.4221 H   0  0  0  0  0  0  0  0  0  0  0  0  # atno 8009 bound_to 7997
  156.1794  140.1647  156.8289 H   0  0  0  0  0  0  0  0  0  0  0  0  # atno 8010 bound_to 7997
  140.6263  143.2439  151.5355 H   0  0  0  0  0  0  0  0  0  0  0  0  # atno 10167 bound_to 10162
  155.9984  130.4825  150.4973 H   0  0  0  0  0  0  0  0  0  0  0  0  # atno 10718 bound_to 10713
  154.8489  135.3481  154.6111 H   0  0  0  0  0  0  0  0  0  0  0  0  # atno 10763 bound_to 10752
  153.6719  135.6984  153.5149 H   0  0  0  0  0  0  0  0  0  0  0  0  # atno 10764 bound_to 10752
  153.2736  135.4285  155.0968 H   0  0  0  0  0  0  0  0  0  0  0  0  # atno 10765 bound_to 10752
  140.2805  134.2979  155.7802 H   0  0  0  0  0  0  0  0  0  0  0  0  # atno 11005 bound_to 11000
  144.6918  139.9195  143.7467 LP  0  0  0  0  0  0  0  0  0  0  0  0  # atno 17320 bound_to 7965
  146.0630  139.3623  143.0569 LP  0  0  0  0  0  0  0  0  0  0  0  0  # atno 17321 bound_to 7965
  139.5483  144.2463  152.1483 LP  0  0  0  0  0  0  0  0  0  0  0  0  # atno 17342 bound_to 10162
  140.1695  144.4949  150.6587 LP  0  0  0  0  0  0  0  0  0  0  0  0  # atno 17343 bound_to 10162
  157.2961  131.0636  151.2100 LP  0  0  0  0  0  0  0  0  0  0  0  0  # atno 17370 bound_to 10713
  157.3096  130.6883  149.6208 LP  0  0  0  0  0  0  0  0  0  0  0  0  # atno 17371 bound_to 10713
  141.2163  133.7522  156.9472 LP  0  0  0  0  0  0  0  0  0  0  0  0  # atno 17394 bound_to 11000
  140.1288  134.9369  157.2308 LP  0  0  0  0  0  0  0  0  0  0  0  0  # atno 17395 bound_to 11000

$$$$
