AV-unprocessed.smi:2702|AV-procd|sdf|10433|dock3
  -GOLD-   2272014473D 1   1.00000     0.00000
 Structure written by MMmdl.
 47 48  0  0  0  0  0  0  0  0  1 V2000
  146.9994  129.6017  152.6673 C   0  0  0  0  0  0  0  0  0  0  0  0
  147.4427  130.6387  153.5243 O   0  0  0  0  0  0  0  0  0  0  0  0
  148.8552  130.7598  153.5458 C   0  0  0  0  0  0  0  0  0  0  0  0
  149.2716  131.9878  154.3303 C   0  0  0  0  0  0  0  0  0  0  0  0
  149.9857  131.9004  155.4768 C   0  0  0  0  0  0  0  0  0  0  0  0
  150.3712  133.1063  156.2095 C   0  0  0  0  0  0  0  0  0  0  0  0
  151.0200  133.0682  157.2556 O   0  0  0  0  0  0  0  0  0  0  0  0
  149.9551  134.2792  155.6462 N   0  0  0  0  0  0  0  0  0  0  0  0
  150.2634  135.5777  156.2723 C   0  0  0  0  0  0  0  0  0  0  0  0
  150.5107  136.6901  155.2441 C   0  0  0  0  0  0  0  0  0  0  0  0
  151.4254  136.5917  154.4254 O   0  0  0  0  0  0  0  0  0  0  0  0
  149.6750  137.7384  155.2999 N   0  0  0  0  0  0  0  0  0  0  0  0
  149.7279  138.9342  154.4559 C   0  0  1  0  0  0  0  0  0  0  0  0
  148.3031  139.3397  154.0358 C   0  0  0  0  0  0  0  0  0  0  0  0
  147.4895  139.8844  155.2188 C   0  0  0  0  0  0  0  0  0  0  0  0
  148.2194  141.0514  155.8969 C   0  0  0  0  0  0  0  0  0  0  0  0
  149.6402  140.6620  156.3548 C   0  0  2  0  0  0  0  0  0  0  0  0
  150.3125  141.8639  157.0417 C   0  0  0  0  0  0  0  0  0  0  0  0
  150.4664  140.1040  155.1619 C   0  0  1  0  0  0  0  0  0  0  0  0
  151.9063  139.7145  155.5548 C   0  0  0  0  0  0  0  0  0  0  0  0
  149.2235  134.3139  154.4424 C   0  0  0  0  0  0  0  0  0  0  0  0
  148.8946  133.2311  153.8125 N   0  0  0  0  0  0  0  0  0  0  0  0
  145.9107  129.5524  152.6850 H   0  0  0  0  0  0  0  0  0  0  0  0
  147.3859  128.6332  152.9874 H   0  0  0  0  0  0  0  0  0  0  0  0
  147.3111  129.7807  151.6373 H   0  0  0  0  0  0  0  0  0  0  0  0
  149.3006  129.8658  153.9858 H   0  0  0  0  0  0  0  0  0  0  0  0
  149.2408  130.8467  152.5288 H   0  0  0  0  0  0  0  0  0  0  0  0
  150.2738  130.9339  155.8644 H   0  0  0  0  0  0  0  0  0  0  0  0
  149.4642  135.9050  156.9395 H   0  0  0  0  0  0  0  0  0  0  0  0
  151.1399  135.4719  156.9146 H   0  0  0  0  0  0  0  0  0  0  0  0
  148.9531  137.7218  156.0057 H   0  0  0  0  0  0  0  0  0  0  0  0
  150.2707  138.6988  153.5389 H   0  0  0  0  0  0  0  0  0  0  0  0
  148.3627  140.1060  153.2617 H   0  0  0  0  0  0  0  0  0  0  0  0
  147.7860  138.4923  153.5838 H   0  0  0  0  0  0  0  0  0  0  0  0
  146.5085  140.2116  154.8733 H   0  0  0  0  0  0  0  0  0  0  0  0
  147.3099  139.0913  155.9454 H   0  0  0  0  0  0  0  0  0  0  0  0
  148.2746  141.8930  155.2047 H   0  0  0  0  0  0  0  0  0  0  0  0
  147.6332  141.3952  156.7499 H   0  0  0  0  0  0  0  0  0  0  0  0
  149.5445  139.8746  157.1038 H   0  0  0  0  0  0  0  0  0  0  0  0
  150.5096  142.6680  156.3321 H   0  0  0  0  0  0  0  0  0  0  0  0
  151.2579  141.5864  157.5073 H   0  0  0  0  0  0  0  0  0  0  0  0
  149.6785  142.2674  157.8316 H   0  0  0  0  0  0  0  0  0  0  0  0
  150.5534  140.9054  154.4265 H   0  0  0  0  0  0  0  0  0  0  0  0
  151.9210  139.0186  156.3939 H   0  0  0  0  0  0  0  0  0  0  0  0
  152.4956  140.5863  155.8371 H   0  0  0  0  0  0  0  0  0  0  0  0
  152.4244  139.2398  154.7211 H   0  0  0  0  0  0  0  0  0  0  0  0
  148.9607  135.3093  154.0807 H   0  0  0  0  0  0  0  0  0  0  0  0
  1  2  1  0  0  0  0
  1 23  1  0  0  0  0
  1 24  1  0  0  0  0
  1 25  1  0  0  0  0
  2  3  1  0  0  0  0
  3  4  1  0  0  0  0
  3 26  1  0  0  0  0
  3 27  1  0  0  0  0
  4 22  1  0  0  0  0
  4  5  2  0  0  0  0
  5  6  1  0  0  0  0
  5 28  1  0  0  0  0
  6  7  2  0  0  0  0
  6  8  1  0  0  0  0
  8  9  1  0  0  0  0
  8 21  1  0  0  0  0
  9 10  1  0  0  0  0
  9 29  1  0  0  0  0
  9 30  1  0  0  0  0
 10 11  2  0  0  0  0
 10 12  1  0  0  0  0
 12 13  1  0  0  0  0
 12 31  1  0  0  0  0
 13 19  1  0  0  0  0
 13 14  1  0  0  0  0
 13 32  1  0  0  0  0
 14 15  1  0  0  0  0
 14 33  1  0  0  0  0
 14 34  1  0  0  0  0
 15 16  1  0  0  0  0
 15 35  1  0  0  0  0
 15 36  1  0  0  0  0
 16 17  1  0  0  0  0
 16 37  1  0  0  0  0
 16 38  1  0  0  0  0
 17 18  1  0  0  0  0
 17 19  1  0  0  0  0
 17 39  1  0  0  0  0
 18 40  1  0  0  0  0
 18 41  1  0  0  0  0
 18 42  1  0  0  0  0
 19 20  1  0  0  0  0
 19 43  1  0  0  0  0
 20 44  1  0  0  0  0
 20 45  1  0  0  0  0
 20 46  1  0  0  0  0
 21 22  2  0  0  0  0
 21 47  1  0  0  0  0
M  END
> <s_m_source_file>
AV-unprocessed.smi

> <i_m_source_file_index>
2702

> <i_lp_mmshare_version>
43012

> <i_f3d_flags>
0

> <s_epik_input>
W0NIM11PW0NIMl1jMVtjSF1jKD1PKW4oW2NIXW4xKVtDSDJdQyg9TylbTkhdW0NAQEhdMltDSDJdW0NIMl1bQ0gyXVtDQEBIXShbQ0gzXSlbQ0BIXTJbQ0gzXQ==

> <s_epik_cmdline>
J2VwaWtfcHl0aG9uJywgJy1waCcsICc3LjAnLCAnLXRuJywgJzgnLCAnLW1hJywgJzIwMCcsICctbWV0YWxfYmluZGluZycsICctaW1hZScsICc8aW5maWxlLm1hZT4nLCAnLW9tYWUnLCAnPG91dGZpbGUubWFlPic=

> <r_lp_tautomer_probability>
1

> <r_epik_Ionization_Penalty>
1.22164e-06

> <r_epik_Ionization_Penalty_Charging>
3.17988e-07

> <r_epik_Ionization_Penalty_Neutral>
9.03656e-07

> <r_epik_State_Penalty>
-0

> <r_epik_Charging_Adjusted_Penalty>
3.17988e-07

> <i_epik_Tot_Q>
0

> <i_epik_Tot_abs_Q>
0

> <r_epik_Metal_State_Penalty>
-0

> <b_epik_Metal_Only>
0

> <s_lp_Force_Field>
OPLS_2005

> <r_lp_Energy>
16.6041

> <b_lp_Chiralities_Consistent>
1

> <s_lp_Variant>
AV-unprocessed.smi:2702-4

> <Gold.Version>
5.8.1

> <Gold.Id.Protein>
6NUR|6NUR_protein|mol2

> <Gold.PLP.Fitness>
41.5022

> <Gold.PLP.PLP>
-34.0380

> <Gold.PLP.part.hbond>
-2.0000

> <Gold.PLP.part.metal>
0.0000

> <Gold.PLP.part.buried>
-1.9340

> <Gold.PLP.part.nonpolar>
-30.0655

> <Gold.PLP.part.repulsive>
1.0484

> <Gold.PLP.ligand.clash>
0.0000

> <Gold.PLP.ligand.torsion>
0.6797

> <Gold.PLP.Chemscore.Hbond>
1.9280

> <Gold.PLP.Chemscore.CHOScore>
0.9995

> <Gold.PLP.Chemscore.Metal>
0.0000

> <Gold.Chemscore.Hbonds>
donor molecule, donor type, donor heavy atom, donor atom, acceptor molecule, acceptor atom, score
      P1  H  6896  6909       L1     7  0.91
      P1  H 10752 10763       L1    11  1.00
      L1  C    21    47       P1  7948  1.00

> <Gold.PLP.Chemscore.Internal.Correction>
0.0410

> <Gold.Rescore>
     Score         DG    S(hbond)    S(metal)    S(lipo)     H(rot)  DE(clash)    DE(int)     intcor
     14.50     -15.10       1.94        0.00      69.14       1.93       0.09       0.50       ----

> <Gold.Chemscore.Fitness>
14.5045

> <Gold.Chemscore.DG>
-15.1003

> <Gold.Chemscore.ZeroCoef>
-5.4800

> <Gold.Chemscore.Hbond>
1.9364

> <Gold.Chemscore.Metal>
0.0000

> <Gold.Chemscore.Lipo>
69.1399

> <Gold.Chemscore.Internal_Hbond>
0.0000

> <Gold.Chemscore.DEClash>
0.0913

> <Gold.Chemscore.DEInternal>
0.5045

> <Gold.Chemscore.Rot>
1.9284

> <Gold.Chemscore.Internal.Correction>
   9.000000E+99

> <Gold.Chemscore.Hbonds>
donor molecule, donor type, donor heavy atom, donor atom, acceptor molecule, acceptor atom, score
      P1  H  6896  6909       L1     7  0.87
      P1  H 10752 10763       L1    11  1.00

> <Gold.Chemscore.Hbond.Weighted>
-6.4677

> <Gold.Chemscore.Metal.Weighted>
-0.0000

> <Gold.Chemscore.Lipo.Weighted>
-8.0894

> <Gold.Chemscore.Internal_Hbond.Weighted>
0.0000

> <Gold.Chemscore.DEClash.Weighted>
0.0913

> <Gold.Chemscore.DEInternal.Weighted>
0.5045

> <Gold.Chemscore.Rot.Weighted>
4.9368

> <Gold.Chemscore.Internal.Correction.Weighted>
   9.000000E+99

> <Gold.Protein.RotatedTorsions>
[ 6907 6896 6895 6894 ] final  -34.60 input  -60.11 | X-H torsion
[ 7974 7965 7964 7962 ] final  155.82 input  175.53 | X-H torsion
[ 8008 7997 7996 7995 ] final  -79.15 input   59.86 | X-H torsion
[ 10167 10162 10161 10158 ] final  119.12 input  -65.29 | X-H torsion
[ 10718 10713 10712 10709 ] final   88.55 input   66.30 | X-H torsion
[ 10763 10752 10751 10750 ] final   46.24 input  -60.55 | X-H torsion
[ 11005 11000 10999 10996 ] final   37.87 input  -57.11 | X-H torsion

> <Gold.Protein.ActiveResidues>
 VAL166  LYS551  ARG553  GLY616  TRP617  ASP618  TYR619  PRO620  LYS621  CYS622 
 ASP623  PHE694  ASN695  SER759  ASP760  ASP761  ALA762  ILE779  LEU786  VAL792 
 PHE793  MET794  SER795  GLU796  ALA797  LYS798  CYS799  TRP800  GLU811  SER814 

> <Gold.Protein.RotatedAtoms>
  151.0506  134.9670  159.8208 H   0  0  0  0  0  0  0  0  0  0  0  0  # atno 6907 bound_to 6896
  152.5380  134.2542  159.8920 H   0  0  0  0  0  0  0  0  0  0  0  0  # atno 6908 bound_to 6896
  151.2558  133.4284  159.2647 H   0  0  0  0  0  0  0  0  0  0  0  0  # atno 6909 bound_to 6896
  144.8001  139.7119  143.6185 H   0  0  0  0  0  0  0  0  0  0  0  0  # atno 7974 bound_to 7965
  154.5758  140.0683  156.9031 H   0  0  0  0  0  0  0  0  0  0  0  0  # atno 8008 bound_to 7997
  155.2552  140.3354  155.4260 H   0  0  0  0  0  0  0  0  0  0  0  0  # atno 8009 bound_to 7997
  156.2152  140.1775  156.7589 H   0  0  0  0  0  0  0  0  0  0  0  0  # atno 8010 bound_to 7997
  139.6067  144.7071  151.2938 H   0  0  0  0  0  0  0  0  0  0  0  0  # atno 10167 bound_to 10162
  157.6950  131.0299  150.3292 H   0  0  0  0  0  0  0  0  0  0  0  0  # atno 10718 bound_to 10713
  152.9813  135.6014  154.3568 H   0  0  0  0  0  0  0  0  0  0  0  0  # atno 10763 bound_to 10752
  154.3253  135.2769  155.2501 H   0  0  0  0  0  0  0  0  0  0  0  0  # atno 10764 bound_to 10752
  154.4649  135.5956  153.6337 H   0  0  0  0  0  0  0  0  0  0  0  0  # atno 10765 bound_to 10752
  140.2182  134.3672  155.8017 H   0  0  0  0  0  0  0  0  0  0  0  0  # atno 11005 bound_to 11000
  146.2280  139.5760  142.9574 LP  0  0  0  0  0  0  0  0  0  0  0  0  # atno 17320 bound_to 7965
  145.5574  141.0407  143.2245 LP  0  0  0  0  0  0  0  0  0  0  0  0  # atno 17321 bound_to 7965
  140.7289  143.6921  150.7913 LP  0  0  0  0  0  0  0  0  0  0  0  0  # atno 17342 bound_to 10162
  140.0508  143.5252  152.2674 LP  0  0  0  0  0  0  0  0  0  0  0  0  # atno 17343 bound_to 10162
  156.3768  130.3873  149.7132 LP  0  0  0  0  0  0  0  0  0  0  0  0  # atno 17370 bound_to 10713
  156.4528  130.7915  151.2936 LP  0  0  0  0  0  0  0  0  0  0  0  0  # atno 17371 bound_to 10713
  141.2224  133.7179  156.8532 LP  0  0  0  0  0  0  0  0  0  0  0  0  # atno 17394 bound_to 11000
  140.1877  134.8988  157.3024 LP  0  0  0  0  0  0  0  0  0  0  0  0  # atno 17395 bound_to 11000

$$$$
