#       Name:                AV-unprocessed.smi:1956
#       Creating user name   scv26
#       Creation time:       Fri Mar 27 10:05:54 2020


#       File generated by GOLD software.
#

@<TRIPOS>MOLECULE
AV-unprocessed.smi:1956
    51    52     1
SMALL
NO_CHARGES


@<TRIPOS>ATOM
      1 ****        -7.4837   4.1251  -2.7396 C.3            1 S1                 0.0000
      2 ****        -6.1493   4.5225  -2.4437 O.3            1 S1                 0.0000
      3 ****        -5.2230   3.5416  -2.1544 C.ar           1 S1                 0.0000
      4 ****        -3.8995   3.9276  -1.8655 C.ar           1 S1                 0.0000
      5 ****        -2.9475   2.9337  -1.5681 C.ar           1 S1                 0.0000
      6 ****        -3.3508   1.5758  -1.5700 C.ar           1 S1                 0.0000
      7 ****        -2.5029   0.4692  -1.2846 N.am           1 S1                 0.0000
      8 ****        -1.1828   0.4434  -1.0313 C.2            1 S1                 0.0000
      9 ****        -0.4349   1.4200  -1.0067 O.2            1 S1                 0.0000
     10 ****        -0.7593  -0.8078  -0.8017 N.am           1 S1                 0.0000
     11 ****         0.6196  -1.1803  -0.5061 C.3            1 S1                 0.0000
     12 ****         0.9795  -0.8997   0.9662 C.3            1 S1                 0.0000
     13 ****         2.3952  -1.2239   1.2733 N.4            1 S1                 1.0000
     14 ****         2.8988  -0.4815   2.4579 C.3            1 S1                 0.0000
     15 ****         4.4060  -0.7081   2.6550 C.3            1 S1                 0.0000
     16 ****         4.7289  -2.2050   2.7635 C.3            1 S1                 0.0000
     17 ****         4.1542  -2.9893   1.5693 C.3            1 S1                 0.0000
     18 ****         4.9470  -2.7640   0.2698 C.3            1 S1                 0.0000
     19 ****         2.6519  -2.6850   1.3948 C.3            1 S1                 0.0000
     20 ****        -4.7008   1.2973  -1.8703 C.ar           1 S1                 0.0000
     21 ****        -5.6179   2.2448  -2.1563 N.ar           1 S1                 0.0000
     22 ****        -8.0868   5.0100  -2.9423 H              1 S1                 0.0000
     23 ****        -7.9399   3.5991  -1.8995 H              1 S1                 0.0000
     24 ****        -7.5228   3.4884  -3.6247 H              1 S1                 0.0000
     25 ****        -3.6182   4.9704  -1.8709 H              1 S1                 0.0000
     26 ****        -1.9397   3.2431  -1.3445 H              1 S1                 0.0000
     27 ****        -2.9656  -0.4281  -1.2817 H              1 S1                 0.0000
     28 ****        -1.4364  -1.5558  -0.8444 H              1 S1                 0.0000
     29 ****         0.7234  -2.2393  -0.7384 H              1 S1                 0.0000
     30 ****         1.2999  -0.6486  -1.1738 H              1 S1                 0.0000
     31 ****         0.8101   0.1596   1.1638 H              1 S1                 0.0000
     32 ****         0.3181  -1.4464   1.6402 H              1 S1                 0.0000
     33 ****         2.7153   0.5863   2.3327 H              1 S1                 0.0000
     34 ****         2.3496  -0.7960   3.3468 H              1 S1                 0.0000
     35 ****         4.9569  -0.2662   1.8240 H              1 S1                 0.0000
     36 ****         4.7441  -0.1907   3.5532 H              1 S1                 0.0000
     37 ****         5.8063  -2.3560   2.8400 H              1 S1                 0.0000
     38 ****         4.3004  -2.5950   3.6878 H              1 S1                 0.0000
     39 ****         4.2471  -4.0505   1.8042 H              1 S1                 0.0000
     40 ****         4.8936  -1.7287  -0.0672 H              1 S1                 0.0000
     41 ****         4.5630  -3.3911  -0.5353 H              1 S1                 0.0000
     42 ****         5.9996  -3.0146   0.4047 H              1 S1                 0.0000
     43 ****         2.0958  -3.0725   2.2501 H              1 S1                 0.0000
     44 ****         2.2793  -3.2165   0.5200 H              1 S1                 0.0000
     45 ****        -5.0599   0.2786  -1.8819 H              1 S1                 0.0000
     46 ****         2.9368  -0.8940   0.4870 H              1 S1                 0.0000
     47 ****        -6.1908   5.1329  -1.6528 LP             1 S1                 0.0000
     48 ****        -5.8080   5.0272  -3.2367 LP             1 S1                 0.0000
     49 ****        -0.7997   2.3337  -1.1855 LP             1 S1                 0.0000
     50 ****         0.5378   1.3000  -0.8080 LP             1 S1                 0.0000
     51 ****        -6.5641   1.9968  -2.3642 LP             1 S1                 0.0000
@<TRIPOS>BOND
    1    1    2 1     
    2    1   22 1     
    3    1   23 1     
    4    1   24 1     
    5    2    3 1     
    6    3   21 ar    
    7    3    4 ar    
    8    4    5 ar    
    9    4   25 1     
   10    5    6 ar    
   11    5   26 1     
   12    6    7 1     
   13    6   20 ar    
   14    7    8 am    
   15    7   27 1     
   16    8    9 2     
   17    8   10 am    
   18   10   11 1     
   19   10   28 1     
   20   11   12 1     
   21   11   29 1     
   22   11   30 1     
   23   12   13 1     
   24   12   31 1     
   25   12   32 1     
   26   13   19 1     
   27   13   14 1     
   28   13   46 1     
   29   14   15 1     
   30   14   33 1     
   31   14   34 1     
   32   15   16 1     
   33   15   35 1     
   34   15   36 1     
   35   16   17 1     
   36   16   37 1     
   37   16   38 1     
   38   17   18 1     
   39   17   19 1     
   40   17   39 1     
   41   18   40 1     
   42   18   41 1     
   43   18   42 1     
   44   19   43 1     
   45   19   44 1     
   46   20   21 ar    
   47   20   45 1     
   48    2   47 1     
   49    2   48 1     
   50    9   49 1     
   51    9   50 1     
   52   21   51 1     
@<TRIPOS>SUBSTRUCTURE
      1 S1             1
@<TRIPOS>SET
LONE_PAIRS      STATIC     ATOMS    <user>   **** ""
5 47 48 49 50 51
DONOR_HYDROGENS      STATIC     ATOMS    <user>   **** ""
3 27 28 46
ATOM$BLUE        STATIC     ATOMS    COLORGROUP SYSTEM
5 47 48 49 50 51
ATOM$RED        STATIC     ATOMS    COLORGROUP SYSTEM
3 27 28 46
