#       Name:                AV-unprocessed.smi:2278
#       Creating user name   scv26
#       Creation time:       Fri Mar 27 12:39:42 2020


#       File generated by GOLD software.
#

@<TRIPOS>MOLECULE
AV-unprocessed.smi:2278
    51    52     1
SMALL
NO_CHARGES


@<TRIPOS>ATOM
      1 ****        -4.2732   4.9868   0.5771 C.3            1 S1                 0.0000
      2 ****        -3.7109   3.5785   0.5003 C.2            1 S1                 0.0000
      3 ****        -3.6835   2.8724   1.7065 N.2            1 S1                 0.0000
      4 ****        -3.2191   1.6665   1.7379 C.2            1 S1                 0.0000
      5 ****        -2.7336   1.0333   0.5823 N.am           1 S1                 0.0000
      6 ****        -2.2244  -0.3380   0.7523 C.3            1 S1                 0.0000
      7 ****        -0.6801  -0.3858   0.7997 C.3            1 S1                 0.0000
      8 ****        -0.2672  -0.1573   2.1330 O.3            1 S1                 0.0000
      9 ****        -0.1444  -1.7714   0.3845 C.3            1 S1                 0.0000
     10 ****         1.3379  -1.8045   0.2921 N.4            1 S1                 1.0000
     11 ****         1.8612  -1.1996  -0.9619 C.3            1 S1                 0.0000
     12 ****         3.3976  -1.1392  -0.9496 C.3            1 S1                 0.0000
     13 ****         4.0091  -2.5337  -0.7352 C.3            1 S1                 0.0000
     14 ****         5.5428  -2.4817  -0.6938 C.3            1 S1                 0.0000
     15 ****         3.4239  -3.1507   0.5462 C.3            1 S1                 0.0000
     16 ****         1.8863  -3.1682   0.5073 C.3            1 S1                 0.0000
     17 ****        -2.7213   1.6509  -0.6347 C.2            1 S1                 0.0000
     18 ****        -2.2817   1.0873  -1.6392 O.2            1 S1                 0.0000
     19 ****        -3.2543   3.0223  -0.6551 C.2            1 S1                 0.0000
     20 ****        -3.2557   3.7438  -1.9971 C.3            1 S1                 0.0000
     21 ****        -5.1328   5.0932  -0.0853 H              1 S1                 0.0000
     22 ****        -3.5160   5.7155   0.2860 H              1 S1                 0.0000
     23 ****        -4.6001   5.2297   1.5891 H              1 S1                 0.0000
     24 ****        -3.1727   1.0750   2.6540 H              1 S1                 0.0000
     25 ****        -2.6524  -0.8369   1.6248 H              1 S1                 0.0000
     26 ****        -2.5809  -0.9314  -0.0917 H              1 S1                 0.0000
     27 ****        -0.2595   0.3890   0.1600 H              1 S1                 0.0000
     28 ****        -0.5719   0.6963   2.4025 H              1 S1                 0.0000
     29 ****        -0.4915  -2.5093   1.1101 H              1 S1                 0.0000
     30 ****        -0.5637  -2.0742  -0.5764 H              1 S1                 0.0000
     31 ****         1.5177  -1.7818  -1.8185 H              1 S1                 0.0000
     32 ****         1.4707  -0.1911  -1.0928 H              1 S1                 0.0000
     33 ****         3.7543  -0.7155  -1.8892 H              1 S1                 0.0000
     34 ****         3.7290  -0.4626  -0.1604 H              1 S1                 0.0000
     35 ****         3.7218  -3.1641  -1.5783 H              1 S1                 0.0000
     36 ****         5.8977  -1.8649   0.1326 H              1 S1                 0.0000
     37 ****         5.9459  -2.0649  -1.6173 H              1 S1                 0.0000
     38 ****         5.9664  -3.4788  -0.5711 H              1 S1                 0.0000
     39 ****         3.7981  -4.1667   0.6765 H              1 S1                 0.0000
     40 ****         3.7590  -2.5846   1.4166 H              1 S1                 0.0000
     41 ****         1.5119  -3.5716   1.4491 H              1 S1                 0.0000
     42 ****         1.5355  -3.8322  -0.2846 H              1 S1                 0.0000
     43 ****        -2.2399   3.8149  -2.3870 H              1 S1                 0.0000
     44 ****        -3.6554   4.7552  -1.9411 H              1 S1                 0.0000
     45 ****        -3.8585   3.1923  -2.7194 H              1 S1                 0.0000
     46 ****         1.6784  -1.2421   1.0592 H              1 S1                 0.0000
     47 ****        -4.0229   3.2999   2.5444 LP             1 S1                 0.0000
     48 ****         0.7308  -0.1908   2.1867 LP             1 S1                 0.0000
     49 ****        -0.6569  -0.8579   2.7307 LP             1 S1                 0.0000
     50 ****        -1.9232   0.1561  -1.5735 LP             1 S1                 0.0000
     51 ****        -2.2837   1.5613  -2.5197 LP             1 S1                 0.0000
@<TRIPOS>BOND
    1    1    2 1     
    2    1   21 1     
    3    1   22 1     
    4    1   23 1     
    5    2   19 2     
    6    2    3 1     
    7    3    4 2     
    8    4    5 1     
    9    4   24 1     
   10    5    6 1     
   11    5   17 am    
   12    6    7 1     
   13    6   25 1     
   14    6   26 1     
   15    7    8 1     
   16    7    9 1     
   17    7   27 1     
   18    8   28 1     
   19    9   10 1     
   20    9   29 1     
   21    9   30 1     
   22   10   16 1     
   23   10   11 1     
   24   10   46 1     
   25   11   12 1     
   26   11   31 1     
   27   11   32 1     
   28   12   13 1     
   29   12   33 1     
   30   12   34 1     
   31   13   14 1     
   32   13   15 1     
   33   13   35 1     
   34   14   36 1     
   35   14   37 1     
   36   14   38 1     
   37   15   16 1     
   38   15   39 1     
   39   15   40 1     
   40   16   41 1     
   41   16   42 1     
   42   17   18 2     
   43   17   19 1     
   44   19   20 1     
   45   20   43 1     
   46   20   44 1     
   47   20   45 1     
   48    3   47 1     
   49    8   48 1     
   50    8   49 1     
   51   18   50 1     
   52   18   51 1     
@<TRIPOS>SUBSTRUCTURE
      1 S1             1
@<TRIPOS>SET
LONE_PAIRS      STATIC     ATOMS    <user>   **** ""
5 47 48 49 50 51
DONOR_HYDROGENS      STATIC     ATOMS    <user>   **** ""
2 28 46
ATOM$BLUE        STATIC     ATOMS    COLORGROUP SYSTEM
5 47 48 49 50 51
ATOM$RED        STATIC     ATOMS    COLORGROUP SYSTEM
2 28 46
