AV-unprocessed.smi:34|AV-procd|sdf|229|dock1
  -GOLD-   2262015553D 1   1.00000     0.00000
 Structure written by MMmdl.
 55 59  0  0  0  0  0  0  0  0  1 V2000
  151.9839  140.0371  158.3834 O   0  0  0  0  0  0  0  0  0  0  0  0
  151.5244  141.0848  157.9276 C   0  0  0  0  0  0  0  0  0  0  0  0
  150.7941  141.1284  156.6733 N   0  0  0  0  0  0  0  0  0  0  0  0
  150.4529  140.0946  155.8690 C   0  0  0  0  0  0  0  0  0  0  0  0
  150.7652  140.0662  154.5467 N   0  0  0  0  0  0  0  0  0  0  0  0
  150.4028  139.0245  153.7932 C   0  0  0  0  0  0  0  0  0  0  0  0
  149.7362  137.9276  154.1564 N   0  0  0  0  0  0  0  0  0  0  0  0
  149.4231  137.9425  155.4836 C   0  0  0  0  0  0  0  0  0  0  0  0
  149.7482  138.9823  156.3990 C   0  0  0  0  0  0  0  0  0  0  0  0
  149.2745  138.6606  157.6640 N   0  0  0  0  0  0  0  0  0  0  0  0
  148.6990  137.5002  157.4999 C   0  0  0  0  0  0  0  0  0  0  0  0
  148.7352  136.9960  156.2188 N   0  0  0  0  0  0  0  0  0  0  0  0
  148.1449  135.7039  155.7415 C   0  0  2  0  0  0  0  0  0  0  0  0
  147.6602  134.9676  156.8264 O   0  0  0  0  0  0  0  0  0  0  0  0
  147.9895  133.5807  156.6959 C   0  0  2  0  0  0  0  0  0  0  0  0
  148.9914  133.2021  157.7985 C   0  0  0  0  0  0  0  0  0  0  0  0
  148.3432  133.2867  159.0575 O   0  0  0  0  0  0  0  0  0  0  0  0
  148.2063  134.4781  159.6723 C   0  0  0  0  0  0  0  0  0  0  0  0
  148.8679  135.4772  159.3827 O   0  0  0  0  0  0  0  0  0  0  0  0
  147.1587  134.4650  160.7333 C   0  0  0  0  0  0  0  0  0  0  0  0
  146.9188  135.6389  161.4851 C   0  0  0  0  0  0  0  0  0  0  0  0
  145.9320  135.6580  162.4899 C   0  0  0  0  0  0  0  0  0  0  0  0
  145.1731  134.5034  162.7552 C   0  0  0  0  0  0  0  0  0  0  0  0
  145.4023  133.3295  162.0147 C   0  0  0  0  0  0  0  0  0  0  0  0
  146.3882  133.3086  161.0090 C   0  0  0  0  0  0  0  0  0  0  0  0
  148.5556  133.4551  155.2771 C   0  0  2  0  0  0  0  0  0  0  0  0
  149.4085  132.4454  155.0939 F   0  0  0  0  0  0  0  0  0  0  0  0
  149.1536  134.8205  154.9967 C   0  0  2  0  0  0  0  0  0  0  0  0
  150.4795  134.9466  155.4814 O   0  0  0  0  0  0  0  0  0  0  0  0
  151.7674  142.4081  158.5923 C   0  0  0  0  0  0  0  0  0  0  0  0
  151.5054  143.6078  157.8936 C   0  0  0  0  0  0  0  0  0  0  0  0
  151.7407  144.8547  158.5049 C   0  0  0  0  0  0  0  0  0  0  0  0
  152.2490  144.9119  159.8163 C   0  0  0  0  0  0  0  0  0  0  0  0
  152.5252  143.7214  160.5148 C   0  0  0  0  0  0  0  0  0  0  0  0
  152.2889  142.4737  159.9052 C   0  0  0  0  0  0  0  0  0  0  0  0
  150.5116  142.0452  156.3592 H   0  0  0  0  0  0  0  0  0  0  0  0
  150.6848  139.0776  152.7518 H   0  0  0  0  0  0  0  0  0  0  0  0
  148.2212  136.9776  158.3160 H   0  0  0  0  0  0  0  0  0  0  0  0
  147.3030  135.9967  155.1126 H   0  0  0  0  0  0  0  0  0  0  0  0
  147.0904  132.9716  156.7966 H   0  0  0  0  0  0  0  0  0  0  0  0
  149.3444  132.1802  157.6566 H   0  0  0  0  0  0  0  0  0  0  0  0
  149.8642  133.8538  157.7630 H   0  0  0  0  0  0  0  0  0  0  0  0
  147.4879  136.5379  161.2977 H   0  0  0  0  0  0  0  0  0  0  0  0
  145.7570  136.5605  163.0567 H   0  0  0  0  0  0  0  0  0  0  0  0
  144.4161  134.5179  163.5255 H   0  0  0  0  0  0  0  0  0  0  0  0
  144.8203  132.4425  162.2169 H   0  0  0  0  0  0  0  0  0  0  0  0
  146.5378  132.3915  160.4585 H   0  0  0  0  0  0  0  0  0  0  0  0
  147.7303  133.2844  154.5842 H   0  0  0  0  0  0  0  0  0  0  0  0
  149.1459  135.0648  153.9341 H   0  0  0  0  0  0  0  0  0  0  0  0
  150.7354  134.1252  155.8725 H   0  0  0  0  0  0  0  0  0  0  0  0
  151.1159  143.5804  156.8862 H   0  0  0  0  0  0  0  0  0  0  0  0
  151.5314  145.7670  157.9664 H   0  0  0  0  0  0  0  0  0  0  0  0
  152.4302  145.8682  160.2845 H   0  0  0  0  0  0  0  0  0  0  0  0
  152.9212  143.7646  161.5187 H   0  0  0  0  0  0  0  0  0  0  0  0
  152.5156  141.5718  160.4553 H   0  0  0  0  0  0  0  0  0  0  0  0
  1  2  2  0  0  0  0
  2  3  1  0  0  0  0
  2 30  1  0  0  0  0
  3  4  1  0  0  0  0
  3 36  1  0  0  0  0
  4  9  1  0  0  0  0
  4  5  2  0  0  0  0
  5  6  1  0  0  0  0
  6  7  2  0  0  0  0
  6 37  1  0  0  0  0
  7  8  1  0  0  0  0
  8 12  1  0  0  0  0
  8  9  2  0  0  0  0
  9 10  1  0  0  0  0
 10 11  2  0  0  0  0
 11 12  1  0  0  0  0
 11 38  1  0  0  0  0
 12 13  1  0  0  0  0
 13 28  1  0  0  0  0
 13 14  1  0  0  0  0
 13 39  1  0  0  0  0
 14 15  1  0  0  0  0
 15 16  1  0  0  0  0
 15 26  1  0  0  0  0
 15 40  1  0  0  0  0
 16 17  1  0  0  0  0
 16 41  1  0  0  0  0
 16 42  1  0  0  0  0
 17 18  1  0  0  0  0
 18 19  2  0  0  0  0
 18 20  1  0  0  0  0
 20 25  1  0  0  0  0
 20 21  2  0  0  0  0
 21 22  1  0  0  0  0
 21 43  1  0  0  0  0
 22 23  2  0  0  0  0
 22 44  1  0  0  0  0
 23 24  1  0  0  0  0
 23 45  1  0  0  0  0
 24 25  2  0  0  0  0
 24 46  1  0  0  0  0
 25 47  1  0  0  0  0
 26 27  1  0  0  0  0
 26 28  1  0  0  0  0
 26 48  1  0  0  0  0
 28 29  1  0  0  0  0
 28 49  1  0  0  0  0
 29 50  1  0  0  0  0
 30 35  1  0  0  0  0
 30 31  2  0  0  0  0
 31 32  1  0  0  0  0
 31 51  1  0  0  0  0
 32 33  2  0  0  0  0
 32 52  1  0  0  0  0
 33 34  1  0  0  0  0
 33 53  1  0  0  0  0
 34 35  2  0  0  0  0
 34 54  1  0  0  0  0
 35 55  1  0  0  0  0
M  END
> <s_m_source_file>
AV-unprocessed.smi

> <i_m_source_file_index>
34

> <i_lp_mmshare_version>
43012

> <i_f3d_flags>
0

> <s_epik_input>
W2NIXTFbY0hdW2NIXVtjSF1bY0hdYzFDKD1PKVtOSF1jKG5bY0hdbjIpYyhjMjMpbltjSF1uM1tDQEBIXTRPW0NASF0oW0NAQEhdKEYpW0NASF00W09IXSlbQ0gyXU9DKD1PKWM1W2NIXVtjSF1bY0hdW2NIXVtjSF01

> <s_epik_cmdline>
J2VwaWtfcHl0aG9uJywgJy1waCcsICc3LjAnLCAnLXRuJywgJzgnLCAnLW1hJywgJzIwMCcsICctbWV0YWxfYmluZGluZycsICctaW1hZScsICc8aW5maWxlLm1hZT4nLCAnLW9tYWUnLCAnPG91dGZpbGUubWFlPic=

> <r_lp_tautomer_probability>
1

> <r_epik_Ionization_Penalty>
0.00257489

> <r_epik_Ionization_Penalty_Charging>
0

> <r_epik_Ionization_Penalty_Neutral>
0.00257489

> <r_epik_State_Penalty>
0.00519398

> <r_epik_Charging_Adjusted_Penalty>
0.00519398

> <i_epik_Tot_Q>
0

> <i_epik_Tot_abs_Q>
0

> <r_epik_Metal_State_Penalty>
0.335891

> <b_epik_Metal_Only>
0

> <s_epik_Chemistry_Notes>
This compound has an ester and may undergo hydrolysis at high or low pH. This compound contains an acetal/aminal-like group ( X-CH(R)-Y where X, Y are N, S, or O) that may be acid/base labile, releasing an aldehyde.

> <s_lp_Force_Field>
OPLS_2005

> <r_lp_Energy>
55.6649

> <b_lp_Chiralities_Consistent>
1

> <s_lp_Variant>
AV-unprocessed.smi:34-15

> <Gold.Version>
5.8.1

> <Gold.Id.Protein>
6NUR|6NUR_protein|mol2

> <Gold.PLP.Fitness>
55.5243

> <Gold.PLP.PLP>
-47.8275

> <Gold.PLP.part.hbond>
-2.2164

> <Gold.PLP.part.metal>
0.0000

> <Gold.PLP.part.buried>
-5.4699

> <Gold.PLP.part.nonpolar>
-41.1336

> <Gold.PLP.part.repulsive>
1.6370

> <Gold.PLP.ligand.clash>
0.0000

> <Gold.PLP.ligand.torsion>
1.0134

> <Gold.PLP.Chemscore.Hbond>
2.0000

> <Gold.PLP.Chemscore.CHOScore>
0.9935

> <Gold.PLP.Chemscore.Metal>
0.0000

> <Gold.Chemscore.Hbonds>
donor molecule, donor type, donor heavy atom, donor atom, acceptor molecule, acceptor atom, score
      P1  H  6896  6909       L1    19  0.98
      P1  H  7989  7998       L1     5  1.00
      L1  C     6    37       P1  7957  0.97

> <Gold.PLP.Chemscore.Internal.Correction>
0.7432

> <Gold.Rescore>
     Score         DG    S(hbond)    S(metal)    S(lipo)     H(rot)  DE(clash)    DE(int)     intcor
     15.34     -19.51       1.74        0.00     129.92       2.72       1.64       2.53       ----

> <Gold.Chemscore.Fitness>
15.3370

> <Gold.Chemscore.DG>
-19.5103

> <Gold.Chemscore.ZeroCoef>
-5.4800

> <Gold.Chemscore.Hbond>
1.7357

> <Gold.Chemscore.Metal>
0.0000

> <Gold.Chemscore.Lipo>
129.9153

> <Gold.Chemscore.Internal_Hbond>
0.0000

> <Gold.Chemscore.DEClash>
1.6435

> <Gold.Chemscore.DEInternal>
2.5298

> <Gold.Chemscore.Rot>
2.7215

> <Gold.Chemscore.Internal.Correction>
   9.000000E+99

> <Gold.Chemscore.Hbonds>
donor molecule, donor type, donor heavy atom, donor atom, acceptor molecule, acceptor atom, score
      P1  H  6896  6909       L1    19  0.27
      P1  H  7989  7998       L1     5  0.25

> <Gold.Chemscore.Hbond.Weighted>
-5.7972

> <Gold.Chemscore.Metal.Weighted>
-0.0000

> <Gold.Chemscore.Lipo.Weighted>
-15.2001

> <Gold.Chemscore.Internal_Hbond.Weighted>
0.0000

> <Gold.Chemscore.DEClash.Weighted>
1.6435

> <Gold.Chemscore.DEInternal.Weighted>
2.5298

> <Gold.Chemscore.Rot.Weighted>
6.9670

> <Gold.Chemscore.Internal.Correction.Weighted>
   9.000000E+99

> <Gold.Protein.RotatedTorsions>
[ 6907 6896 6895 6894 ] final   65.24 input  -60.11 | X-H torsion
[ 7974 7965 7964 7962 ] final  -70.30 input  175.53 | X-H torsion
[ 8008 7997 7996 7995 ] final   75.59 input   59.86 | X-H torsion
[ 10167 10162 10161 10158 ] final  150.53 input  -65.29 | X-H torsion
[ 10718 10713 10712 10709 ] final   45.51 input   66.30 | X-H torsion
[ 10763 10752 10751 10750 ] final -165.40 input  -60.55 | X-H torsion
[ 11005 11000 10999 10996 ] final   92.52 input  -57.11 | X-H torsion

> <Gold.Protein.ActiveResidues>
 VAL166  LYS551  ARG553  GLY616  TRP617  ASP618  TYR619  PRO620  LYS621  CYS622 
 ASP623  PHE694  ASN695  SER759  ASP760  ASP761  ALA762  ILE779  LEU786  VAL792 
 PHE793  MET794  SER795  GLU796  ALA797  LYS798  CYS799  TRP800  GLU811  SER814 

> <Gold.Protein.RotatedAtoms>
  152.4392  134.5625  159.9897 H   0  0  0  0  0  0  0  0  0  0  0  0  # atno 6907 bound_to 6896
  151.5727  133.3382  159.3000 H   0  0  0  0  0  0  0  0  0  0  0  0  # atno 6908 bound_to 6896
  150.8295  134.7576  159.6906 H   0  0  0  0  0  0  0  0  0  0  0  0  # atno 6909 bound_to 6896
  145.6928  140.9147  143.0773 H   0  0  0  0  0  0  0  0  0  0  0  0  # atno 7974 bound_to 7965
  155.8152  140.3472  155.5481 H   0  0  0  0  0  0  0  0  0  0  0  0  # atno 8008 bound_to 7997
  155.8400  140.0940  157.1760 H   0  0  0  0  0  0  0  0  0  0  0  0  # atno 8009 bound_to 7997
  154.4005  140.1396  156.3704 H   0  0  0  0  0  0  0  0  0  0  0  0  # atno 8010 bound_to 7997
  139.4849  144.5515  151.7393 H   0  0  0  0  0  0  0  0  0  0  0  0  # atno 10167 bound_to 10162
  157.4383  130.8066  149.7669 H   0  0  0  0  0  0  0  0  0  0  0  0  # atno 10718 bound_to 10713
  154.6935  135.2975  154.9445 H   0  0  0  0  0  0  0  0  0  0  0  0  # atno 10763 bound_to 10752
  154.0401  135.6658  153.4793 H   0  0  0  0  0  0  0  0  0  0  0  0  # atno 10764 bound_to 10752
  153.0629  135.5105  154.8040 H   0  0  0  0  0  0  0  0  0  0  0  0  # atno 10765 bound_to 10752
  139.8822  134.8737  156.3584 H   0  0  0  0  0  0  0  0  0  0  0  0  # atno 11005 bound_to 11000
  144.6991  139.8843  143.7449 LP  0  0  0  0  0  0  0  0  0  0  0  0  # atno 17320 bound_to 7965
  146.0867  139.3856  143.0431 LP  0  0  0  0  0  0  0  0  0  0  0  0  # atno 17321 bound_to 7965
  140.5069  144.1084  150.5985 LP  0  0  0  0  0  0  0  0  0  0  0  0  # atno 17342 bound_to 10162
  140.3996  143.2710  151.9963 LP  0  0  0  0  0  0  0  0  0  0  0  0  # atno 17343 bound_to 10162
  155.9939  130.3921  150.2882 LP  0  0  0  0  0  0  0  0  0  0  0  0  # atno 17370 bound_to 10713
  157.1044  131.0204  151.3073 LP  0  0  0  0  0  0  0  0  0  0  0  0  # atno 17371 bound_to 10713
  140.9546  133.7428  156.0318 LP  0  0  0  0  0  0  0  0  0  0  0  0  # atno 17394 bound_to 11000
  140.8064  134.3450  157.5425 LP  0  0  0  0  0  0  0  0  0  0  0  0  # atno 17395 bound_to 11000

$$$$
