#       Name:                AV-unprocessed.smi:2319
#       Creating user name   scv26
#       Creation time:       Fri Mar 27 12:50:08 2020


#       File generated by GOLD software.
#

@<TRIPOS>MOLECULE
AV-unprocessed.smi:2319
    53    54     1
SMALL
NO_CHARGES


@<TRIPOS>ATOM
      1 ****        -5.4669  -0.0398   2.0427 C.3            1 S1                 0.0000
      2 ****        -4.2620   0.9069   2.0347 C.3            1 S1                 0.0000
      3 ****        -4.0097   1.5223   0.6979 C.2            1 S1                 0.0000
      4 ****        -4.9083   2.4421   0.2587 O.3            1 S1                 0.0000
      5 ****        -4.5172   2.8875  -1.0133 N.2            1 S1                 0.0000
      6 ****        -3.4059   2.2347  -1.3208 C.2            1 S1                 0.0000
      7 ****        -2.7801   2.4558  -2.6697 C.3            1 S1                 0.0000
      8 ****        -3.0345   1.3772  -0.2438 C.2            1 S1                 0.0000
      9 ****        -1.9454   0.4764  -0.1403 N.am           1 S1                 0.0000
     10 ****        -0.6933   0.6732  -0.5791 C.2            1 S1                 0.0000
     11 ****        -0.2970   1.6915  -1.1448 O.2            1 S1                 0.0000
     12 ****         0.0909  -0.3760  -0.2988 N.am           1 S1                 0.0000
     13 ****         1.5164  -0.4668  -0.6080 C.3            1 S1                 0.0000
     14 ****         1.9578  -1.9060  -0.7862 C.3            1 S1                 0.0000
     15 ****         3.4626  -1.8484  -0.4939 C.3            1 S1                 0.0000
     16 ****         3.9603  -3.0975   0.2492 C.3            1 S1                 0.0000
     17 ****         4.2861  -1.6010  -1.7692 C.3            1 S1                 0.0000
     18 ****         3.6443  -0.7146   0.3538 O.3            1 S1                 0.0000
     19 ****         2.4362   0.0232   0.5309 C.3            1 S1                 0.0000
     20 ****         2.7743   1.5173   0.4093 C.3            1 S1                 0.0000
     21 ****         1.9232  -0.3044   1.9493 C.3            1 S1                 0.0000
     22 ****        -5.6178  -0.4689   3.0334 H              1 S1                 0.0000
     23 ****        -5.3243  -0.8621   1.3409 H              1 S1                 0.0000
     24 ****        -6.3818   0.4842   1.7640 H              1 S1                 0.0000
     25 ****        -4.4187   1.6972   2.7694 H              1 S1                 0.0000
     26 ****        -3.3743   0.3638   2.3600 H              1 S1                 0.0000
     27 ****        -2.3152   1.5437  -3.0437 H              1 S1                 0.0000
     28 ****        -2.0147   3.2305  -2.6237 H              1 S1                 0.0000
     29 ****        -3.5204   2.7675  -3.4072 H              1 S1                 0.0000
     30 ****        -2.1073  -0.3524   0.4128 H              1 S1                 0.0000
     31 ****        -0.3217  -1.1660   0.1752 H              1 S1                 0.0000
     32 ****         1.7412   0.0721  -1.5308 H              1 S1                 0.0000
     33 ****         1.4545  -2.5433  -0.0572 H              1 S1                 0.0000
     34 ****         1.7272  -2.3002  -1.7768 H              1 S1                 0.0000
     35 ****         3.8234  -3.9957  -0.3536 H              1 S1                 0.0000
     36 ****         3.4227  -3.2406   1.1872 H              1 S1                 0.0000
     37 ****         5.0207  -3.0156   0.4895 H              1 S1                 0.0000
     38 ****         4.1827  -2.4281  -2.4722 H              1 S1                 0.0000
     39 ****         5.3463  -1.4941  -1.5376 H              1 S1                 0.0000
     40 ****         3.9697  -0.6909  -2.2792 H              1 S1                 0.0000
     41 ****         1.8875   2.1367   0.5441 H              1 S1                 0.0000
     42 ****         3.1969   1.7492  -0.5687 H              1 S1                 0.0000
     43 ****         3.5043   1.8180   1.1612 H              1 S1                 0.0000
     44 ****         1.0184   0.2549   2.1883 H              1 S1                 0.0000
     45 ****         2.6703  -0.0483   2.7011 H              1 S1                 0.0000
     46 ****         1.6996  -1.3651   2.0629 H              1 S1                 0.0000
     47 ****        -4.9340   3.2155   0.8921 LP             1 S1                 0.0000
     48 ****        -5.8158   2.0256   0.2043 LP             1 S1                 0.0000
     49 ****        -4.9864   3.5662  -1.5783 LP             1 S1                 0.0000
     50 ****        -0.9272   2.4508  -1.3071 LP             1 S1                 0.0000
     51 ****         0.6553   1.7598  -1.4422 LP             1 S1                 0.0000
     52 ****         4.3319  -0.1140  -0.0542 LP             1 S1                 0.0000
     53 ****         3.9642  -1.0285   1.2478 LP             1 S1                 0.0000
@<TRIPOS>BOND
    1    1    2 1     
    2    1   22 1     
    3    1   23 1     
    4    1   24 1     
    5    2    3 1     
    6    2   25 1     
    7    2   26 1     
    8    3    8 2     
    9    3    4 1     
   10    4    5 1     
   11    5    6 2     
   12    6    7 1     
   13    6    8 1     
   14    7   27 1     
   15    7   28 1     
   16    7   29 1     
   17    8    9 1     
   18    9   10 am    
   19    9   30 1     
   20   10   11 2     
   21   10   12 am    
   22   12   13 1     
   23   12   31 1     
   24   13   19 1     
   25   13   14 1     
   26   13   32 1     
   27   14   15 1     
   28   14   33 1     
   29   14   34 1     
   30   15   16 1     
   31   15   17 1     
   32   15   18 1     
   33   16   35 1     
   34   16   36 1     
   35   16   37 1     
   36   17   38 1     
   37   17   39 1     
   38   17   40 1     
   39   18   19 1     
   40   19   20 1     
   41   19   21 1     
   42   20   41 1     
   43   20   42 1     
   44   20   43 1     
   45   21   44 1     
   46   21   45 1     
   47   21   46 1     
   48    4   47 1     
   49    4   48 1     
   50    5   49 1     
   51   11   50 1     
   52   11   51 1     
   53   18   52 1     
   54   18   53 1     
@<TRIPOS>SUBSTRUCTURE
      1 S1             1
@<TRIPOS>SET
LONE_PAIRS      STATIC     ATOMS    <user>   **** ""
7 47 48 49 50 51 52 53
DONOR_HYDROGENS      STATIC     ATOMS    <user>   **** ""
2 30 31
ATOM$BLUE        STATIC     ATOMS    COLORGROUP SYSTEM
7 47 48 49 50 51 52 53
ATOM$RED        STATIC     ATOMS    COLORGROUP SYSTEM
2 30 31
