AV-unprocessed.smi:159|AV-procd|sdf|1340|dock4
  -GOLD-   2262019 33D 1   1.00000     0.00000
 Structure written by MMmdl.
 28 29  0  0  0  0  0  0  0  0  1 V2000
  146.4232  139.6808  152.9927 N   0  0  0  0  0  0  0  0  0  0  0  0
  147.5134  140.0304  153.6894 C   0  0  0  0  0  0  0  0  0  0  0  0
  147.5927  141.3297  154.3166 C   0  0  0  0  0  0  0  0  0  0  0  0
  148.7219  141.6085  155.0047 C   0  0  0  0  0  0  0  0  0  0  0  0
  149.7629  140.6950  155.1222 N   0  0  0  0  0  0  0  0  0  0  0  0
  151.0398  141.0068  155.8803 C   0  0  2  0  0  0  0  0  0  0  0  0
  151.2379  140.0245  157.0507 C   0  0  0  0  0  0  0  0  0  0  0  0
  151.4324  140.9526  158.2335 C   0  0  0  0  0  0  0  0  0  0  0  0
  150.6171  142.1728  157.8201 C   0  0  1  0  0  0  0  0  0  0  0  0
  150.9989  143.4535  158.5747 C   0  0  0  0  0  0  0  0  0  0  0  0
  150.6781  144.5848  157.7940 O   0  0  0  0  0  0  0  0  0  0  0  0
  150.9630  142.2843  156.4444 O   0  0  0  0  0  0  0  0  0  0  0  0
  149.6600  139.4366  154.4809 C   0  0  0  0  0  0  0  0  0  0  0  0
  150.5664  138.6062  154.5378 O   0  0  0  0  0  0  0  0  0  0  0  0
  148.5087  139.1713  153.7896 N   0  0  0  0  0  0  0  0  0  0  0  0
  151.8369  140.9848  155.1347 H   0  0  0  0  0  0  0  0  0  0  0  0
  149.5539  141.9512  157.9325 H   0  0  0  0  0  0  0  0  0  0  0  0
  146.3707  138.7728  152.5539 H   0  0  0  0  0  0  0  0  0  0  0  0
  145.6534  140.3289  152.9086 H   0  0  0  0  0  0  0  0  0  0  0  0
  146.8044  142.0665  154.2581 H   0  0  0  0  0  0  0  0  0  0  0  0
  148.7829  142.5819  155.4674 H   0  0  0  0  0  0  0  0  0  0  0  0
  150.3450  139.4129  157.1900 H   0  0  0  0  0  0  0  0  0  0  0  0
  152.0924  139.3708  156.8738 H   0  0  0  0  0  0  0  0  0  0  0  0
  151.0991  140.5162  159.1755 H   0  0  0  0  0  0  0  0  0  0  0  0
  152.4870  141.2146  158.3313 H   0  0  0  0  0  0  0  0  0  0  0  0
  150.4323  143.5246  159.5035 H   0  0  0  0  0  0  0  0  0  0  0  0
  152.0571  143.4592  158.8376 H   0  0  0  0  0  0  0  0  0  0  0  0
  149.9792  144.3533  157.2016 H   0  0  0  0  0  0  0  0  0  0  0  0
  1  2  1  0  0  0  0
  1 18  1  0  0  0  0
  1 19  1  0  0  0  0
  2 15  2  0  0  0  0
  2  3  1  0  0  0  0
  3  4  2  0  0  0  0
  3 20  1  0  0  0  0
  4  5  1  0  0  0  0
  4 21  1  0  0  0  0
  5  6  1  0  0  0  0
  5 13  1  0  0  0  0
  6 16  1  0  0  0  0
  6 12  1  0  0  0  0
  6  7  1  0  0  0  0
  7  8  1  0  0  0  0
  7 22  1  0  0  0  0
  7 23  1  0  0  0  0
  8  9  1  0  0  0  0
  8 24  1  0  0  0  0
  8 25  1  0  0  0  0
  9 17  1  0  0  0  0
  9 10  1  0  0  0  0
  9 12  1  0  0  0  0
 10 11  1  0  0  0  0
 10 26  1  0  0  0  0
 10 27  1  0  0  0  0
 11 28  1  0  0  0  0
 13 14  2  0  0  0  0
 13 15  1  0  0  0  0
M  END
> <s_m_source_file>
AV-unprocessed.smi

> <i_m_source_file_index>
159

> <i_lp_mmshare_version>
43012

> <i_f3d_flags>
0

> <s_epik_input>
W05IMl1jMVtjSF1bY0hdbihjKD1PKW4xKVtDQEhdMltDSDJdW0NIMl1bQ0BIXShPMilbQ0gyXVtPSF0=

> <s_epik_cmdline>
J2VwaWtfcHl0aG9uJywgJy1waCcsICc3LjAnLCAnLXRuJywgJzgnLCAnLW1hJywgJzIwMCcsICctbWV0YWxfYmluZGluZycsICctaW1hZScsICc8aW5maWxlLm1hZT4nLCAnLW9tYWUnLCAnPG91dGZpbGUubWFlPic=

> <r_lp_tautomer_probability>
0.99996

> <r_epik_Ionization_Penalty>
0.00126102

> <r_epik_Ionization_Penalty_Charging>
4.46248e-08

> <r_epik_Ionization_Penalty_Neutral>
0.00126097

> <r_epik_State_Penalty>
1.15523e-05

> <r_epik_Charging_Adjusted_Penalty>
1.1597e-05

> <i_epik_Tot_Q>
0

> <i_epik_Tot_abs_Q>
0

> <r_epik_Metal_State_Penalty>
-0

> <b_epik_Metal_Only>
0

> <s_epik_Chemistry_Notes>
This compound contains an acetal/aminal-like group ( X-CH(R)-Y where X, Y are N, S, or O) that may be acid/base labile, releasing an aldehyde.

> <s_lp_Force_Field>
OPLS_2005

> <r_lp_Energy>
23.8013

> <b_lp_Chiralities_Consistent>
1

> <s_lp_Variant>
AV-unprocessed.smi:159-2

> <Gold.Version>
5.8.1

> <Gold.Id.Protein>
6NUR|6NUR_protein|mol2

> <Gold.PLP.Fitness>
34.1690

> <Gold.PLP.PLP>
-25.9726

> <Gold.PLP.part.hbond>
-2.6685

> <Gold.PLP.part.metal>
0.0000

> <Gold.PLP.part.buried>
-3.9773

> <Gold.PLP.part.nonpolar>
-20.5319

> <Gold.PLP.part.repulsive>
1.3772

> <Gold.PLP.ligand.clash>
0.0000

> <Gold.PLP.ligand.torsion>
0.2333

> <Gold.PLP.Chemscore.Hbond>
1.8800

> <Gold.PLP.Chemscore.CHOScore>
1.0000

> <Gold.PLP.Chemscore.Metal>
0.0000

> <Gold.Chemscore.Hbonds>
donor molecule, donor type, donor heavy atom, donor atom, acceptor molecule, acceptor atom, score
      L1  H     1    19       P1 10175  0.88
      L1  H    11    28       P1  8028  0.99
      L1  C     4    21       P1  8028  1.00

> <Gold.PLP.Chemscore.Internal.Correction>
0.0230

> <Gold.Rescore>
     Score         DG    S(hbond)    S(metal)    S(lipo)     H(rot)  DE(clash)    DE(int)     intcor
      9.56     -10.86       1.82        0.00      39.85       2.09       0.05       1.26       ----

> <Gold.Chemscore.Fitness>
9.5556

> <Gold.Chemscore.DG>
-10.8630

> <Gold.Chemscore.ZeroCoef>
-5.4800

> <Gold.Chemscore.Hbond>
1.8202

> <Gold.Chemscore.Metal>
0.0000

> <Gold.Chemscore.Lipo>
39.8548

> <Gold.Chemscore.Internal_Hbond>
0.0000

> <Gold.Chemscore.DEClash>
0.0500

> <Gold.Chemscore.DEInternal>
1.2574

> <Gold.Chemscore.Rot>
2.0935

> <Gold.Chemscore.Internal.Correction>
   9.000000E+99

> <Gold.Chemscore.Hbonds>
donor molecule, donor type, donor heavy atom, donor atom, acceptor molecule, acceptor atom, score
      L1  H     1    19       P1 10175  0.74
      L1  H    11    28       P1  8028  0.52

> <Gold.Chemscore.Hbond.Weighted>
-6.0794

> <Gold.Chemscore.Metal.Weighted>
-0.0000

> <Gold.Chemscore.Lipo.Weighted>
-4.6630

> <Gold.Chemscore.Internal_Hbond.Weighted>
0.0000

> <Gold.Chemscore.DEClash.Weighted>
0.0500

> <Gold.Chemscore.DEInternal.Weighted>
1.2574

> <Gold.Chemscore.Rot.Weighted>
5.3594

> <Gold.Chemscore.Internal.Correction.Weighted>
   9.000000E+99

> <Gold.Protein.RotatedTorsions>
[ 6907 6896 6895 6894 ] final  101.73 input  -60.11 | X-H torsion
[ 7974 7965 7964 7962 ] final   53.66 input  175.53 | X-H torsion
[ 8008 7997 7996 7995 ] final   -4.92 input   59.86 | X-H torsion
[ 10167 10162 10161 10158 ] final  -83.99 input  -65.29 | X-H torsion
[ 10718 10713 10712 10709 ] final   86.32 input   66.30 | X-H torsion
[ 10763 10752 10751 10750 ] final -106.29 input  -60.55 | X-H torsion
[ 11005 11000 10999 10996 ] final   50.25 input  -57.11 | X-H torsion

> <Gold.Protein.ActiveResidues>
 VAL166  LYS551  ARG553  GLY616  TRP617  ASP618  TYR619  PRO620  LYS621  CYS622 
 ASP623  PHE694  ASN695  SER759  ASP760  ASP761  ALA762  ILE779  LEU786  VAL792 
 PHE793  MET794  SER795  GLU796  ALA797  LYS798  CYS799  TRP800  GLU811  SER814 

> <Gold.Protein.RotatedAtoms>
  152.5342  134.0082  159.7925 H   0  0  0  0  0  0  0  0  0  0  0  0  # atno 6907 bound_to 6896
  151.0289  133.5801  159.2670 H   0  0  0  0  0  0  0  0  0  0  0  0  # atno 6908 bound_to 6896
  151.2813  135.0722  159.9224 H   0  0  0  0  0  0  0  0  0  0  0  0  # atno 6909 bound_to 6896
  145.9689  139.4129  143.0202 H   0  0  0  0  0  0  0  0  0  0  0  0  # atno 7974 bound_to 7965
  154.6092  140.2471  155.7690 H   0  0  0  0  0  0  0  0  0  0  0  0  # atno 8008 bound_to 7997
  156.2360  140.2950  156.0265 H   0  0  0  0  0  0  0  0  0  0  0  0  # atno 8009 bound_to 7997
  155.2080  140.0396  157.2919 H   0  0  0  0  0  0  0  0  0  0  0  0  # atno 8010 bound_to 7997
  140.4175  143.2598  151.8935 H   0  0  0  0  0  0  0  0  0  0  0  0  # atno 10167 bound_to 10162
  157.6927  131.0211  150.2955 H   0  0  0  0  0  0  0  0  0  0  0  0  # atno 10718 bound_to 10713
  154.8002  135.4717  154.0258 H   0  0  0  0  0  0  0  0  0  0  0  0  # atno 10763 bound_to 10752
  153.1769  135.6834  153.8537 H   0  0  0  0  0  0  0  0  0  0  0  0  # atno 10764 bound_to 10752
  153.8100  135.3218  155.3377 H   0  0  0  0  0  0  0  0  0  0  0  0  # atno 10765 bound_to 10752
  140.1033  134.5052  155.8742 H   0  0  0  0  0  0  0  0  0  0  0  0  # atno 11005 bound_to 11000
  145.7935  140.9804  143.1036 LP  0  0  0  0  0  0  0  0  0  0  0  0  # atno 17320 bound_to 7965
  144.6832  139.9712  143.7482 LP  0  0  0  0  0  0  0  0  0  0  0  0  # atno 17321 bound_to 7965
  139.4782  144.5473  151.8439 LP  0  0  0  0  0  0  0  0  0  0  0  0  # atno 17342 bound_to 10162
  140.4571  144.1774  150.5902 LP  0  0  0  0  0  0  0  0  0  0  0  0  # atno 17343 bound_to 10162
  156.3480  130.3826  149.7353 LP  0  0  0  0  0  0  0  0  0  0  0  0  # atno 17370 bound_to 10713
  156.4840  130.8054  151.3067 LP  0  0  0  0  0  0  0  0  0  0  0  0  # atno 17371 bound_to 10713
  141.2111  133.6703  156.6561 LP  0  0  0  0  0  0  0  0  0  0  0  0  # atno 17394 bound_to 11000
  140.3190  134.8023  157.4237 LP  0  0  0  0  0  0  0  0  0  0  0  0  # atno 17395 bound_to 11000

$$$$
