#       Name:                AV-unprocessed.smi:221
#       Creating user name   scv26
#       Creation time:       Thu Mar 26 20:12:55 2020


#       File generated by GOLD software.
#

@<TRIPOS>MOLECULE
AV-unprocessed.smi:221
    60    63     1
SMALL
NO_CHARGES


@<TRIPOS>ATOM
      1 ****        -2.8860   3.0531  -2.7615 N.am           1 S1                 0.0000
      2 ****        -2.2782   3.4519  -1.6418 C.2            1 S1                 0.0000
      3 ****        -1.2607   4.1425  -1.6602 O.2            1 S1                 0.0000
      4 ****        -2.9194   3.0242  -0.3141 C.3            1 S1                 0.0000
      5 ****        -3.7392   4.1644   0.3200 C.3            1 S1                 0.0000
      6 ****        -3.5809   3.9282   1.8156 C.3            1 S1                 0.0000
      7 ****        -3.8080   5.0266   2.5355 F              1 S1                 0.0000
      8 ****        -2.1382   3.4490   1.9101 C.3            1 S1                 0.0000
      9 ****        -1.9090   2.6725   0.6931 N.3            1 S1                 0.0000
     10 ****        -1.6987   1.3389   0.8188 C.ar           1 S1                 0.0000
     11 ****        -2.3932   0.6221   1.7421 N.ar           1 S1                 0.0000
     12 ****        -2.2106  -0.6978   1.8424 C.ar           1 S1                 0.0000
     13 ****        -1.4017  -1.4850   1.1302 N.ar           1 S1                 0.0000
     14 ****        -0.7063  -0.7699   0.1997 C.ar           1 S1                 0.0000
     15 ****        -0.7997   0.6322  -0.0248 C.ar           1 S1                 0.0000
     16 ****         0.0452   1.0038  -1.0619 N.2            1 S1                 0.0000
     17 ****         0.6050  -0.1152  -1.4320 C.2            1 S1                 0.0000
     18 ****         0.2344  -1.2275  -0.7080 N.pl3          1 S1                 0.0000
     19 ****         0.6882  -2.5961  -0.9116 C.3            1 S1                 0.0000
     20 ****         2.2347  -2.7610  -0.9133 C.3            1 S1                 0.0000
     21 ****         2.6166  -3.9552  -1.8196 C.3            1 S1                 0.0000
     22 ****         2.3764  -3.6548  -3.1793 O.3            1 S1                 0.0000
     23 ****         2.8543  -2.9466   0.5067 C.3            1 S1                 0.0000
     24 ****         2.4497  -1.9329   1.5686 C.3            1 S1                 0.0000
     25 ****         3.3480  -0.7371   1.2712 C.3            1 S1                 0.0000
     26 ****         4.5291  -1.2890   0.7000 O.3            1 S1                 0.0000
     27 ****         4.3697  -2.6937   0.5268 C.3            1 S1                 0.0000
     28 ****        -3.5816   2.1721  -0.4871 H              1 S1                 0.0000
     29 ****        -4.2677   3.1527   2.1574 H              1 S1                 0.0000
     30 ****        -2.4954   3.3031  -3.6584 H              1 S1                 0.0000
     31 ****        -3.7270   2.4968  -2.7095 H              1 S1                 0.0000
     32 ****        -3.3234   5.1402   0.0608 H              1 S1                 0.0000
     33 ****        -4.7833   4.1551   0.0063 H              1 S1                 0.0000
     34 ****        -1.4554   4.2994   1.8898 H              1 S1                 0.0000
     35 ****        -1.9439   2.9108   2.8389 H              1 S1                 0.0000
     36 ****        -2.7973  -1.1945   2.6010 H              1 S1                 0.0000
     37 ****         1.3135  -0.1555  -2.2464 H              1 S1                 0.0000
     38 ****         0.2409  -3.2458  -0.1586 H              1 S1                 0.0000
     39 ****         0.2638  -2.9138  -1.8641 H              1 S1                 0.0000
     40 ****         2.6862  -1.8729  -1.3564 H              1 S1                 0.0000
     41 ****         3.6705  -4.2124  -1.7315 H              1 S1                 0.0000
     42 ****         2.0541  -4.8468  -1.5407 H              1 S1                 0.0000
     43 ****         2.6295  -4.4011  -3.7011 H              1 S1                 0.0000
     44 ****         2.6261  -3.9541   0.8569 H              1 S1                 0.0000
     45 ****         1.3926  -1.6893   1.6052 H              1 S1                 0.0000
     46 ****         2.7041  -2.3297   2.5527 H              1 S1                 0.0000
     47 ****         2.8814  -0.0739   0.5423 H              1 S1                 0.0000
     48 ****         3.5717  -0.1554   2.1657 H              1 S1                 0.0000
     49 ****         4.8196  -3.1957   1.3848 H              1 S1                 0.0000
     50 ****         4.8998  -3.0348  -0.3610 H              1 S1                 0.0000
     51 ****        -0.8627   4.4231  -2.5336 LP             1 S1                 0.0000
     52 ****        -0.8314   4.4233  -0.8018 LP             1 S1                 0.0000
     53 ****        -1.0023   2.9525   0.3777 LP             1 S1                 0.0000
     54 ****        -3.0419   1.0835   2.3473 LP             1 S1                 0.0000
     55 ****        -1.3163  -2.4727   1.2619 LP             1 S1                 0.0000
     56 ****         0.1911   1.9185  -1.4386 LP             1 S1                 0.0000
     57 ****         2.9154  -2.8567  -3.4486 LP             1 S1                 0.0000
     58 ****         1.4046  -3.4622  -3.3155 LP             1 S1                 0.0000
     59 ****         5.3043  -1.1152   1.3074 LP             1 S1                 0.0000
     60 ****         4.6992  -0.8621  -0.1881 LP             1 S1                 0.0000
@<TRIPOS>BOND
    1    1    2 am    
    2    1   30 1     
    3    1   31 1     
    4    2    3 2     
    5    2    4 1     
    6    4   28 1     
    7    4    9 1     
    8    4    5 1     
    9    5    6 1     
   10    5   32 1     
   11    5   33 1     
   12    6   29 1     
   13    6    7 1     
   14    6    8 1     
   15    8    9 1     
   16    8   34 1     
   17    8   35 1     
   18    9   10 1     
   19   10   15 ar    
   20   10   11 ar    
   21   11   12 ar    
   22   12   13 ar    
   23   12   36 1     
   24   13   14 ar    
   25   14   18 1     
   26   14   15 ar    
   27   15   16 1     
   28   16   17 2     
   29   17   18 1     
   30   17   37 1     
   31   18   19 1     
   32   19   20 1     
   33   19   38 1     
   34   19   39 1     
   35   20   21 1     
   36   20   23 1     
   37   20   40 1     
   38   21   22 1     
   39   21   41 1     
   40   21   42 1     
   41   22   43 1     
   42   23   27 1     
   43   23   24 1     
   44   23   44 1     
   45   24   25 1     
   46   24   45 1     
   47   24   46 1     
   48   25   26 1     
   49   25   47 1     
   50   25   48 1     
   51   26   27 1     
   52   27   49 1     
   53   27   50 1     
   54    3   51 1     
   55    3   52 1     
   56    9   53 1     
   57   11   54 1     
   58   13   55 1     
   59   16   56 1     
   60   22   57 1     
   61   22   58 1     
   62   26   59 1     
   63   26   60 1     
@<TRIPOS>SUBSTRUCTURE
      1 S1             1
@<TRIPOS>SET
LONE_PAIRS      STATIC     ATOMS    <user>   **** ""
10 51 52 53 54 55 56 57 58 59 60
DONOR_HYDROGENS      STATIC     ATOMS    <user>   **** ""
3 30 31 43
ATOM$BLUE        STATIC     ATOMS    COLORGROUP SYSTEM
10 51 52 53 54 55 56 57 58 59 60
ATOM$RED        STATIC     ATOMS    COLORGROUP SYSTEM
3 30 31 43
