AV-unprocessed.smi:697|AV-procd|sdf|3389|dock8
  -GOLD-   22720 0373D 1   1.00000     0.00000
 Structure written by MMmdl.
 44 45  0  0  0  0  0  0  0  0  1 V2000
  150.8784  141.0728  156.1538 C   0  0  0  0  0  0  0  0  0  0  0  0
  150.1560  139.9007  156.5080 O   0  0  0  0  0  0  0  0  0  0  0  0
  150.8966  138.6791  156.5173 C   0  0  1  0  0  0  0  0  0  0  0  0
  152.0682  138.7834  157.5065 C   0  0  0  0  0  0  0  0  0  0  0  0
  149.9837  137.4426  156.6101 C   0  0  0  0  0  0  0  0  0  0  0  0
  150.8706  136.8179  155.5354 C   0  0  1  0  0  0  0  0  0  0  0  0
  150.1196  135.9956  154.5931 N   0  0  0  0  0  0  0  0  0  0  0  0
  149.7272  134.7376  154.8335 C   0  0  0  0  0  0  0  0  0  0  0  0
  149.9612  134.1497  155.8892 O   0  0  0  0  0  0  0  0  0  0  0  0
  149.0467  134.2388  153.7854 N   0  0  0  0  0  0  0  0  0  0  0  0
  148.4778  132.9649  153.6169 C   0  0  0  0  0  0  0  0  0  0  0  0
  149.1125  131.7895  153.8663 C   0  0  0  0  0  0  0  0  0  0  0  0
  148.4656  130.5042  153.6597 C   0  0  0  0  0  0  0  0  0  0  0  0
  149.1577  129.1972  154.0138 C   0  0  0  0  0  0  0  0  0  0  0  0
  150.4143  129.4066  154.4084 F   0  0  0  0  0  0  0  0  0  0  0  0
  148.5060  128.5955  155.0078 F   0  0  0  0  0  0  0  0  0  0  0  0
  149.1794  128.3683  152.9701 F   0  0  0  0  0  0  0  0  0  0  0  0
  147.1949  130.5359  153.2182 C   0  0  0  0  0  0  0  0  0  0  0  0
  146.5424  131.7388  152.9397 N   0  0  0  0  0  0  0  0  0  0  0  0
  147.0978  132.9604  153.1034 C   0  0  0  0  0  0  0  0  0  0  0  0
  146.4576  133.9751  152.8301 O   0  0  0  0  0  0  0  0  0  0  0  0
  151.1882  138.2526  155.0414 C   0  0  0  0  0  0  0  0  0  0  0  0
  150.2518  138.8403  153.9660 C   0  0  0  0  0  0  0  0  0  0  0  0
  152.6122  138.4800  154.5245 C   0  0  0  0  0  0  0  0  0  0  0  0
  145.5955  131.6777  152.5943 H   0  0  0  0  0  0  0  0  0  0  0  0
  150.2281  141.9396  156.2704 H   0  0  0  0  0  0  0  0  0  0  0  0
  151.2052  141.0513  155.1147 H   0  0  0  0  0  0  0  0  0  0  0  0
  151.7482  141.2257  156.7930 H   0  0  0  0  0  0  0  0  0  0  0  0
  152.7340  137.9233  157.4393 H   0  0  0  0  0  0  0  0  0  0  0  0
  151.7261  138.8240  158.5401 H   0  0  0  0  0  0  0  0  0  0  0  0
  152.6670  139.6750  157.3196 H   0  0  0  0  0  0  0  0  0  0  0  0
  150.0078  136.9276  157.5709 H   0  0  0  0  0  0  0  0  0  0  0  0
  148.9589  137.6267  156.2819 H   0  0  0  0  0  0  0  0  0  0  0  0
  151.7368  136.3129  155.9689 H   0  0  0  0  0  0  0  0  0  0  0  0
  149.8852  136.4120  153.7038 H   0  0  0  0  0  0  0  0  0  0  0  0
  148.8833  134.8730  153.0169 H   0  0  0  0  0  0  0  0  0  0  0  0
  150.1336  131.7715  154.2096 H   0  0  0  0  0  0  0  0  0  0  0  0
  146.5875  129.6589  153.0497 H   0  0  0  0  0  0  0  0  0  0  0  0
  150.3929  138.3550  152.9996 H   0  0  0  0  0  0  0  0  0  0  0  0
  150.4324  139.9058  153.8197 H   0  0  0  0  0  0  0  0  0  0  0  0
  149.1995  138.7293  154.2272 H   0  0  0  0  0  0  0  0  0  0  0  0
  152.7432  138.0752  153.5206 H   0  0  0  0  0  0  0  0  0  0  0  0
  153.3581  137.9961  155.1545 H   0  0  0  0  0  0  0  0  0  0  0  0
  152.8571  139.5418  154.4860 H   0  0  0  0  0  0  0  0  0  0  0  0
  1  2  1  0  0  0  0
  1 26  1  0  0  0  0
  1 27  1  0  0  0  0
  1 28  1  0  0  0  0
  2  3  1  0  0  0  0
  3 22  1  0  0  0  0
  3  4  1  0  0  0  0
  3  5  1  0  0  0  0
  4 29  1  0  0  0  0
  4 30  1  0  0  0  0
  4 31  1  0  0  0  0
  5  6  1  0  0  0  0
  5 32  1  0  0  0  0
  5 33  1  0  0  0  0
  6  7  1  0  0  0  0
  6 22  1  0  0  0  0
  6 34  1  0  0  0  0
  7  8  1  0  0  0  0
  7 35  1  0  0  0  0
  8  9  2  0  0  0  0
  8 10  1  0  0  0  0
 10 11  1  0  0  0  0
 10 36  1  0  0  0  0
 11 20  1  0  0  0  0
 11 12  2  0  0  0  0
 12 13  1  0  0  0  0
 12 37  1  0  0  0  0
 13 14  1  0  0  0  0
 13 18  2  0  0  0  0
 14 15  1  0  0  0  0
 14 16  1  0  0  0  0
 14 17  1  0  0  0  0
 18 19  1  0  0  0  0
 18 38  1  0  0  0  0
 19 25  1  0  0  0  0
 19 20  1  0  0  0  0
 20 21  2  0  0  0  0
 22 23  1  0  0  0  0
 22 24  1  0  0  0  0
 23 39  1  0  0  0  0
 23 40  1  0  0  0  0
 23 41  1  0  0  0  0
 24 42  1  0  0  0  0
 24 43  1  0  0  0  0
 24 44  1  0  0  0  0
M  END
> <s_m_source_file>
AV-unprocessed.smi

> <i_m_source_file_index>
697

> <i_lp_mmshare_version>
43012

> <i_f3d_flags>
0

> <s_epik_input>
W0NIM11PW0NAQF0xKFtDSDNdKVtDSDJdW0NASF0oQzEoW0NIM10pW0NIM10pW05IXUMoPU8pW05IXWMyW2NIXWMoQyhGKShGKUYpW2NIXVtuSF1jMj1P

> <s_epik_cmdline>
J2VwaWtfcHl0aG9uJywgJy1waCcsICc3LjAnLCAnLXRuJywgJzgnLCAnLW1hJywgJzIwMCcsICctbWV0YWxfYmluZGluZycsICctaW1hZScsICc8aW5maWxlLm1hZT4nLCAnLW9tYWUnLCAnPG91dGZpbGUubWFlPic=

> <r_lp_tautomer_probability>
1

> <r_epik_Ionization_Penalty>
0.0036482

> <r_epik_Ionization_Penalty_Charging>
0.00362828

> <r_epik_Ionization_Penalty_Neutral>
1.99208e-05

> <r_epik_State_Penalty>
-0

> <r_epik_Charging_Adjusted_Penalty>
0.00362828

> <i_epik_Tot_Q>
0

> <i_epik_Tot_abs_Q>
0

> <r_epik_Metal_State_Penalty>
0.369362

> <b_epik_Metal_Only>
0

> <s_lp_Force_Field>
OPLS_2005

> <r_lp_Energy>
34.4926

> <b_lp_Chiralities_Consistent>
1

> <s_lp_Variant>
AV-unprocessed.smi:697-1

> <Gold.Version>
5.8.1

> <Gold.Id.Protein>
6NUR|6NUR_protein|mol2

> <Gold.PLP.Fitness>
39.6217

> <Gold.PLP.PLP>
-34.8019

> <Gold.PLP.part.hbond>
-2.1825

> <Gold.PLP.part.metal>
0.0000

> <Gold.PLP.part.buried>
-4.0409

> <Gold.PLP.part.nonpolar>
-29.7069

> <Gold.PLP.part.repulsive>
0.1771

> <Gold.PLP.ligand.clash>
0.0000

> <Gold.PLP.ligand.torsion>
0.6803

> <Gold.PLP.Chemscore.Hbond>
1.9260

> <Gold.PLP.Chemscore.CHOScore>
0.0000

> <Gold.PLP.Chemscore.Metal>
0.0000

> <Gold.Chemscore.Hbonds>
donor molecule, donor type, donor heavy atom, donor atom, acceptor molecule, acceptor atom, score
      L1  H     7    35       P1  7948  0.97
      L1  H    10    36       P1  7948  0.85

> <Gold.PLP.Chemscore.Internal.Correction>
0.4025

> <Gold.Rescore>
     Score         DG    S(hbond)    S(metal)    S(lipo)     H(rot)  DE(clash)    DE(int)     intcor
     14.43     -15.39       1.74        0.00      63.49       1.31       0.22       0.74       ----

> <Gold.Chemscore.Fitness>
14.4306

> <Gold.Chemscore.DG>
-15.3887

> <Gold.Chemscore.ZeroCoef>
-5.4800

> <Gold.Chemscore.Hbond>
1.7438

> <Gold.Chemscore.Metal>
0.0000

> <Gold.Chemscore.Lipo>
63.4899

> <Gold.Chemscore.Internal_Hbond>
0.0000

> <Gold.Chemscore.DEClash>
0.2199

> <Gold.Chemscore.DEInternal>
0.7382

> <Gold.Chemscore.Rot>
1.3062

> <Gold.Chemscore.Internal.Correction>
   9.000000E+99

> <Gold.Chemscore.Hbonds>
donor molecule, donor type, donor heavy atom, donor atom, acceptor molecule, acceptor atom, score
      L1  H     7    35       P1  7948  0.22
      L1  H    10    36       P1  7948  0.15

> <Gold.Chemscore.Hbond.Weighted>
-5.8244

> <Gold.Chemscore.Metal.Weighted>
-0.0000

> <Gold.Chemscore.Lipo.Weighted>
-7.4283

> <Gold.Chemscore.Internal_Hbond.Weighted>
0.0000

> <Gold.Chemscore.DEClash.Weighted>
0.2199

> <Gold.Chemscore.DEInternal.Weighted>
0.7382

> <Gold.Chemscore.Rot.Weighted>
3.3440

> <Gold.Chemscore.Internal.Correction.Weighted>
   9.000000E+99

> <Gold.Protein.RotatedTorsions>
[ 6907 6896 6895 6894 ] final   45.35 input  -60.11 | X-H torsion
[ 7974 7965 7964 7962 ] final   97.64 input  175.53 | X-H torsion
[ 8008 7997 7996 7995 ] final   56.22 input   59.86 | X-H torsion
[ 10167 10162 10161 10158 ] final -144.66 input  -65.29 | X-H torsion
[ 10718 10713 10712 10709 ] final  177.45 input   66.30 | X-H torsion
[ 10763 10752 10751 10750 ] final  -65.28 input  -60.55 | X-H torsion
[ 11005 11000 10999 10996 ] final -156.91 input  -57.11 | X-H torsion

> <Gold.Protein.ActiveResidues>
 VAL166  LYS551  ARG553  GLY616  TRP617  ASP618  TYR619  PRO620  LYS621  CYS622 
 ASP623  PHE694  ASN695  SER759  ASP760  ASP761  ALA762  ILE779  LEU786  VAL792 
 PHE793  MET794  SER795  GLU796  ALA797  LYS798  CYS799  TRP800  GLU811  SER814 

> <Gold.Protein.RotatedAtoms>
  152.2435  134.8205  160.0456 H   0  0  0  0  0  0  0  0  0  0  0  0  # atno 6907 bound_to 6896
  151.8911  133.3511  159.3806 H   0  0  0  0  0  0  0  0  0  0  0  0  # atno 6908 bound_to 6896
  150.7061  134.4849  159.5532 H   0  0  0  0  0  0  0  0  0  0  0  0  # atno 6909 bound_to 6896
  145.4229  139.2319  143.3186 H   0  0  0  0  0  0  0  0  0  0  0  0  # atno 7974 bound_to 7965
  155.5139  140.3478  155.4394 H   0  0  0  0  0  0  0  0  0  0  0  0  # atno 8008 bound_to 7997
  156.0830  140.1391  156.9715 H   0  0  0  0  0  0  0  0  0  0  0  0  # atno 8009 bound_to 7997
  154.4591  140.0942  156.6818 H   0  0  0  0  0  0  0  0  0  0  0  0  # atno 8010 bound_to 7997
  139.7878  143.8009  152.2646 H   0  0  0  0  0  0  0  0  0  0  0  0  # atno 10167 bound_to 10162
  156.9052  130.9892  151.3029 H   0  0  0  0  0  0  0  0  0  0  0  0  # atno 10718 bound_to 10713
  154.3427  135.6153  153.5604 H   0  0  0  0  0  0  0  0  0  0  0  0  # atno 10763 bound_to 10752
  152.9803  135.5773  154.4835 H   0  0  0  0  0  0  0  0  0  0  0  0  # atno 10764 bound_to 10752
  154.4541  135.2854  155.1737 H   0  0  0  0  0  0  0  0  0  0  0  0  # atno 10765 bound_to 10752
  140.6703  134.4254  157.5232 H   0  0  0  0  0  0  0  0  0  0  0  0  # atno 11005 bound_to 11000
  146.2647  140.4955  142.8839 LP  0  0  0  0  0  0  0  0  0  0  0  0  # atno 17320 bound_to 7965
  144.8234  140.6587  143.6338 LP  0  0  0  0  0  0  0  0  0  0  0  0  # atno 17321 bound_to 7965
  139.8091  144.7343  150.9721 LP  0  0  0  0  0  0  0  0  0  0  0  0  # atno 17342 bound_to 10162
  140.7820  143.4268  151.0756 LP  0  0  0  0  0  0  0  0  0  0  0  0  # atno 17343 bound_to 10162
  157.6001  130.8506  149.8789 LP  0  0  0  0  0  0  0  0  0  0  0  0  # atno 17370 bound_to 10713
  156.0562  130.3708  150.1085 LP  0  0  0  0  0  0  0  0  0  0  0  0  # atno 17371 bound_to 10713
  139.8983  134.8615  156.2005 LP  0  0  0  0  0  0  0  0  0  0  0  0  # atno 17394 bound_to 11000
  141.0397  133.6944  156.1575 LP  0  0  0  0  0  0  0  0  0  0  0  0  # atno 17395 bound_to 11000

$$$$
