#       Name:                AV-unprocessed.smi:25
#       Creating user name   scv26
#       Creation time:       Thu Mar 26 15:44:10 2020


#       File generated by GOLD software.
#

@<TRIPOS>MOLECULE
AV-unprocessed.smi:25
    55    58     1
SMALL
NO_CHARGES


@<TRIPOS>ATOM
      1 ****        -3.4136  -2.1365   0.7097 C.3            1 S1                 0.0000
      2 ****        -2.7463  -2.4242  -0.6502 C.3            1 S1                 0.0000
      3 ****        -2.9383  -3.8982  -1.0726 C.3            1 S1                 0.0000
      4 ****        -1.5423  -4.4398  -1.0666 C.ar           1 S1                 0.0000
      5 ****        -1.1748  -5.7778  -1.2910 C.ar           1 S1                 0.0000
      6 ****         0.1909  -6.1177  -1.2179 C.ar           1 S1                 0.0000
      7 ****         1.1519  -5.1282  -0.9158 C.ar           1 S1                 0.0000
      8 ****         0.7638  -3.7889  -0.6926 C.ar           1 S1                 0.0000
      9 ****        -0.6068  -3.4453  -0.7857 C.ar           1 S1                 0.0000
     10 ****        -1.2826  -2.1993  -0.6094 N.am           1 S1                 0.0000
     11 ****        -0.7794  -0.9342  -0.5751 C.2            1 S1                 0.0000
     12 ****        -1.5287   0.0453  -0.5435 O.2            1 S1                 0.0000
     13 ****         0.7396  -0.6756  -0.6030 C.3            1 S1                 0.0000
     14 ****         1.1017   0.7606  -0.6460 N.am           1 S1                 0.0000
     15 ****         1.2280   1.3925  -1.9089 C.2            1 S1                 0.0000
     16 ****         1.0524   0.7678  -2.9562 O.2            1 S1                 0.0000
     17 ****         1.5627   2.8118  -1.8735 C.2            1 S1                 0.0000
     18 ****         1.6946   3.4939  -3.0238 F              1 S1                 0.0000
     19 ****         1.7384   3.4547  -0.7010 C.2            1 S1                 0.0000
     20 ****         1.6173   2.8248   0.5235 N.am           1 S1                 0.0000
     21 ****         1.8057   3.5871   1.8151 C.3            1 S1                 0.0000
     22 ****         0.4751   4.1989   2.2700 C.3            1 S1                 0.0000
     23 ****         0.5959   5.6242   1.7747 C.3            1 S1                 0.0000
     24 ****         2.0909   5.8753   1.9279 C.3            1 S1                 0.0000
     25 ****         2.7058   4.6352   1.5951 O.3            1 S1                 0.0000
     26 ****         1.2744   1.4565   0.5752 C.2            1 S1                 0.0000
     27 ****         1.1172   0.8877   1.6577 O.2            1 S1                 0.0000
     28 ****        -4.4792  -2.3642   0.6749 H              1 S1                 0.0000
     29 ****        -3.3186  -1.0902   0.9992 H              1 S1                 0.0000
     30 ****        -2.9710  -2.7417   1.5017 H              1 S1                 0.0000
     31 ****        -3.1988  -1.7850  -1.4109 H              1 S1                 0.0000
     32 ****        -3.5727  -4.4597  -0.3857 H              1 S1                 0.0000
     33 ****        -3.3591  -3.9757  -2.0756 H              1 S1                 0.0000
     34 ****        -1.9201  -6.5287  -1.5089 H              1 S1                 0.0000
     35 ****         0.5023  -7.1385  -1.3839 H              1 S1                 0.0000
     36 ****         2.1951  -5.4001  -0.8498 H              1 S1                 0.0000
     37 ****         1.5392  -3.0866  -0.4466 H              1 S1                 0.0000
     38 ****         1.1826  -1.1386   0.2784 H              1 S1                 0.0000
     39 ****         1.1724  -1.1907  -1.4610 H              1 S1                 0.0000
     40 ****         1.9781   4.5071  -0.7333 H              1 S1                 0.0000
     41 ****         2.2360   2.8861   2.5318 H              1 S1                 0.0000
     42 ****        -0.3879   3.6619   1.8740 H              1 S1                 0.0000
     43 ****         0.4365   4.1754   3.3597 H              1 S1                 0.0000
     44 ****         0.3070   5.6859   0.7250 H              1 S1                 0.0000
     45 ****        -0.0154   6.3279   2.3400 H              1 S1                 0.0000
     46 ****         2.4506   6.6848   1.2927 H              1 S1                 0.0000
     47 ****         2.3310   6.1208   2.9631 H              1 S1                 0.0000
     48 ****        -2.5204  -0.0836  -0.5428 LP             1 S1                 0.0000
     49 ****        -1.1445   0.9682  -0.5186 LP             1 S1                 0.0000
     50 ****         0.8160  -0.2034  -2.9255 LP             1 S1                 0.0000
     51 ****         1.1462   1.2319  -3.8370 LP             1 S1                 0.0000
     52 ****         2.9745   4.6456   0.6319 LP             1 S1                 0.0000
     53 ****         3.5161   4.5025   2.1658 LP             1 S1                 0.0000
     54 ****         0.8639  -0.0794   1.6822 LP             1 S1                 0.0000
     55 ****         1.2429   1.3934   2.5112 LP             1 S1                 0.0000
@<TRIPOS>BOND
    1    1    2 1     
    2    1   28 1     
    3    1   29 1     
    4    1   30 1     
    5    2   10 1     
    6    2    3 1     
    7    2   31 1     
    8    3    4 1     
    9    3   32 1     
   10    3   33 1     
   11    4    9 ar    
   12    4    5 ar    
   13    5    6 ar    
   14    5   34 1     
   15    6    7 ar    
   16    6   35 1     
   17    7    8 ar    
   18    7   36 1     
   19    8    9 ar    
   20    8   37 1     
   21    9   10 1     
   22   10   11 am    
   23   11   12 2     
   24   11   13 1     
   25   13   14 1     
   26   13   38 1     
   27   13   39 1     
   28   14   26 am    
   29   14   15 am    
   30   15   16 2     
   31   15   17 1     
   32   17   18 1     
   33   17   19 2     
   34   19   20 1     
   35   19   40 1     
   36   20   21 1     
   37   20   26 am    
   38   21   25 1     
   39   21   22 1     
   40   21   41 1     
   41   22   23 1     
   42   22   42 1     
   43   22   43 1     
   44   23   24 1     
   45   23   44 1     
   46   23   45 1     
   47   24   25 1     
   48   24   46 1     
   49   24   47 1     
   50   26   27 2     
   51   12   48 1     
   52   12   49 1     
   53   16   50 1     
   54   16   51 1     
   55   25   52 1     
   56   25   53 1     
   57   27   54 1     
   58   27   55 1     
@<TRIPOS>SUBSTRUCTURE
      1 S1             1
@<TRIPOS>SET
LONE_PAIRS      STATIC     ATOMS    <user>   **** ""
8 48 49 50 51 52 53 54 55
ATOM$BLUE        STATIC     ATOMS    COLORGROUP SYSTEM
8 48 49 50 51 52 53 54 55
