AV-unprocessed.smi:786|AV-procd|sdf|3724|dock3
  -GOLD-   22720 1153D 1   1.00000     0.00000
 Structure written by MMmdl.
 39 40  0  0  0  0  0  0  0  0  3 V2000
  153.0403  139.4493  155.2738 O   0  0  0  0  0  0  0  0  0  0  0  0
  151.5807  139.3808  155.4462 S   0  0  0  0  0  0  0  0  0  0  0  0
  150.7839  140.3980  154.7414 O   0  0  0  0  0  0  0  0  0  0  0  0
  151.0335  137.7552  154.7452 C   0  0  0  0  0  0  0  0  0  0  0  0
  150.7626  136.6387  155.7833 C   0  0  0  0  0  0  0  0  0  0  0  0
  150.8303  135.2051  155.2237 C   0  0  0  0  0  0  0  0  0  0  0  0
  150.4264  134.1727  156.2896 C   0  0  0  0  0  0  0  0  0  0  0  0
  149.1314  134.4668  156.7996 O   0  0  0  0  0  0  0  0  0  0  0  0
  149.0737  135.7315  157.4478 C   0  0  0  0  0  0  0  0  0  0  0  0
  149.3862  136.8474  156.4386 C   0  0  0  0  0  0  0  0  0  0  0  0
  151.1311  139.2251  156.9984 N   0  5  0  0  0  0  0  0  0  0  0  0
  150.7139  140.3885  157.7705 C   0  0  0  0  0  0  0  0  0  0  0  0
  151.1785  141.7171  157.1256 C   0  0  0  0  0  0  0  0  0  0  0  0
  151.2203  142.9151  158.0689 C   0  0  0  0  0  0  0  0  0  0  0  0
  152.0694  142.9549  159.1985 C   0  0  0  0  0  0  0  0  0  0  0  0
  152.0625  144.0949  160.0290 C   0  0  0  0  0  0  0  0  0  0  0  0
  151.2121  145.1748  159.7136 C   0  0  0  0  0  0  0  0  0  0  0  0
  150.3891  145.0877  158.5726 C   0  0  0  0  0  0  0  0  0  0  0  0
  150.4247  143.9792  157.8023 N   0  3  0  0  0  0  0  0  0  0  0  0
  150.1280  137.9471  154.1696 H   0  0  0  0  0  0  0  0  0  0  0  0
  151.7969  137.4366  154.0354 H   0  0  0  0  0  0  0  0  0  0  0  0
  151.5104  136.7206  156.5729 H   0  0  0  0  0  0  0  0  0  0  0  0
  150.1761  135.1128  154.3560 H   0  0  0  0  0  0  0  0  0  0  0  0
  151.8387  134.9674  154.8897 H   0  0  0  0  0  0  0  0  0  0  0  0
  150.4140  133.1733  155.8547 H   0  0  0  0  0  0  0  0  0  0  0  0
  151.1522  134.1541  157.1042 H   0  0  0  0  0  0  0  0  0  0  0  0
  148.0746  135.8700  157.8610 H   0  0  0  0  0  0  0  0  0  0  0  0
  149.7715  135.7570  158.2864 H   0  0  0  0  0  0  0  0  0  0  0  0
  149.3501  137.8157  156.9389 H   0  0  0  0  0  0  0  0  0  0  0  0
  148.6108  136.8643  155.6715 H   0  0  0  0  0  0  0  0  0  0  0  0
  149.6284  140.4174  157.8695 H   0  0  0  0  0  0  0  0  0  0  0  0
  151.0931  140.3434  158.7916 H   0  0  0  0  0  0  0  0  0  0  0  0
  152.1806  141.5747  156.7199 H   0  0  0  0  0  0  0  0  0  0  0  0
  150.5545  141.9611  156.2654 H   0  0  0  0  0  0  0  0  0  0  0  0
  152.7143  142.1195  159.4286 H   0  0  0  0  0  0  0  0  0  0  0  0
  152.7020  144.1398  160.8982 H   0  0  0  0  0  0  0  0  0  0  0  0
  151.1910  146.0558  160.3380 H   0  0  0  0  0  0  0  0  0  0  0  0
  149.7069  145.8627  158.2554 H   0  0  0  0  0  0  0  0  0  0  0  0
  149.8144  143.9318  156.9843 H   0  0  0  0  0  0  0  0  0  0  0  0
  1  2  2  0  0  0  0
  2  3  2  0  0  0  0
  2  4  1  0  0  0  0
  2 11  1  0  0  0  0
  4  5  1  0  0  0  0
  4 20  1  0  0  0  0
  4 21  1  0  0  0  0
  5 10  1  0  0  0  0
  5  6  1  0  0  0  0
  5 22  1  0  0  0  0
  6  7  1  0  0  0  0
  6 23  1  0  0  0  0
  6 24  1  0  0  0  0
  7  8  1  0  0  0  0
  7 25  1  0  0  0  0
  7 26  1  0  0  0  0
  8  9  1  0  0  0  0
  9 10  1  0  0  0  0
  9 27  1  0  0  0  0
  9 28  1  0  0  0  0
 10 29  1  0  0  0  0
 10 30  1  0  0  0  0
 11 12  1  0  0  0  0
 12 13  1  0  0  0  0
 12 31  1  0  0  0  0
 12 32  1  0  0  0  0
 13 14  1  0  0  0  0
 13 33  1  0  0  0  0
 13 34  1  0  0  0  0
 14 19  1  0  0  0  0
 14 15  2  0  0  0  0
 15 16  1  0  0  0  0
 15 35  1  0  0  0  0
 16 17  2  0  0  0  0
 16 36  1  0  0  0  0
 17 18  1  0  0  0  0
 17 37  1  0  0  0  0
 18 19  2  0  0  0  0
 18 38  1  0  0  0  0
 19 39  1  0  0  0  0
M  CHG  1  11  -1
M  CHG  1  19   1
M  END
> <s_m_source_file>
AV-unprocessed.smi

> <i_m_source_file_index>
786

> <i_lp_mmshare_version>
43012

> <i_f3d_flags>
0

> <s_epik_input>
W0NIMl0xW0NIMl1PW0NIMl1bQ0gyXVtDSF0xW0NIMl1TKD1PKSg9TylbTkhdW0NIMl1bQ0gyXWMyW2NIXVtjSF1bY0hdW2NIXW4y

> <s_epik_cmdline>
J2VwaWtfcHl0aG9uJywgJy1waCcsICc3LjAnLCAnLXRuJywgJzgnLCAnLW1hJywgJzIwMCcsICctbWV0YWxfYmluZGluZycsICctaW1hZScsICc8aW5maWxlLm1hZT4nLCAnLW9tYWUnLCAnPG91dGZpbGUubWFlPic=

> <r_epik_Ionization_Penalty>
7.39271

> <r_epik_Ionization_Penalty_Charging>
7.39271

> <r_epik_Ionization_Penalty_Neutral>
5.66014e-11

> <r_epik_State_Penalty>
8.23716

> <r_epik_Charging_Adjusted_Penalty>
15.6299

> <i_epik_Tot_Q>
0

> <i_epik_Tot_abs_Q>
2

> <r_epik_Metal_State_Penalty>
4.19267

> <b_epik_Metal_Only>
1

> <s_lp_Force_Field>
OPLS_2005

> <r_lp_Energy>
3.22126

> <b_lp_Chiralities_Consistent>
1

> <s_lp_Variant>
AV-unprocessed.smi:786-4

> <Gold.Version>
5.8.1

> <Gold.Id.Protein>
6NUR|6NUR_protein|mol2

> <Gold.PLP.Fitness>
46.8047

> <Gold.PLP.PLP>
-36.4791

> <Gold.PLP.part.hbond>
-3.7535

> <Gold.PLP.part.metal>
0.0000

> <Gold.PLP.part.buried>
-5.0253

> <Gold.PLP.part.nonpolar>
-27.7407

> <Gold.PLP.part.repulsive>
0.1269

> <Gold.PLP.ligand.clash>
0.0000

> <Gold.PLP.ligand.torsion>
1.3675

> <Gold.PLP.Chemscore.Hbond>
4.0000

> <Gold.PLP.Chemscore.CHOScore>
0.0000

> <Gold.PLP.Chemscore.Metal>
0.0000

> <Gold.Chemscore.Hbonds>
donor molecule, donor type, donor heavy atom, donor atom, acceptor molecule, acceptor atom, score
      L1  H    19    39       P1  8028  1.98
      P1  H  7989  7998       L1     3  1.00
      P1  H  7997  8010       L1     1  1.00

> <Gold.PLP.Chemscore.Internal.Correction>
1.0608

> <Gold.Rescore>
     Score         DG    S(hbond)    S(metal)    S(lipo)     H(rot)  DE(clash)    DE(int)     intcor
     18.26     -21.34       2.86        0.00      90.71       1.68       0.04       3.04       ----

> <Gold.Chemscore.Fitness>
18.2596

> <Gold.Chemscore.DG>
-21.3391

> <Gold.Chemscore.ZeroCoef>
-5.4800

> <Gold.Chemscore.Hbond>
2.8603

> <Gold.Chemscore.Metal>
0.0000

> <Gold.Chemscore.Lipo>
90.7080

> <Gold.Chemscore.Internal_Hbond>
0.0000

> <Gold.Chemscore.DEClash>
0.0363

> <Gold.Chemscore.DEInternal>
3.0432

> <Gold.Chemscore.Rot>
1.6824

> <Gold.Chemscore.Internal.Correction>
   9.000000E+99

> <Gold.Chemscore.Hbonds>
donor molecule, donor type, donor heavy atom, donor atom, acceptor molecule, acceptor atom, score
      L1  H    19    39       P1  8028  0.86
      P1  H  7989  7998       L1     3  0.58
      P1  H  7997  8010       L1     1  1.00

> <Gold.Chemscore.Hbond.Weighted>
-9.5533

> <Gold.Chemscore.Metal.Weighted>
-0.0000

> <Gold.Chemscore.Lipo.Weighted>
-10.6128

> <Gold.Chemscore.Internal_Hbond.Weighted>
0.0000

> <Gold.Chemscore.DEClash.Weighted>
0.0363

> <Gold.Chemscore.DEInternal.Weighted>
3.0432

> <Gold.Chemscore.Rot.Weighted>
4.3070

> <Gold.Chemscore.Internal.Correction.Weighted>
   9.000000E+99

> <Gold.Protein.RotatedTorsions>
[ 6907 6896 6895 6894 ] final  102.25 input  -60.11 | X-H torsion
[ 7974 7965 7964 7962 ] final  -37.28 input  175.53 | X-H torsion
[ 8008 7997 7996 7995 ] final  103.89 input   59.86 | X-H torsion
[ 10167 10162 10161 10158 ] final   35.92 input  -65.29 | X-H torsion
[ 10718 10713 10712 10709 ] final -125.33 input   66.30 | X-H torsion
[ 10763 10752 10751 10750 ] final  178.59 input  -60.55 | X-H torsion
[ 11005 11000 10999 10996 ] final  -72.94 input  -57.11 | X-H torsion

> <Gold.Protein.ActiveResidues>
 VAL166  LYS551  ARG553  GLY616  TRP617  ASP618  TYR619  PRO620  LYS621  CYS622 
 ASP623  PHE694  ASN695  SER759  ASP760  ASP761  ALA762  ILE779  LEU786  VAL792 
 PHE793  MET794  SER795  GLU796  ALA797  LYS798  CYS799  TRP800  GLU811  SER814 

> <Gold.Protein.RotatedAtoms>
  152.5328  134.0003  159.7891 H   0  0  0  0  0  0  0  0  0  0  0  0  # atno 6907 bound_to 6896
  151.0223  133.5857  159.2677 H   0  0  0  0  0  0  0  0  0  0  0  0  # atno 6908 bound_to 6896
  151.2892  135.0744  159.9251 H   0  0  0  0  0  0  0  0  0  0  0  0  # atno 6909 bound_to 6896
  146.0589  140.6377  142.9006 H   0  0  0  0  0  0  0  0  0  0  0  0  # atno 7974 bound_to 7965
  156.1525  140.3157  155.8671 H   0  0  0  0  0  0  0  0  0  0  0  0  # atno 8008 bound_to 7997
  155.3943  140.0495  157.3056 H   0  0  0  0  0  0  0  0  0  0  0  0  # atno 8009 bound_to 7997
  154.5071  140.2151  155.9241 H   0  0  0  0  0  0  0  0  0  0  0  0  # atno 8010 bound_to 7997
  140.4176  144.1505  150.6145 H   0  0  0  0  0  0  0  0  0  0  0  0  # atno 10167 bound_to 10162
  156.1666  130.6638  151.0123 H   0  0  0  0  0  0  0  0  0  0  0  0  # atno 10718 bound_to 10713
  154.5096  135.2788  155.1353 H   0  0  0  0  0  0  0  0  0  0  0  0  # atno 10763 bound_to 10752
  154.2954  135.6258  153.5406 H   0  0  0  0  0  0  0  0  0  0  0  0  # atno 10764 bound_to 10752
  152.9916  135.5684  154.5558 H   0  0  0  0  0  0  0  0  0  0  0  0  # atno 10765 bound_to 10752
  141.1616  133.6862  156.7136 H   0  0  0  0  0  0  0  0  0  0  0  0  # atno 11005 bound_to 11000
  144.7163  140.4222  143.7042 LP  0  0  0  0  0  0  0  0  0  0  0  0  # atno 17320 bound_to 7965
  145.6595  139.1579  143.2816 LP  0  0  0  0  0  0  0  0  0  0  0  0  # atno 17321 bound_to 7965
  140.4569  143.2464  151.9273 LP  0  0  0  0  0  0  0  0  0  0  0  0  # atno 17342 bound_to 10162
  139.4782  144.5507  151.8391 LP  0  0  0  0  0  0  0  0  0  0  0  0  # atno 17343 bound_to 10162
  157.6772  131.0847  150.7464 LP  0  0  0  0  0  0  0  0  0  0  0  0  # atno 17370 bound_to 10713
  156.7524  130.4773  149.5454 LP  0  0  0  0  0  0  0  0  0  0  0  0  # atno 17371 bound_to 10713
  140.2869  134.8272  157.3982 LP  0  0  0  0  0  0  0  0  0  0  0  0  # atno 17394 bound_to 11000
  140.1382  134.5006  155.8052 LP  0  0  0  0  0  0  0  0  0  0  0  0  # atno 17395 bound_to 11000

$$$$
