AV-unprocessed.smi:21|AV-procd|sdf|141|dock2
  -GOLD-   2262015343D 1   1.00000     0.00000
 Structure written by MMmdl.
 62 65  0  0  0  0  0  0  0  0  2 V2000
  143.4973  134.8349  151.9229 C   0  0  0  0  0  0  0  0  0  0  0  0
  143.5808  133.4188  151.9061 O   0  0  0  0  0  0  0  0  0  0  0  0
  144.8867  132.9304  151.6381 C   0  0  1  0  0  0  0  0  0  0  0  0
  145.8232  133.0227  152.8385 C   0  0  0  0  0  0  0  0  0  0  0  0
  146.8937  131.9632  152.5423 C   0  0  1  0  0  0  0  0  0  0  0  0
  147.6258  131.4429  153.8041 C   0  0  0  0  0  0  0  0  0  0  0  0
  148.7082  132.3354  154.2310 N   0  0  0  0  0  0  0  0  0  0  0  0
  149.1462  133.3647  153.2957 C   0  0  0  0  0  0  0  0  0  0  0  0
  149.1384  132.3570  155.5277 C   0  0  0  0  0  0  0  0  0  0  0  0
  150.4725  132.4802  155.7627 N   0  0  0  0  0  0  0  0  0  0  0  0
  150.9545  132.5088  157.0070 C   0  0  0  0  0  0  0  0  0  0  0  0
  150.2883  132.4336  158.1576 N   0  0  0  0  0  0  0  0  0  0  0  0
  148.9478  132.3133  157.9456 C   0  0  0  0  0  0  0  0  0  0  0  0
  148.2932  132.2615  156.6787 C   0  0  0  0  0  0  0  0  0  0  0  0
  146.9246  132.1138  156.8798 N   0  0  0  0  0  0  0  0  0  0  0  0
  146.7808  132.0875  158.1752 C   0  0  0  0  0  0  0  0  0  0  0  0
  147.9444  132.2198  158.8962 N   0  0  0  0  0  0  0  0  0  0  0  0
  148.0783  132.2276  160.3472 C   0  0  0  0  0  0  0  0  0  0  0  0
  147.1373  133.2274  161.0751 C   0  0  1  0  0  0  0  0  0  0  0  0
  146.1718  132.5135  162.0502 C   0  0  0  0  0  0  0  0  0  0  0  0
  145.5095  131.4442  161.4078 O   0  0  0  0  0  0  0  0  0  0  0  0
  147.9172  134.3678  161.7821 C   0  0  2  0  0  0  0  0  0  0  0  0
  147.1363  135.1207  162.8467 C   0  0  0  0  0  0  0  0  0  0  0  0
  147.9320  136.4146  162.9919 C   0  0  0  0  0  0  0  0  0  0  0  0
  148.5427  136.6427  161.7266 O   0  0  0  0  0  0  0  0  0  0  0  0
  148.3004  135.5357  160.8665 C   0  0  0  0  0  0  0  0  0  0  0  0
  146.2140  130.9282  151.7074 N   0  3  1  0  0  0  0  0  0  0  0  0
  146.2198  129.5301  152.1994 C   0  0  0  0  0  0  0  0  0  0  0  0
  144.8570  131.4251  151.3834 C   0  0  0  0  0  0  0  0  0  0  0  0
  145.3242  133.4345  150.7739 H   0  0  0  0  0  0  0  0  0  0  0  0
  147.6333  132.4161  151.8802 H   0  0  0  0  0  0  0  0  0  0  0  0
  142.4644  135.1364  152.0956 H   0  0  0  0  0  0  0  0  0  0  0  0
  143.8153  135.2606  150.9703 H   0  0  0  0  0  0  0  0  0  0  0  0
  144.1061  135.2637  152.7193 H   0  0  0  0  0  0  0  0  0  0  0  0
  146.2449  134.0190  152.9757 H   0  0  0  0  0  0  0  0  0  0  0  0
  145.2760  132.7612  153.7453 H   0  0  0  0  0  0  0  0  0  0  0  0
  146.9175  131.2470  154.6085 H   0  0  0  0  0  0  0  0  0  0  0  0
  148.0846  130.4783  153.5863 H   0  0  0  0  0  0  0  0  0  0  0  0
  148.7418  134.3374  153.5766 H   0  0  0  0  0  0  0  0  0  0  0  0
  148.8065  133.1443  152.2836 H   0  0  0  0  0  0  0  0  0  0  0  0
  150.2344  133.4262  153.2685 H   0  0  0  0  0  0  0  0  0  0  0  0
  152.0265  132.6083  157.0928 H   0  0  0  0  0  0  0  0  0  0  0  0
  145.8125  131.9734  158.6384 H   0  0  0  0  0  0  0  0  0  0  0  0
  147.9086  131.2133  160.7090 H   0  0  0  0  0  0  0  0  0  0  0  0
  149.1179  132.4484  160.5912 H   0  0  0  0  0  0  0  0  0  0  0  0
  146.5214  133.6960  160.3058 H   0  0  0  0  0  0  0  0  0  0  0  0
  146.6953  132.1452  162.9326 H   0  0  0  0  0  0  0  0  0  0  0  0
  145.3985  133.1932  162.4054 H   0  0  0  0  0  0  0  0  0  0  0  0
  145.9581  131.2553  160.5977 H   0  0  0  0  0  0  0  0  0  0  0  0
  148.8195  133.9690  162.2473 H   0  0  0  0  0  0  0  0  0  0  0  0
  146.1274  135.3413  162.4944 H   0  0  0  0  0  0  0  0  0  0  0  0
  147.0575  134.5797  163.7901 H   0  0  0  0  0  0  0  0  0  0  0  0
  147.3043  137.2552  163.2882 H   0  0  0  0  0  0  0  0  0  0  0  0
  148.7179  136.2987  163.7391 H   0  0  0  0  0  0  0  0  0  0  0  0
  149.1723  135.3278  160.2478 H   0  0  0  0  0  0  0  0  0  0  0  0
  147.4734  135.7922  160.2026 H   0  0  0  0  0  0  0  0  0  0  0  0
  145.7185  129.4431  153.1641 H   0  0  0  0  0  0  0  0  0  0  0  0
  147.2366  129.1490  152.2940 H   0  0  0  0  0  0  0  0  0  0  0  0
  145.6983  128.8840  151.4924 H   0  0  0  0  0  0  0  0  0  0  0  0
  144.1303  130.9612  152.0532 H   0  0  0  0  0  0  0  0  0  0  0  0
  144.5708  131.1783  150.3606 H   0  0  0  0  0  0  0  0  0  0  0  0
  146.7228  130.9172  150.8347 H   0  0  0  0  0  0  0  0  0  0  0  0
  1  2  1  0  0  0  0
  1 32  1  0  0  0  0
  1 33  1  0  0  0  0
  1 34  1  0  0  0  0
  2  3  1  0  0  0  0
  3 30  1  0  0  0  0
  3 29  1  0  0  0  0
  3  4  1  0  0  0  0
  4  5  1  0  0  0  0
  4 35  1  0  0  0  0
  4 36  1  0  0  0  0
  5 31  1  0  0  0  0
  5  6  1  0  0  0  0
  5 27  1  0  0  0  0
  6  7  1  0  0  0  0
  6 37  1  0  0  0  0
  6 38  1  0  0  0  0
  7  8  1  0  0  0  0
  7  9  1  0  0  0  0
  8 39  1  0  0  0  0
  8 40  1  0  0  0  0
  8 41  1  0  0  0  0
  9 14  1  0  0  0  0
  9 10  2  0  0  0  0
 10 11  1  0  0  0  0
 11 12  2  0  0  0  0
 11 42  1  0  0  0  0
 12 13  1  0  0  0  0
 13 17  1  0  0  0  0
 13 14  2  0  0  0  0
 14 15  1  0  0  0  0
 15 16  2  0  0  0  0
 16 17  1  0  0  0  0
 16 43  1  0  0  0  0
 17 18  1  0  0  0  0
 18 19  1  0  0  0  0
 18 44  1  0  0  0  0
 18 45  1  0  0  0  0
 19 20  1  0  0  0  0
 19 22  1  0  0  0  0
 19 46  1  0  0  0  0
 20 21  1  0  0  0  0
 20 47  1  0  0  0  0
 20 48  1  0  0  0  0
 21 49  1  0  0  0  0
 22 26  1  0  0  0  0
 22 23  1  0  0  0  0
 22 50  1  0  0  0  0
 23 24  1  0  0  0  0
 23 51  1  0  0  0  0
 23 52  1  0  0  0  0
 24 25  1  0  0  0  0
 24 53  1  0  0  0  0
 24 54  1  0  0  0  0
 25 26  1  0  0  0  0
 26 55  1  0  0  0  0
 26 56  1  0  0  0  0
 27 28  1  0  0  0  0
 27 29  1  0  0  0  0
 27 62  1  0  0  0  0
 28 57  1  0  0  0  0
 28 58  1  0  0  0  0
 28 59  1  0  0  0  0
 29 60  1  0  0  0  0
 29 61  1  0  0  0  0
M  CHG  1  27   1
M  END
> <s_m_source_file>
AV-unprocessed.smi

> <i_m_source_file_index>
21

> <i_lp_mmshare_version>
43012

> <i_f3d_flags>
0

> <s_epik_input>
W0NIM11PW0NASF0xW0NIMl1bQ0BIXShOKFtDSDNdKVtDSDJdMSlbQ0gyXU4oW0NIM10pYyhuW2NIXW4yKWMoYzIzKW5bY0hdbjNbQ0gyXVtDQEhdKFtDSDJdW09IXSlbQ0BASF00W0NIMl1bQ0gyXU9bQ0gyXTQ=

> <s_epik_cmdline>
J2VwaWtfcHl0aG9uJywgJy1waCcsICc3LjAnLCAnLXRuJywgJzgnLCAnLW1hJywgJzIwMCcsICctbWV0YWxfYmluZGluZycsICctaW1hZScsICc8aW5maWxlLm1hZT4nLCAnLW9tYWUnLCAnPG91dGZpbGUubWFlPic=

> <r_lp_tautomer_probability>
1

> <r_epik_Ionization_Penalty>
0.0157465

> <r_epik_Ionization_Penalty_Charging>
0.015354

> <r_epik_Ionization_Penalty_Neutral>
0.000392529

> <r_epik_State_Penalty>
0.0120612

> <r_epik_Charging_Adjusted_Penalty>
0.0274152

> <i_epik_Tot_Q>
1

> <i_epik_Tot_abs_Q>
1

> <r_epik_Metal_State_Penalty>
0.0121253

> <b_epik_Metal_Only>
0

> <s_lp_Force_Field>
OPLS_2005

> <r_lp_Energy>
60.5885

> <b_lp_Chiralities_Consistent>
1

> <s_lp_Variant>
AV-unprocessed.smi:21-21

> <Gold.Version>
5.8.1

> <Gold.Id.Protein>
6NUR|6NUR_protein|mol2

> <Gold.PLP.Fitness>
48.4862

> <Gold.PLP.PLP>
-45.0631

> <Gold.PLP.part.hbond>
-3.0000

> <Gold.PLP.part.metal>
0.0000

> <Gold.PLP.part.buried>
-4.7440

> <Gold.PLP.part.nonpolar>
-37.1713

> <Gold.PLP.part.repulsive>
0.2384

> <Gold.PLP.ligand.clash>
0.0000

> <Gold.PLP.ligand.torsion>
2.7132

> <Gold.PLP.Chemscore.Hbond>
2.6864

> <Gold.PLP.Chemscore.CHOScore>
0.0000

> <Gold.PLP.Chemscore.Metal>
0.0000

> <Gold.Chemscore.Hbonds>
donor molecule, donor type, donor heavy atom, donor atom, acceptor molecule, acceptor atom, score
      L1  H    27    62       P1 10747  0.20
      P1  H  6896  6909       L1    12  1.00
      P1  H  6931  6943       L1    25  1.00

> <Gold.PLP.Chemscore.Internal.Correction>
0.7903

> <Gold.Rescore>
     Score         DG    S(hbond)    S(metal)    S(lipo)     H(rot)  DE(clash)    DE(int)     intcor
     14.40     -17.38       2.26        0.00     104.37       3.08       0.40       2.58       ----

> <Gold.Chemscore.Fitness>
14.4008

> <Gold.Chemscore.DG>
-17.3814

> <Gold.Chemscore.ZeroCoef>
-5.4800

> <Gold.Chemscore.Hbond>
2.2647

> <Gold.Chemscore.Metal>
0.0000

> <Gold.Chemscore.Lipo>
104.3722

> <Gold.Chemscore.Internal_Hbond>
0.0000

> <Gold.Chemscore.DEClash>
0.4027

> <Gold.Chemscore.DEInternal>
2.5779

> <Gold.Chemscore.Rot>
3.0758

> <Gold.Chemscore.Internal.Correction>
   9.000000E+99

> <Gold.Chemscore.Hbonds>
donor molecule, donor type, donor heavy atom, donor atom, acceptor molecule, acceptor atom, score
      L1  H    27    62       P1 10747  0.20
      P1  H  6896  6909       L1    12  0.60
      P1  H  6931  6943       L1    25  0.26

> <Gold.Chemscore.Hbond.Weighted>
-7.5640

> <Gold.Chemscore.Metal.Weighted>
-0.0000

> <Gold.Chemscore.Lipo.Weighted>
-12.2116

> <Gold.Chemscore.Internal_Hbond.Weighted>
0.0000

> <Gold.Chemscore.DEClash.Weighted>
0.4027

> <Gold.Chemscore.DEInternal.Weighted>
2.5779

> <Gold.Chemscore.Rot.Weighted>
7.8741

> <Gold.Chemscore.Internal.Correction.Weighted>
   9.000000E+99

> <Gold.Protein.RotatedTorsions>
[ 6907 6896 6895 6894 ] final  -18.57 input  -60.11 | X-H torsion
[ 7974 7965 7964 7962 ] final   67.31 input  175.53 | X-H torsion
[ 8008 7997 7996 7995 ] final -118.42 input   59.86 | X-H torsion
[ 10167 10162 10161 10158 ] final   63.79 input  -65.29 | X-H torsion
[ 10718 10713 10712 10709 ] final -124.43 input   66.30 | X-H torsion
[ 10763 10752 10751 10750 ] final  129.47 input  -60.55 | X-H torsion
[ 11005 11000 10999 10996 ] final  137.24 input  -57.11 | X-H torsion

> <Gold.Protein.ActiveResidues>
 VAL166  LYS551  ARG553  GLY616  TRP617  ASP618  TYR619  PRO620  LYS621  CYS622 
 ASP623  PHE694  ASN695  SER759  ASP760  ASP761  ALA762  ILE779  LEU786  VAL792 
 PHE793  MET794  SER795  GLU796  ALA797  LYS798  CYS799  TRP800  GLU811  SER814 

> <Gold.Protein.RotatedAtoms>
  151.2762  135.0700  159.9152 H   0  0  0  0  0  0  0  0  0  0  0  0  # atno 6907 bound_to 6896
  152.5342  134.0079  159.7935 H   0  0  0  0  0  0  0  0  0  0  0  0  # atno 6908 bound_to 6896
  151.0325  133.5727  159.2690 H   0  0  0  0  0  0  0  0  0  0  0  0  # atno 6909 bound_to 6896
  145.8161  139.3059  143.1070 H   0  0  0  0  0  0  0  0  0  0  0  0  # atno 7974 bound_to 7965
  155.0993  140.0396  157.2692 H   0  0  0  0  0  0  0  0  0  0  0  0  # atno 8008 bound_to 7997
  154.6770  140.2625  155.6922 H   0  0  0  0  0  0  0  0  0  0  0  0  # atno 8009 bound_to 7997
  156.2680  140.2786  156.1301 H   0  0  0  0  0  0  0  0  0  0  0  0  # atno 8010 bound_to 7997
  140.1292  144.4659  150.6874 H   0  0  0  0  0  0  0  0  0  0  0  0  # atno 10167 bound_to 10162
  156.1587  130.6586  151.0018 H   0  0  0  0  0  0  0  0  0  0  0  0  # atno 10718 bound_to 10713
  153.7422  135.3222  155.3306 H   0  0  0  0  0  0  0  0  0  0  0  0  # atno 10763 bound_to 10752
  154.8291  135.4547  154.1015 H   0  0  0  0  0  0  0  0  0  0  0  0  # atno 10764 bound_to 10752
  153.2193  135.6946  153.8101 H   0  0  0  0  0  0  0  0  0  0  0  0  # atno 10765 bound_to 10752
  140.0100  134.9443  157.0258 H   0  0  0  0  0  0  0  0  0  0  0  0  # atno 11005 bound_to 11000
  145.9725  140.8749  143.0155 LP  0  0  0  0  0  0  0  0  0  0  0  0  # atno 17320 bound_to 7965
  144.6752  140.1966  143.7391 LP  0  0  0  0  0  0  0  0  0  0  0  0  # atno 17321 bound_to 7965
  140.6827  143.2334  151.5343 LP  0  0  0  0  0  0  0  0  0  0  0  0  # atno 17342 bound_to 10162
  139.5528  144.2351  152.1560 LP  0  0  0  0  0  0  0  0  0  0  0  0  # atno 17343 bound_to 10162
  157.6715  131.0860  150.7600 LP  0  0  0  0  0  0  0  0  0  0  0  0  # atno 17370 bound_to 10713
  156.7663  130.4815  149.5427 LP  0  0  0  0  0  0  0  0  0  0  0  0  # atno 17371 bound_to 10713
  140.4571  134.1522  155.7187 LP  0  0  0  0  0  0  0  0  0  0  0  0  # atno 17394 bound_to 11000
  141.1704  133.8619  157.1587 LP  0  0  0  0  0  0  0  0  0  0  0  0  # atno 17395 bound_to 11000

$$$$
