AV-unprocessed.smi:2134|AV-procd|sdf|8695|dock7
  -GOLD-   2272011453D 1   1.00000     0.00000
 Structure written by MMmdl.
 36 37  0  0  0  0  0  0  0  0  2 V2000
  151.6927  137.4529  154.4114 C   0  0  0  0  0  0  0  0  0  0  0  0
  150.7913  138.5642  154.7090 N   0  0  0  0  0  0  0  0  0  0  0  0
  149.4782  138.3605  154.3376 N   0  0  0  0  0  0  0  0  0  0  0  0
  148.6093  139.3223  154.3257 C   0  0  0  0  0  0  0  0  0  0  0  0
  147.2114  139.0559  153.8950 C   0  0  0  0  0  0  0  0  0  0  0  0
  146.3084  139.8561  154.1417 O   0  0  0  0  0  0  0  0  0  0  0  0
  147.0125  137.9113  153.2144 N   0  0  0  0  0  0  0  0  0  0  0  0
  145.7403  137.4621  152.6537 C   0  0  0  0  0  0  0  0  0  0  0  0
  145.8726  137.0206  151.1832 C   0  0  0  0  0  0  0  0  0  0  0  0
  145.3977  135.6001  150.9289 C   0  0  0  0  0  0  0  0  0  0  0  0
  146.2351  134.4973  151.2099 C   0  0  0  0  0  0  0  0  0  0  0  0
  145.7767  133.1927  150.9329 C   0  0  0  0  0  0  0  0  0  0  0  0
  144.4906  133.0197  150.3820 C   0  0  0  0  0  0  0  0  0  0  0  0
  143.7166  134.0979  150.1294 N   0  3  0  0  0  0  0  0  0  0  0  0
  144.1181  135.3629  150.3818 C   0  0  0  0  0  0  0  0  0  0  0  0
  149.0129  140.7312  154.7122 C   0  0  0  0  0  0  0  0  0  0  0  0
  150.2128  140.7459  155.6799 C   0  0  0  0  0  0  0  0  0  0  0  0
  151.2532  139.6778  155.3307 C   0  0  0  0  0  0  0  0  0  0  0  0
  152.4324  139.8500  155.6385 O   0  0  0  0  0  0  0  0  0  0  0  0
  152.1334  137.0595  155.3285 H   0  0  0  0  0  0  0  0  0  0  0  0
  152.5019  137.7786  153.7565 H   0  0  0  0  0  0  0  0  0  0  0  0
  151.1778  136.6291  153.9145 H   0  0  0  0  0  0  0  0  0  0  0  0
  147.8116  137.3118  153.0639 H   0  0  0  0  0  0  0  0  0  0  0  0
  145.3835  136.6248  153.2539 H   0  0  0  0  0  0  0  0  0  0  0  0
  144.9834  138.2427  152.7459 H   0  0  0  0  0  0  0  0  0  0  0  0
  145.3127  137.7050  150.5443 H   0  0  0  0  0  0  0  0  0  0  0  0
  146.9143  137.1001  150.8702 H   0  0  0  0  0  0  0  0  0  0  0  0
  147.2219  134.6474  151.6227 H   0  0  0  0  0  0  0  0  0  0  0  0
  146.4043  132.3375  151.1368 H   0  0  0  0  0  0  0  0  0  0  0  0
  144.0615  132.0593  150.1365 H   0  0  0  0  0  0  0  0  0  0  0  0
  143.4141  136.1420  150.1276 H   0  0  0  0  0  0  0  0  0  0  0  0
  149.2547  141.2956  153.8110 H   0  0  0  0  0  0  0  0  0  0  0  0
  148.1805  141.2525  155.1871 H   0  0  0  0  0  0  0  0  0  0  0  0
  150.6774  141.7325  155.6937 H   0  0  0  0  0  0  0  0  0  0  0  0
  149.8676  140.5471  156.6952 H   0  0  0  0  0  0  0  0  0  0  0  0
  142.7900  133.9513  149.7278 H   0  0  0  0  0  0  0  0  0  0  0  0
  1  2  1  0  0  0  0
  1 20  1  0  0  0  0
  1 21  1  0  0  0  0
  1 22  1  0  0  0  0
  2 18  1  0  0  0  0
  2  3  1  0  0  0  0
  3  4  2  0  0  0  0
  4  5  1  0  0  0  0
  4 16  1  0  0  0  0
  5  6  2  0  0  0  0
  5  7  1  0  0  0  0
  7  8  1  0  0  0  0
  7 23  1  0  0  0  0
  8  9  1  0  0  0  0
  8 24  1  0  0  0  0
  8 25  1  0  0  0  0
  9 10  1  0  0  0  0
  9 26  1  0  0  0  0
  9 27  1  0  0  0  0
 10 15  1  0  0  0  0
 10 11  2  0  0  0  0
 11 12  1  0  0  0  0
 11 28  1  0  0  0  0
 12 13  2  0  0  0  0
 12 29  1  0  0  0  0
 13 14  1  0  0  0  0
 13 30  1  0  0  0  0
 14 15  2  0  0  0  0
 14 36  1  0  0  0  0
 15 31  1  0  0  0  0
 16 17  1  0  0  0  0
 16 32  1  0  0  0  0
 16 33  1  0  0  0  0
 17 18  1  0  0  0  0
 17 34  1  0  0  0  0
 17 35  1  0  0  0  0
 18 19  2  0  0  0  0
M  CHG  1  14   1
M  END
> <s_m_source_file>
AV-unprocessed.smi

> <i_m_source_file_index>
2134

> <i_lp_mmshare_version>
43012

> <i_f3d_flags>
0

> <s_epik_input>
Tz1DMVtDSDJdW0NIMl1DKD1OTjFbQ0gzXSlDKD1PKVtOSF1bQ0gyXVtDSDJdYzJbY0hdW2NIXVtjSF1uW2NIXTI=

> <s_epik_cmdline>
J2VwaWtfcHl0aG9uJywgJy1waCcsICc3LjAnLCAnLXRuJywgJzgnLCAnLW1hJywgJzIwMCcsICctbWV0YWxfYmluZGluZycsICctaW1hZScsICc8aW5maWxlLm1hZT4nLCAnLW9tYWUnLCAnPG91dGZpbGUubWFlPic=

> <r_epik_Ionization_Penalty>
2.46483

> <r_epik_Ionization_Penalty_Charging>
2.46471

> <r_epik_Ionization_Penalty_Neutral>
0.00011851

> <r_epik_State_Penalty>
2.62717

> <r_epik_Charging_Adjusted_Penalty>
5.09187

> <i_epik_Tot_Q>
1

> <i_epik_Tot_abs_Q>
1

> <r_epik_Metal_State_Penalty>
2.80118

> <b_epik_Metal_Only>
0

> <s_epik_Chemistry_Notes>
This compound has an imine and may undergo hydrolysis.

> <s_lp_Force_Field>
OPLS_2005

> <r_lp_Energy>
23.6794

> <b_lp_Chiralities_Consistent>
1

> <s_lp_Variant>
AV-unprocessed.smi:2134-2

> <Gold.Version>
5.8.1

> <Gold.Id.Protein>
6NUR|6NUR_protein|mol2

> <Gold.PLP.Fitness>
45.7157

> <Gold.PLP.PLP>
-35.4225

> <Gold.PLP.part.hbond>
-3.8099

> <Gold.PLP.part.metal>
0.0000

> <Gold.PLP.part.buried>
2.4703

> <Gold.PLP.part.nonpolar>
-34.9910

> <Gold.PLP.part.repulsive>
0.7661

> <Gold.PLP.ligand.clash>
0.0000

> <Gold.PLP.ligand.torsion>
0.8451

> <Gold.PLP.Chemscore.Hbond>
3.9920

> <Gold.PLP.Chemscore.CHOScore>
0.0000

> <Gold.PLP.Chemscore.Metal>
0.0000

> <Gold.Chemscore.Hbonds>
donor molecule, donor type, donor heavy atom, donor atom, acceptor molecule, acceptor atom, score
      L1  H     7    23       P1  7948  1.00
      L1  H    14    36       P1 10186  2.00
      P1  H  7997  8010       L1    19  1.00

> <Gold.PLP.Chemscore.Internal.Correction>
0.0075

> <Gold.Rescore>
     Score         DG    S(hbond)    S(metal)    S(lipo)     H(rot)  DE(clash)    DE(int)     intcor
     18.40     -20.29       2.90        0.00      77.12       1.52       1.01       0.88       ----

> <Gold.Chemscore.Fitness>
18.4022

> <Gold.Chemscore.DG>
-20.2931

> <Gold.Chemscore.ZeroCoef>
-5.4800

> <Gold.Chemscore.Hbond>
2.8954

> <Gold.Chemscore.Metal>
0.0000

> <Gold.Chemscore.Lipo>
77.1159

> <Gold.Chemscore.Internal_Hbond>
0.0000

> <Gold.Chemscore.DEClash>
1.0067

> <Gold.Chemscore.DEInternal>
0.8843

> <Gold.Chemscore.Rot>
1.5157

> <Gold.Chemscore.Internal.Correction>
   9.000000E+99

> <Gold.Chemscore.Hbonds>
donor molecule, donor type, donor heavy atom, donor atom, acceptor molecule, acceptor atom, score
      L1  H     7    23       P1  7948  0.92
      L1  H    14    36       P1 10186  0.95
      P1  H  7997  8010       L1    19  0.95

> <Gold.Chemscore.Hbond.Weighted>
-9.6707

> <Gold.Chemscore.Metal.Weighted>
-0.0000

> <Gold.Chemscore.Lipo.Weighted>
-9.0226

> <Gold.Chemscore.Internal_Hbond.Weighted>
0.0000

> <Gold.Chemscore.DEClash.Weighted>
1.0067

> <Gold.Chemscore.DEInternal.Weighted>
0.8843

> <Gold.Chemscore.Rot.Weighted>
3.8801

> <Gold.Chemscore.Internal.Correction.Weighted>
   9.000000E+99

> <Gold.Protein.RotatedTorsions>
[ 6907 6896 6895 6894 ] final   91.44 input  -60.11 | X-H torsion
[ 7974 7965 7964 7962 ] final  -64.35 input  175.53 | X-H torsion
[ 8008 7997 7996 7995 ] final   89.89 input   59.86 | X-H torsion
[ 10167 10162 10161 10158 ] final   78.34 input  -65.29 | X-H torsion
[ 10718 10713 10712 10709 ] final  -21.35 input   66.30 | X-H torsion
[ 10763 10752 10751 10750 ] final   19.51 input  -60.55 | X-H torsion
[ 11005 11000 10999 10996 ] final   67.32 input  -57.11 | X-H torsion

> <Gold.Protein.ActiveResidues>
 VAL166  LYS551  ARG553  GLY616  TRP617  ASP618  TYR619  PRO620  LYS621  CYS622 
 ASP623  PHE694  ASN695  SER759  ASP760  ASP761  ALA762  ILE779  LEU786  VAL792 
 PHE793  MET794  SER795  GLU796  ALA797  LYS798  CYS799  TRP800  GLU811  SER814 

> <Gold.Protein.RotatedAtoms>
  152.5450  134.1656  159.8575 H   0  0  0  0  0  0  0  0  0  0  0  0  # atno 6907 bound_to 6896
  151.1671  133.4801  159.2601 H   0  0  0  0  0  0  0  0  0  0  0  0  # atno 6908 bound_to 6896
  151.1313  135.0143  159.8639 H   0  0  0  0  0  0  0  0  0  0  0  0  # atno 6909 bound_to 6896
  145.7677  140.8829  143.0396 H   0  0  0  0  0  0  0  0  0  0  0  0  # atno 7974 bound_to 7965
  156.0054  140.3355  155.6887 H   0  0  0  0  0  0  0  0  0  0  0  0  # atno 8008 bound_to 7997
  155.6232  140.0677  157.2689 H   0  0  0  0  0  0  0  0  0  0  0  0  # atno 8009 bound_to 7997
  154.4263  140.1773  156.1382 H   0  0  0  0  0  0  0  0  0  0  0  0  # atno 8010 bound_to 7997
  139.9719  144.5888  150.7978 H   0  0  0  0  0  0  0  0  0  0  0  0  # atno 10167 bound_to 10162
  156.5193  130.4628  149.6605 H   0  0  0  0  0  0  0  0  0  0  0  0  # atno 10718 bound_to 10713
  153.1156  135.6707  153.9424 H   0  0  0  0  0  0  0  0  0  0  0  0  # atno 10763 bound_to 10752
  153.8954  135.3042  155.3449 H   0  0  0  0  0  0  0  0  0  0  0  0  # atno 10764 bound_to 10752
  154.7573  135.5005  153.9476 H   0  0  0  0  0  0  0  0  0  0  0  0  # atno 10765 bound_to 10752
  139.9778  134.6794  156.0321 H   0  0  0  0  0  0  0  0  0  0  0  0  # atno 11005 bound_to 11000
  144.6818  139.9812  143.7483 LP  0  0  0  0  0  0  0  0  0  0  0  0  # atno 17320 bound_to 7965
  146.0201  139.3243  143.0818 LP  0  0  0  0  0  0  0  0  0  0  0  0  # atno 17321 bound_to 7965
  140.7519  143.2980  151.3153 LP  0  0  0  0  0  0  0  0  0  0  0  0  # atno 17342 bound_to 10162
  139.6475  144.0425  152.2601 LP  0  0  0  0  0  0  0  0  0  0  0  0  # atno 17343 bound_to 10162
  156.3164  130.7257  151.2160 LP  0  0  0  0  0  0  0  0  0  0  0  0  # atno 17370 bound_to 10713
  157.7439  131.0467  150.4908 LP  0  0  0  0  0  0  0  0  0  0  0  0  # atno 17371 bound_to 10713
  141.1453  133.6557  156.3850 LP  0  0  0  0  0  0  0  0  0  0  0  0  # atno 17394 bound_to 11000
  140.5159  134.6350  157.5301 LP  0  0  0  0  0  0  0  0  0  0  0  0  # atno 17395 bound_to 11000

$$$$
