AV-unprocessed.smi:2337|AV-procd|sdf|9333|dock5
  -GOLD-   2272012553D 1   1.00000     0.00000
 Structure written by MMmdl.
 45 46  0  0  0  0  0  0  0  0  1 V2000
  145.1603  135.4815  151.0003 C   0  0  0  0  0  0  0  0  0  0  0  0
  145.6145  134.6050  152.0233 O   0  0  0  0  0  0  0  0  0  0  0  0
  145.6156  133.2140  151.6999 C   0  0  0  0  0  0  0  0  0  0  0  0
  146.2353  132.3668  152.8199 C   0  0  0  0  0  0  0  0  0  0  0  0
  145.4743  132.5084  154.0541 N   0  0  0  0  0  0  0  0  0  0  0  0
  145.9917  132.9046  155.2238 C   0  0  0  0  0  0  0  0  0  0  0  0
  147.1801  133.1880  155.3776 O   0  0  0  0  0  0  0  0  0  0  0  0
  145.0494  132.9525  156.1811 N   0  0  0  0  0  0  0  0  0  0  0  0
  145.2089  133.2972  157.5490 C   0  0  0  0  0  0  0  0  0  0  0  0
  144.1382  132.9379  158.3918 C   0  0  0  0  0  0  0  0  0  0  0  0
  144.2297  133.2444  159.7598 C   0  0  0  0  0  0  0  0  0  0  0  0
  145.3991  133.8973  160.2110 C   0  0  0  0  0  0  0  0  0  0  0  0
  145.6337  134.2840  161.6825 C   0  0  0  0  0  0  0  0  0  0  0  0
  146.9307  133.6244  162.1957 C   0  0  0  0  0  0  0  0  0  0  0  0
  144.4366  133.8215  162.5386 C   0  0  0  0  0  0  0  0  0  0  0  0
  145.7821  135.8102  161.8755 C   0  0  0  0  0  0  0  0  0  0  0  0
  146.3970  134.2163  159.3509 N   0  0  0  0  0  0  0  0  0  0  0  0
  146.3027  133.9237  158.0504 N   0  0  0  0  0  0  0  0  0  0  0  0
  144.2024  132.8365  151.2165 C   0  0  0  0  0  0  0  0  0  0  0  0
  144.8443  132.0861  150.0479 C   0  0  0  0  0  0  0  0  0  0  0  0
  146.0735  132.9742  150.2471 C   0  0  0  0  0  0  0  0  0  0  0  0
  145.1113  136.4961  151.3953 H   0  0  0  0  0  0  0  0  0  0  0  0
  144.1636  135.2159  150.6480 H   0  0  0  0  0  0  0  0  0  0  0  0
  145.8404  135.4980  150.1492 H   0  0  0  0  0  0  0  0  0  0  0  0
  146.2500  131.3152  152.5291 H   0  0  0  0  0  0  0  0  0  0  0  0
  147.2745  132.6425  152.9995 H   0  0  0  0  0  0  0  0  0  0  0  0
  144.4881  132.2967  154.0076 H   0  0  0  0  0  0  0  0  0  0  0  0
  144.1112  132.7087  155.9005 H   0  0  0  0  0  0  0  0  0  0  0  0
  143.2635  132.4375  158.0024 H   0  0  0  0  0  0  0  0  0  0  0  0
  143.4186  132.9753  160.4181 H   0  0  0  0  0  0  0  0  0  0  0  0
  147.1315  133.8962  163.2326 H   0  0  0  0  0  0  0  0  0  0  0  0
  147.7923  133.9322  161.6021 H   0  0  0  0  0  0  0  0  0  0  0  0
  146.8763  132.5358  162.1553 H   0  0  0  0  0  0  0  0  0  0  0  0
  144.3116  132.7386  162.5085 H   0  0  0  0  0  0  0  0  0  0  0  0
  143.5054  134.2693  162.1896 H   0  0  0  0  0  0  0  0  0  0  0  0
  144.5641  134.1005  163.5850 H   0  0  0  0  0  0  0  0  0  0  0  0
  145.9489  136.0617  162.9237 H   0  0  0  0  0  0  0  0  0  0  0  0
  144.8861  136.3460  161.5596 H   0  0  0  0  0  0  0  0  0  0  0  0
  146.6290  136.2072  161.3143 H   0  0  0  0  0  0  0  0  0  0  0  0
  143.6348  132.2038  151.8997 H   0  0  0  0  0  0  0  0  0  0  0  0
  143.6149  133.6958  150.8882 H   0  0  0  0  0  0  0  0  0  0  0  0
  145.0380  131.0359  150.2721 H   0  0  0  0  0  0  0  0  0  0  0  0
  144.3389  132.2115  149.0900 H   0  0  0  0  0  0  0  0  0  0  0  0
  146.0394  133.8722  149.6275 H   0  0  0  0  0  0  0  0  0  0  0  0
  147.0272  132.4551  150.1475 H   0  0  0  0  0  0  0  0  0  0  0  0
  1  2  1  0  0  0  0
  1 22  1  0  0  0  0
  1 23  1  0  0  0  0
  1 24  1  0  0  0  0
  2  3  1  0  0  0  0
  3 21  1  0  0  0  0
  3  4  1  0  0  0  0
  3 19  1  0  0  0  0
  4  5  1  0  0  0  0
  4 25  1  0  0  0  0
  4 26  1  0  0  0  0
  5  6  1  0  0  0  0
  5 27  1  0  0  0  0
  6  7  2  0  0  0  0
  6  8  1  0  0  0  0
  8  9  1  0  0  0  0
  8 28  1  0  0  0  0
  9 18  1  0  0  0  0
  9 10  2  0  0  0  0
 10 11  1  0  0  0  0
 10 29  1  0  0  0  0
 11 12  2  0  0  0  0
 11 30  1  0  0  0  0
 12 13  1  0  0  0  0
 12 17  1  0  0  0  0
 13 14  1  0  0  0  0
 13 15  1  0  0  0  0
 13 16  1  0  0  0  0
 14 31  1  0  0  0  0
 14 32  1  0  0  0  0
 14 33  1  0  0  0  0
 15 34  1  0  0  0  0
 15 35  1  0  0  0  0
 15 36  1  0  0  0  0
 16 37  1  0  0  0  0
 16 38  1  0  0  0  0
 16 39  1  0  0  0  0
 17 18  2  0  0  0  0
 19 20  1  0  0  0  0
 19 40  1  0  0  0  0
 19 41  1  0  0  0  0
 20 21  1  0  0  0  0
 20 42  1  0  0  0  0
 20 43  1  0  0  0  0
 21 44  1  0  0  0  0
 21 45  1  0  0  0  0
M  END
> <s_m_source_file>
AV-unprocessed.smi

> <i_m_source_file_index>
2337

> <i_lp_mmshare_version>
43012

> <i_f3d_flags>
0

> <s_epik_input>
W0NIMl0xW0NIMl1bQ0gyXUMxKE9bQ0gzXSlbQ0gyXVtOSF1DKD1PKVtOSF1jMltjSF1bY0hdYyhubjIpQyhbQ0gzXSkoW0NIM10pW0NIM10=

> <s_epik_cmdline>
J2VwaWtfcHl0aG9uJywgJy1waCcsICc3LjAnLCAnLXRuJywgJzgnLCAnLW1hJywgJzIwMCcsICctbWV0YWxfYmluZGluZycsICctaW1hZScsICc8aW5maWxlLm1hZT4nLCAnLW9tYWUnLCAnPG91dGZpbGUubWFlPic=

> <r_lp_tautomer_probability>
1

> <r_epik_Ionization_Penalty>
0.00977348

> <r_epik_Ionization_Penalty_Charging>
0

> <r_epik_Ionization_Penalty_Neutral>
0.00977348

> <r_epik_State_Penalty>
-0

> <r_epik_Charging_Adjusted_Penalty>
0

> <i_epik_Tot_Q>
0

> <i_epik_Tot_abs_Q>
0

> <r_epik_Metal_State_Penalty>
-0

> <b_epik_Metal_Only>
0

> <s_lp_Force_Field>
OPLS_2005

> <r_lp_Energy>
23.2497

> <b_lp_Chiralities_Consistent>
1

> <s_lp_Variant>
AV-unprocessed.smi:2337-1

> <Gold.Version>
5.8.1

> <Gold.Id.Protein>
6NUR|6NUR_protein|mol2

> <Gold.PLP.Fitness>
34.1336

> <Gold.PLP.PLP>
-28.3228

> <Gold.PLP.part.hbond>
-2.0000

> <Gold.PLP.part.metal>
0.0000

> <Gold.PLP.part.buried>
-4.6326

> <Gold.PLP.part.nonpolar>
-21.5437

> <Gold.PLP.part.repulsive>
0.1156

> <Gold.PLP.ligand.clash>
0.0000

> <Gold.PLP.ligand.torsion>
0.2345

> <Gold.PLP.Chemscore.Hbond>
2.0000

> <Gold.PLP.Chemscore.CHOScore>
0.0000

> <Gold.PLP.Chemscore.Metal>
0.0000

> <Gold.Chemscore.Hbonds>
donor molecule, donor type, donor heavy atom, donor atom, acceptor molecule, acceptor atom, score
      L1  H     5    27       P1 10957  0.99
      L1  H     8    28       P1 10957  1.00

> <Gold.PLP.Chemscore.Internal.Correction>
0.2798

> <Gold.Rescore>
     Score         DG    S(hbond)    S(metal)    S(lipo)     H(rot)  DE(clash)    DE(int)     intcor
     13.75     -15.26       1.40        0.00      77.80       1.56       0.02       1.49       ----

> <Gold.Chemscore.Fitness>
13.7461

> <Gold.Chemscore.DG>
-15.2638

> <Gold.Chemscore.ZeroCoef>
-5.4800

> <Gold.Chemscore.Hbond>
1.3995

> <Gold.Chemscore.Metal>
0.0000

> <Gold.Chemscore.Lipo>
77.8010

> <Gold.Chemscore.Internal_Hbond>
0.0000

> <Gold.Chemscore.DEClash>
0.0234

> <Gold.Chemscore.DEInternal>
1.4942

> <Gold.Chemscore.Rot>
1.5599

> <Gold.Chemscore.Internal.Correction>
   9.000000E+99

> <Gold.Chemscore.Hbonds>
donor molecule, donor type, donor heavy atom, donor atom, acceptor molecule, acceptor atom, score
      L1  H     5    27       P1 10957  0.27
      L1  H     8    28       P1 10957  0.92

> <Gold.Chemscore.Hbond.Weighted>
-4.6744

> <Gold.Chemscore.Metal.Weighted>
-0.0000

> <Gold.Chemscore.Lipo.Weighted>
-9.1027

> <Gold.Chemscore.Internal_Hbond.Weighted>
0.0000

> <Gold.Chemscore.DEClash.Weighted>
0.0234

> <Gold.Chemscore.DEInternal.Weighted>
1.4942

> <Gold.Chemscore.Rot.Weighted>
3.9933

> <Gold.Chemscore.Internal.Correction.Weighted>
   9.000000E+99

> <Gold.Protein.RotatedTorsions>
[ 6907 6896 6895 6894 ] final -141.63 input  -60.11 | X-H torsion
[ 7974 7965 7964 7962 ] final -148.91 input  175.53 | X-H torsion
[ 8008 7997 7996 7995 ] final -126.95 input   59.86 | X-H torsion
[ 10167 10162 10161 10158 ] final  -38.78 input  -65.29 | X-H torsion
[ 10718 10713 10712 10709 ] final   18.09 input   66.30 | X-H torsion
[ 10763 10752 10751 10750 ] final  106.72 input  -60.55 | X-H torsion
[ 11005 11000 10999 10996 ] final -143.06 input  -57.11 | X-H torsion

> <Gold.Protein.ActiveResidues>
 VAL166  LYS551  ARG553  GLY616  TRP617  ASP618  TYR619  PRO620  LYS621  CYS622 
 ASP623  PHE694  ASN695  SER759  ASP760  ASP761  ALA762  ILE779  LEU786  VAL792 
 PHE793  MET794  SER795  GLU796  ALA797  LYS798  CYS799  TRP800  GLU811  SER814 

> <Gold.Protein.RotatedAtoms>
  151.0764  133.5425  159.2623 H   0  0  0  0  0  0  0  0  0  0  0  0  # atno 6907 bound_to 6896
  151.2345  135.0566  159.9010 H   0  0  0  0  0  0  0  0  0  0  0  0  # atno 6908 bound_to 6896
  152.5418  134.0548  159.8179 H   0  0  0  0  0  0  0  0  0  0  0  0  # atno 6909 bound_to 6896
  144.8000  140.5134  143.5714 H   0  0  0  0  0  0  0  0  0  0  0  0  # atno 7974 bound_to 7965
  155.2381  140.0427  157.2971 H   0  0  0  0  0  0  0  0  0  0  0  0  # atno 8008 bound_to 7997
  154.5845  140.2410  155.7976 H   0  0  0  0  0  0  0  0  0  0  0  0  # atno 8009 bound_to 7997
  156.2217  140.2968  155.9976 H   0  0  0  0  0  0  0  0  0  0  0  0  # atno 8010 bound_to 7997
  140.7083  143.3256  151.2689 H   0  0  0  0  0  0  0  0  0  0  0  0  # atno 10167 bound_to 10162
  157.0914  130.6429  149.5850 H   0  0  0  0  0  0  0  0  0  0  0  0  # atno 10718 bound_to 10713
  153.3968  135.3868  155.1961 H   0  0  0  0  0  0  0  0  0  0  0  0  # atno 10763 bound_to 10752
  154.8725  135.3761  154.4668 H   0  0  0  0  0  0  0  0  0  0  0  0  # atno 10764 bound_to 10752
  153.5161  135.7087  153.5817 H   0  0  0  0  0  0  0  0  0  0  0  0  # atno 10765 bound_to 10752
  140.8163  134.2685  157.4920 H   0  0  0  0  0  0  0  0  0  0  0  0  # atno 11005 bound_to 11000
  145.5578  139.1478  143.3358 LP  0  0  0  0  0  0  0  0  0  0  0  0  # atno 17320 bound_to 7965
  146.2278  140.5714  142.8988 LP  0  0  0  0  0  0  0  0  0  0  0  0  # atno 17321 bound_to 7965
  139.6723  143.9999  152.2760 LP  0  0  0  0  0  0  0  0  0  0  0  0  # atno 17342 bound_to 10162
  139.9602  144.6563  150.8087 LP  0  0  0  0  0  0  0  0  0  0  0  0  # atno 17343 bound_to 10162
  155.9897  130.4945  150.7225 LP  0  0  0  0  0  0  0  0  0  0  0  0  # atno 17370 bound_to 10713
  157.4717  131.0894  151.0635 LP  0  0  0  0  0  0  0  0  0  0  0  0  # atno 17371 bound_to 10713
  139.8711  134.9511  156.4074 LP  0  0  0  0  0  0  0  0  0  0  0  0  # atno 17394 bound_to 11000
  140.9146  133.7688  155.9832 LP  0  0  0  0  0  0  0  0  0  0  0  0  # atno 17395 bound_to 11000

$$$$
