AV-unprocessed.smi:36|AV-procd|sdf|296|dock8
  -GOLD-   2262016 93D 1   1.00000     0.00000
 Structure written by MMmdl.
 63 66  0  0  0  0  0  0  0  0  2 V2000
  146.1538  143.2742  159.1551 C   0  0  0  0  0  0  0  0  0  0  0  0
  144.7128  142.7458  159.2539 C   0  0  0  0  0  0  0  0  0  0  0  0
  144.7284  141.2253  159.4815 C   0  0  0  0  0  0  0  0  0  0  0  0
  143.9817  143.4365  160.4172 C   0  0  0  0  0  0  0  0  0  0  0  0
  143.7844  143.1231  157.6269 Si  0  0  0  0  0  0  0  0  0  0  0  0
  142.0152  142.4315  157.6791 C   0  0  0  0  0  0  0  0  0  0  0  0
  143.7314  144.9915  157.2853 C   0  0  0  0  0  0  0  0  0  0  0  0
  144.6291  142.3816  156.3603 O   0  0  0  0  0  0  0  0  0  0  0  0
  145.9014  142.7972  155.9067 C   0  0  0  0  0  0  0  0  0  0  0  0
  146.3057  141.9559  154.6854 C   0  0  1  0  0  0  0  0  0  0  0  0
  147.6082  142.3002  154.2151 O   0  0  0  0  0  0  0  0  0  0  0  0
  148.2999  141.1674  153.7796 C   0  0  1  0  0  0  0  0  0  0  0  0
  149.4544  140.9385  154.7034 N   0  0  0  0  0  0  0  0  0  0  0  0
  149.9574  141.7400  155.6659 C   0  0  0  0  0  0  0  0  0  0  0  0
  151.0075  141.2916  156.3515 N   0  0  0  0  0  0  0  0  0  0  0  0
  151.2132  140.0498  155.7686 C   0  0  0  0  0  0  0  0  0  0  0  0
  152.1645  139.0206  156.0102 C   0  0  0  0  0  0  0  0  0  0  0  0
  153.1236  139.1207  156.9432 N   0  5  0  0  0  0  0  0  0  0  0  0
  152.8111  138.9730  158.2556 C   0  0  0  0  0  0  0  0  0  0  0  0
  152.4373  137.9506  158.8344 O   0  0  0  0  0  0  0  0  0  0  0  0
  153.0326  140.2242  159.0634 C   0  0  0  0  0  0  0  0  0  0  0  0
  153.7096  140.1470  160.3022 C   0  0  0  0  0  0  0  0  0  0  0  0
  153.9088  141.3019  161.0834 C   0  0  0  0  0  0  0  0  0  0  0  0
  153.4239  142.5463  160.6388 C   0  0  0  0  0  0  0  0  0  0  0  0
  152.7354  142.6337  159.4144 C   0  0  0  0  0  0  0  0  0  0  0  0
  152.5360  141.4791  158.6326 C   0  0  0  0  0  0  0  0  0  0  0  0
  152.0831  137.9130  155.2290 N   0  0  0  0  0  0  0  0  0  0  0  0
  151.1332  137.8141  154.2916 C   0  0  0  0  0  0  0  0  0  0  0  0
  150.1793  138.6917  153.9649 N   0  0  0  0  0  0  0  0  0  0  0  0
  150.2574  139.8132  154.7387 C   0  0  0  0  0  0  0  0  0  0  0  0
  147.3293  139.9849  153.8487 C   0  0  0  0  0  0  0  0  0  0  0  0
  146.3221  140.4343  154.8902 C   0  0  1  0  0  0  0  0  0  0  0  0
  146.7284  140.0597  156.1935 O   0  0  0  0  0  0  0  0  0  0  0  0
  146.7122  143.0750  160.0704 H   0  0  0  0  0  0  0  0  0  0  0  0
  146.1720  144.3513  158.9878 H   0  0  0  0  0  0  0  0  0  0  0  0
  146.6937  142.8041  158.3327 H   0  0  0  0  0  0  0  0  0  0  0  0
  145.2441  140.7070  158.6728 H   0  0  0  0  0  0  0  0  0  0  0  0
  143.7163  140.8230  159.5370 H   0  0  0  0  0  0  0  0  0  0  0  0
  145.2362  140.9685  160.4118 H   0  0  0  0  0  0  0  0  0  0  0  0
  144.4683  143.2295  161.3710 H   0  0  0  0  0  0  0  0  0  0  0  0
  142.9485  143.0955  160.4931 H   0  0  0  0  0  0  0  0  0  0  0  0
  143.9616  144.5189  160.2878 H   0  0  0  0  0  0  0  0  0  0  0  0
  141.4429  142.8553  158.5036 H   0  0  0  0  0  0  0  0  0  0  0  0
  142.0108  141.3487  157.8024 H   0  0  0  0  0  0  0  0  0  0  0  0
  141.4715  142.6543  156.7620 H   0  0  0  0  0  0  0  0  0  0  0  0
  143.2209  145.5307  158.0829 H   0  0  0  0  0  0  0  0  0  0  0  0
  143.2054  145.2126  156.3568 H   0  0  0  0  0  0  0  0  0  0  0  0
  144.7331  145.4114  157.1975 H   0  0  0  0  0  0  0  0  0  0  0  0
  145.9086  143.8629  155.6764 H   0  0  0  0  0  0  0  0  0  0  0  0
  146.6081  142.6392  156.7216 H   0  0  0  0  0  0  0  0  0  0  0  0
  145.6144  142.1654  153.8674 H   0  0  0  0  0  0  0  0  0  0  0  0
  148.7550  141.3184  152.8000 H   0  0  0  0  0  0  0  0  0  0  0  0
  149.5290  142.7066  155.8819 H   0  0  0  0  0  0  0  0  0  0  0  0
  154.0872  139.1992  160.6586 H   0  0  0  0  0  0  0  0  0  0  0  0
  154.4331  141.2318  162.0250 H   0  0  0  0  0  0  0  0  0  0  0  0
  153.5763  143.4318  161.2380 H   0  0  0  0  0  0  0  0  0  0  0  0
  152.3571  143.5865  159.0746 H   0  0  0  0  0  0  0  0  0  0  0  0
  151.9960  141.5666  157.7006 H   0  0  0  0  0  0  0  0  0  0  0  0
  151.1396  136.8988  153.7189 H   0  0  0  0  0  0  0  0  0  0  0  0
  146.8435  139.8920  152.8766 H   0  0  0  0  0  0  0  0  0  0  0  0
  147.8321  139.0434  154.0753 H   0  0  0  0  0  0  0  0  0  0  0  0
  145.3391  139.9984  154.7095 H   0  0  0  0  0  0  0  0  0  0  0  0
  146.5941  139.1299  156.2957 H   0  0  0  0  0  0  0  0  0  0  0  0
  1  2  1  0  0  0  0
  1 34  1  0  0  0  0
  1 35  1  0  0  0  0
  1 36  1  0  0  0  0
  2  3  1  0  0  0  0
  2  4  1  0  0  0  0
  2  5  1  0  0  0  0
  3 37  1  0  0  0  0
  3 38  1  0  0  0  0
  3 39  1  0  0  0  0
  4 40  1  0  0  0  0
  4 41  1  0  0  0  0
  4 42  1  0  0  0  0
  5  6  1  0  0  0  0
  5  7  1  0  0  0  0
  5  8  1  0  0  0  0
  6 43  1  0  0  0  0
  6 44  1  0  0  0  0
  6 45  1  0  0  0  0
  7 46  1  0  0  0  0
  7 47  1  0  0  0  0
  7 48  1  0  0  0  0
  8  9  1  0  0  0  0
  9 10  1  0  0  0  0
  9 49  1  0  0  0  0
  9 50  1  0  0  0  0
 10 32  1  0  0  0  0
 10 11  1  0  0  0  0
 10 51  1  0  0  0  0
 11 12  1  0  0  0  0
 12 13  1  0  0  0  0
 12 31  1  0  0  0  0
 12 52  1  0  0  0  0
 13 30  1  0  0  0  0
 13 14  1  0  0  0  0
 14 15  2  0  0  0  0
 14 53  1  0  0  0  0
 15 16  1  0  0  0  0
 16 30  2  0  0  0  0
 16 17  1  0  0  0  0
 17 18  1  0  0  0  0
 17 27  2  0  0  0  0
 18 19  1  0  0  0  0
 19 20  2  0  0  0  0
 19 21  1  0  0  0  0
 21 26  1  0  0  0  0
 21 22  2  0  0  0  0
 22 23  1  0  0  0  0
 22 54  1  0  0  0  0
 23 24  2  0  0  0  0
 23 55  1  0  0  0  0
 24 25  1  0  0  0  0
 24 56  1  0  0  0  0
 25 26  2  0  0  0  0
 25 57  1  0  0  0  0
 26 58  1  0  0  0  0
 27 28  1  0  0  0  0
 28 29  2  0  0  0  0
 28 59  1  0  0  0  0
 29 30  1  0  0  0  0
 31 32  1  0  0  0  0
 31 60  1  0  0  0  0
 31 61  1  0  0  0  0
 32 33  1  0  0  0  0
 32 62  1  0  0  0  0
 33 63  1  0  0  0  0
M  CHG  1  18  -1
M  END
> <s_m_source_file>
AV-unprocessed.smi

> <i_m_source_file_index>
36

> <i_lp_mmshare_version>
43012

> <i_f3d_flags>
0

> <s_epik_input>
W0NIM11DKFtDSDNdKShbQ0gzXSlbU2ldKFtDSDNdKShbQ0gzXSlPW0NIMl1bQ0BASF0xT1tDQEhdKFtDSDJdW0NASF0xW09IXSluKFtjSF1uMiljKGMyMyluW2NIXW5jM1tOSF1DKD1PKWM0W2NIXVtjSF1bY0hdW2NIXVtjSF00

> <s_epik_cmdline>
J2VwaWtfcHl0aG9uJywgJy1waCcsICc3LjAnLCAnLXRuJywgJzgnLCAnLW1hJywgJzIwMCcsICctbWV0YWxfYmluZGluZycsICctaW1hZScsICc8aW5maWxlLm1hZT4nLCAnLW9tYWUnLCAnPG91dGZpbGUubWFlPic=

> <r_lp_tautomer_probability>
1

> <r_epik_Ionization_Penalty>
4.75685

> <r_epik_Ionization_Penalty_Charging>
3.55822

> <r_epik_Ionization_Penalty_Neutral>
1.19863

> <r_epik_State_Penalty>
3.564

> <r_epik_Charging_Adjusted_Penalty>
7.12222

> <i_epik_Tot_Q>
-1

> <i_epik_Tot_abs_Q>
1

> <r_epik_Metal_State_Penalty>
0.523258

> <b_epik_Metal_Only>
1

> <s_epik_Chemistry_Notes>
This compound contains an acetal/aminal-like group ( X-CH(R)-Y where X, Y are N, S, or O) that may be acid/base labile, releasing an aldehyde.

> <s_lp_Force_Field>
OPLS_2005

> <r_lp_Energy>
35.5948

> <b_lp_Chiralities_Consistent>
1

> <s_lp_Variant>
AV-unprocessed.smi:36-18

> <Gold.Version>
5.8.1

> <Gold.Id.Protein>
6NUR|6NUR_protein|mol2

> <Gold.PLP.Fitness>
57.3664

> <Gold.PLP.PLP>
-49.8319

> <Gold.PLP.part.hbond>
-1.0307

> <Gold.PLP.part.metal>
0.0000

> <Gold.PLP.part.buried>
-5.7507

> <Gold.PLP.part.nonpolar>
-43.8234

> <Gold.PLP.part.repulsive>
1.0469

> <Gold.PLP.ligand.clash>
0.0000

> <Gold.PLP.ligand.torsion>
2.3516

> <Gold.PLP.Chemscore.Hbond>
2.0000

> <Gold.PLP.Chemscore.CHOScore>
2.0056

> <Gold.PLP.Chemscore.Metal>
0.0000

> <Gold.Chemscore.Hbonds>
donor molecule, donor type, donor heavy atom, donor atom, acceptor molecule, acceptor atom, score
      P1  H  7997  8008       L1    18  2.00
      L1  C    14    53       P1  8028  1.00
      L1  C    28    59       P1  7948  0.01
      L1  C    28    59       P1  7949  1.00

> <Gold.PLP.Chemscore.Internal.Correction>
0.2211

> <Gold.Rescore>
     Score         DG    S(hbond)    S(metal)    S(lipo)     H(rot)  DE(clash)    DE(int)     intcor
     10.33     -12.45       0.93        0.00      91.49       2.67       0.14       1.98       ----

> <Gold.Chemscore.Fitness>
10.3288

> <Gold.Chemscore.DG>
-12.4461

> <Gold.Chemscore.ZeroCoef>
-5.4800

> <Gold.Chemscore.Hbond>
0.9276

> <Gold.Chemscore.Metal>
0.0000

> <Gold.Chemscore.Lipo>
91.4852

> <Gold.Chemscore.Internal_Hbond>
0.0000

> <Gold.Chemscore.DEClash>
0.1353

> <Gold.Chemscore.DEInternal>
1.9819

> <Gold.Chemscore.Rot>
2.6702

> <Gold.Chemscore.Internal.Correction>
   9.000000E+99

> <Gold.Chemscore.Hbonds>
donor molecule, donor type, donor heavy atom, donor atom, acceptor molecule, acceptor atom, score
      P1  H  7997  8008       L1    18  0.73

> <Gold.Chemscore.Hbond.Weighted>
-3.0981

> <Gold.Chemscore.Metal.Weighted>
-0.0000

> <Gold.Chemscore.Lipo.Weighted>
-10.7038

> <Gold.Chemscore.Internal_Hbond.Weighted>
0.0000

> <Gold.Chemscore.DEClash.Weighted>
0.1353

> <Gold.Chemscore.DEInternal.Weighted>
1.9819

> <Gold.Chemscore.Rot.Weighted>
6.8358

> <Gold.Chemscore.Internal.Correction.Weighted>
   9.000000E+99

> <Gold.Protein.RotatedTorsions>
[ 6907 6896 6895 6894 ] final   34.30 input  -60.11 | X-H torsion
[ 7974 7965 7964 7962 ] final  137.56 input  175.53 | X-H torsion
[ 8008 7997 7996 7995 ] final  -69.73 input   59.86 | X-H torsion
[ 10167 10162 10161 10158 ] final  -95.10 input  -65.29 | X-H torsion
[ 10718 10713 10712 10709 ] final   80.44 input   66.30 | X-H torsion
[ 10763 10752 10751 10750 ] final -112.84 input  -60.55 | X-H torsion
[ 11005 11000 10999 10996 ] final  -51.60 input  -57.11 | X-H torsion

> <Gold.Protein.ActiveResidues>
 VAL166  LYS551  ARG553  GLY616  TRP617  ASP618  TYR619  PRO620  LYS621  CYS622 
 ASP623  PHE694  ASN695  SER759  ASP760  ASP761  ALA762  ILE779  LEU786  VAL792 
 PHE793  MET794  SER795  GLU796  ALA797  LYS798  CYS799  TRP800  GLU811  SER814 

> <Gold.Protein.RotatedAtoms>
  152.1005  134.9345  160.0569 H   0  0  0  0  0  0  0  0  0  0  0  0  # atno 6907 bound_to 6896
  152.0561  133.4036  159.4406 H   0  0  0  0  0  0  0  0  0  0  0  0  # atno 6908 bound_to 6896
  150.6839  134.3173  159.4815 H   0  0  0  0  0  0  0  0  0  0  0  0  # atno 6909 bound_to 6896
  144.9456  139.4878  143.5550 H   0  0  0  0  0  0  0  0  0  0  0  0  # atno 7974 bound_to 7965
  154.4960  140.0848  156.7697 H   0  0  0  0  0  0  0  0  0  0  0  0  # atno 8008 bound_to 7997
  155.4116  140.3442  155.4246 H   0  0  0  0  0  0  0  0  0  0  0  0  # atno 8009 bound_to 7997
  156.1394  140.1525  156.8932 H   0  0  0  0  0  0  0  0  0  0  0  0  # atno 8010 bound_to 7997
  140.3077  143.3124  152.0182 H   0  0  0  0  0  0  0  0  0  0  0  0  # atno 10167 bound_to 10162
  157.6806  130.9959  150.2079 H   0  0  0  0  0  0  0  0  0  0  0  0  # atno 10718 bound_to 10713
  154.8368  135.4476  154.1256 H   0  0  0  0  0  0  0  0  0  0  0  0  # atno 10763 bound_to 10752
  153.2480  135.6923  153.7716 H   0  0  0  0  0  0  0  0  0  0  0  0  # atno 10764 bound_to 10752
  153.7039  135.3367  155.3207 H   0  0  0  0  0  0  0  0  0  0  0  0  # atno 10765 bound_to 10752
  141.0880  133.6638  156.3901 H   0  0  0  0  0  0  0  0  0  0  0  0  # atno 11005 bound_to 11000
  146.3302  139.8506  142.8874 LP  0  0  0  0  0  0  0  0  0  0  0  0  # atno 17320 bound_to 7965
  145.2922  141.0170  143.3656 LP  0  0  0  0  0  0  0  0  0  0  0  0  # atno 17321 bound_to 7965
  139.4901  144.6408  151.6880 LP  0  0  0  0  0  0  0  0  0  0  0  0  # atno 17342 bound_to 10162
  140.5596  144.0291  150.6163 LP  0  0  0  0  0  0  0  0  0  0  0  0  # atno 17343 bound_to 10162
  156.2756  130.3727  149.7987 LP  0  0  0  0  0  0  0  0  0  0  0  0  # atno 17370 bound_to 10713
  156.5690  130.8416  151.3351 LP  0  0  0  0  0  0  0  0  0  0  0  0  # atno 17371 bound_to 10713
  140.5319  134.6204  157.5352 LP  0  0  0  0  0  0  0  0  0  0  0  0  # atno 17394 bound_to 11000
  139.9701  134.7308  156.0059 LP  0  0  0  0  0  0  0  0  0  0  0  0  # atno 17395 bound_to 11000

$$$$
