AV-unprocessed.smi:49|AV-procd|sdf|477|dock6
  -GOLD-   2262016343D 1   1.00000     0.00000
 Structure written by MMmdl.
 27 28  0  0  0  0  0  0  0  0  1 V2000
  152.2833  144.0583  161.5435 C   0  0  0  0  0  0  0  0  0  0  0  0
  152.8668  143.1894  160.4236 C   0  0  0  0  0  0  0  0  0  0  0  0
  151.9257  143.0420  159.2740 C   0  0  0  0  0  0  0  0  0  0  0  0
  151.3722  141.8426  158.9221 N   0  0  0  0  0  0  0  0  0  0  0  0
  150.6723  142.2095  157.8519 C   0  0  0  0  0  0  0  0  0  0  0  0
  149.8135  141.3097  157.0180 C   0  0  2  0  0  0  0  0  0  0  0  0
  150.3349  141.1467  155.5833 C   0  0  0  0  0  0  0  0  0  0  0  0
  149.0610  140.8871  154.7922 C   0  0  2  0  0  0  0  0  0  0  0  0
  149.1925  141.1888  153.4195 O   0  0  0  0  0  0  0  0  0  0  0  0
  148.0610  141.8004  155.4946 C   0  0  0  0  0  0  0  0  0  0  0  0
  148.4237  141.7697  156.9093 N   0  0  0  0  0  0  0  0  0  0  0  0
  150.7990  143.5114  157.5852 N   0  0  0  0  0  0  0  0  0  0  0  0
  151.6221  144.0775  158.4928 N   0  0  0  0  0  0  0  0  0  0  0  0
  149.8051  140.3245  157.4863 H   0  0  0  0  0  0  0  0  0  0  0  0
  148.7573  139.8454  154.9068 H   0  0  0  0  0  0  0  0  0  0  0  0
  150.3726  144.0283  156.8296 H   0  0  0  0  0  0  0  0  0  0  0  0
  152.9881  144.1511  162.3700 H   0  0  0  0  0  0  0  0  0  0  0  0
  151.3625  143.6270  161.9370 H   0  0  0  0  0  0  0  0  0  0  0  0
  152.0569  145.0628  161.1843 H   0  0  0  0  0  0  0  0  0  0  0  0
  153.8000  143.6258  160.0657 H   0  0  0  0  0  0  0  0  0  0  0  0
  153.1171  142.2017  160.8130 H   0  0  0  0  0  0  0  0  0  0  0  0
  150.7890  142.0785  155.2409 H   0  0  0  0  0  0  0  0  0  0  0  0
  151.0791  140.3559  155.4854 H   0  0  0  0  0  0  0  0  0  0  0  0
  149.4394  140.4007  152.9603 H   0  0  0  0  0  0  0  0  0  0  0  0
  148.1680  142.8192  155.1194 H   0  0  0  0  0  0  0  0  0  0  0  0
  147.0271  141.4954  155.3311 H   0  0  0  0  0  0  0  0  0  0  0  0
  147.8254  141.0993  157.3811 H   0  0  0  0  0  0  0  0  0  0  0  0
  1  2  1  0  0  0  0
  1 17  1  0  0  0  0
  1 18  1  0  0  0  0
  1 19  1  0  0  0  0
  2 20  1  0  0  0  0
  2 21  1  0  0  0  0
  2  3  1  0  0  0  0
  3  4  1  0  0  0  0
  3 13  2  0  0  0  0
  4  5  2  0  0  0  0
  5  6  1  0  0  0  0
  5 12  1  0  0  0  0
  6 14  1  0  0  0  0
  6 11  1  0  0  0  0
  6  7  1  0  0  0  0
  7  8  1  0  0  0  0
  7 22  1  0  0  0  0
  7 23  1  0  0  0  0
  8 15  1  0  0  0  0
  8  9  1  0  0  0  0
  8 10  1  0  0  0  0
  9 24  1  0  0  0  0
 10 11  1  0  0  0  0
 10 25  1  0  0  0  0
 10 26  1  0  0  0  0
 11 27  1  0  0  0  0
 12 13  1  0  0  0  0
 12 16  1  0  0  0  0
M  END
> <s_m_source_file>
AV-unprocessed.smi

> <i_m_source_file_index>
49

> <i_lp_mmshare_version>
43012

> <i_f3d_flags>
0

> <s_epik_input>
W0NIM11bQ0gyXWMxbmMobltuSF0xKVtDQEBIXTJbQ0gyXVtDQEBIXShbT0hdKVtDSDJdW05IXTI=

> <s_epik_cmdline>
J2VwaWtfcHl0aG9uJywgJy1waCcsICc3LjAnLCAnLXRuJywgJzgnLCAnLW1hJywgJzIwMCcsICctbWV0YWxfYmluZGluZycsICctaW1hZScsICc8aW5maWxlLm1hZT4nLCAnLW9tYWUnLCAnPG91dGZpbGUubWFlPic=

> <r_epik_Ionization_Penalty>
1.31544

> <r_epik_Ionization_Penalty_Charging>
0

> <r_epik_Ionization_Penalty_Neutral>
1.31544

> <r_epik_State_Penalty>
2.06074

> <r_epik_Charging_Adjusted_Penalty>
2.06074

> <i_epik_Tot_Q>
0

> <i_epik_Tot_abs_Q>
0

> <r_epik_Metal_State_Penalty>
2.32913

> <b_epik_Metal_Only>
0

> <s_lp_Force_Field>
OPLS_2005

> <r_lp_Energy>
18.1318

> <b_lp_Chiralities_Consistent>
1

> <s_lp_Variant>
AV-unprocessed.smi:49-15

> <Gold.Version>
5.8.1

> <Gold.Id.Protein>
6NUR|6NUR_protein|mol2

> <Gold.PLP.Fitness>
35.3089

> <Gold.PLP.PLP>
-27.5187

> <Gold.PLP.part.hbond>
-4.2712

> <Gold.PLP.part.metal>
0.0000

> <Gold.PLP.part.buried>
-3.6248

> <Gold.PLP.part.nonpolar>
-19.6753

> <Gold.PLP.part.repulsive>
0.0960

> <Gold.PLP.ligand.clash>
0.0000

> <Gold.PLP.ligand.torsion>
0.0923

> <Gold.PLP.Chemscore.Hbond>
2.6560

> <Gold.PLP.Chemscore.CHOScore>
0.0000

> <Gold.PLP.Chemscore.Metal>
0.0000

> <Gold.Chemscore.Hbonds>
donor molecule, donor type, donor heavy atom, donor atom, acceptor molecule, acceptor atom, score
      L1  H     9    24       P1  7957  0.62
      L1  H    12    16       P1  8028  1.00
      P1  H  8011  8017       L1     9  1.00

> <Gold.PLP.Chemscore.Internal.Correction>
0.0068

> <Gold.Rescore>
     Score         DG    S(hbond)    S(metal)    S(lipo)     H(rot)  DE(clash)    DE(int)     intcor
     14.32     -14.46       2.41        0.00      48.51       1.86       0.01       0.13       ----

> <Gold.Chemscore.Fitness>
14.3162

> <Gold.Chemscore.DG>
-14.4594

> <Gold.Chemscore.ZeroCoef>
-5.4800

> <Gold.Chemscore.Hbond>
2.4113

> <Gold.Chemscore.Metal>
0.0000

> <Gold.Chemscore.Lipo>
48.5144

> <Gold.Chemscore.Internal_Hbond>
0.0000

> <Gold.Chemscore.DEClash>
0.0149

> <Gold.Chemscore.DEInternal>
0.1283

> <Gold.Chemscore.Rot>
1.8558

> <Gold.Chemscore.Internal.Correction>
   9.000000E+99

> <Gold.Chemscore.Hbonds>
donor molecule, donor type, donor heavy atom, donor atom, acceptor molecule, acceptor atom, score
      L1  H     9    24       P1  7957  0.62
      L1  H    12    16       P1  8028  0.95
      P1  H  8011  8017       L1     9  0.29

> <Gold.Chemscore.Hbond.Weighted>
-8.0539

> <Gold.Chemscore.Metal.Weighted>
-0.0000

> <Gold.Chemscore.Lipo.Weighted>
-5.6762

> <Gold.Chemscore.Internal_Hbond.Weighted>
0.0000

> <Gold.Chemscore.DEClash.Weighted>
0.0149

> <Gold.Chemscore.DEInternal.Weighted>
0.1283

> <Gold.Chemscore.Rot.Weighted>
4.7507

> <Gold.Chemscore.Internal.Correction.Weighted>
   9.000000E+99

> <Gold.Protein.RotatedTorsions>
[ 6907 6896 6895 6894 ] final  -70.66 input  -60.11 | X-H torsion
[ 7974 7965 7964 7962 ] final   31.20 input  175.53 | X-H torsion
[ 8008 7997 7996 7995 ] final  -47.72 input   59.86 | X-H torsion
[ 10167 10162 10161 10158 ] final  144.20 input  -65.29 | X-H torsion
[ 10718 10713 10712 10709 ] final  -19.40 input   66.30 | X-H torsion
[ 10763 10752 10751 10750 ] final   -9.47 input  -60.55 | X-H torsion
[ 11005 11000 10999 10996 ] final -158.99 input  -57.11 | X-H torsion

> <Gold.Protein.ActiveResidues>
 VAL166  LYS551  ARG553  GLY616  TRP617  ASP618  TYR619  PRO620  LYS621  CYS622 
 ASP623  PHE694  ASN695  SER759  ASP760  ASP761  ALA762  ILE779  LEU786  VAL792 
 PHE793  MET794  SER795  GLU796  ALA797  LYS798  CYS799  TRP800  GLU811  SER814 

> <Gold.Protein.RotatedAtoms>
  150.7247  134.5421  159.5751 H   0  0  0  0  0  0  0  0  0  0  0  0  # atno 6907 bound_to 6896
  152.2929  134.7698  160.0383 H   0  0  0  0  0  0  0  0  0  0  0  0  # atno 6908 bound_to 6896
  151.8305  133.3372  159.3648 H   0  0  0  0  0  0  0  0  0  0  0  0  # atno 6909 bound_to 6896
  146.1565  139.6688  142.9063 H   0  0  0  0  0  0  0  0  0  0  0  0  # atno 7974 bound_to 7965
  154.4020  140.1339  156.4221 H   0  0  0  0  0  0  0  0  0  0  0  0  # atno 8008 bound_to 7997
  155.7632  140.3485  155.5188 H   0  0  0  0  0  0  0  0  0  0  0  0  # atno 8009 bound_to 7997
  155.8838  140.0992  157.1457 H   0  0  0  0  0  0  0  0  0  0  0  0  # atno 8010 bound_to 7997
  139.4952  144.5988  151.6525 H   0  0  0  0  0  0  0  0  0  0  0  0  # atno 10167 bound_to 10162
  156.5461  130.4690  149.6475 H   0  0  0  0  0  0  0  0  0  0  0  0  # atno 10718 bound_to 10713
  153.4552  135.7015  153.6084 H   0  0  0  0  0  0  0  0  0  0  0  0  # atno 10763 bound_to 10752
  153.4401  135.3782  155.2223 H   0  0  0  0  0  0  0  0  0  0  0  0  # atno 10764 bound_to 10752
  154.8728  135.3972  154.3970 H   0  0  0  0  0  0  0  0  0  0  0  0  # atno 10765 bound_to 10752
  140.6475  134.4485  157.5234 H   0  0  0  0  0  0  0  0  0  0  0  0  # atno 11005 bound_to 11000
  145.4696  141.0435  143.2706 LP  0  0  0  0  0  0  0  0  0  0  0  0  # atno 17320 bound_to 7965
  144.7970  139.6215  143.7088 LP  0  0  0  0  0  0  0  0  0  0  0  0  # atno 17321 bound_to 7965
  140.5633  144.0232  150.6180 LP  0  0  0  0  0  0  0  0  0  0  0  0  # atno 17342 bound_to 10162
  140.3326  143.3068  152.0672 LP  0  0  0  0  0  0  0  0  0  0  0  0  # atno 17343 bound_to 10162
  156.2927  130.7133  151.1986 LP  0  0  0  0  0  0  0  0  0  0  0  0  # atno 17370 bound_to 10713
  157.7396  131.0527  150.5219 LP  0  0  0  0  0  0  0  0  0  0  0  0  # atno 17371 bound_to 10713
  139.9057  134.8454  156.1714 LP  0  0  0  0  0  0  0  0  0  0  0  0  # atno 17394 bound_to 11000
  141.0561  133.6864  156.1863 LP  0  0  0  0  0  0  0  0  0  0  0  0  # atno 17395 bound_to 11000

$$$$
