AV-unprocessed.smi:1641|AV-procd|sdf|6566|dock8
  -GOLD-   22720 7253D 1   1.00000     0.00000
 Structure written by MMmdl.
 41 42  0  0  0  0  0  0  0  0  3 V2000
  152.4510  141.6562  159.1925 C   0  0  0  0  0  0  0  0  0  0  0  0
  152.0831  141.0564  157.8789 C   0  0  0  0  0  0  0  0  0  0  0  0
  152.7944  140.0820  157.3070 N   0  0  0  0  0  0  0  0  0  0  0  0
  152.2574  139.6879  156.0899 N   0  0  0  0  0  0  0  0  0  0  0  0
  151.1457  140.3618  155.7627 C   0  0  0  0  0  0  0  0  0  0  0  0
  150.4755  140.1321  154.6214 N   0  5  0  0  0  0  0  0  0  0  0  0
  149.1298  140.2567  154.5912 C   0  0  0  0  0  0  0  0  0  0  0  0
  148.3712  140.2573  155.5632 O   0  0  0  0  0  0  0  0  0  0  0  0
  148.6295  140.3912  153.3565 N   0  0  0  0  0  0  0  0  0  0  0  0
  147.2174  140.5467  153.0385 C   0  0  0  0  0  0  0  0  0  0  0  0
  146.8342  139.6457  151.8544 C   0  0  0  0  0  0  0  0  0  0  0  0
  145.9096  138.5546  152.2504 N   0  3  1  0  0  0  0  0  0  0  0  0
  145.9945  137.3866  151.3421 C   0  0  0  0  0  0  0  0  0  0  0  0
  144.9743  136.3076  151.7506 C   0  0  1  0  0  0  0  0  0  0  0  0
  145.0831  135.0504  150.8809 C   0  0  0  0  0  0  0  0  0  0  0  0
  145.2115  135.9337  153.1031 O   0  0  0  0  0  0  0  0  0  0  0  0
  145.0483  137.0212  154.0069 C   0  0  1  0  0  0  0  0  0  0  0  0
  145.2318  136.4892  155.4325 C   0  0  0  0  0  0  0  0  0  0  0  0
  146.0681  138.1227  153.6611 C   0  0  0  0  0  0  0  0  0  0  0  0
  150.6829  141.5757  156.9556 S   0  0  0  0  0  0  0  0  0  0  0  0
  152.5095  140.8796  159.9553 H   0  0  0  0  0  0  0  0  0  0  0  0
  151.7048  142.3900  159.4975 H   0  0  0  0  0  0  0  0  0  0  0  0
  153.4192  142.1516  159.1187 H   0  0  0  0  0  0  0  0  0  0  0  0
  149.2813  140.3826  152.5857 H   0  0  0  0  0  0  0  0  0  0  0  0
  146.6350  140.2979  153.9259 H   0  0  0  0  0  0  0  0  0  0  0  0
  147.0133  141.5910  152.7969 H   0  0  0  0  0  0  0  0  0  0  0  0
  146.3477  140.2671  151.1006 H   0  0  0  0  0  0  0  0  0  0  0  0
  147.7237  139.2255  151.3819 H   0  0  0  0  0  0  0  0  0  0  0  0
  145.8012  137.7031  150.3162 H   0  0  0  0  0  0  0  0  0  0  0  0
  147.0069  136.9797  151.3673 H   0  0  0  0  0  0  0  0  0  0  0  0
  143.9615  136.7045  151.6599 H   0  0  0  0  0  0  0  0  0  0  0  0
  144.8920  135.2800  149.8324 H   0  0  0  0  0  0  0  0  0  0  0  0
  144.3589  134.2973  151.1925 H   0  0  0  0  0  0  0  0  0  0  0  0
  146.0762  134.6057  150.9509 H   0  0  0  0  0  0  0  0  0  0  0  0
  144.0349  137.4159  153.9133 H   0  0  0  0  0  0  0  0  0  0  0  0
  145.1072  137.2845  156.1679 H   0  0  0  0  0  0  0  0  0  0  0  0
  146.2242  136.0587  155.5695 H   0  0  0  0  0  0  0  0  0  0  0  0
  144.4992  135.7133  155.6558 H   0  0  0  0  0  0  0  0  0  0  0  0
  147.0846  137.7575  153.8180 H   0  0  0  0  0  0  0  0  0  0  0  0
  145.9254  138.9672  154.3345 H   0  0  0  0  0  0  0  0  0  0  0  0
  144.9736  138.9216  152.1546 H   0  0  0  0  0  0  0  0  0  0  0  0
  1  2  1  0  0  0  0
  1 21  1  0  0  0  0
  1 22  1  0  0  0  0
  1 23  1  0  0  0  0
  2 20  1  0  0  0  0
  2  3  2  0  0  0  0
  3  4  1  0  0  0  0
  4  5  2  0  0  0  0
  5  6  1  0  0  0  0
  5 20  1  0  0  0  0
  6  7  1  0  0  0  0
  7  8  2  0  0  0  0
  7  9  1  0  0  0  0
  9 10  1  0  0  0  0
  9 24  1  0  0  0  0
 10 11  1  0  0  0  0
 10 25  1  0  0  0  0
 10 26  1  0  0  0  0
 11 12  1  0  0  0  0
 11 27  1  0  0  0  0
 11 28  1  0  0  0  0
 12 19  1  0  0  0  0
 12 13  1  0  0  0  0
 12 41  1  0  0  0  0
 13 14  1  0  0  0  0
 13 29  1  0  0  0  0
 13 30  1  0  0  0  0
 14 15  1  0  0  0  0
 14 16  1  0  0  0  0
 14 31  1  0  0  0  0
 15 32  1  0  0  0  0
 15 33  1  0  0  0  0
 15 34  1  0  0  0  0
 16 17  1  0  0  0  0
 17 18  1  0  0  0  0
 17 19  1  0  0  0  0
 17 35  1  0  0  0  0
 18 36  1  0  0  0  0
 18 37  1  0  0  0  0
 18 38  1  0  0  0  0
 19 39  1  0  0  0  0
 19 40  1  0  0  0  0
M  CHG  1   6  -1
M  CHG  1  12   1
M  END
> <s_m_source_file>
AV-unprocessed.smi

> <i_m_source_file_index>
1641

> <i_lp_mmshare_version>
43012

> <i_f3d_flags>
0

> <s_epik_input>
W0NIM11jMW5uYyhzMSlbTkhdQyg9TylbTkhdW0NIMl1bQ0gyXU4yW0NIMl1bQ0BASF0oW0NIM10pT1tDQEBIXShbQ0gzXSlbQ0gyXTI=

> <s_epik_cmdline>
J2VwaWtfcHl0aG9uJywgJy1waCcsICc3LjAnLCAnLXRuJywgJzgnLCAnLW1hJywgJzIwMCcsICctbWV0YWxfYmluZGluZycsICctaW1hZScsICc8aW5maWxlLm1hZT4nLCAnLW9tYWUnLCAnPG91dGZpbGUubWFlPic=

> <r_lp_tautomer_probability>
1

> <r_epik_Ionization_Penalty>
3.5343

> <r_epik_Ionization_Penalty_Charging>
3.42778

> <r_epik_Ionization_Penalty_Neutral>
0.106519

> <r_epik_State_Penalty>
3.62118

> <r_epik_Charging_Adjusted_Penalty>
7.04896

> <i_epik_Tot_Q>
0

> <i_epik_Tot_abs_Q>
2

> <r_epik_Metal_State_Penalty>
1.13984

> <b_epik_Metal_Only>
1

> <s_lp_Force_Field>
OPLS_2005

> <r_lp_Energy>
7.34164

> <b_lp_Chiralities_Consistent>
1

> <s_lp_Variant>
AV-unprocessed.smi:1641-11

> <Gold.Version>
5.8.1

> <Gold.Id.Protein>
6NUR|6NUR_protein|mol2

> <Gold.PLP.Fitness>
42.5648

> <Gold.PLP.PLP>
-29.7766

> <Gold.PLP.part.hbond>
-4.9202

> <Gold.PLP.part.metal>
0.0000

> <Gold.PLP.part.buried>
1.5046

> <Gold.PLP.part.nonpolar>
-27.4638

> <Gold.PLP.part.repulsive>
0.3785

> <Gold.PLP.ligand.clash>
0.0000

> <Gold.PLP.ligand.torsion>
1.1029

> <Gold.PLP.Chemscore.Hbond>
4.9840

> <Gold.PLP.Chemscore.CHOScore>
0.0000

> <Gold.PLP.Chemscore.Metal>
0.0000

> <Gold.Chemscore.Hbonds>
donor molecule, donor type, donor heavy atom, donor atom, acceptor molecule, acceptor atom, score
      L1  H     9    24       P1  7957  0.93
      L1  H    12    41       P1 10175  1.95
      P1  H  7989  7998       L1     6  0.95
      P1  H  7997  8009       L1     3  0.93

> <Gold.PLP.Chemscore.Internal.Correction>
0.0421

> <Gold.Rescore>
     Score         DG    S(hbond)    S(metal)    S(lipo)     H(rot)  DE(clash)    DE(int)     intcor
     15.43     -16.97       2.55        0.00      60.67       1.61       0.35       1.19       ----

> <Gold.Chemscore.Fitness>
15.4342

> <Gold.Chemscore.DG>
-16.9742

> <Gold.Chemscore.ZeroCoef>
-5.4800

> <Gold.Chemscore.Hbond>
2.5479

> <Gold.Chemscore.Metal>
0.0000

> <Gold.Chemscore.Lipo>
60.6672

> <Gold.Chemscore.Internal_Hbond>
0.0000

> <Gold.Chemscore.DEClash>
0.3484

> <Gold.Chemscore.DEInternal>
1.1917

> <Gold.Chemscore.Rot>
1.6070

> <Gold.Chemscore.Internal.Correction>
   9.000000E+99

> <Gold.Chemscore.Hbonds>
donor molecule, donor type, donor heavy atom, donor atom, acceptor molecule, acceptor atom, score
      L1  H     9    24       P1  7957  0.84
      L1  H    12    41       P1 10175  0.87
      P1  H  7989  7998       L1     6  0.21
      P1  H  7997  8009       L1     3  0.23

> <Gold.Chemscore.Hbond.Weighted>
-8.5101

> <Gold.Chemscore.Metal.Weighted>
-0.0000

> <Gold.Chemscore.Lipo.Weighted>
-7.0981

> <Gold.Chemscore.Internal_Hbond.Weighted>
0.0000

> <Gold.Chemscore.DEClash.Weighted>
0.3484

> <Gold.Chemscore.DEInternal.Weighted>
1.1917

> <Gold.Chemscore.Rot.Weighted>
4.1139

> <Gold.Chemscore.Internal.Correction.Weighted>
   9.000000E+99

> <Gold.Protein.RotatedTorsions>
[ 6907 6896 6895 6894 ] final  -99.03 input  -60.11 | X-H torsion
[ 7974 7965 7964 7962 ] final -110.60 input  175.53 | X-H torsion
[ 8008 7997 7996 7995 ] final  161.22 input   59.86 | X-H torsion
[ 10167 10162 10161 10158 ] final  -83.09 input  -65.29 | X-H torsion
[ 10718 10713 10712 10709 ] final -143.22 input   66.30 | X-H torsion
[ 10763 10752 10751 10750 ] final -166.96 input  -60.55 | X-H torsion
[ 11005 11000 10999 10996 ] final  -66.31 input  -57.11 | X-H torsion

> <Gold.Protein.ActiveResidues>
 VAL166  LYS551  ARG553  GLY616  TRP617  ASP618  TYR619  PRO620  LYS621  CYS622 
 ASP623  PHE694  ASN695  SER759  ASP760  ASP761  ALA762  ILE779  LEU786  VAL792 
 PHE793  MET794  SER795  GLU796  ALA797  LYS798  CYS799  TRP800  GLU811  SER814 

> <Gold.Protein.RotatedAtoms>
  150.7066  134.1103  159.3997 H   0  0  0  0  0  0  0  0  0  0  0  0  # atno 6907 bound_to 6896
  151.9089  135.0345  160.0522 H   0  0  0  0  0  0  0  0  0  0  0  0  # atno 6908 bound_to 6896
  152.2352  133.5055  159.5275 H   0  0  0  0  0  0  0  0  0  0  0  0  # atno 6909 bound_to 6896
  145.1663  140.8903  143.3561 H   0  0  0  0  0  0  0  0  0  0  0  0  # atno 7974 bound_to 7965
  156.2118  140.1783  156.7678 H   0  0  0  0  0  0  0  0  0  0  0  0  # atno 8008 bound_to 7997
  154.5733  140.0678  156.9027 H   0  0  0  0  0  0  0  0  0  0  0  0  # atno 8009 bound_to 7997
  155.2633  140.3337  155.4274 H   0  0  0  0  0  0  0  0  0  0  0  0  # atno 8010 bound_to 7997
  140.4259  143.2566  151.8826 H   0  0  0  0  0  0  0  0  0  0  0  0  # atno 10167 bound_to 10162
  156.3553  130.7709  151.1869 H   0  0  0  0  0  0  0  0  0  0  0  0  # atno 10718 bound_to 10713
  154.6780  135.2950  154.9652 H   0  0  0  0  0  0  0  0  0  0  0  0  # atno 10763 bound_to 10752
  154.0656  135.6625  153.4821 H   0  0  0  0  0  0  0  0  0  0  0  0  # atno 10764 bound_to 10752
  153.0529  135.5162  154.7809 H   0  0  0  0  0  0  0  0  0  0  0  0  # atno 10765 bound_to 10752
  141.1479  133.6697  156.6120 H   0  0  0  0  0  0  0  0  0  0  0  0  # atno 11005 bound_to 11000
  145.0279  139.3367  143.6039 LP  0  0  0  0  0  0  0  0  0  0  0  0  # atno 17320 bound_to 7965
  146.3475  139.9605  142.8718 LP  0  0  0  0  0  0  0  0  0  0  0  0  # atno 17321 bound_to 7965
  139.4783  144.5387  151.8560 LP  0  0  0  0  0  0  0  0  0  0  0  0  # atno 17342 bound_to 10162
  140.4481  144.1893  150.5895 LP  0  0  0  0  0  0  0  0  0  0  0  0  # atno 17343 bound_to 10162
  157.7466  131.0416  150.4653 LP  0  0  0  0  0  0  0  0  0  0  0  0  # atno 17370 bound_to 10713
  156.4854  130.4083  149.6437 LP  0  0  0  0  0  0  0  0  0  0  0  0  # atno 17371 bound_to 10713
  140.3607  134.7690  157.4531 LP  0  0  0  0  0  0  0  0  0  0  0  0  # atno 17394 bound_to 11000
  140.0787  134.5761  155.8563 LP  0  0  0  0  0  0  0  0  0  0  0  0  # atno 17395 bound_to 11000

$$$$
