AV-unprocessed.smi:2336|AV-procd|sdf|9329|dock6
  -GOLD-   2272012553D 1   1.00000     0.00000
 Structure written by MMmdl.
 50 51  0  0  0  0  0  0  0  0  2 V2000
  146.6377  141.7624  153.9324 C   0  0  0  0  0  0  0  0  0  0  0  0
  147.7346  140.8669  154.5396 C   0  0  0  0  0  0  0  0  0  0  0  0
  149.0178  141.7040  154.7138 C   0  0  0  0  0  0  0  0  0  0  0  0
  147.9937  139.5719  153.7142 C   0  0  2  0  0  0  0  0  0  0  0  0
  146.6827  138.8087  153.3655 C   0  0  0  0  0  0  0  0  0  0  0  0
  146.9091  137.6099  152.5623 N   0  0  0  0  0  0  0  0  0  0  0  0
  145.9760  136.7128  152.2125 C   0  0  0  0  0  0  0  0  0  0  0  0
  144.7915  136.8040  152.5331 O   0  0  0  0  0  0  0  0  0  0  0  0
  146.5164  135.7044  151.5078 N   0  0  0  0  0  0  0  0  0  0  0  0
  145.8776  134.5562  150.9651 C   0  0  0  0  0  0  0  0  0  0  0  0
  144.5949  134.5693  150.3655 C   0  0  0  0  0  0  0  0  0  0  0  0
  144.0819  133.3643  149.8444 C   0  0  0  0  0  0  0  0  0  0  0  0
  144.7525  132.1934  149.8789 N   0  0  0  0  0  0  0  0  0  0  0  0
  145.9802  132.1874  150.4402 C   0  0  0  0  0  0  0  0  0  0  0  0
  146.5850  133.3357  150.9900 C   0  0  0  0  0  0  0  0  0  0  0  0
  147.8231  133.2626  151.5362 F   0  0  0  0  0  0  0  0  0  0  0  0
  149.0248  138.7311  154.4022 N   0  3  0  0  0  0  0  0  0  0  0  0
  148.7691  138.4548  155.8386 C   0  0  0  0  0  0  0  0  0  0  0  0
  149.7431  137.3755  156.3548 C   0  0  0  0  0  0  0  0  0  0  0  0
  151.1432  137.7489  156.1441 N   0  0  0  0  0  0  0  0  0  0  0  0
  151.5851  138.8348  157.0132 C   0  0  0  0  0  0  0  0  0  0  0  0
  151.3809  138.0157  154.7239 C   0  0  0  0  0  0  0  0  0  0  0  0
  150.4431  139.1094  154.1737 C   0  0  0  0  0  0  0  0  0  0  0  0
  146.8540  142.0070  152.8918 H   0  0  0  0  0  0  0  0  0  0  0  0
  146.5505  142.7014  154.4798 H   0  0  0  0  0  0  0  0  0  0  0  0
  145.6559  141.2915  153.9735 H   0  0  0  0  0  0  0  0  0  0  0  0
  147.3936  140.5828  155.5356 H   0  0  0  0  0  0  0  0  0  0  0  0
  149.4334  141.9972  153.7490 H   0  0  0  0  0  0  0  0  0  0  0  0
  149.7902  141.1633  155.2607 H   0  0  0  0  0  0  0  0  0  0  0  0
  148.8175  142.6166  155.2761 H   0  0  0  0  0  0  0  0  0  0  0  0
  148.4294  139.9016  152.7696 H   0  0  0  0  0  0  0  0  0  0  0  0
  146.1226  138.5875  154.2752 H   0  0  0  0  0  0  0  0  0  0  0  0
  146.0303  139.4377  152.7619 H   0  0  0  0  0  0  0  0  0  0  0  0
  147.8546  137.4518  152.2449 H   0  0  0  0  0  0  0  0  0  0  0  0
  147.5193  135.7274  151.3943 H   0  0  0  0  0  0  0  0  0  0  0  0
  144.0054  135.4691  150.2815 H   0  0  0  0  0  0  0  0  0  0  0  0
  143.1070  133.3429  149.3800 H   0  0  0  0  0  0  0  0  0  0  0  0
  146.4969  131.2390  150.4494 H   0  0  0  0  0  0  0  0  0  0  0  0
  148.8556  139.3573  156.4400 H   0  0  0  0  0  0  0  0  0  0  0  0
  147.7476  138.0949  155.9637 H   0  0  0  0  0  0  0  0  0  0  0  0
  149.5707  137.1827  157.4144 H   0  0  0  0  0  0  0  0  0  0  0  0
  149.5534  136.4350  155.8356 H   0  0  0  0  0  0  0  0  0  0  0  0
  152.6479  139.0281  156.8637 H   0  0  0  0  0  0  0  0  0  0  0  0
  151.4437  138.5620  158.0596 H   0  0  0  0  0  0  0  0  0  0  0  0
  151.0467  139.7647  156.8333 H   0  0  0  0  0  0  0  0  0  0  0  0
  152.4236  138.2981  154.5738 H   0  0  0  0  0  0  0  0  0  0  0  0
  151.2280  137.0904  154.1666 H   0  0  0  0  0  0  0  0  0  0  0  0
  150.6261  139.2295  153.1063 H   0  0  0  0  0  0  0  0  0  0  0  0
  150.6734  140.0669  154.6355 H   0  0  0  0  0  0  0  0  0  0  0  0
  148.9260  137.8265  153.9642 H   0  0  0  0  0  0  0  0  0  0  0  0
  1  2  1  0  0  0  0
  1 24  1  0  0  0  0
  1 25  1  0  0  0  0
  1 26  1  0  0  0  0
  2  3  1  0  0  0  0
  2  4  1  0  0  0  0
  2 27  1  0  0  0  0
  3 28  1  0  0  0  0
  3 29  1  0  0  0  0
  3 30  1  0  0  0  0
  4  5  1  0  0  0  0
  4 17  1  0  0  0  0
  4 31  1  0  0  0  0
  5  6  1  0  0  0  0
  5 32  1  0  0  0  0
  5 33  1  0  0  0  0
  6  7  1  0  0  0  0
  6 34  1  0  0  0  0
  7  8  2  0  0  0  0
  7  9  1  0  0  0  0
  9 10  1  0  0  0  0
  9 35  1  0  0  0  0
 10 15  1  0  0  0  0
 10 11  2  0  0  0  0
 11 12  1  0  0  0  0
 11 36  1  0  0  0  0
 12 13  2  0  0  0  0
 12 37  1  0  0  0  0
 13 14  1  0  0  0  0
 14 15  2  0  0  0  0
 14 38  1  0  0  0  0
 15 16  1  0  0  0  0
 17 23  1  0  0  0  0
 17 18  1  0  0  0  0
 17 50  1  0  0  0  0
 18 19  1  0  0  0  0
 18 39  1  0  0  0  0
 18 40  1  0  0  0  0
 19 20  1  0  0  0  0
 19 41  1  0  0  0  0
 19 42  1  0  0  0  0
 20 21  1  0  0  0  0
 20 22  1  0  0  0  0
 21 43  1  0  0  0  0
 21 44  1  0  0  0  0
 21 45  1  0  0  0  0
 22 23  1  0  0  0  0
 22 46  1  0  0  0  0
 22 47  1  0  0  0  0
 23 48  1  0  0  0  0
 23 49  1  0  0  0  0
M  CHG  1  17   1
M  END
> <s_m_source_file>
AV-unprocessed.smi

> <i_m_source_file_index>
2336

> <i_lp_mmshare_version>
43012

> <i_f3d_flags>
0

> <s_epik_input>
W0NIMl0xW0NIMl1OKFtDSDNdKVtDSDJdW0NIMl1OMVtDQEhdKFtDSF0oW0NIM10pW0NIM10pW0NIMl1bTkhdQyg9TylbTkhdYzJbY0hdW2NIXW5bY0hdYzJG

> <s_epik_cmdline>
J2VwaWtfcHl0aG9uJywgJy1waCcsICc3LjAnLCAnLXRuJywgJzgnLCAnLW1hJywgJzIwMCcsICctbWV0YWxfYmluZGluZycsICctaW1hZScsICc8aW5maWxlLm1hZT4nLCAnLW9tYWUnLCAnPG91dGZpbGUubWFlPic=

> <r_epik_Ionization_Penalty>
0.204575

> <r_epik_Ionization_Penalty_Charging>
0.20006

> <r_epik_Ionization_Penalty_Neutral>
0.00451444

> <r_epik_State_Penalty>
1.43207

> <r_epik_Charging_Adjusted_Penalty>
1.63213

> <i_epik_Tot_Q>
1

> <i_epik_Tot_abs_Q>
1

> <r_epik_Metal_State_Penalty>
1.43277

> <b_epik_Metal_Only>
0

> <s_lp_Force_Field>
OPLS_2005

> <r_lp_Energy>
38.6222

> <b_lp_Chiralities_Consistent>
1

> <s_lp_Variant>
AV-unprocessed.smi:2336-3

> <Gold.Version>
5.8.1

> <Gold.Id.Protein>
6NUR|6NUR_protein|mol2

> <Gold.PLP.Fitness>
43.9707

> <Gold.PLP.PLP>
-34.9266

> <Gold.PLP.part.hbond>
-1.8857

> <Gold.PLP.part.metal>
0.0000

> <Gold.PLP.part.buried>
-2.4137

> <Gold.PLP.part.nonpolar>
-30.2994

> <Gold.PLP.part.repulsive>
0.4755

> <Gold.PLP.ligand.clash>
0.0000

> <Gold.PLP.ligand.torsion>
0.7307

> <Gold.PLP.Chemscore.Hbond>
1.9760

> <Gold.PLP.Chemscore.CHOScore>
1.4530

> <Gold.PLP.Chemscore.Metal>
0.0000

> <Gold.Chemscore.Hbonds>
donor molecule, donor type, donor heavy atom, donor atom, acceptor molecule, acceptor atom, score
      L1  H     6    34       P1  7948  0.88
      L1  H     9    35       P1  7948  1.00
      L1  C    12    37       P1 10186  1.00
      L1  C    14    38       P1 10747  0.95

> <Gold.PLP.Chemscore.Internal.Correction>
0.2186

> <Gold.Rescore>
     Score         DG    S(hbond)    S(metal)    S(lipo)     H(rot)  DE(clash)    DE(int)     intcor
     17.30     -18.21       1.91        0.00      90.83       1.67       0.03       0.88       ----

> <Gold.Chemscore.Fitness>
17.3029

> <Gold.Chemscore.DG>
-18.2147

> <Gold.Chemscore.ZeroCoef>
-5.4800

> <Gold.Chemscore.Hbond>
1.9139

> <Gold.Chemscore.Metal>
0.0000

> <Gold.Chemscore.Lipo>
90.8326

> <Gold.Chemscore.Internal_Hbond>
0.0000

> <Gold.Chemscore.DEClash>
0.0299

> <Gold.Chemscore.DEInternal>
0.8819

> <Gold.Chemscore.Rot>
1.6739

> <Gold.Chemscore.Internal.Correction>
   9.000000E+99

> <Gold.Chemscore.Hbonds>
donor molecule, donor type, donor heavy atom, donor atom, acceptor molecule, acceptor atom, score
      L1  H     6    34       P1  7948  0.86
      L1  H     9    35       P1  7948  0.88

> <Gold.Chemscore.Hbond.Weighted>
-6.3924

> <Gold.Chemscore.Metal.Weighted>
-0.0000

> <Gold.Chemscore.Lipo.Weighted>
-10.6274

> <Gold.Chemscore.Internal_Hbond.Weighted>
0.0000

> <Gold.Chemscore.DEClash.Weighted>
0.0299

> <Gold.Chemscore.DEInternal.Weighted>
0.8819

> <Gold.Chemscore.Rot.Weighted>
4.2851

> <Gold.Chemscore.Internal.Correction.Weighted>
   9.000000E+99

> <Gold.Protein.RotatedTorsions>
[ 6907 6896 6895 6894 ] final  103.97 input  -60.11 | X-H torsion
[ 7974 7965 7964 7962 ] final  -10.57 input  175.53 | X-H torsion
[ 8008 7997 7996 7995 ] final -117.03 input   59.86 | X-H torsion
[ 10167 10162 10161 10158 ] final   43.61 input  -65.29 | X-H torsion
[ 10718 10713 10712 10709 ] final  -24.19 input   66.30 | X-H torsion
[ 10763 10752 10751 10750 ] final  -64.28 input  -60.55 | X-H torsion
[ 11005 11000 10999 10996 ] final  145.02 input  -57.11 | X-H torsion

> <Gold.Protein.ActiveResidues>
 VAL166  LYS551  ARG553  GLY616  TRP617  ASP618  TYR619  PRO620  LYS621  CYS622 
 ASP623  PHE694  ASN695  SER759  ASP760  ASP761  ALA762  ILE779  LEU786  VAL792 
 PHE793  MET794  SER795  GLU796  ALA797  LYS798  CYS799  TRP800  GLU811  SER814 

> <Gold.Protein.RotatedAtoms>
  152.5279  133.9746  159.7777 H   0  0  0  0  0  0  0  0  0  0  0  0  # atno 6907 bound_to 6896
  151.0011  133.6047  159.2702 H   0  0  0  0  0  0  0  0  0  0  0  0  # atno 6908 bound_to 6896
  151.3155  135.0812  159.9341 H   0  0  0  0  0  0  0  0  0  0  0  0  # atno 6909 bound_to 6896
  146.2216  140.2783  142.8361 H   0  0  0  0  0  0  0  0  0  0  0  0  # atno 7974 bound_to 7965
  155.0772  140.0394  157.2628 H   0  0  0  0  0  0  0  0  0  0  0  0  # atno 8008 bound_to 7997
  154.6935  140.2658  155.6764 H   0  0  0  0  0  0  0  0  0  0  0  0  # atno 8009 bound_to 7997
  156.2737  140.2755  156.1521 H   0  0  0  0  0  0  0  0  0  0  0  0  # atno 8010 bound_to 7997
  140.3426  144.2451  150.6154 H   0  0  0  0  0  0  0  0  0  0  0  0  # atno 10167 bound_to 10162
  156.4809  130.4545  149.6812 H   0  0  0  0  0  0  0  0  0  0  0  0  # atno 10718 bound_to 10713
  154.3278  135.6183  153.5537 H   0  0  0  0  0  0  0  0  0  0  0  0  # atno 10763 bound_to 10752
  152.9814  135.5739  154.4997 H   0  0  0  0  0  0  0  0  0  0  0  0  # atno 10764 bound_to 10752
  154.4677  135.2858  155.1642 H   0  0  0  0  0  0  0  0  0  0  0  0  # atno 10765 bound_to 10752
  140.0679  134.9168  157.1295 H   0  0  0  0  0  0  0  0  0  0  0  0  # atno 11005 bound_to 11000
  144.9216  140.7874  143.5745 LP  0  0  0  0  0  0  0  0  0  0  0  0  # atno 17320 bound_to 7965
  145.2720  139.1951  143.4836 LP  0  0  0  0  0  0  0  0  0  0  0  0  # atno 17321 bound_to 7965
  140.5294  143.2247  151.8262 LP  0  0  0  0  0  0  0  0  0  0  0  0  # atno 17342 bound_to 10162
  139.4838  144.4739  151.9391 LP  0  0  0  0  0  0  0  0  0  0  0  0  # atno 17343 bound_to 10162
  156.3522  130.7438  151.2399 LP  0  0  0  0  0  0  0  0  0  0  0  0  # atno 17370 bound_to 10713
  157.7483  131.0374  150.4453 LP  0  0  0  0  0  0  0  0  0  0  0  0  # atno 17371 bound_to 10713
  140.3672  134.2430  155.7181 LP  0  0  0  0  0  0  0  0  0  0  0  0  # atno 17394 bound_to 11000
  141.2000  133.7998  157.0510 LP  0  0  0  0  0  0  0  0  0  0  0  0  # atno 17395 bound_to 11000

$$$$
