AV-unprocessed.smi:3281|AV-procd|sdf|12558|dock3
  -GOLD-   2272018473D 1   1.00000     0.00000
 Structure written by MMmdl.
 36 37  0  0  0  0  0  0  0  0  1 V2000
  146.9075  142.2636  153.8494 C   0  0  0  0  0  0  0  0  0  0  0  0
  147.2699  140.8426  153.4039 C   0  0  0  0  0  0  0  0  0  0  0  0
  148.5229  140.3313  154.0346 C   0  0  0  0  0  0  0  0  0  0  0  0
  149.0421  139.0626  153.9573 C   0  0  0  0  0  0  0  0  0  0  0  0
  150.2310  138.8942  154.6703 N   0  0  0  0  0  0  0  0  0  0  0  0
  150.6279  140.0176  155.2738 C   0  0  0  0  0  0  0  0  0  0  0  0
  151.8454  140.1107  156.1365 C   0  0  0  0  0  0  0  0  0  0  0  0
  151.5801  140.7911  157.4889 C   0  0  0  0  0  0  0  0  0  0  0  0
  151.3380  142.2161  157.3058 N   0  0  0  0  0  0  0  0  0  0  0  0
  151.1753  142.9179  158.5724 C   0  0  2  0  0  0  0  0  0  0  0  0
  151.0480  144.4215  158.2597 C   0  0  0  0  0  0  0  0  0  0  0  0
  150.8149  145.2681  159.5212 C   0  0  0  0  0  0  0  0  0  0  0  0
  151.9747  145.1580  160.5204 C   0  0  0  0  0  0  0  0  0  0  0  0
  152.1770  143.4538  161.1051 S   0  0  0  0  0  0  0  0  0  0  0  0
  152.3771  142.6361  159.4988 C   0  0  0  0  0  0  0  0  0  0  0  0
  149.5284  141.3666  155.0158 S   0  0  0  0  0  0  0  0  0  0  0  0
  145.9863  142.5973  153.3716 H   0  0  0  0  0  0  0  0  0  0  0  0
  147.6938  142.9722  153.5875 H   0  0  0  0  0  0  0  0  0  0  0  0
  146.7595  142.3111  154.9286 H   0  0  0  0  0  0  0  0  0  0  0  0
  146.4433  140.1710  153.6384 H   0  0  0  0  0  0  0  0  0  0  0  0
  147.3772  140.8207  152.3190 H   0  0  0  0  0  0  0  0  0  0  0  0
  148.6293  138.2193  153.4236 H   0  0  0  0  0  0  0  0  0  0  0  0
  152.2527  139.1101  156.2886 H   0  0  0  0  0  0  0  0  0  0  0  0
  152.6057  140.6711  155.5919 H   0  0  0  0  0  0  0  0  0  0  0  0
  150.7072  140.3422  157.9639 H   0  0  0  0  0  0  0  0  0  0  0  0
  152.4290  140.6232  158.1511 H   0  0  0  0  0  0  0  0  0  0  0  0
  152.0875  142.6345  156.7725 H   0  0  0  0  0  0  0  0  0  0  0  0
  150.2514  142.5849  159.0482 H   0  0  0  0  0  0  0  0  0  0  0  0
  151.9428  144.7751  157.7451 H   0  0  0  0  0  0  0  0  0  0  0  0
  150.2172  144.5824  157.5712 H   0  0  0  0  0  0  0  0  0  0  0  0
  150.6867  146.3122  159.2343 H   0  0  0  0  0  0  0  0  0  0  0  0
  149.8835  144.9669  160.0022 H   0  0  0  0  0  0  0  0  0  0  0  0
  152.9062  145.4894  160.0605 H   0  0  0  0  0  0  0  0  0  0  0  0
  151.7948  145.8037  161.3802 H   0  0  0  0  0  0  0  0  0  0  0  0
  152.4959  141.5692  159.6856 H   0  0  0  0  0  0  0  0  0  0  0  0
  153.3044  142.9826  159.0410 H   0  0  0  0  0  0  0  0  0  0  0  0
  1  2  1  0  0  0  0
  1 17  1  0  0  0  0
  1 18  1  0  0  0  0
  1 19  1  0  0  0  0
  2  3  1  0  0  0  0
  2 20  1  0  0  0  0
  2 21  1  0  0  0  0
  3 16  1  0  0  0  0
  3  4  2  0  0  0  0
  4  5  1  0  0  0  0
  4 22  1  0  0  0  0
  5  6  2  0  0  0  0
  6  7  1  0  0  0  0
  6 16  1  0  0  0  0
  7  8  1  0  0  0  0
  7 23  1  0  0  0  0
  7 24  1  0  0  0  0
  8  9  1  0  0  0  0
  8 25  1  0  0  0  0
  8 26  1  0  0  0  0
  9 10  1  0  0  0  0
  9 27  1  0  0  0  0
 10 15  1  0  0  0  0
 10 11  1  0  0  0  0
 10 28  1  0  0  0  0
 11 12  1  0  0  0  0
 11 29  1  0  0  0  0
 11 30  1  0  0  0  0
 12 13  1  0  0  0  0
 12 31  1  0  0  0  0
 12 32  1  0  0  0  0
 13 14  1  0  0  0  0
 13 33  1  0  0  0  0
 13 34  1  0  0  0  0
 14 15  1  0  0  0  0
 15 35  1  0  0  0  0
 15 36  1  0  0  0  0
M  END
> <s_m_source_file>
AV-unprocessed.smi

> <i_m_source_file_index>
3281

> <i_lp_mmshare_version>
43012

> <i_f3d_flags>
0

> <s_epik_input>
W0NIM11bQ0gyXWMxW2NIXW5jKHMxKVtDSDJdW0NIMl1bTkhdW0NAQEhdMltDSDJdW0NIMl1bQ0gyXVNbQ0gyXTI=

> <s_epik_cmdline>
J2VwaWtfcHl0aG9uJywgJy1waCcsICc3LjAnLCAnLXRuJywgJzgnLCAnLW1hJywgJzIwMCcsICctbWV0YWxfYmluZGluZycsICctaW1hZScsICc8aW5maWxlLm1hZT4nLCAnLW9tYWUnLCAnPG91dGZpbGUubWFlPic=

> <r_epik_Ionization_Penalty>
2.53829

> <r_epik_Ionization_Penalty_Charging>
0

> <r_epik_Ionization_Penalty_Neutral>
2.53829

> <r_epik_State_Penalty>
2.70274

> <r_epik_Charging_Adjusted_Penalty>
2.70274

> <i_epik_Tot_Q>
0

> <i_epik_Tot_abs_Q>
0

> <r_epik_Metal_State_Penalty>
2.69977

> <b_epik_Metal_Only>
0

> <s_lp_Force_Field>
OPLS_2005

> <r_lp_Energy>
0.229732

> <b_lp_Chiralities_Consistent>
1

> <s_lp_Variant>
AV-unprocessed.smi:3281-3

> <Gold.Version>
5.8.1

> <Gold.Id.Protein>
6NUR|6NUR_protein|mol2

> <Gold.PLP.Fitness>
42.8752

> <Gold.PLP.PLP>
-40.3264

> <Gold.PLP.part.hbond>
0.0000

> <Gold.PLP.part.metal>
0.0000

> <Gold.PLP.part.buried>
-3.1445

> <Gold.PLP.part.nonpolar>
-37.3537

> <Gold.PLP.part.repulsive>
0.1408

> <Gold.PLP.ligand.clash>
0.0000

> <Gold.PLP.ligand.torsion>
0.2334

> <Gold.PLP.Chemscore.Hbond>
0.0000

> <Gold.PLP.Chemscore.CHOScore>
1.0000

> <Gold.PLP.Chemscore.Metal>
0.0000

> <Gold.Chemscore.Hbonds>
donor molecule, donor type, donor heavy atom, donor atom, acceptor molecule, acceptor atom, score
      L1  C     4    22       P1  7948  1.00

> <Gold.PLP.Chemscore.Internal.Correction>
0.0156

> <Gold.Rescore>
     Score         DG    S(hbond)    S(metal)    S(lipo)     H(rot)  DE(clash)    DE(int)     intcor
     15.99     -16.14       0.00        0.00     119.53       1.30       0.01       0.14       ----

> <Gold.Chemscore.Fitness>
15.9920

> <Gold.Chemscore.DG>
-16.1442

> <Gold.Chemscore.ZeroCoef>
-5.4800

> <Gold.Chemscore.Hbond>
0.0000

> <Gold.Chemscore.Metal>
0.0000

> <Gold.Chemscore.Lipo>
119.5301

> <Gold.Chemscore.Internal_Hbond>
0.0000

> <Gold.Chemscore.DEClash>
0.0101

> <Gold.Chemscore.DEInternal>
0.1422

> <Gold.Chemscore.Rot>
1.2972

> <Gold.Chemscore.Internal.Correction>
   9.000000E+99

> <Gold.Chemscore.Hbond.Weighted>
-0.0000

> <Gold.Chemscore.Metal.Weighted>
-0.0000

> <Gold.Chemscore.Lipo.Weighted>
-13.9850

> <Gold.Chemscore.Internal_Hbond.Weighted>
0.0000

> <Gold.Chemscore.DEClash.Weighted>
0.0101

> <Gold.Chemscore.DEInternal.Weighted>
0.1422

> <Gold.Chemscore.Rot.Weighted>
3.3208

> <Gold.Chemscore.Internal.Correction.Weighted>
   9.000000E+99

> <Gold.Protein.RotatedTorsions>
[ 6907 6896 6895 6894 ] final  104.60 input  -60.11 | X-H torsion
[ 7974 7965 7964 7962 ] final   64.24 input  175.53 | X-H torsion
[ 8008 7997 7996 7995 ] final  163.47 input   59.86 | X-H torsion
[ 10167 10162 10161 10158 ] final -146.51 input  -65.29 | X-H torsion
[ 10718 10713 10712 10709 ] final  -69.18 input   66.30 | X-H torsion
[ 10763 10752 10751 10750 ] final   84.52 input  -60.55 | X-H torsion
[ 11005 11000 10999 10996 ] final  169.10 input  -57.11 | X-H torsion

> <Gold.Protein.ActiveResidues>
 VAL166  LYS551  ARG553  GLY616  TRP617  ASP618  TYR619  PRO620  LYS621  CYS622 
 ASP623  PHE694  ASN695  SER759  ASP760  ASP761  ALA762  ILE779  LEU786  VAL792 
 PHE793  MET794  SER795  GLU796  ALA797  LYS798  CYS799  TRP800  GLU811  SER814 

> <Gold.Protein.RotatedAtoms>
  152.5259  133.9653  159.7736 H   0  0  0  0  0  0  0  0  0  0  0  0  # atno 6907 bound_to 6896
  150.9936  133.6117  159.2712 H   0  0  0  0  0  0  0  0  0  0  0  0  # atno 6908 bound_to 6896
  151.3252  135.0834  159.9372 H   0  0  0  0  0  0  0  0  0  0  0  0  # atno 6909 bound_to 6896
  145.8525  139.3263  143.0867 H   0  0  0  0  0  0  0  0  0  0  0  0  # atno 7974 bound_to 7965
  156.1954  140.1722  156.8008 H   0  0  0  0  0  0  0  0  0  0  0  0  # atno 8008 bound_to 7997
  154.5523  140.0715  156.8719 H   0  0  0  0  0  0  0  0  0  0  0  0  # atno 8009 bound_to 7997
  155.3004  140.3361  155.4250 H   0  0  0  0  0  0  0  0  0  0  0  0  # atno 8010 bound_to 7997
  139.7706  143.8243  152.2624 H   0  0  0  0  0  0  0  0  0  0  0  0  # atno 10167 bound_to 10162
  156.0468  130.4308  150.2109 H   0  0  0  0  0  0  0  0  0  0  0  0  # atno 10718 bound_to 10713
  153.1390  135.4651  154.9466 H   0  0  0  0  0  0  0  0  0  0  0  0  # atno 10763 bound_to 10752
  154.7730  135.3165  154.8152 H   0  0  0  0  0  0  0  0  0  0  0  0  # atno 10764 bound_to 10752
  153.8678  135.6906  153.4831 H   0  0  0  0  0  0  0  0  0  0  0  0  # atno 10765 bound_to 10752
  140.2942  134.7648  157.3863 H   0  0  0  0  0  0  0  0  0  0  0  0  # atno 11005 bound_to 11000
  145.9341  140.9027  143.0341 LP  0  0  0  0  0  0  0  0  0  0  0  0  # atno 17320 bound_to 7965
  144.6728  140.1459  143.7433 LP  0  0  0  0  0  0  0  0  0  0  0  0  # atno 17321 bound_to 7965
  139.8276  144.7268  150.9491 LP  0  0  0  0  0  0  0  0  0  0  0  0  # atno 17342 bound_to 10162
  140.7813  143.4100  151.1009 LP  0  0  0  0  0  0  0  0  0  0  0  0  # atno 17343 bound_to 10162
  157.0198  130.9976  151.3343 LP  0  0  0  0  0  0  0  0  0  0  0  0  # atno 17370 bound_to 10713
  157.5352  130.8084  149.7964 LP  0  0  0  0  0  0  0  0  0  0  0  0  # atno 17371 bound_to 10713
  140.1168  134.5273  155.8218 LP  0  0  0  0  0  0  0  0  0  0  0  0  # atno 17394 bound_to 11000
  141.2140  133.6742  156.6791 LP  0  0  0  0  0  0  0  0  0  0  0  0  # atno 17395 bound_to 11000

$$$$
