AV-unprocessed.smi:69|AV-procd|sdf|655|dock3
  -GOLD-   2262016553D 1   1.00000     0.00000
 Structure written by MMmdl.
 32 34  0  0  0  0  0  0  0  0  1 V2000
  152.7132  140.1427  158.6050 N   0  0  0  0  0  0  0  0  0  0  0  0
  152.2388  140.0059  157.3593 C   0  0  0  0  0  0  0  0  0  0  0  0
  152.9098  139.2037  156.4996 N   0  0  0  0  0  0  0  0  0  0  0  0
  152.4569  139.0512  155.2504 C   0  0  0  0  0  0  0  0  0  0  0  0
  151.3803  139.5980  154.6786 N   0  0  0  0  0  0  0  0  0  0  0  0
  150.7067  140.4056  155.5492 C   0  0  0  0  0  0  0  0  0  0  0  0
  151.0685  140.6609  156.9002 C   0  0  0  0  0  0  0  0  0  0  0  0
  150.1519  141.5283  157.4786 N   0  0  0  0  0  0  0  0  0  0  0  0
  149.2985  141.7691  156.5191 C   0  0  0  0  0  0  0  0  0  0  0  0
  149.5544  141.1276  155.3249 N   0  0  0  0  0  0  0  0  0  0  0  0
  148.7858  141.1809  154.0386 C   0  0  2  0  0  0  0  0  0  0  0  0
  147.9470  142.2965  154.0999 O   0  0  0  0  0  0  0  0  0  0  0  0
  146.5775  141.9182  153.9616 C   0  0  2  0  0  0  0  0  0  0  0  0
  145.6603  142.8515  154.7714 C   0  0  0  0  0  0  0  0  0  0  0  0
  144.3350  142.3664  154.7503 O   0  0  0  0  0  0  0  0  0  0  0  0
  146.5353  140.4359  154.3597 C   0  0  2  0  0  0  0  0  0  0  0  0
  146.3830  140.2754  155.7606 O   0  0  0  0  0  0  0  0  0  0  0  0
  147.8851  139.9447  153.8557 C   0  0  2  0  0  0  0  0  0  0  0  0
  148.3253  138.7620  154.5001 O   0  0  0  0  0  0  0  0  0  0  0  0
  149.5435  141.2950  153.2624 H   0  0  0  0  0  0  0  0  0  0  0  0
  146.3255  141.9791  152.9010 H   0  0  0  0  0  0  0  0  0  0  0  0
  145.7113  139.9141  153.8719 H   0  0  0  0  0  0  0  0  0  0  0  0
  147.8122  139.7530  152.7845 H   0  0  0  0  0  0  0  0  0  0  0  0
  152.2299  140.7355  159.2644 H   0  0  0  0  0  0  0  0  0  0  0  0
  153.5530  139.6548  158.8813 H   0  0  0  0  0  0  0  0  0  0  0  0
  153.0405  138.3975  154.6190 H   0  0  0  0  0  0  0  0  0  0  0  0
  148.4531  142.4260  156.6614 H   0  0  0  0  0  0  0  0  0  0  0  0
  145.9790  142.8796  155.8138 H   0  0  0  0  0  0  0  0  0  0  0  0
  145.6947  143.8731  154.3918 H   0  0  0  0  0  0  0  0  0  0  0  0
  144.3103  141.5835  154.2216 H   0  0  0  0  0  0  0  0  0  0  0  0
  145.4592  140.2523  155.9587 H   0  0  0  0  0  0  0  0  0  0  0  0
  147.5676  138.2298  154.6902 H   0  0  0  0  0  0  0  0  0  0  0  0
  1  2  1  0  0  0  0
  1 24  1  0  0  0  0
  1 25  1  0  0  0  0
  2  7  1  0  0  0  0
  2  3  2  0  0  0  0
  3  4  1  0  0  0  0
  4  5  2  0  0  0  0
  4 26  1  0  0  0  0
  5  6  1  0  0  0  0
  6 10  1  0  0  0  0
  6  7  2  0  0  0  0
  7  8  1  0  0  0  0
  8  9  2  0  0  0  0
  9 10  1  0  0  0  0
  9 27  1  0  0  0  0
 10 11  1  0  0  0  0
 11 20  1  0  0  0  0
 11 18  1  0  0  0  0
 11 12  1  0  0  0  0
 12 13  1  0  0  0  0
 13 21  1  0  0  0  0
 13 14  1  0  0  0  0
 13 16  1  0  0  0  0
 14 15  1  0  0  0  0
 14 28  1  0  0  0  0
 14 29  1  0  0  0  0
 15 30  1  0  0  0  0
 16 22  1  0  0  0  0
 16 17  1  0  0  0  0
 16 18  1  0  0  0  0
 17 31  1  0  0  0  0
 18 23  1  0  0  0  0
 18 19  1  0  0  0  0
 19 32  1  0  0  0  0
M  END
> <s_m_source_file>
AV-unprocessed.smi

> <i_m_source_file_index>
69

> <i_lp_mmshare_version>
43012

> <i_f3d_flags>
0

> <s_epik_input>
bjFbY0hdbmMoW05IMl0pYyhjMTIpbltjSF1uMltDQEBIXTNPW0NASF0oW0NIMl1bT0hdKVtDQEBIXShbT0hdKVtDQEhdM1tPSF0=

> <s_epik_cmdline>
J2VwaWtfcHl0aG9uJywgJy1waCcsICc3LjAnLCAnLXRuJywgJzgnLCAnLW1hJywgJzIwMCcsICctbWV0YWxfYmluZGluZycsICctaW1hZScsICc8aW5maWxlLm1hZT4nLCAnLW9tYWUnLCAnPG91dGZpbGUubWFlPic=

> <r_lp_tautomer_probability>
1

> <r_epik_Ionization_Penalty>
0.000428445

> <r_epik_Ionization_Penalty_Charging>
0

> <r_epik_Ionization_Penalty_Neutral>
0.000428445

> <r_epik_State_Penalty>
-0

> <r_epik_Charging_Adjusted_Penalty>
0

> <i_epik_Tot_Q>
0

> <i_epik_Tot_abs_Q>
0

> <r_epik_Metal_State_Penalty>
-0

> <b_epik_Metal_Only>
0

> <s_epik_Chemistry_Notes>
This compound contains an acetal/aminal-like group ( X-CH(R)-Y where X, Y are N, S, or O) that may be acid/base labile, releasing an aldehyde.

> <s_lp_Force_Field>
OPLS_2005

> <r_lp_Energy>
42.2813

> <b_lp_Chiralities_Consistent>
1

> <s_lp_Variant>
AV-unprocessed.smi:69-13

> <Gold.Version>
5.8.1

> <Gold.Id.Protein>
6NUR|6NUR_protein|mol2

> <Gold.PLP.Fitness>
38.4867

> <Gold.PLP.PLP>
-29.2811

> <Gold.PLP.part.hbond>
-4.8760

> <Gold.PLP.part.metal>
0.0000

> <Gold.PLP.part.buried>
-1.0909

> <Gold.PLP.part.nonpolar>
-24.0966

> <Gold.PLP.part.repulsive>
1.2290

> <Gold.PLP.ligand.clash>
0.0000

> <Gold.PLP.ligand.torsion>
0.5251

> <Gold.PLP.Chemscore.Hbond>
2.6491

> <Gold.PLP.Chemscore.CHOScore>
0.6353

> <Gold.PLP.Chemscore.Metal>
0.0000

> <Gold.Chemscore.Hbonds>
donor molecule, donor type, donor heavy atom, donor atom, acceptor molecule, acceptor atom, score
      L1  H    15    30       P1 10175  0.73
      P1  H  7989  7998       L1     5  0.75
      P1  H  7997  8009       L1     3  0.85
      L1  C     9    27       P1  8028  0.64

> <Gold.PLP.Chemscore.Internal.Correction>
0.4027

> <Gold.Rescore>
     Score         DG    S(hbond)    S(metal)    S(lipo)     H(rot)  DE(clash)    DE(int)     intcor
      4.05      -4.79       2.05        0.00      23.78       4.03       0.09       0.65       ----

> <Gold.Chemscore.Fitness>
4.0520

> <Gold.Chemscore.DG>
-4.7949

> <Gold.Chemscore.ZeroCoef>
-5.4800

> <Gold.Chemscore.Hbond>
2.0492

> <Gold.Chemscore.Metal>
0.0000

> <Gold.Chemscore.Lipo>
23.7756

> <Gold.Chemscore.Internal_Hbond>
0.0000

> <Gold.Chemscore.DEClash>
0.0907

> <Gold.Chemscore.DEInternal>
0.6523

> <Gold.Chemscore.Rot>
4.0277

> <Gold.Chemscore.Internal.Correction>
   9.000000E+99

> <Gold.Chemscore.Hbonds>
donor molecule, donor type, donor heavy atom, donor atom, acceptor molecule, acceptor atom, score
      L1  H    15    30       P1 10175  0.16
      P1  H  7989  7998       L1     5  0.09
      P1  H  7997  8009       L1     3  0.11

> <Gold.Chemscore.Hbond.Weighted>
-6.8442

> <Gold.Chemscore.Metal.Weighted>
-0.0000

> <Gold.Chemscore.Lipo.Weighted>
-2.7818

> <Gold.Chemscore.Internal_Hbond.Weighted>
0.0000

> <Gold.Chemscore.DEClash.Weighted>
0.0907

> <Gold.Chemscore.DEInternal.Weighted>
0.6523

> <Gold.Chemscore.Rot.Weighted>
10.3110

> <Gold.Chemscore.Internal.Correction.Weighted>
   9.000000E+99

> <Gold.Protein.RotatedTorsions>
[ 6907 6896 6895 6894 ] final  153.90 input  -60.11 | X-H torsion
[ 7974 7965 7964 7962 ] final  -38.70 input  175.53 | X-H torsion
[ 8008 7997 7996 7995 ] final -170.94 input   59.86 | X-H torsion
[ 10167 10162 10161 10158 ] final  175.81 input  -65.29 | X-H torsion
[ 10718 10713 10712 10709 ] final  110.70 input   66.30 | X-H torsion
[ 10763 10752 10751 10750 ] final -170.80 input  -60.55 | X-H torsion
[ 11005 11000 10999 10996 ] final  -10.01 input  -57.11 | X-H torsion

> <Gold.Protein.ActiveResidues>
 VAL166  LYS551  ARG553  GLY616  TRP617  ASP618  TYR619  PRO620  LYS621  CYS622 
 ASP623  PHE694  ASN695  SER759  ASP760  ASP761  ALA762  ILE779  LEU786  VAL792 
 PHE793  MET794  SER795  GLU796  ALA797  LYS798  CYS799  TRP800  GLU811  SER814 

> <Gold.Protein.RotatedAtoms>
  152.0661  133.4085  159.4438 H   0  0  0  0  0  0  0  0  0  0  0  0  # atno 6907 bound_to 6896
  150.6864  134.3144  159.4769 H   0  0  0  0  0  0  0  0  0  0  0  0  # atno 6908 bound_to 6896
  152.0971  134.9367  160.0621 H   0  0  0  0  0  0  0  0  0  0  0  0  # atno 6909 bound_to 6896
  146.0463  140.6541  142.9063 H   0  0  0  0  0  0  0  0  0  0  0  0  # atno 7974 bound_to 7965
  155.9251  140.1081  157.1177 H   0  0  0  0  0  0  0  0  0  0  0  0  # atno 8008 bound_to 7997
  154.4061  140.1248  156.4794 H   0  0  0  0  0  0  0  0  0  0  0  0  # atno 8009 bound_to 7997
  155.7149  140.3470  155.4992 H   0  0  0  0  0  0  0  0  0  0  0  0  # atno 8010 bound_to 7997
  139.5191  144.2988  152.0398 H   0  0  0  0  0  0  0  0  0  0  0  0  # atno 10167 bound_to 10162
  157.6481  131.0937  150.6641 H   0  0  0  0  0  0  0  0  0  0  0  0  # atno 10718 bound_to 10713
  154.6375  135.2894  155.0143 H   0  0  0  0  0  0  0  0  0  0  0  0  # atno 10763 bound_to 10752
  154.1282  135.6537  153.4920 H   0  0  0  0  0  0  0  0  0  0  0  0  # atno 10764 bound_to 10752
  153.0310  135.5304  154.7228 H   0  0  0  0  0  0  0  0  0  0  0  0  # atno 10765 bound_to 10752
  140.7402  133.8677  155.8961 H   0  0  0  0  0  0  0  0  0  0  0  0  # atno 11005 bound_to 11000
  144.7099  140.4000  143.7088 LP  0  0  0  0  0  0  0  0  0  0  0  0  # atno 17320 bound_to 7965
  145.6800  139.1616  143.2706 LP  0  0  0  0  0  0  0  0  0  0  0  0  # atno 17321 bound_to 7965
  140.2436  144.4243  150.6250 LP  0  0  0  0  0  0  0  0  0  0  0  0  # atno 17342 bound_to 10162
  140.6273  143.2183  151.6569 LP  0  0  0  0  0  0  0  0  0  0  0  0  # atno 17343 bound_to 10162
  156.6955  130.4608  149.5587 LP  0  0  0  0  0  0  0  0  0  0  0  0  # atno 17370 bound_to 10713
  156.1831  130.6512  151.0975 LP  0  0  0  0  0  0  0  0  0  0  0  0  # atno 17371 bound_to 10713
  140.9844  134.1363  157.4466 LP  0  0  0  0  0  0  0  0  0  0  0  0  # atno 17394 bound_to 11000
  139.8808  135.0021  156.6104 LP  0  0  0  0  0  0  0  0  0  0  0  0  # atno 17395 bound_to 11000

$$$$
