AV-unprocessed.smi:1402|AV-procd|sdf|5696|dock10
  -GOLD-   22720 5323D 1   1.00000     0.00000
 Structure written by MMmdl.
 44 45  0  0  0  0  0  0  0  0  1 V2000
  144.1198  131.8288  150.4606 C   0  0  0  0  0  0  0  0  0  0  0  0
  144.0822  133.2278  151.0004 C   0  0  0  0  0  0  0  0  0  0  0  0
  144.8557  134.3501  150.5850 C   0  0  0  0  0  0  0  0  0  0  0  0
  144.4185  135.3430  151.4187 C   0  0  0  0  0  0  0  0  0  0  0  0
  144.8120  136.6434  151.4688 N   0  0  0  0  0  0  0  0  0  0  0  0
  145.6152  137.2394  152.3670 C   0  0  0  0  0  0  0  0  0  0  0  0
  146.1792  136.6738  153.3041 O   0  0  0  0  0  0  0  0  0  0  0  0
  145.7181  138.5544  152.1261 N   0  0  0  0  0  0  0  0  0  0  0  0
  146.4296  139.5048  152.9733 C   0  0  0  0  0  0  0  0  0  0  0  0
  147.9531  139.4353  152.7393 C   0  0  0  0  0  0  0  0  0  0  0  0
  148.7035  139.5125  153.9982 N   0  0  0  0  0  0  0  0  0  0  0  0
  148.8611  138.2494  154.7356 C   0  0  0  0  0  0  0  0  0  0  0  0
  150.3046  137.6951  154.7212 C   0  0  0  0  0  0  0  0  0  0  0  0
  151.4354  138.7408  154.6515 C   0  0  0  0  0  0  0  0  0  0  0  0
  151.3498  139.8673  155.7032 C   0  0  0  0  0  0  0  0  0  0  0  0
  150.0247  140.6657  155.7563 C   0  0  0  0  0  0  0  0  0  0  0  0
  149.2379  140.6790  154.4359 C   0  0  0  0  0  0  0  0  0  0  0  0
  149.1269  141.7413  153.8236 O   0  0  0  0  0  0  0  0  0  0  0  0
  143.4457  134.8299  152.2501 N   0  0  0  0  0  0  0  0  0  0  0  0
  142.6765  135.4702  153.2996 C   0  0  0  0  0  0  0  0  0  0  0  0
  143.2450  133.5203  151.9892 N   0  0  0  0  0  0  0  0  0  0  0  0
  144.8190  131.7457  149.6284 H   0  0  0  0  0  0  0  0  0  0  0  0
  143.1383  131.5190  150.1014 H   0  0  0  0  0  0  0  0  0  0  0  0
  144.4334  131.1217  151.2286 H   0  0  0  0  0  0  0  0  0  0  0  0
  145.6008  134.3976  149.8051 H   0  0  0  0  0  0  0  0  0  0  0  0
  144.3959  137.2465  150.7746 H   0  0  0  0  0  0  0  0  0  0  0  0
  145.2273  138.9336  151.3296 H   0  0  0  0  0  0  0  0  0  0  0  0
  146.0473  140.5207  152.8559 H   0  0  0  0  0  0  0  0  0  0  0  0
  146.2157  139.2303  154.0065 H   0  0  0  0  0  0  0  0  0  0  0  0
  148.1958  138.4995  152.2340 H   0  0  0  0  0  0  0  0  0  0  0  0
  148.2851  140.2091  152.0441 H   0  0  0  0  0  0  0  0  0  0  0  0
  148.5331  138.3939  155.7651 H   0  0  0  0  0  0  0  0  0  0  0  0
  148.1817  137.4884  154.3496 H   0  0  0  0  0  0  0  0  0  0  0  0
  150.4466  137.0623  155.5981 H   0  0  0  0  0  0  0  0  0  0  0  0
  150.4125  137.0331  153.8615 H   0  0  0  0  0  0  0  0  0  0  0  0
  152.3923  138.2297  154.7597 H   0  0  0  0  0  0  0  0  0  0  0  0
  151.4616  139.1781  153.6525 H   0  0  0  0  0  0  0  0  0  0  0  0
  151.5393  139.4444  156.6904 H   0  0  0  0  0  0  0  0  0  0  0  0
  152.1694  140.5637  155.5223 H   0  0  0  0  0  0  0  0  0  0  0  0
  149.3825  140.2751  156.5453 H   0  0  0  0  0  0  0  0  0  0  0  0
  150.2379  141.6930  156.0551 H   0  0  0  0  0  0  0  0  0  0  0  0
  142.9222  136.5298  153.3673 H   0  0  0  0  0  0  0  0  0  0  0  0
  142.8975  134.9964  154.2565 H   0  0  0  0  0  0  0  0  0  0  0  0
  141.6115  135.3691  153.0892 H   0  0  0  0  0  0  0  0  0  0  0  0
  1  2  1  0  0  0  0
  1 22  1  0  0  0  0
  1 23  1  0  0  0  0
  1 24  1  0  0  0  0
  2 21  2  0  0  0  0
  2  3  1  0  0  0  0
  3  4  2  0  0  0  0
  3 25  1  0  0  0  0
  4  5  1  0  0  0  0
  4 19  1  0  0  0  0
  5  6  1  0  0  0  0
  5 26  1  0  0  0  0
  6  7  2  0  0  0  0
  6  8  1  0  0  0  0
  8  9  1  0  0  0  0
  8 27  1  0  0  0  0
  9 10  1  0  0  0  0
  9 28  1  0  0  0  0
  9 29  1  0  0  0  0
 10 11  1  0  0  0  0
 10 30  1  0  0  0  0
 10 31  1  0  0  0  0
 11 17  1  0  0  0  0
 11 12  1  0  0  0  0
 12 13  1  0  0  0  0
 12 32  1  0  0  0  0
 12 33  1  0  0  0  0
 13 14  1  0  0  0  0
 13 34  1  0  0  0  0
 13 35  1  0  0  0  0
 14 15  1  0  0  0  0
 14 36  1  0  0  0  0
 14 37  1  0  0  0  0
 15 16  1  0  0  0  0
 15 38  1  0  0  0  0
 15 39  1  0  0  0  0
 16 17  1  0  0  0  0
 16 40  1  0  0  0  0
 16 41  1  0  0  0  0
 17 18  2  0  0  0  0
 19 20  1  0  0  0  0
 19 21  1  0  0  0  0
 20 42  1  0  0  0  0
 20 43  1  0  0  0  0
 20 44  1  0  0  0  0
M  END
> <s_m_source_file>
AV-unprocessed.smi

> <i_m_source_file_index>
1402

> <i_lp_mmshare_version>
43012

> <i_f3d_flags>
0

> <s_epik_input>
W0NIM11jMVtjSF1jKG4objEpW0NIM10pW05IXUMoPU8pW05IXVtDSDJdW0NIMl1OMltDSDJdW0NIMl1bQ0gyXVtDSDJdW0NIMl1DMj1P

> <s_epik_cmdline>
J2VwaWtfcHl0aG9uJywgJy1waCcsICc3LjAnLCAnLXRuJywgJzgnLCAnLW1hJywgJzIwMCcsICctbWV0YWxfYmluZGluZycsICctaW1hZScsICc8aW5maWxlLm1hZT4nLCAnLW9tYWUnLCAnPG91dGZpbGUubWFlPic=

> <r_lp_tautomer_probability>
1

> <r_epik_Ionization_Penalty>
9.00432e-05

> <r_epik_Ionization_Penalty_Charging>
0

> <r_epik_Ionization_Penalty_Neutral>
9.00432e-05

> <r_epik_State_Penalty>
-0

> <r_epik_Charging_Adjusted_Penalty>
0

> <i_epik_Tot_Q>
0

> <i_epik_Tot_abs_Q>
0

> <r_epik_Metal_State_Penalty>
-0

> <b_epik_Metal_Only>
0

> <s_lp_Force_Field>
OPLS_2005

> <r_lp_Energy>
25.7606

> <b_lp_Chiralities_Consistent>
1

> <s_lp_Variant>
AV-unprocessed.smi:1402-1

> <Gold.Version>
5.8.1

> <Gold.Id.Protein>
6NUR|6NUR_protein|mol2

> <Gold.PLP.Fitness>
41.9265

> <Gold.PLP.PLP>
-37.2362

> <Gold.PLP.part.hbond>
-4.9803

> <Gold.PLP.part.metal>
0.0000

> <Gold.PLP.part.buried>
2.6948

> <Gold.PLP.part.nonpolar>
-35.2733

> <Gold.PLP.part.repulsive>
0.6638

> <Gold.PLP.ligand.clash>
0.0000

> <Gold.PLP.ligand.torsion>
1.4554

> <Gold.PLP.Chemscore.Hbond>
2.5292

> <Gold.PLP.Chemscore.CHOScore>
0.0000

> <Gold.PLP.Chemscore.Metal>
0.0000

> <Gold.Chemscore.Hbonds>
donor molecule, donor type, donor heavy atom, donor atom, acceptor molecule, acceptor atom, score
      L1  H     5    26       P1 10171  1.00
      L1  H     8    27       P1 10171  0.92
      P1  H  8011  8017       L1    18  0.61

> <Gold.PLP.Chemscore.Internal.Correction>
0.0134

> <Gold.Rescore>
     Score         DG    S(hbond)    S(metal)    S(lipo)     H(rot)  DE(clash)    DE(int)     intcor
     14.79     -19.26       2.60        0.00      77.25       1.54       3.03       1.44       ----

> <Gold.Chemscore.Fitness>
14.7909

> <Gold.Chemscore.DG>
-19.2573

> <Gold.Chemscore.ZeroCoef>
-5.4800

> <Gold.Chemscore.Hbond>
2.5996

> <Gold.Chemscore.Metal>
0.0000

> <Gold.Chemscore.Lipo>
77.2537

> <Gold.Chemscore.Internal_Hbond>
0.0000

> <Gold.Chemscore.DEClash>
3.0302

> <Gold.Chemscore.DEInternal>
1.4362

> <Gold.Chemscore.Rot>
1.5407

> <Gold.Chemscore.Internal.Correction>
   9.000000E+99

> <Gold.Chemscore.Hbonds>
donor molecule, donor type, donor heavy atom, donor atom, acceptor molecule, acceptor atom, score
      L1  H     5    26       P1 10171  1.00
      L1  H     8    27       P1 10171  0.83
      P1  H  8011  8017       L1    18  0.60

> <Gold.Chemscore.Hbond.Weighted>
-8.6827

> <Gold.Chemscore.Metal.Weighted>
-0.0000

> <Gold.Chemscore.Lipo.Weighted>
-9.0387

> <Gold.Chemscore.Internal_Hbond.Weighted>
0.0000

> <Gold.Chemscore.DEClash.Weighted>
3.0302

> <Gold.Chemscore.DEInternal.Weighted>
1.4362

> <Gold.Chemscore.Rot.Weighted>
3.9441

> <Gold.Chemscore.Internal.Correction.Weighted>
   9.000000E+99

> <Gold.Protein.RotatedTorsions>
[ 6907 6896 6895 6894 ] final  -97.03 input  -60.11 | X-H torsion
[ 7974 7965 7964 7962 ] final -109.52 input  175.53 | X-H torsion
[ 8008 7997 7996 7995 ] final  121.73 input   59.86 | X-H torsion
[ 10167 10162 10161 10158 ] final   80.22 input  -65.29 | X-H torsion
[ 10718 10713 10712 10709 ] final -176.27 input   66.30 | X-H torsion
[ 10763 10752 10751 10750 ] final  -73.42 input  -60.55 | X-H torsion
[ 11005 11000 10999 10996 ] final   50.42 input  -57.11 | X-H torsion

> <Gold.Protein.ActiveResidues>
 VAL166  LYS551  ARG553  GLY616  TRP617  ASP618  TYR619  PRO620  LYS621  CYS622 
 ASP623  PHE694  ASN695  SER759  ASP760  ASP761  ALA762  ILE779  LEU786  VAL792 
 PHE793  MET794  SER795  GLU796  ALA797  LYS798  CYS799  TRP800  GLU811  SER814 

> <Gold.Protein.RotatedAtoms>
  150.7005  134.1412  159.4105 H   0  0  0  0  0  0  0  0  0  0  0  0  # atno 6907 bound_to 6896
  151.9396  135.0217  160.0544 H   0  0  0  0  0  0  0  0  0  0  0  0  # atno 6908 bound_to 6896
  152.2105  133.4872  159.5144 H   0  0  0  0  0  0  0  0  0  0  0  0  # atno 6909 bound_to 6896
  145.1795  140.8964  143.3488 H   0  0  0  0  0  0  0  0  0  0  0  0  # atno 7974 bound_to 7965
  156.2698  140.2802  156.1354 H   0  0  0  0  0  0  0  0  0  0  0  0  # atno 8008 bound_to 7997
  155.1010  140.0389  157.2714 H   0  0  0  0  0  0  0  0  0  0  0  0  # atno 8009 bound_to 7997
  154.6815  140.2610  155.6909 H   0  0  0  0  0  0  0  0  0  0  0  0  # atno 8010 bound_to 7997
  139.9521  144.6019  150.8151 H   0  0  0  0  0  0  0  0  0  0  0  0  # atno 10167 bound_to 10162
  156.8122  130.9590  151.3115 H   0  0  0  0  0  0  0  0  0  0  0  0  # atno 10718 bound_to 10713
  154.4592  135.5898  153.6244 H   0  0  0  0  0  0  0  0  0  0  0  0  # atno 10763 bound_to 10752
  152.9821  135.6039  154.3508 H   0  0  0  0  0  0  0  0  0  0  0  0  # atno 10764 bound_to 10752
  154.3378  135.2842  155.2417 H   0  0  0  0  0  0  0  0  0  0  0  0  # atno 10765 bound_to 10752
  140.1019  134.5070  155.8755 H   0  0  0  0  0  0  0  0  0  0  0  0  # atno 11005 bound_to 11000
  145.0150  139.3475  143.6101 LP  0  0  0  0  0  0  0  0  0  0  0  0  # atno 17320 bound_to 7965
  146.3455  139.9428  142.8739 LP  0  0  0  0  0  0  0  0  0  0  0  0  # atno 17321 bound_to 7965
  140.7580  143.3097  151.2874 LP  0  0  0  0  0  0  0  0  0  0  0  0  # atno 17342 bound_to 10162
  139.6621  144.0171  152.2699 LP  0  0  0  0  0  0  0  0  0  0  0  0  # atno 17343 bound_to 10162
  157.6500  130.8876  149.9614 LP  0  0  0  0  0  0  0  0  0  0  0  0  # atno 17370 bound_to 10713
  156.1038  130.3654  150.0171 LP  0  0  0  0  0  0  0  0  0  0  0  0  # atno 17371 bound_to 10713
  141.2108  133.6699  156.6534 LP  0  0  0  0  0  0  0  0  0  0  0  0  # atno 17394 bound_to 11000
  140.3209  134.8009  157.4251 LP  0  0  0  0  0  0  0  0  0  0  0  0  # atno 17395 bound_to 11000

$$$$
