AV-unprocessed.smi:2718|AV-procd|sdf|10492|dock10
  -GOLD-   2272014543D 1   1.00000     0.00000
 Structure written by MMmdl.
 47 48  0  0  0  0  0  0  0  0  1 V2000
  147.2490  142.5507  154.0791 C   0  0  0  0  0  0  0  0  0  0  0  0
  147.8374  141.1882  153.7710 C   0  0  0  0  0  0  0  0  0  0  0  0
  147.1566  140.4455  152.6349 C   0  0  0  0  0  0  0  0  0  0  0  0
  148.8796  140.6940  154.4668 C   0  0  0  0  0  0  0  0  0  0  0  0
  149.5428  139.3729  154.2679 C   0  0  2  0  0  0  0  0  0  0  0  0
  149.4444  138.1963  155.2345 C   0  0  2  0  0  0  0  0  0  0  0  0
  148.6557  138.2971  156.5106 C   0  0  0  0  0  0  0  0  0  0  0  0
  148.2377  139.3505  156.9911 O   0  0  0  0  0  0  0  0  0  0  0  0
  148.4369  137.1077  157.0905 N   0  0  0  0  0  0  0  0  0  0  0  0
  147.6922  136.8880  158.3278 C   0  0  0  0  0  0  0  0  0  0  0  0
  148.5605  136.3258  159.4766 C   0  0  1  0  0  0  0  0  0  0  0  0
  149.9271  137.0222  159.5494 C   0  0  0  0  0  0  0  0  0  0  0  0
  147.8566  136.3477  160.8074 C   0  0  0  0  0  0  0  0  0  0  0  0
  147.5198  137.4759  161.4471 N   0  0  0  0  0  0  0  0  0  0  0  0
  146.8978  137.0746  162.6119 N   0  0  0  0  0  0  0  0  0  0  0  0
  146.9253  135.7438  162.5646 C   0  0  0  0  0  0  0  0  0  0  0  0
  147.5081  135.2260  161.4731 N   0  0  0  0  0  0  0  0  0  0  0  0
  147.6999  133.8303  161.1327 C   0  0  0  0  0  0  0  0  0  0  0  0
  150.7626  138.9473  155.0698 C   0  0  0  0  0  0  0  0  0  0  0  0
  151.8957  138.2249  154.3613 C   0  0  0  0  0  0  0  0  0  0  0  0
  151.3545  139.8574  156.1434 C   0  0  0  0  0  0  0  0  0  0  0  0
  147.3143  143.1982  153.2045 H   0  0  0  0  0  0  0  0  0  0  0  0
  147.7733  143.0380  154.9017 H   0  0  0  0  0  0  0  0  0  0  0  0
  146.1993  142.4535  154.3574 H   0  0  0  0  0  0  0  0  0  0  0  0
  146.1152  140.2479  152.8896 H   0  0  0  0  0  0  0  0  0  0  0  0
  147.6349  139.4918  152.4139 H   0  0  0  0  0  0  0  0  0  0  0  0
  147.1780  141.0475  151.7264 H   0  0  0  0  0  0  0  0  0  0  0  0
  149.3016  141.3042  155.2519 H   0  0  0  0  0  0  0  0  0  0  0  0
  149.5517  139.1139  153.2107 H   0  0  0  0  0  0  0  0  0  0  0  0
  149.4062  137.2141  154.7653 H   0  0  0  0  0  0  0  0  0  0  0  0
  148.8136  136.2869  156.6382 H   0  0  0  0  0  0  0  0  0  0  0  0
  147.1997  137.8118  158.6353 H   0  0  0  0  0  0  0  0  0  0  0  0
  146.8962  136.1801  158.0948 H   0  0  0  0  0  0  0  0  0  0  0  0
  148.7694  135.2865  159.2256 H   0  0  0  0  0  0  0  0  0  0  0  0
  150.5607  136.5625  160.3083 H   0  0  0  0  0  0  0  0  0  0  0  0
  149.8223  138.0788  159.7979 H   0  0  0  0  0  0  0  0  0  0  0  0
  150.4526  136.9558  158.5963 H   0  0  0  0  0  0  0  0  0  0  0  0
  146.5105  135.1300  163.3508 H   0  0  0  0  0  0  0  0  0  0  0  0
  147.2268  133.1926  161.8799 H   0  0  0  0  0  0  0  0  0  0  0  0
  148.7657  133.6046  161.0959 H   0  0  0  0  0  0  0  0  0  0  0  0
  147.2557  133.6216  160.1598 H   0  0  0  0  0  0  0  0  0  0  0  0
  152.4602  137.6176  155.0696 H   0  0  0  0  0  0  0  0  0  0  0  0
  152.5737  138.9417  153.8971 H   0  0  0  0  0  0  0  0  0  0  0  0
  151.5100  137.5686  153.5806 H   0  0  0  0  0  0  0  0  0  0  0  0
  151.8516  139.2614  156.9087 H   0  0  0  0  0  0  0  0  0  0  0  0
  150.6031  140.4788  156.6263 H   0  0  0  0  0  0  0  0  0  0  0  0
  152.0923  140.5274  155.7010 H   0  0  0  0  0  0  0  0  0  0  0  0
  1  2  1  0  0  0  0
  1 22  1  0  0  0  0
  1 23  1  0  0  0  0
  1 24  1  0  0  0  0
  2  3  1  0  0  0  0
  2  4  2  0  0  0  0
  3 25  1  0  0  0  0
  3 26  1  0  0  0  0
  3 27  1  0  0  0  0
  4  5  1  0  0  0  0
  4 28  1  0  0  0  0
  5 19  1  0  0  0  0
  5  6  1  0  0  0  0
  5 29  1  0  0  0  0
  6  7  1  0  0  0  0
  6 19  1  0  0  0  0
  6 30  1  0  0  0  0
  7  8  2  0  0  0  0
  7  9  1  0  0  0  0
  9 10  1  0  0  0  0
  9 31  1  0  0  0  0
 10 11  1  0  0  0  0
 10 32  1  0  0  0  0
 10 33  1  0  0  0  0
 11 12  1  0  0  0  0
 11 13  1  0  0  0  0
 11 34  1  0  0  0  0
 12 35  1  0  0  0  0
 12 36  1  0  0  0  0
 12 37  1  0  0  0  0
 13 17  1  0  0  0  0
 13 14  2  0  0  0  0
 14 15  1  0  0  0  0
 15 16  2  0  0  0  0
 16 17  1  0  0  0  0
 16 38  1  0  0  0  0
 17 18  1  0  0  0  0
 18 39  1  0  0  0  0
 18 40  1  0  0  0  0
 18 41  1  0  0  0  0
 19 20  1  0  0  0  0
 19 21  1  0  0  0  0
 20 42  1  0  0  0  0
 20 43  1  0  0  0  0
 20 44  1  0  0  0  0
 21 45  1  0  0  0  0
 21 46  1  0  0  0  0
 21 47  1  0  0  0  0
M  END
> <s_m_source_file>
AV-unprocessed.smi

> <i_m_source_file_index>
2718

> <i_lp_mmshare_version>
43012

> <i_f3d_flags>
0

> <s_epik_input>
W0NIM11DKFtDSDNdKT1bQ0hdW0NAQEhdKEMxKFtDSDNdKVtDSDNdKVtDQEhdMUMoPU8pW05IXVtDSDJdW0NASF0oW0NIM10pYzJubltjSF1uMltDSDNd

> <s_epik_cmdline>
J2VwaWtfcHl0aG9uJywgJy1waCcsICc3LjAnLCAnLXRuJywgJzgnLCAnLW1hJywgJzIwMCcsICctbWV0YWxfYmluZGluZycsICctaW1hZScsICc8aW5maWxlLm1hZT4nLCAnLW9tYWUnLCAnPG91dGZpbGUubWFlPic=

> <r_lp_tautomer_probability>
1

> <r_epik_Ionization_Penalty>
0.000449586

> <r_epik_Ionization_Penalty_Charging>
0

> <r_epik_Ionization_Penalty_Neutral>
0.000449586

> <r_epik_State_Penalty>
0.000243372

> <r_epik_Charging_Adjusted_Penalty>
0.000243372

> <i_epik_Tot_Q>
0

> <i_epik_Tot_abs_Q>
0

> <r_epik_Metal_State_Penalty>
-0

> <b_epik_Metal_Only>
0

> <s_lp_Force_Field>
OPLS_2005

> <r_lp_Energy>
15.6704

> <b_lp_Chiralities_Consistent>
1

> <s_lp_Variant>
AV-unprocessed.smi:2718-7

> <Gold.Version>
5.8.1

> <Gold.Id.Protein>
6NUR|6NUR_protein|mol2

> <Gold.PLP.Fitness>
43.3973

> <Gold.PLP.PLP>
-38.2987

> <Gold.PLP.part.hbond>
-2.0000

> <Gold.PLP.part.metal>
0.0000

> <Gold.PLP.part.buried>
-2.5670

> <Gold.PLP.part.nonpolar>
-33.5551

> <Gold.PLP.part.repulsive>
0.0000

> <Gold.PLP.ligand.clash>
0.0000

> <Gold.PLP.ligand.torsion>
0.3705

> <Gold.PLP.Chemscore.Hbond>
1.8400

> <Gold.PLP.Chemscore.CHOScore>
0.0000

> <Gold.PLP.Chemscore.Metal>
0.0000

> <Gold.Chemscore.Hbonds>
donor molecule, donor type, donor heavy atom, donor atom, acceptor molecule, acceptor atom, score
      P1  H  6931  6943       L1    14  0.80
      P1  H  6934  6947       L1    14  0.82

> <Gold.PLP.Chemscore.Internal.Correction>
0.3195

> <Gold.Rescore>
     Score         DG    S(hbond)    S(metal)    S(lipo)     H(rot)  DE(clash)    DE(int)     intcor
     12.27     -13.94       1.38        0.00      75.58       1.95       0.09       1.58       ----

> <Gold.Chemscore.Fitness>
12.2652

> <Gold.Chemscore.DG>
-13.9374

> <Gold.Chemscore.ZeroCoef>
-5.4800

> <Gold.Chemscore.Hbond>
1.3817

> <Gold.Chemscore.Metal>
0.0000

> <Gold.Chemscore.Lipo>
75.5817

> <Gold.Chemscore.Internal_Hbond>
0.0000

> <Gold.Chemscore.DEClash>
0.0937

> <Gold.Chemscore.DEInternal>
1.5785

> <Gold.Chemscore.Rot>
1.9533

> <Gold.Chemscore.Internal.Correction>
   9.000000E+99

> <Gold.Chemscore.Hbonds>
donor molecule, donor type, donor heavy atom, donor atom, acceptor molecule, acceptor atom, score
      P1  H  6931  6943       L1    14  0.29
      P1  H  6934  6947       L1    14  0.75

> <Gold.Chemscore.Hbond.Weighted>
-4.6149

> <Gold.Chemscore.Metal.Weighted>
-0.0000

> <Gold.Chemscore.Lipo.Weighted>
-8.8431

> <Gold.Chemscore.Internal_Hbond.Weighted>
0.0000

> <Gold.Chemscore.DEClash.Weighted>
0.0937

> <Gold.Chemscore.DEInternal.Weighted>
1.5785

> <Gold.Chemscore.Rot.Weighted>
5.0005

> <Gold.Chemscore.Internal.Correction.Weighted>
   9.000000E+99

> <Gold.Protein.RotatedTorsions>
[ 6907 6896 6895 6894 ] final  -48.31 input  -60.11 | X-H torsion
[ 7974 7965 7964 7962 ] final   35.11 input  175.53 | X-H torsion
[ 8008 7997 7996 7995 ] final   46.05 input   59.86 | X-H torsion
[ 10167 10162 10161 10158 ] final  -63.90 input  -65.29 | X-H torsion
[ 10718 10713 10712 10709 ] final  -66.83 input   66.30 | X-H torsion
[ 10763 10752 10751 10750 ] final   50.60 input  -60.55 | X-H torsion
[ 11005 11000 10999 10996 ] final   11.15 input  -57.11 | X-H torsion

> <Gold.Protein.ActiveResidues>
 VAL166  LYS551  ARG553  GLY616  TRP617  ASP618  TYR619  PRO620  LYS621  CYS622 
 ASP623  PHE694  ASN695  SER759  ASP760  ASP761  ALA762  ILE779  LEU786  VAL792 
 PHE793  MET794  SER795  GLU796  ALA797  LYS798  CYS799  TRP800  GLU811  SER814 

> <Gold.Protein.RotatedAtoms>
  150.8918  134.8323  159.7298 H   0  0  0  0  0  0  0  0  0  0  0  0  # atno 6907 bound_to 6896
  152.4842  134.4636  159.9623 H   0  0  0  0  0  0  0  0  0  0  0  0  # atno 6908 bound_to 6896
  151.4697  133.3533  159.2857 H   0  0  0  0  0  0  0  0  0  0  0  0  # atno 6909 bound_to 6896
  146.1306  139.6184  142.9229 H   0  0  0  0  0  0  0  0  0  0  0  0  # atno 7974 bound_to 7965
  155.3461  140.3411  155.4239 H   0  0  0  0  0  0  0  0  0  0  0  0  # atno 8008 bound_to 7997
  156.1788  140.1657  156.8348 H   0  0  0  0  0  0  0  0  0  0  0  0  # atno 8009 bound_to 7997
  154.5311  140.0745  156.8329 H   0  0  0  0  0  0  0  0  0  0  0  0  # atno 8010 bound_to 7997
  140.5839  143.2331  151.6285 H   0  0  0  0  0  0  0  0  0  0  0  0  # atno 10167 bound_to 10162
  156.0591  130.4268  150.1766 H   0  0  0  0  0  0  0  0  0  0  0  0  # atno 10718 bound_to 10713
  152.9784  135.5873  154.4279 H   0  0  0  0  0  0  0  0  0  0  0  0  # atno 10763 bound_to 10752
  154.3896  135.2767  155.2164 H   0  0  0  0  0  0  0  0  0  0  0  0  # atno 10764 bound_to 10752
  154.4042  135.6096  153.5969 H   0  0  0  0  0  0  0  0  0  0  0  0  # atno 10765 bound_to 10752
  140.5064  134.0695  155.7807 H   0  0  0  0  0  0  0  0  0  0  0  0  # atno 11005 bound_to 11000
  145.5269  141.0429  143.2404 LP  0  0  0  0  0  0  0  0  0  0  0  0  # atno 17320 bound_to 7965
  144.7687  139.6786  143.7204 LP  0  0  0  0  0  0  0  0  0  0  0  0  # atno 17321 bound_to 7965
  139.5186  144.3280  152.0852 LP  0  0  0  0  0  0  0  0  0  0  0  0  # atno 17342 bound_to 10162
  140.2434  144.4245  150.6250 LP  0  0  0  0  0  0  0  0  0  0  0  0  # atno 17343 bound_to 10162
  156.9837  130.9872  151.3431 LP  0  0  0  0  0  0  0  0  0  0  0  0  # atno 17370 bound_to 10713
  157.5585  130.8230  149.8235 LP  0  0  0  0  0  0  0  0  0  0  0  0  # atno 17371 bound_to 10713
  141.1408  133.9141  157.2329 LP  0  0  0  0  0  0  0  0  0  0  0  0  # atno 17394 bound_to 11000
  139.9684  135.0135  156.9447 LP  0  0  0  0  0  0  0  0  0  0  0  0  # atno 17395 bound_to 11000

$$$$
