AV-unprocessed.smi:2718|AV-procd|sdf|10493|dock9
  -GOLD-   2272014543D 1   1.00000     0.00000
 Structure written by MMmdl.
 47 48  0  0  0  0  0  0  0  0  1 V2000
  151.8583  143.6562  159.3536 C   0  0  0  0  0  0  0  0  0  0  0  0
  152.1869  142.1815  159.4758 C   0  0  0  0  0  0  0  0  0  0  0  0
  153.2095  141.8452  160.5471 C   0  0  0  0  0  0  0  0  0  0  0  0
  151.6066  141.2601  158.6836 C   0  0  0  0  0  0  0  0  0  0  0  0
  151.8483  139.7933  158.7042 C   0  0  1  0  0  0  0  0  0  0  0  0
  150.8156  138.8313  158.1449 C   0  0  2  0  0  0  0  0  0  0  0  0
  150.5649  137.5410  158.8607 C   0  0  0  0  0  0  0  0  0  0  0  0
  151.2722  137.1212  159.7772 O   0  0  0  0  0  0  0  0  0  0  0  0
  149.4883  136.8818  158.4083 N   0  0  0  0  0  0  0  0  0  0  0  0
  148.9920  135.6039  158.9132 C   0  0  0  0  0  0  0  0  0  0  0  0
  147.5079  135.6380  159.3488 C   0  0  1  0  0  0  0  0  0  0  0  0
  146.7949  134.3139  159.0402 C   0  0  0  0  0  0  0  0  0  0  0  0
  147.3228  136.0434  160.7870 C   0  0  0  0  0  0  0  0  0  0  0  0
  147.0179  137.2901  161.1718 N   0  0  0  0  0  0  0  0  0  0  0  0
  146.9415  137.2485  162.5491 N   0  0  0  0  0  0  0  0  0  0  0  0
  147.2243  135.9851  162.8619 C   0  0  0  0  0  0  0  0  0  0  0  0
  147.4800  135.1846  161.8166 N   0  0  0  0  0  0  0  0  0  0  0  0
  147.8354  133.7793  161.8256 C   0  0  0  0  0  0  0  0  0  0  0  0
  152.1450  139.0276  157.4256 C   0  0  0  0  0  0  0  0  0  0  0  0
  152.1116  139.7104  156.0666 C   0  0  0  0  0  0  0  0  0  0  0  0
  153.2611  137.9912  157.4393 C   0  0  0  0  0  0  0  0  0  0  0  0
  151.4583  144.0340  160.2950 H   0  0  0  0  0  0  0  0  0  0  0  0
  151.1186  143.8399  158.5735 H   0  0  0  0  0  0  0  0  0  0  0  0
  152.7563  144.2235  159.1088 H   0  0  0  0  0  0  0  0  0  0  0  0
  154.1559  142.3405  160.3293 H   0  0  0  0  0  0  0  0  0  0  0  0
  153.4008  140.7752  160.6217 H   0  0  0  0  0  0  0  0  0  0  0  0
  152.8601  142.1902  161.5204 H   0  0  0  0  0  0  0  0  0  0  0  0
  150.8854  141.5931  157.9514 H   0  0  0  0  0  0  0  0  0  0  0  0
  152.3809  139.4895  159.6038 H   0  0  0  0  0  0  0  0  0  0  0  0
  149.9448  139.2673  157.6568 H   0  0  0  0  0  0  0  0  0  0  0  0
  148.9687  137.2976  157.6485 H   0  0  0  0  0  0  0  0  0  0  0  0
  149.1560  134.8212  158.1709 H   0  0  0  0  0  0  0  0  0  0  0  0
  149.6139  135.3467  159.7713 H   0  0  0  0  0  0  0  0  0  0  0  0
  147.0252  136.3901  158.7260 H   0  0  0  0  0  0  0  0  0  0  0  0
  145.7304  134.3815  159.2659 H   0  0  0  0  0  0  0  0  0  0  0  0
  147.2084  133.4938  159.6279 H   0  0  0  0  0  0  0  0  0  0  0  0
  146.8930  134.0514  157.9867 H   0  0  0  0  0  0  0  0  0  0  0  0
  147.2518  135.6360  163.8837 H   0  0  0  0  0  0  0  0  0  0  0  0
  147.7952  133.3881  162.8425 H   0  0  0  0  0  0  0  0  0  0  0  0
  148.8461  133.6547  161.4364 H   0  0  0  0  0  0  0  0  0  0  0  0
  147.1402  133.2154  161.2044 H   0  0  0  0  0  0  0  0  0  0  0  0
  151.9654  138.9732  155.2768 H   0  0  0  0  0  0  0  0  0  0  0  0
  153.0480  140.2376  155.8822 H   0  0  0  0  0  0  0  0  0  0  0  0
  151.2972  140.4331  156.0091 H   0  0  0  0  0  0  0  0  0  0  0  0
  153.0158  137.1646  156.7724 H   0  0  0  0  0  0  0  0  0  0  0  0
  153.4296  137.5957  158.4403 H   0  0  0  0  0  0  0  0  0  0  0  0
  154.1972  138.4386  157.1041 H   0  0  0  0  0  0  0  0  0  0  0  0
  1  2  1  0  0  0  0
  1 22  1  0  0  0  0
  1 23  1  0  0  0  0
  1 24  1  0  0  0  0
  2  3  1  0  0  0  0
  2  4  2  0  0  0  0
  3 25  1  0  0  0  0
  3 26  1  0  0  0  0
  3 27  1  0  0  0  0
  4  5  1  0  0  0  0
  4 28  1  0  0  0  0
  5 19  1  0  0  0  0
  5  6  1  0  0  0  0
  5 29  1  0  0  0  0
  6  7  1  0  0  0  0
  6 19  1  0  0  0  0
  6 30  1  0  0  0  0
  7  8  2  0  0  0  0
  7  9  1  0  0  0  0
  9 10  1  0  0  0  0
  9 31  1  0  0  0  0
 10 11  1  0  0  0  0
 10 32  1  0  0  0  0
 10 33  1  0  0  0  0
 11 12  1  0  0  0  0
 11 13  1  0  0  0  0
 11 34  1  0  0  0  0
 12 35  1  0  0  0  0
 12 36  1  0  0  0  0
 12 37  1  0  0  0  0
 13 17  1  0  0  0  0
 13 14  2  0  0  0  0
 14 15  1  0  0  0  0
 15 16  2  0  0  0  0
 16 17  1  0  0  0  0
 16 38  1  0  0  0  0
 17 18  1  0  0  0  0
 18 39  1  0  0  0  0
 18 40  1  0  0  0  0
 18 41  1  0  0  0  0
 19 20  1  0  0  0  0
 19 21  1  0  0  0  0
 20 42  1  0  0  0  0
 20 43  1  0  0  0  0
 20 44  1  0  0  0  0
 21 45  1  0  0  0  0
 21 46  1  0  0  0  0
 21 47  1  0  0  0  0
M  END
> <s_m_source_file>
AV-unprocessed.smi

> <i_m_source_file_index>
2718

> <i_lp_mmshare_version>
43012

> <i_f3d_flags>
0

> <s_epik_input>
W0NIM11DKFtDSDNdKT1bQ0hdW0NAQEhdKEMxKFtDSDNdKVtDSDNdKVtDQEhdMUMoPU8pW05IXVtDSDJdW0NASF0oW0NIM10pYzJubltjSF1uMltDSDNd

> <s_epik_cmdline>
J2VwaWtfcHl0aG9uJywgJy1waCcsICc3LjAnLCAnLXRuJywgJzgnLCAnLW1hJywgJzIwMCcsICctbWV0YWxfYmluZGluZycsICctaW1hZScsICc8aW5maWxlLm1hZT4nLCAnLW9tYWUnLCAnPG91dGZpbGUubWFlPic=

> <r_lp_tautomer_probability>
1

> <r_epik_Ionization_Penalty>
0.000449586

> <r_epik_Ionization_Penalty_Charging>
0

> <r_epik_Ionization_Penalty_Neutral>
0.000449586

> <r_epik_State_Penalty>
0.000243372

> <r_epik_Charging_Adjusted_Penalty>
0.000243372

> <i_epik_Tot_Q>
0

> <i_epik_Tot_abs_Q>
0

> <r_epik_Metal_State_Penalty>
-0

> <b_epik_Metal_Only>
0

> <s_lp_Force_Field>
OPLS_2005

> <r_lp_Energy>
15.3902

> <b_lp_Chiralities_Consistent>
1

> <s_lp_Variant>
AV-unprocessed.smi:2718-8

> <Gold.Version>
5.8.1

> <Gold.Id.Protein>
6NUR|6NUR_protein|mol2

> <Gold.PLP.Fitness>
45.5534

> <Gold.PLP.PLP>
-41.8191

> <Gold.PLP.part.hbond>
-4.6941

> <Gold.PLP.part.metal>
0.0000

> <Gold.PLP.part.buried>
-5.1254

> <Gold.PLP.part.nonpolar>
-32.7056

> <Gold.PLP.part.repulsive>
0.1196

> <Gold.PLP.ligand.clash>
0.0000

> <Gold.PLP.ligand.torsion>
1.2247

> <Gold.PLP.Chemscore.Hbond>
1.9760

> <Gold.PLP.Chemscore.CHOScore>
0.0000

> <Gold.PLP.Chemscore.Metal>
0.0000

> <Gold.Chemscore.Hbonds>
donor molecule, donor type, donor heavy atom, donor atom, acceptor molecule, acceptor atom, score
      P1  H  6896  6907       L1     8  1.00
      P1  H  6934  6947       L1    14  1.00

> <Gold.PLP.Chemscore.Internal.Correction>
0.2557

> <Gold.Rescore>
     Score         DG    S(hbond)    S(metal)    S(lipo)     H(rot)  DE(clash)    DE(int)     intcor
     15.44     -16.17       1.93        0.00      79.10       1.95       0.02       0.71       ----

> <Gold.Chemscore.Fitness>
15.4374

> <Gold.Chemscore.DG>
-16.1746

> <Gold.Chemscore.ZeroCoef>
-5.4800

> <Gold.Chemscore.Hbond>
1.9282

> <Gold.Chemscore.Metal>
0.0000

> <Gold.Chemscore.Lipo>
79.1012

> <Gold.Chemscore.Internal_Hbond>
0.0000

> <Gold.Chemscore.DEClash>
0.0239

> <Gold.Chemscore.DEInternal>
0.7133

> <Gold.Chemscore.Rot>
1.9533

> <Gold.Chemscore.Internal.Correction>
   9.000000E+99

> <Gold.Chemscore.Hbonds>
donor molecule, donor type, donor heavy atom, donor atom, acceptor molecule, acceptor atom, score
      P1  H  6896  6907       L1     8  0.69
      P1  H  6934  6947       L1    14  0.25

> <Gold.Chemscore.Hbond.Weighted>
-6.4403

> <Gold.Chemscore.Metal.Weighted>
-0.0000

> <Gold.Chemscore.Lipo.Weighted>
-9.2548

> <Gold.Chemscore.Internal_Hbond.Weighted>
0.0000

> <Gold.Chemscore.DEClash.Weighted>
0.0239

> <Gold.Chemscore.DEInternal.Weighted>
0.7133

> <Gold.Chemscore.Rot.Weighted>
5.0005

> <Gold.Chemscore.Internal.Correction.Weighted>
   9.000000E+99

> <Gold.Protein.RotatedTorsions>
[ 6907 6896 6895 6894 ] final  -25.27 input  -60.11 | X-H torsion
[ 7974 7965 7964 7962 ] final   21.24 input  175.53 | X-H torsion
[ 8008 7997 7996 7995 ] final  -20.58 input   59.86 | X-H torsion
[ 10167 10162 10161 10158 ] final  143.31 input  -65.29 | X-H torsion
[ 10718 10713 10712 10709 ] final  129.76 input   66.30 | X-H torsion
[ 10763 10752 10751 10750 ] final -123.13 input  -60.55 | X-H torsion
[ 11005 11000 10999 10996 ] final  -37.15 input  -57.11 | X-H torsion

> <Gold.Protein.ActiveResidues>
 VAL166  LYS551  ARG553  GLY616  TRP617  ASP618  TYR619  PRO620  LYS621  CYS622 
 ASP623  PHE694  ASN695  SER759  ASP760  ASP761  ALA762  ILE779  LEU786  VAL792 
 PHE793  MET794  SER795  GLU796  ALA797  LYS798  CYS799  TRP800  GLU811  SER814 

> <Gold.Protein.RotatedAtoms>
  151.1776  135.0346  159.8778 H   0  0  0  0  0  0  0  0  0  0  0  0  # atno 6907 bound_to 6896
  152.5446  134.1100  159.8364 H   0  0  0  0  0  0  0  0  0  0  0  0  # atno 6908 bound_to 6896
  151.1213  133.5055  159.2634 H   0  0  0  0  0  0  0  0  0  0  0  0  # atno 6909 bound_to 6896
  146.2079  139.8056  142.8711 H   0  0  0  0  0  0  0  0  0  0  0  0  # atno 7974 bound_to 7965
  154.4760  140.2058  155.9876 H   0  0  0  0  0  0  0  0  0  0  0  0  # atno 8008 bound_to 7997
  156.1090  140.3232  155.8016 H   0  0  0  0  0  0  0  0  0  0  0  0  # atno 8009 bound_to 7997
  155.4667  140.0528  157.2975 H   0  0  0  0  0  0  0  0  0  0  0  0  # atno 8010 bound_to 7997
  139.4973  144.6049  151.6400 H   0  0  0  0  0  0  0  0  0  0  0  0  # atno 10167 bound_to 10162
  157.5124  131.1097  150.9273 H   0  0  0  0  0  0  0  0  0  0  0  0  # atno 10718 bound_to 10713
  154.8702  135.4109  154.2894 H   0  0  0  0  0  0  0  0  0  0  0  0  # atno 10763 bound_to 10752
  153.3772  135.7010  153.6598 H   0  0  0  0  0  0  0  0  0  0  0  0  # atno 10764 bound_to 10752
  153.5435  135.3643  155.2700 H   0  0  0  0  0  0  0  0  0  0  0  0  # atno 10765 bound_to 10752
  140.9930  133.6995  156.1883 H   0  0  0  0  0  0  0  0  0  0  0  0  # atno 11005 bound_to 11000
  145.3250  141.0253  143.3478 LP  0  0  0  0  0  0  0  0  0  0  0  0  # atno 17320 bound_to 7965
  144.8839  139.4866  143.6710 LP  0  0  0  0  0  0  0  0  0  0  0  0  # atno 17321 bound_to 7965
  140.5708  144.0112  150.6216 LP  0  0  0  0  0  0  0  0  0  0  0  0  # atno 17342 bound_to 10162
  140.3229  143.3126  152.0766 LP  0  0  0  0  0  0  0  0  0  0  0  0  # atno 17343 bound_to 10162
  156.9909  130.5563  149.5303 LP  0  0  0  0  0  0  0  0  0  0  0  0  # atno 17370 bound_to 10713
  156.0298  130.5390  150.8503 LP  0  0  0  0  0  0  0  0  0  0  0  0  # atno 17371 bound_to 10713
  140.7011  134.4563  157.5586 LP  0  0  0  0  0  0  0  0  0  0  0  0  # atno 17394 bound_to 11000
  139.9001  134.8576  156.1933 LP  0  0  0  0  0  0  0  0  0  0  0  0  # atno 17395 bound_to 11000

$$$$
