AV-unprocessed.smi:235|AV-procd|sdf|1805|dock3
  -GOLD-   2262020383D 1   1.00000     0.00000
 Structure written by MMmdl.
 54 58  0  0  0  0  0  0  0  0  1 V2000
  149.8301  140.7917  157.1065 O   0  0  0  0  0  0  0  0  0  0  0  0
  150.9860  141.0763  157.4231 C   0  0  0  0  0  0  0  0  0  0  0  0
  152.0569  140.7304  156.6939 N   0  0  0  0  0  0  0  0  0  0  0  0
  152.0193  139.9980  155.4716 C   0  0  0  0  0  0  0  0  0  0  0  0
  151.4279  138.6060  155.5122 C   0  0  0  0  0  0  0  0  0  0  0  0
  152.9127  138.7849  155.3427 C   0  0  0  0  0  0  0  0  0  0  0  0
  151.2677  141.8880  158.6953 C   0  0  2  0  0  0  0  0  0  0  0  0
  150.6179  143.2870  158.6653 C   0  0  0  0  0  0  0  0  0  0  0  0
  151.6214  144.1806  159.3826 C   0  0  0  0  0  0  0  0  0  0  0  0
  152.9501  143.5710  158.9539 C   0  0  0  0  0  0  0  0  0  0  0  0
  152.7071  142.1338  158.8528 N   0  0  0  0  0  0  0  0  0  0  0  0
  153.3013  141.3102  159.7532 C   0  0  0  0  0  0  0  0  0  0  0  0
  153.9516  141.8282  160.8293 N   0  0  0  0  0  0  0  0  0  0  0  0
  154.4800  141.0169  161.7505 C   0  0  0  0  0  0  0  0  0  0  0  0
  154.4606  139.6833  161.7982 N   0  0  0  0  0  0  0  0  0  0  0  0
  153.8067  139.1604  160.7218 C   0  0  0  0  0  0  0  0  0  0  0  0
  153.2106  139.8945  159.6589 C   0  0  0  0  0  0  0  0  0  0  0  0
  152.6459  139.0202  158.7382 N   0  0  0  0  0  0  0  0  0  0  0  0
  152.8740  137.8374  159.2390 C   0  0  0  0  0  0  0  0  0  0  0  0
  153.5534  137.8308  160.4361 N   0  0  0  0  0  0  0  0  0  0  0  0
  153.9137  136.6684  161.2258 C   0  0  0  0  0  0  0  0  0  0  0  0
  155.0353  136.9595  162.2462 C   0  0  2  0  0  0  0  0  0  0  0  0
  156.2175  137.2013  161.5103 O   0  0  0  0  0  0  0  0  0  0  0  0
  155.2966  135.8197  163.2572 C   0  0  1  0  0  0  0  0  0  0  0  0
  154.0897  135.4659  164.1329 C   0  0  0  0  0  0  0  0  0  0  0  0
  154.3019  134.0022  164.4921 C   0  0  0  0  0  0  0  0  0  0  0  0
  155.4461  133.5590  163.5806 C   0  0  0  0  0  0  0  0  0  0  0  0
  155.5379  134.5820  162.6022 O   0  0  0  0  0  0  0  0  0  0  0  0
  152.9665  141.0177  157.0247 H   0  0  0  0  0  0  0  0  0  0  0  0
  151.8328  140.5640  154.5598 H   0  0  0  0  0  0  0  0  0  0  0  0
  151.0754  138.2277  156.4699 H   0  0  0  0  0  0  0  0  0  0  0  0
  150.8603  138.2763  154.6445 H   0  0  0  0  0  0  0  0  0  0  0  0
  153.3360  138.5774  154.3620 H   0  0  0  0  0  0  0  0  0  0  0  0
  153.5549  138.5409  156.1865 H   0  0  0  0  0  0  0  0  0  0  0  0
  150.8826  141.3512  159.5664 H   0  0  0  0  0  0  0  0  0  0  0  0
  150.4855  143.6490  157.6443 H   0  0  0  0  0  0  0  0  0  0  0  0
  149.6394  143.2996  159.1463 H   0  0  0  0  0  0  0  0  0  0  0  0
  151.5276  145.2329  159.1134 H   0  0  0  0  0  0  0  0  0  0  0  0
  151.4986  144.0904  160.4628 H   0  0  0  0  0  0  0  0  0  0  0  0
  153.2239  143.9312  157.9614 H   0  0  0  0  0  0  0  0  0  0  0  0
  153.7646  143.8490  159.6240 H   0  0  0  0  0  0  0  0  0  0  0  0
  154.9813  141.5073  162.5718 H   0  0  0  0  0  0  0  0  0  0  0  0
  152.5359  136.9335  158.7533 H   0  0  0  0  0  0  0  0  0  0  0  0
  153.0204  136.3085  161.7384 H   0  0  0  0  0  0  0  0  0  0  0  0
  154.2209  135.8776  160.5399 H   0  0  0  0  0  0  0  0  0  0  0  0
  154.8002  137.8735  162.7929 H   0  0  0  0  0  0  0  0  0  0  0  0
  156.4081  136.4358  160.9896 H   0  0  0  0  0  0  0  0  0  0  0  0
  156.1550  136.0595  163.8877 H   0  0  0  0  0  0  0  0  0  0  0  0
  154.0103  136.1082  165.0105 H   0  0  0  0  0  0  0  0  0  0  0  0
  153.1660  135.5670  163.5615 H   0  0  0  0  0  0  0  0  0  0  0  0
  154.5681  133.8742  165.5419 H   0  0  0  0  0  0  0  0  0  0  0  0
  153.3958  133.4260  164.3013 H   0  0  0  0  0  0  0  0  0  0  0  0
  156.3812  133.5104  164.1395 H   0  0  0  0  0  0  0  0  0  0  0  0
  155.2701  132.5857  163.1223 H   0  0  0  0  0  0  0  0  0  0  0  0
  1  2  2  0  0  0  0
  2  3  1  0  0  0  0
  2  7  1  0  0  0  0
  3  4  1  0  0  0  0
  3 29  1  0  0  0  0
  4  6  1  0  0  0  0
  4  5  1  0  0  0  0
  4 30  1  0  0  0  0
  5  6  1  0  0  0  0
  5 31  1  0  0  0  0
  5 32  1  0  0  0  0
  6 33  1  0  0  0  0
  6 34  1  0  0  0  0
  7 11  1  0  0  0  0
  7  8  1  0  0  0  0
  7 35  1  0  0  0  0
  8  9  1  0  0  0  0
  8 36  1  0  0  0  0
  8 37  1  0  0  0  0
  9 10  1  0  0  0  0
  9 38  1  0  0  0  0
  9 39  1  0  0  0  0
 10 11  1  0  0  0  0
 10 40  1  0  0  0  0
 10 41  1  0  0  0  0
 11 12  1  0  0  0  0
 12 17  1  0  0  0  0
 12 13  2  0  0  0  0
 13 14  1  0  0  0  0
 14 15  2  0  0  0  0
 14 42  1  0  0  0  0
 15 16  1  0  0  0  0
 16 20  1  0  0  0  0
 16 17  2  0  0  0  0
 17 18  1  0  0  0  0
 18 19  2  0  0  0  0
 19 20  1  0  0  0  0
 19 43  1  0  0  0  0
 20 21  1  0  0  0  0
 21 22  1  0  0  0  0
 21 44  1  0  0  0  0
 21 45  1  0  0  0  0
 22 23  1  0  0  0  0
 22 24  1  0  0  0  0
 22 46  1  0  0  0  0
 23 47  1  0  0  0  0
 24 28  1  0  0  0  0
 24 25  1  0  0  0  0
 24 48  1  0  0  0  0
 25 26  1  0  0  0  0
 25 49  1  0  0  0  0
 25 50  1  0  0  0  0
 26 27  1  0  0  0  0
 26 51  1  0  0  0  0
 26 52  1  0  0  0  0
 27 28  1  0  0  0  0
 27 53  1  0  0  0  0
 27 54  1  0  0  0  0
M  END
> <s_m_source_file>
AV-unprocessed.smi

> <i_m_source_file_index>
235

> <i_lp_mmshare_version>
43012

> <i_f3d_flags>
0

> <s_epik_input>
W0NIMl0xW0NIMl1bQ0hdMVtOSF1DKD1PKVtDQEBIXTJbQ0gyXVtDSDJdW0NIMl1OMmMobltjSF1uMyljKGMzNCluW2NIXW40W0NIMl1bQ0BIXShbT0hdKVtDQEBIXTVbQ0gyXVtDSDJdW0NIMl1PNQ==

> <s_epik_cmdline>
J2VwaWtfcHl0aG9uJywgJy1waCcsICc3LjAnLCAnLXRuJywgJzgnLCAnLW1hJywgJzIwMCcsICctbWV0YWxfYmluZGluZycsICctaW1hZScsICc8aW5maWxlLm1hZT4nLCAnLW9tYWUnLCAnPG91dGZpbGUubWFlPic=

> <r_lp_tautomer_probability>
1

> <r_epik_Ionization_Penalty>
0.000526714

> <r_epik_Ionization_Penalty_Charging>
0

> <r_epik_Ionization_Penalty_Neutral>
0.000526714

> <r_epik_State_Penalty>
0.000272704

> <r_epik_Charging_Adjusted_Penalty>
0.000272704

> <i_epik_Tot_Q>
0

> <i_epik_Tot_abs_Q>
0

> <r_epik_Metal_State_Penalty>
-0

> <b_epik_Metal_Only>
0

> <s_lp_Force_Field>
OPLS_2005

> <r_lp_Energy>
59.397

> <b_lp_Chiralities_Consistent>
1

> <s_lp_Variant>
AV-unprocessed.smi:235-5

> <Gold.Version>
5.8.1

> <Gold.Id.Protein>
6NUR|6NUR_protein|mol2

> <Gold.PLP.Fitness>
46.0393

> <Gold.PLP.PLP>
-46.5824

> <Gold.PLP.part.hbond>
-0.0820

> <Gold.PLP.part.metal>
0.0000

> <Gold.PLP.part.buried>
-3.5046

> <Gold.PLP.part.nonpolar>
-43.0241

> <Gold.PLP.part.repulsive>
0.1748

> <Gold.PLP.ligand.clash>
0.0000

> <Gold.PLP.ligand.torsion>
0.4312

> <Gold.PLP.Chemscore.Hbond>
0.0000

> <Gold.PLP.Chemscore.CHOScore>
0.0000

> <Gold.PLP.Chemscore.Metal>
0.0000

> <Gold.PLP.Chemscore.Internal.Correction>
0.3194

> <Gold.Rescore>
     Score         DG    S(hbond)    S(metal)    S(lipo)     H(rot)  DE(clash)    DE(int)     intcor
      6.83     -11.38       0.00        0.00     116.07       3.00       0.07       4.49       ----

> <Gold.Chemscore.Fitness>
6.8287

> <Gold.Chemscore.DG>
-11.3834

> <Gold.Chemscore.ZeroCoef>
-5.4800

> <Gold.Chemscore.Hbond>
0.0000

> <Gold.Chemscore.Metal>
0.0000

> <Gold.Chemscore.Lipo>
116.0739

> <Gold.Chemscore.Internal_Hbond>
0.0000

> <Gold.Chemscore.DEClash>
0.0664

> <Gold.Chemscore.DEInternal>
4.4883

> <Gold.Chemscore.Rot>
2.9989

> <Gold.Chemscore.Internal.Correction>
   9.000000E+99

> <Gold.Chemscore.Hbond.Weighted>
-0.0000

> <Gold.Chemscore.Metal.Weighted>
-0.0000

> <Gold.Chemscore.Lipo.Weighted>
-13.5806

> <Gold.Chemscore.Internal_Hbond.Weighted>
0.0000

> <Gold.Chemscore.DEClash.Weighted>
0.0664

> <Gold.Chemscore.DEInternal.Weighted>
4.4883

> <Gold.Chemscore.Rot.Weighted>
7.6772

> <Gold.Chemscore.Internal.Correction.Weighted>
   9.000000E+99

> <Gold.Protein.RotatedTorsions>
[ 6907 6896 6895 6894 ] final  -55.80 input  -60.11 | X-H torsion
[ 7974 7965 7964 7962 ] final   29.89 input  175.53 | X-H torsion
[ 8008 7997 7996 7995 ] final  -30.56 input   59.86 | X-H torsion
[ 10167 10162 10161 10158 ] final   16.56 input  -65.29 | X-H torsion
[ 10718 10713 10712 10709 ] final  137.52 input   66.30 | X-H torsion
[ 10763 10752 10751 10750 ] final   54.73 input  -60.55 | X-H torsion
[ 11005 11000 10999 10996 ] final  -19.62 input  -57.11 | X-H torsion

> <Gold.Protein.ActiveResidues>
 VAL166  LYS551  ARG553  GLY616  TRP617  ASP618  TYR619  PRO620  LYS621  CYS622 
 ASP623  PHE694  ASN695  SER759  ASP760  ASP761  ALA762  ILE779  LEU786  VAL792 
 PHE793  MET794  SER795  GLU796  ALA797  LYS798  CYS799  TRP800  GLU811  SER814 

> <Gold.Protein.RotatedAtoms>
  150.8221  134.7434  159.6780 H   0  0  0  0  0  0  0  0  0  0  0  0  # atno 6907 bound_to 6896
  152.4335  134.5728  159.9935 H   0  0  0  0  0  0  0  0  0  0  0  0  # atno 6908 bound_to 6896
  151.5909  133.3329  159.3063 H   0  0  0  0  0  0  0  0  0  0  0  0  # atno 6909 bound_to 6896
  146.1645  139.6861  142.9011 H   0  0  0  0  0  0  0  0  0  0  0  0  # atno 7974 bound_to 7965
  154.4246  140.1788  156.1426 H   0  0  0  0  0  0  0  0  0  0  0  0  # atno 8008 bound_to 7997
  155.9979  140.3363  155.6792 H   0  0  0  0  0  0  0  0  0  0  0  0  # atno 8009 bound_to 7997
  155.6283  140.0667  157.2647 H   0  0  0  0  0  0  0  0  0  0  0  0  # atno 8010 bound_to 7997
  140.5789  143.9020  150.6773 H   0  0  0  0  0  0  0  0  0  0  0  0  # atno 10167 bound_to 10162
  157.4351  131.1052  151.0206 H   0  0  0  0  0  0  0  0  0  0  0  0  # atno 10718 bound_to 10713
  152.9808  135.5735  154.4951 H   0  0  0  0  0  0  0  0  0  0  0  0  # atno 10763 bound_to 10752
  154.4479  135.2777  155.1804 H   0  0  0  0  0  0  0  0  0  0  0  0  # atno 10764 bound_to 10752
  154.3444  135.6222  153.5665 H   0  0  0  0  0  0  0  0  0  0  0  0  # atno 10765 bound_to 10752
  140.8384  133.7944  155.9834 H   0  0  0  0  0  0  0  0  0  0  0  0  # atno 11005 bound_to 11000
  145.4504  141.0428  143.2808 LP  0  0  0  0  0  0  0  0  0  0  0  0  # atno 17320 bound_to 7965
  144.8072  139.6028  143.7045 LP  0  0  0  0  0  0  0  0  0  0  0  0  # atno 17321 bound_to 7965
  140.2514  143.3590  152.1402 LP  0  0  0  0  0  0  0  0  0  0  0  0  # atno 17342 bound_to 10162
  139.5158  144.6968  151.5607 LP  0  0  0  0  0  0  0  0  0  0  0  0  # atno 17343 bound_to 10162
  157.1089  130.6013  149.5477 LP  0  0  0  0  0  0  0  0  0  0  0  0  # atno 17370 bound_to 10713
  155.9927  130.4986  150.7353 LP  0  0  0  0  0  0  0  0  0  0  0  0  # atno 17371 bound_to 10713
  140.8922  134.2482  157.5088 LP  0  0  0  0  0  0  0  0  0  0  0  0  # atno 17394 bound_to 11000
  139.8703  134.9667  156.4570 LP  0  0  0  0  0  0  0  0  0  0  0  0  # atno 17395 bound_to 11000

$$$$
