AV-unprocessed.smi:3303|AV-procd|sdf|12682|dock10
  -GOLD-   2272019 23D 1   1.00000     0.00000
 Structure written by MMmdl.
 44 45  0  0  0  0  0  0  0  0  2 V2000
  145.8900  132.0915  149.7024 C   0  0  0  0  0  0  0  0  0  0  0  0
  145.2661  132.1372  151.1131 C   0  0  1  0  0  0  0  0  0  0  0  0
  145.5871  130.8593  151.9108 C   0  0  0  0  0  0  0  0  0  0  0  0
  147.0189  130.7866  152.3081 N   0  3  2  0  0  0  0  0  0  0  0  0
  147.3248  129.4791  152.9375 C   0  0  0  0  0  0  0  0  0  0  0  0
  147.4418  131.9670  153.1220 C   0  0  1  0  0  0  0  0  0  0  0  0
  148.9349  131.9223  153.5007 C   0  0  0  0  0  0  0  0  0  0  0  0
  147.1415  133.2807  152.3696 C   0  0  0  0  0  0  0  0  0  0  0  0
  145.6656  133.3747  151.9527 C   0  0  1  0  0  0  0  0  0  0  0  0
  145.4474  134.6381  151.2558 N   0  0  0  0  0  0  0  0  0  0  0  0
  144.6740  135.5764  152.0567 C   0  0  0  0  0  0  0  0  0  0  0  0
  143.4603  134.8601  152.6640 C   0  0  0  0  0  0  0  0  0  0  0  0
  142.3536  135.8311  153.0296 C   0  0  0  0  0  0  0  0  0  0  0  0
  141.0991  135.3616  153.4738 C   0  0  0  0  0  0  0  0  0  0  0  0
  140.1100  136.3063  153.8097 C   0  0  0  0  0  0  0  0  0  0  0  0
  140.4120  137.6765  153.6906 C   0  0  0  0  0  0  0  0  0  0  0  0
  141.6953  138.0427  153.2387 C   0  0  0  0  0  0  0  0  0  0  0  0
  142.6510  137.1452  152.9139 N   0  0  0  0  0  0  0  0  0  0  0  0
  146.9785  132.0516  149.7352 H   0  0  0  0  0  0  0  0  0  0  0  0
  145.6079  132.9633  149.1116 H   0  0  0  0  0  0  0  0  0  0  0  0
  145.5482  131.2122  149.1561 H   0  0  0  0  0  0  0  0  0  0  0  0
  144.1848  132.1507  150.9759 H   0  0  0  0  0  0  0  0  0  0  0  0
  144.9673  130.8196  152.8082 H   0  0  0  0  0  0  0  0  0  0  0  0
  145.3227  129.9844  151.3146 H   0  0  0  0  0  0  0  0  0  0  0  0
  146.8740  129.4069  153.9283 H   0  0  0  0  0  0  0  0  0  0  0  0
  148.3984  129.3193  153.0309 H   0  0  0  0  0  0  0  0  0  0  0  0
  146.9405  128.6583  152.3310 H   0  0  0  0  0  0  0  0  0  0  0  0
  146.8599  131.9626  154.0455 H   0  0  0  0  0  0  0  0  0  0  0  0
  149.2335  132.8380  154.0122 H   0  0  0  0  0  0  0  0  0  0  0  0
  149.5668  131.8182  152.6179 H   0  0  0  0  0  0  0  0  0  0  0  0
  149.1626  131.1012  154.1800 H   0  0  0  0  0  0  0  0  0  0  0  0
  147.3919  134.1296  153.0079 H   0  0  0  0  0  0  0  0  0  0  0  0
  147.7878  133.3618  151.4945 H   0  0  0  0  0  0  0  0  0  0  0  0
  145.0694  133.3868  152.8668 H   0  0  0  0  0  0  0  0  0  0  0  0
  146.3414  135.0582  151.0430 H   0  0  0  0  0  0  0  0  0  0  0  0
  145.2896  135.9910  152.8547 H   0  0  0  0  0  0  0  0  0  0  0  0
  144.3403  136.4057  151.4319 H   0  0  0  0  0  0  0  0  0  0  0  0
  143.0653  134.1249  151.9612 H   0  0  0  0  0  0  0  0  0  0  0  0
  143.7591  134.3052  153.5546 H   0  0  0  0  0  0  0  0  0  0  0  0
  140.8979  134.3036  153.5580 H   0  0  0  0  0  0  0  0  0  0  0  0
  139.1380  135.9859  154.1541 H   0  0  0  0  0  0  0  0  0  0  0  0
  139.6790  138.4291  153.9405 H   0  0  0  0  0  0  0  0  0  0  0  0
  141.9618  139.0842  153.1361 H   0  0  0  0  0  0  0  0  0  0  0  0
  147.5514  130.8218  151.4505 H   0  0  0  0  0  0  0  0  0  0  0  0
  1  2  1  0  0  0  0
  1 19  1  0  0  0  0
  1 20  1  0  0  0  0
  1 21  1  0  0  0  0
  2  9  1  0  0  0  0
  2  3  1  0  0  0  0
  2 22  1  0  0  0  0
  3  4  1  0  0  0  0
  3 23  1  0  0  0  0
  3 24  1  0  0  0  0
  4  5  1  0  0  0  0
  4  6  1  0  0  0  0
  4 44  1  0  0  0  0
  5 25  1  0  0  0  0
  5 26  1  0  0  0  0
  5 27  1  0  0  0  0
  6  7  1  0  0  0  0
  6  8  1  0  0  0  0
  6 28  1  0  0  0  0
  7 29  1  0  0  0  0
  7 30  1  0  0  0  0
  7 31  1  0  0  0  0
  8  9  1  0  0  0  0
  8 32  1  0  0  0  0
  8 33  1  0  0  0  0
  9 10  1  0  0  0  0
  9 34  1  0  0  0  0
 10 11  1  0  0  0  0
 10 35  1  0  0  0  0
 11 12  1  0  0  0  0
 11 36  1  0  0  0  0
 11 37  1  0  0  0  0
 12 13  1  0  0  0  0
 12 38  1  0  0  0  0
 12 39  1  0  0  0  0
 13 18  1  0  0  0  0
 13 14  2  0  0  0  0
 14 15  1  0  0  0  0
 14 40  1  0  0  0  0
 15 16  2  0  0  0  0
 15 41  1  0  0  0  0
 16 17  1  0  0  0  0
 16 42  1  0  0  0  0
 17 18  2  0  0  0  0
 17 43  1  0  0  0  0
M  CHG  1   4   1
M  END
> <s_m_source_file>
AV-unprocessed.smi

> <i_m_source_file_index>
3303

> <i_lp_mmshare_version>
43012

> <i_f3d_flags>
0

> <s_epik_input>
W0NIM11bQ0BASF0xW0NIMl1OKFtDSDNdKVtDQEBIXShbQ0gzXSlbQ0gyXVtDQEhdMVtOSF1bQ0gyXVtDSDJdYzJbY0hdW2NIXVtjSF1bY0hdbjI=

> <s_epik_cmdline>
J2VwaWtfcHl0aG9uJywgJy1waCcsICc3LjAnLCAnLXRuJywgJzgnLCAnLW1hJywgJzIwMCcsICctbWV0YWxfYmluZGluZycsICctaW1hZScsICc8aW5maWxlLm1hZT4nLCAnLW9tYWUnLCAnPG91dGZpbGUubWFlPic=

> <r_epik_Ionization_Penalty>
2.31085

> <r_epik_Ionization_Penalty_Charging>
0.000313057

> <r_epik_Ionization_Penalty_Neutral>
2.31054

> <r_epik_State_Penalty>
2.4087

> <r_epik_Charging_Adjusted_Penalty>
2.40902

> <i_epik_Tot_Q>
1

> <i_epik_Tot_abs_Q>
1

> <r_epik_Metal_State_Penalty>
2.30979

> <b_epik_Metal_Only>
0

> <s_lp_Force_Field>
OPLS_2005

> <r_lp_Energy>
24.7509

> <b_lp_Chiralities_Consistent>
1

> <s_lp_Variant>
AV-unprocessed.smi:3303-26

> <Gold.Version>
5.8.1

> <Gold.Id.Protein>
6NUR|6NUR_protein|mol2

> <Gold.PLP.Fitness>
41.2375

> <Gold.PLP.PLP>
-37.0448

> <Gold.PLP.part.hbond>
-1.0000

> <Gold.PLP.part.metal>
0.0000

> <Gold.PLP.part.buried>
-6.4952

> <Gold.PLP.part.nonpolar>
-29.8835

> <Gold.PLP.part.repulsive>
0.2257

> <Gold.PLP.ligand.clash>
0.0000

> <Gold.PLP.ligand.torsion>
0.9071

> <Gold.PLP.Chemscore.Hbond>
1.0000

> <Gold.PLP.Chemscore.CHOScore>
1.0000

> <Gold.PLP.Chemscore.Metal>
0.0000

> <Gold.Chemscore.Hbonds>
donor molecule, donor type, donor heavy atom, donor atom, acceptor molecule, acceptor atom, score
      L1  H     4    44       P1 10747  1.00
      L1  C    17    43       P1 10175  1.00

> <Gold.PLP.Chemscore.Internal.Correction>
0.0068

> <Gold.Rescore>
     Score         DG    S(hbond)    S(metal)    S(lipo)     H(rot)  DE(clash)    DE(int)     intcor
     16.25     -17.25       0.98        0.00     101.80       1.33       0.05       0.95       ----

> <Gold.Chemscore.Fitness>
16.2503

> <Gold.Chemscore.DG>
-17.2514

> <Gold.Chemscore.ZeroCoef>
-5.4800

> <Gold.Chemscore.Hbond>
0.9755

> <Gold.Chemscore.Metal>
0.0000

> <Gold.Chemscore.Lipo>
101.8033

> <Gold.Chemscore.Internal_Hbond>
0.0000

> <Gold.Chemscore.DEClash>
0.0514

> <Gold.Chemscore.DEInternal>
0.9498

> <Gold.Chemscore.Rot>
1.3272

> <Gold.Chemscore.Internal.Correction>
   9.000000E+99

> <Gold.Chemscore.Hbonds>
donor molecule, donor type, donor heavy atom, donor atom, acceptor molecule, acceptor atom, score
      L1  H     4    44       P1 10747  1.00

> <Gold.Chemscore.Hbond.Weighted>
-3.2581

> <Gold.Chemscore.Metal.Weighted>
-0.0000

> <Gold.Chemscore.Lipo.Weighted>
-11.9110

> <Gold.Chemscore.Internal_Hbond.Weighted>
0.0000

> <Gold.Chemscore.DEClash.Weighted>
0.0514

> <Gold.Chemscore.DEInternal.Weighted>
0.9498

> <Gold.Chemscore.Rot.Weighted>
3.3976

> <Gold.Chemscore.Internal.Correction.Weighted>
   9.000000E+99

> <Gold.Protein.RotatedTorsions>
[ 6907 6896 6895 6894 ] final  145.67 input  -60.11 | X-H torsion
[ 7974 7965 7964 7962 ] final  -10.25 input  175.53 | X-H torsion
[ 8008 7997 7996 7995 ] final  170.96 input   59.86 | X-H torsion
[ 10167 10162 10161 10158 ] final -113.02 input  -65.29 | X-H torsion
[ 10718 10713 10712 10709 ] final  103.83 input   66.30 | X-H torsion
[ 10763 10752 10751 10750 ] final  127.38 input  -60.55 | X-H torsion
[ 11005 11000 10999 10996 ] final -154.38 input  -57.11 | X-H torsion

> <Gold.Protein.ActiveResidues>
 VAL166  LYS551  ARG553  GLY616  TRP617  ASP618  TYR619  PRO620  LYS621  CYS622 
 ASP623  PHE694  ASN695  SER759  ASP760  ASP761  ALA762  ILE779  LEU786  VAL792 
 PHE793  MET794  SER795  GLU796  ALA797  LYS798  CYS799  TRP800  GLU811  SER814 

> <Gold.Protein.RotatedAtoms>
  152.1779  133.4687  159.4942 H   0  0  0  0  0  0  0  0  0  0  0  0  # atno 6907 bound_to 6896
  150.6930  134.1870  159.4279 H   0  0  0  0  0  0  0  0  0  0  0  0  # atno 6908 bound_to 6896
  151.9780  135.0043  160.0606 H   0  0  0  0  0  0  0  0  0  0  0  0  # atno 6909 bound_to 6896
  146.2227  140.2736  142.8358 H   0  0  0  0  0  0  0  0  0  0  0  0  # atno 7974 bound_to 7965
  156.1316  140.1524  156.9057 H   0  0  0  0  0  0  0  0  0  0  0  0  # atno 8008 bound_to 7997
  154.4914  140.0850  156.7641 H   0  0  0  0  0  0  0  0  0  0  0  0  # atno 8009 bound_to 7997
  155.4245  140.3424  155.4276 H   0  0  0  0  0  0  0  0  0  0  0  0  # atno 8010 bound_to 7997
  140.1164  143.4482  152.1719 H   0  0  0  0  0  0  0  0  0  0  0  0  # atno 10167 bound_to 10162
  157.6760  131.0788  150.5614 H   0  0  0  0  0  0  0  0  0  0  0  0  # atno 10718 bound_to 10713
  153.7084  135.3272  155.3241 H   0  0  0  0  0  0  0  0  0  0  0  0  # atno 10763 bound_to 10752
  154.8392  135.4471  154.1339 H   0  0  0  0  0  0  0  0  0  0  0  0  # atno 10764 bound_to 10752
  153.2426  135.6972  153.7846 H   0  0  0  0  0  0  0  0  0  0  0  0  # atno 10765 bound_to 10752
  140.6980  134.3969  157.5212 H   0  0  0  0  0  0  0  0  0  0  0  0  # atno 11005 bound_to 11000
  144.9250  140.7911  143.5725 LP  0  0  0  0  0  0  0  0  0  0  0  0  # atno 17320 bound_to 7965
  145.2675  139.1968  143.4859 LP  0  0  0  0  0  0  0  0  0  0  0  0  # atno 17321 bound_to 7965
  139.5592  144.7394  151.4205 LP  0  0  0  0  0  0  0  0  0  0  0  0  # atno 17342 bound_to 10162
  140.6897  143.7891  150.7237 LP  0  0  0  0  0  0  0  0  0  0  0  0  # atno 17343 bound_to 10162
  156.5917  130.4331  149.5934 LP  0  0  0  0  0  0  0  0  0  0  0  0  # atno 17370 bound_to 10713
  156.2578  130.6945  151.1704 LP  0  0  0  0  0  0  0  0  0  0  0  0  # atno 17371 bound_to 10713
  139.8905  134.8804  156.2368 LP  0  0  0  0  0  0  0  0  0  0  0  0  # atno 17394 bound_to 11000
  141.0187  133.7053  156.1232 LP  0  0  0  0  0  0  0  0  0  0  0  0  # atno 17395 bound_to 11000

$$$$
