AV-unprocessed.smi:2001|AV-procd|sdf|8102|dock9
  -GOLD-   2272010323D 1   1.00000     0.00000
 Structure written by MMmdl.
 50 51  0  0  0  0  0  0  0  0  1 V2000
  155.7482  133.6398  159.0933 C   0  0  0  0  0  0  0  0  0  0  0  0
  154.6585  133.6025  159.9980 O   0  0  0  0  0  0  0  0  0  0  0  0
  154.7899  132.5742  160.9647 C   0  0  0  0  0  0  0  0  0  0  0  0
  155.7326  133.0582  162.0766 C   0  0  0  0  0  0  0  0  0  0  0  0
  155.2537  134.3026  162.6869 N   0  0  0  0  0  0  0  0  0  0  0  0
  155.1931  135.3739  161.8108 N   0  0  0  0  0  0  0  0  0  0  0  0
  154.7926  136.5320  162.2268 C   0  0  0  0  0  0  0  0  0  0  0  0
  154.7213  137.7111  161.3199 C   0  0  0  0  0  0  0  0  0  0  0  0
  154.7760  137.5931  160.0945 O   0  0  0  0  0  0  0  0  0  0  0  0
  154.5886  138.9017  161.9316 N   0  0  0  0  0  0  0  0  0  0  0  0
  154.4755  140.1865  161.2530 C   0  0  0  0  0  0  0  0  0  0  0  0
  153.5807  140.0746  160.0053 C   0  0  0  0  0  0  0  0  0  0  0  0
  153.1544  141.3500  159.4323 N   0  0  0  0  0  0  0  0  0  0  0  0
  152.7972  142.3345  160.4507 C   0  0  0  0  0  0  0  0  0  0  0  0
  152.3304  143.6641  159.8274 C   0  0  2  0  0  0  0  0  0  0  0  0
  151.8776  144.6749  160.8862 C   0  0  0  0  0  0  0  0  0  0  0  0
  151.2340  143.4097  158.9538 O   0  0  0  0  0  0  0  0  0  0  0  0
  151.5466  142.4898  157.9117 C   0  0  2  0  0  0  0  0  0  0  0  0
  150.2993  142.3084  157.0403 C   0  0  0  0  0  0  0  0  0  0  0  0
  152.0180  141.1629  158.5371 C   0  0  0  0  0  0  0  0  0  0  0  0
  154.3955  136.7288  163.6109 C   0  0  0  0  0  0  0  0  0  0  0  0
  154.4516  135.6723  164.4511 C   0  0  0  0  0  0  0  0  0  0  0  0
  154.9001  134.3519  164.0064 C   0  0  0  0  0  0  0  0  0  0  0  0
  154.9525  133.3731  164.7504 O   0  0  0  0  0  0  0  0  0  0  0  0
  155.6033  134.4501  158.3788 H   0  0  0  0  0  0  0  0  0  0  0  0
  155.8272  132.7074  158.5326 H   0  0  0  0  0  0  0  0  0  0  0  0
  156.6896  133.8160  159.6154 H   0  0  0  0  0  0  0  0  0  0  0  0
  153.8122  132.3284  161.3826 H   0  0  0  0  0  0  0  0  0  0  0  0
  155.1852  131.6719  160.4953 H   0  0  0  0  0  0  0  0  0  0  0  0
  155.8482  132.2812  162.8345 H   0  0  0  0  0  0  0  0  0  0  0  0
  156.7315  133.2094  161.6628 H   0  0  0  0  0  0  0  0  0  0  0  0
  154.5533  138.9136  162.9410 H   0  0  0  0  0  0  0  0  0  0  0  0
  154.0570  140.8940  161.9679 H   0  0  0  0  0  0  0  0  0  0  0  0
  155.4641  140.5620  160.9832 H   0  0  0  0  0  0  0  0  0  0  0  0
  154.1363  139.5229  159.2455 H   0  0  0  0  0  0  0  0  0  0  0  0
  152.7063  139.4643  160.2376 H   0  0  0  0  0  0  0  0  0  0  0  0
  152.0085  141.9345  161.0899 H   0  0  0  0  0  0  0  0  0  0  0  0
  153.6515  142.5357  161.0962 H   0  0  0  0  0  0  0  0  0  0  0  0
  153.1470  144.1030  159.2514 H   0  0  0  0  0  0  0  0  0  0  0  0
  152.6863  144.9061  161.5800 H   0  0  0  0  0  0  0  0  0  0  0  0
  151.0383  144.2898  161.4657 H   0  0  0  0  0  0  0  0  0  0  0  0
  151.5612  145.6091  160.4219 H   0  0  0  0  0  0  0  0  0  0  0  0
  152.3460  142.9087  157.2979 H   0  0  0  0  0  0  0  0  0  0  0  0
  150.4929  141.6209  156.2166 H   0  0  0  0  0  0  0  0  0  0  0  0
  149.9818  143.2592  156.6116 H   0  0  0  0  0  0  0  0  0  0  0  0
  149.4668  141.9101  157.6211 H   0  0  0  0  0  0  0  0  0  0  0  0
  152.2873  140.4669  157.7415 H   0  0  0  0  0  0  0  0  0  0  0  0
  151.1910  140.7056  159.0831 H   0  0  0  0  0  0  0  0  0  0  0  0
  154.0600  137.6921  163.9667 H   0  0  0  0  0  0  0  0  0  0  0  0
  154.1572  135.8039  165.4821 H   0  0  0  0  0  0  0  0  0  0  0  0
  1  2  1  0  0  0  0
  1 25  1  0  0  0  0
  1 26  1  0  0  0  0
  1 27  1  0  0  0  0
  2  3  1  0  0  0  0
  3  4  1  0  0  0  0
  3 28  1  0  0  0  0
  3 29  1  0  0  0  0
  4  5  1  0  0  0  0
  4 30  1  0  0  0  0
  4 31  1  0  0  0  0
  5 23  1  0  0  0  0
  5  6  1  0  0  0  0
  6  7  2  0  0  0  0
  7  8  1  0  0  0  0
  7 21  1  0  0  0  0
  8  9  2  0  0  0  0
  8 10  1  0  0  0  0
 10 11  1  0  0  0  0
 10 32  1  0  0  0  0
 11 12  1  0  0  0  0
 11 33  1  0  0  0  0
 11 34  1  0  0  0  0
 12 13  1  0  0  0  0
 12 35  1  0  0  0  0
 12 36  1  0  0  0  0
 13 20  1  0  0  0  0
 13 14  1  0  0  0  0
 14 15  1  0  0  0  0
 14 37  1  0  0  0  0
 14 38  1  0  0  0  0
 15 16  1  0  0  0  0
 15 17  1  0  0  0  0
 15 39  1  0  0  0  0
 16 40  1  0  0  0  0
 16 41  1  0  0  0  0
 16 42  1  0  0  0  0
 17 18  1  0  0  0  0
 18 19  1  0  0  0  0
 18 20  1  0  0  0  0
 18 43  1  0  0  0  0
 19 44  1  0  0  0  0
 19 45  1  0  0  0  0
 19 46  1  0  0  0  0
 20 47  1  0  0  0  0
 20 48  1  0  0  0  0
 21 22  2  0  0  0  0
 21 49  1  0  0  0  0
 22 23  1  0  0  0  0
 22 50  1  0  0  0  0
 23 24  2  0  0  0  0
M  END
> <s_m_source_file>
AV-unprocessed.smi

> <i_m_source_file_index>
2001

> <i_lp_mmshare_version>
43012

> <i_f3d_flags>
0

> <s_epik_input>
W0NIM11PW0NIMl1bQ0gyXW4xbmMoW2NIXVtjSF1jMT1PKUMoPU8pW05IXVtDSDJdW0NIMl1OMltDSDJdW0NAQEhdKFtDSDNdKU9bQ0BASF0oW0NIM10pW0NIMl0y

> <s_epik_cmdline>
J2VwaWtfcHl0aG9uJywgJy1waCcsICc3LjAnLCAnLXRuJywgJzgnLCAnLW1hJywgJzIwMCcsICctbWV0YWxfYmluZGluZycsICctaW1hZScsICc8aW5maWxlLm1hZT4nLCAnLW9tYWUnLCAnPG91dGZpbGUubWFlPic=

> <r_lp_tautomer_probability>
1

> <r_epik_Ionization_Penalty>
0.206669

> <r_epik_Ionization_Penalty_Charging>
5.55992e-09

> <r_epik_Ionization_Penalty_Neutral>
0.206669

> <r_epik_State_Penalty>
0.196651

> <r_epik_Charging_Adjusted_Penalty>
0.196651

> <i_epik_Tot_Q>
0

> <i_epik_Tot_abs_Q>
0

> <r_epik_Metal_State_Penalty>
0.198372

> <b_epik_Metal_Only>
0

> <s_lp_Force_Field>
OPLS_2005

> <r_lp_Energy>
38.6275

> <b_lp_Chiralities_Consistent>
1

> <s_lp_Variant>
AV-unprocessed.smi:2001-1

> <Gold.Version>
5.8.1

> <Gold.Id.Protein>
6NUR|6NUR_protein|mol2

> <Gold.PLP.Fitness>
43.9810

> <Gold.PLP.PLP>
-42.0622

> <Gold.PLP.part.hbond>
-1.0000

> <Gold.PLP.part.metal>
0.0000

> <Gold.PLP.part.buried>
-4.7324

> <Gold.PLP.part.nonpolar>
-36.2564

> <Gold.PLP.part.repulsive>
0.1408

> <Gold.PLP.ligand.clash>
0.0000

> <Gold.PLP.ligand.torsion>
0.5493

> <Gold.PLP.Chemscore.Hbond>
0.9913

> <Gold.PLP.Chemscore.CHOScore>
0.0000

> <Gold.PLP.Chemscore.Metal>
0.0000

> <Gold.Chemscore.Hbonds>
donor molecule, donor type, donor heavy atom, donor atom, acceptor molecule, acceptor atom, score
      P1  H  6896  6909       L1     2  0.83

> <Gold.PLP.Chemscore.Internal.Correction>
0.0437

> <Gold.Rescore>
     Score         DG    S(hbond)    S(metal)    S(lipo)     H(rot)  DE(clash)    DE(int)     intcor
     12.62     -16.45       0.95        0.00     110.57       2.00       0.14       3.69       ----

> <Gold.Chemscore.Fitness>
12.6203

> <Gold.Chemscore.DG>
-16.4527

> <Gold.Chemscore.ZeroCoef>
-5.4800

> <Gold.Chemscore.Hbond>
0.9466

> <Gold.Chemscore.Metal>
0.0000

> <Gold.Chemscore.Lipo>
110.5670

> <Gold.Chemscore.Internal_Hbond>
0.0000

> <Gold.Chemscore.DEClash>
0.1403

> <Gold.Chemscore.DEInternal>
3.6921

> <Gold.Chemscore.Rot>
2.0020

> <Gold.Chemscore.Internal.Correction>
   9.000000E+99

> <Gold.Chemscore.Hbonds>
donor molecule, donor type, donor heavy atom, donor atom, acceptor molecule, acceptor atom, score
      P1  H  6896  6909       L1     2  0.48

> <Gold.Chemscore.Hbond.Weighted>
-3.1615

> <Gold.Chemscore.Metal.Weighted>
-0.0000

> <Gold.Chemscore.Lipo.Weighted>
-12.9363

> <Gold.Chemscore.Internal_Hbond.Weighted>
0.0000

> <Gold.Chemscore.DEClash.Weighted>
0.1403

> <Gold.Chemscore.DEInternal.Weighted>
3.6921

> <Gold.Chemscore.Rot.Weighted>
5.1252

> <Gold.Chemscore.Internal.Correction.Weighted>
   9.000000E+99

> <Gold.Protein.RotatedTorsions>
[ 6907 6896 6895 6894 ] final -140.80 input  -60.11 | X-H torsion
[ 7974 7965 7964 7962 ] final -159.74 input  175.53 | X-H torsion
[ 8008 7997 7996 7995 ] final    7.17 input   59.86 | X-H torsion
[ 10167 10162 10161 10158 ] final  135.19 input  -65.29 | X-H torsion
[ 10718 10713 10712 10709 ] final  -51.72 input   66.30 | X-H torsion
[ 10763 10752 10751 10750 ] final -112.26 input  -60.55 | X-H torsion
[ 11005 11000 10999 10996 ] final   81.13 input  -57.11 | X-H torsion

> <Gold.Protein.ActiveResidues>
 VAL166  LYS551  ARG553  GLY616  TRP617  ASP618  TYR619  PRO620  LYS621  CYS622 
 ASP623  PHE694  ASN695  SER759  ASP760  ASP761  ALA762  ILE779  LEU786  VAL792 
 PHE793  MET794  SER795  GLU796  ALA797  LYS798  CYS799  TRP800  GLU811  SER814 

> <Gold.Protein.RotatedAtoms>
  151.0655  133.5509  159.2630 H   0  0  0  0  0  0  0  0  0  0  0  0  # atno 6907 bound_to 6896
  151.2468  135.0607  159.9056 H   0  0  0  0  0  0  0  0  0  0  0  0  # atno 6908 bound_to 6896
  152.5404  134.0421  159.8126 H   0  0  0  0  0  0  0  0  0  0  0  0  # atno 6909 bound_to 6896
  144.7453  140.3642  143.6090 H   0  0  0  0  0  0  0  0  0  0  0  0  # atno 7974 bound_to 7965
  154.7504  140.2766  155.6297 H   0  0  0  0  0  0  0  0  0  0  0  0  # atno 8008 bound_to 7997
  156.2894  140.2679  156.2183 H   0  0  0  0  0  0  0  0  0  0  0  0  # atno 8009 bound_to 7997
  155.0144  140.0372  157.2402 H   0  0  0  0  0  0  0  0  0  0  0  0  # atno 8010 bound_to 7997
  139.5226  144.6529  151.5248 H   0  0  0  0  0  0  0  0  0  0  0  0  # atno 10167 bound_to 10162
  156.1685  130.4149  149.9683 H   0  0  0  0  0  0  0  0  0  0  0  0  # atno 10718 bound_to 10713
  154.8341  135.4497  154.1166 H   0  0  0  0  0  0  0  0  0  0  0  0  # atno 10763 bound_to 10752
  153.2413  135.6916  153.7786 H   0  0  0  0  0  0  0  0  0  0  0  0  # atno 10764 bound_to 10752
  153.7132  135.3353  155.3227 H   0  0  0  0  0  0  0  0  0  0  0  0  # atno 10765 bound_to 10752
  139.9109  134.7973  156.2001 H   0  0  0  0  0  0  0  0  0  0  0  0  # atno 11005 bound_to 11000
  145.7146  139.1693  143.2519 LP  0  0  0  0  0  0  0  0  0  0  0  0  # atno 17320 bound_to 7965
  146.1322  140.7170  142.9407 LP  0  0  0  0  0  0  0  0  0  0  0  0  # atno 17321 bound_to 7965
  140.6342  143.9017  150.6632 LP  0  0  0  0  0  0  0  0  0  0  0  0  # atno 17342 bound_to 10162
  140.2330  143.3721  152.1549 LP  0  0  0  0  0  0  0  0  0  0  0  0  # atno 17343 bound_to 10162
  156.7491  130.9108  151.3636 LP  0  0  0  0  0  0  0  0  0  0  0  0  # atno 17370 bound_to 10713
  157.6785  130.9117  150.0210 LP  0  0  0  0  0  0  0  0  0  0  0  0  # atno 17371 bound_to 10713
  141.0530  133.6879  156.1808 LP  0  0  0  0  0  0  0  0  0  0  0  0  # atno 17394 bound_to 11000
  140.6780  134.4797  157.5588 LP  0  0  0  0  0  0  0  0  0  0  0  0  # atno 17395 bound_to 11000

$$$$
