AV-unprocessed.smi:2060|AV-procd|sdf|8356|dock2
  -GOLD-   2272011 23D 1   1.00000     0.00000
 Structure written by MMmdl.
 46 47  0  0  0  0  0  0  0  0  2 V2000
  146.3632  142.1321  157.0089 C   0  0  0  0  0  0  0  0  0  0  0  0
  146.1790  140.8688  156.1492 C   0  0  0  0  0  0  0  0  0  0  0  0
  146.8315  140.9023  154.7332 C   0  0  1  0  0  0  0  0  0  0  0  0
  146.5502  142.2791  154.0761 C   0  0  0  0  0  0  0  0  0  0  0  0
  148.3794  140.7517  154.8673 C   0  0  0  0  0  0  0  0  0  0  0  0
  149.0145  141.8223  155.6382 N   0  0  0  0  0  0  0  0  0  0  0  0
  149.8878  141.6508  156.6413 C   0  0  0  0  0  0  0  0  0  0  0  0
  150.2501  140.5459  157.0433 O   0  0  0  0  0  0  0  0  0  0  0  0
  150.2923  142.8313  157.1384 N   0  0  0  0  0  0  0  0  0  0  0  0
  151.1989  143.0759  158.2019 C   0  0  0  0  0  0  0  0  0  0  0  0
  151.5186  142.1805  159.2638 C   0  0  0  0  0  0  0  0  0  0  0  0
  152.4297  142.8879  159.9964 C   0  0  0  0  0  0  0  0  0  0  0  0
  153.1933  142.5784  161.2386 C   0  0  0  0  0  0  0  0  0  0  0  0
  152.6475  144.1064  159.4327 O   0  0  0  0  0  0  0  0  0  0  0  0
  151.8563  144.2177  158.2835 N   0  0  0  0  0  0  0  0  0  0  0  0
  146.2795  139.8028  153.8572 N   0  3  0  0  0  0  0  0  0  0  0  0
  147.0669  139.4979  152.6288 C   0  0  0  0  0  0  0  0  0  0  0  0
  146.2934  138.5282  151.7206 C   0  0  0  0  0  0  0  0  0  0  0  0
  146.0084  137.3345  152.4359 O   0  0  0  0  0  0  0  0  0  0  0  0
  145.1906  137.5839  153.5706 C   0  0  0  0  0  0  0  0  0  0  0  0
  145.9171  138.5296  154.5423 C   0  0  0  0  0  0  0  0  0  0  0  0
  145.8684  142.0085  157.9724 H   0  0  0  0  0  0  0  0  0  0  0  0
  145.9300  143.0143  156.5384 H   0  0  0  0  0  0  0  0  0  0  0  0
  147.4139  142.3362  157.2133 H   0  0  0  0  0  0  0  0  0  0  0  0
  146.5755  140.0320  156.7232 H   0  0  0  0  0  0  0  0  0  0  0  0
  145.1083  140.6875  156.0614 H   0  0  0  0  0  0  0  0  0  0  0  0
  147.1411  143.0737  154.5323 H   0  0  0  0  0  0  0  0  0  0  0  0
  145.5064  142.5771  154.1760 H   0  0  0  0  0  0  0  0  0  0  0  0
  146.7936  142.2759  153.0130 H   0  0  0  0  0  0  0  0  0  0  0  0
  148.6405  139.7837  155.2979 H   0  0  0  0  0  0  0  0  0  0  0  0
  148.8459  140.7467  153.8824 H   0  0  0  0  0  0  0  0  0  0  0  0
  148.7880  142.7686  155.3686 H   0  0  0  0  0  0  0  0  0  0  0  0
  149.9003  143.6577  156.7115 H   0  0  0  0  0  0  0  0  0  0  0  0
  151.1551  141.1846  159.4683 H   0  0  0  0  0  0  0  0  0  0  0  0
  152.7560  141.7286  161.7627 H   0  0  0  0  0  0  0  0  0  0  0  0
  153.1919  143.4307  161.9184 H   0  0  0  0  0  0  0  0  0  0  0  0
  154.2292  142.3343  161.0030 H   0  0  0  0  0  0  0  0  0  0  0  0
  147.2843  140.3987  152.0580 H   0  0  0  0  0  0  0  0  0  0  0  0
  148.0236  139.0477  152.8942 H   0  0  0  0  0  0  0  0  0  0  0  0
  145.3702  138.9832  151.3583 H   0  0  0  0  0  0  0  0  0  0  0  0
  146.8907  138.2779  150.8435 H   0  0  0  0  0  0  0  0  0  0  0  0
  144.2340  138.0064  153.2586 H   0  0  0  0  0  0  0  0  0  0  0  0
  144.9729  136.6359  154.0627 H   0  0  0  0  0  0  0  0  0  0  0  0
  146.8115  138.0393  154.9273 H   0  0  0  0  0  0  0  0  0  0  0  0
  145.2539  138.6998  155.3881 H   0  0  0  0  0  0  0  0  0  0  0  0
  145.4015  140.1733  153.5225 H   0  0  0  0  0  0  0  0  0  0  0  0
  1  2  1  0  0  0  0
  1 22  1  0  0  0  0
  1 23  1  0  0  0  0
  1 24  1  0  0  0  0
  2  3  1  0  0  0  0
  2 25  1  0  0  0  0
  2 26  1  0  0  0  0
  3  4  1  0  0  0  0
  3  5  1  0  0  0  0
  3 16  1  0  0  0  0
  4 27  1  0  0  0  0
  4 28  1  0  0  0  0
  4 29  1  0  0  0  0
  5  6  1  0  0  0  0
  5 30  1  0  0  0  0
  5 31  1  0  0  0  0
  6  7  1  0  0  0  0
  6 32  1  0  0  0  0
  7  8  2  0  0  0  0
  7  9  1  0  0  0  0
  9 10  1  0  0  0  0
  9 33  1  0  0  0  0
 10 15  2  0  0  0  0
 10 11  1  0  0  0  0
 11 12  2  0  0  0  0
 11 34  1  0  0  0  0
 12 13  1  0  0  0  0
 12 14  1  0  0  0  0
 13 35  1  0  0  0  0
 13 36  1  0  0  0  0
 13 37  1  0  0  0  0
 14 15  1  0  0  0  0
 16 21  1  0  0  0  0
 16 17  1  0  0  0  0
 16 46  1  0  0  0  0
 17 18  1  0  0  0  0
 17 38  1  0  0  0  0
 17 39  1  0  0  0  0
 18 19  1  0  0  0  0
 18 40  1  0  0  0  0
 18 41  1  0  0  0  0
 19 20  1  0  0  0  0
 20 21  1  0  0  0  0
 20 42  1  0  0  0  0
 20 43  1  0  0  0  0
 21 44  1  0  0  0  0
 21 45  1  0  0  0  0
M  CHG  1  16   1
M  END
> <s_m_source_file>
AV-unprocessed.smi

> <i_m_source_file_index>
2060

> <i_lp_mmshare_version>
43012

> <i_f3d_flags>
0

> <s_epik_input>
W0NIMl0xW0NIMl1PW0NIMl1bQ0gyXU4xW0NAQF0oW0NIM10pKFtDSDJdW0NIM10pW0NIMl1bTkhdQyg9TylbTkhdYzJbY0hdYyhbQ0gzXSlvbjI=

> <s_epik_cmdline>
J2VwaWtfcHl0aG9uJywgJy1waCcsICc3LjAnLCAnLXRuJywgJzgnLCAnLW1hJywgJzIwMCcsICctbWV0YWxfYmluZGluZycsICctaW1hZScsICc8aW5maWxlLm1hZT4nLCAnLW9tYWUnLCAnPG91dGZpbGUubWFlPic=

> <r_epik_Ionization_Penalty>
0.563843

> <r_epik_Ionization_Penalty_Charging>
0.563819

> <r_epik_Ionization_Penalty_Neutral>
2.4442e-05

> <r_epik_State_Penalty>
0.575199

> <r_epik_Charging_Adjusted_Penalty>
1.13902

> <i_epik_Tot_Q>
1

> <i_epik_Tot_abs_Q>
1

> <r_epik_Metal_State_Penalty>
0.577669

> <b_epik_Metal_Only>
0

> <s_lp_Force_Field>
OPLS_2005

> <r_lp_Energy>
34.1669

> <b_lp_Chiralities_Consistent>
1

> <s_lp_Variant>
AV-unprocessed.smi:2060-3

> <Gold.Version>
5.8.1

> <Gold.Id.Protein>
6NUR|6NUR_protein|mol2

> <Gold.PLP.Fitness>
45.4128

> <Gold.PLP.PLP>
-35.2953

> <Gold.PLP.part.hbond>
-3.0000

> <Gold.PLP.part.metal>
0.0000

> <Gold.PLP.part.buried>
-1.6264

> <Gold.PLP.part.nonpolar>
-32.0892

> <Gold.PLP.part.repulsive>
1.4681

> <Gold.PLP.ligand.clash>
0.0000

> <Gold.PLP.ligand.torsion>
1.0031

> <Gold.PLP.Chemscore.Hbond>
4.0000

> <Gold.PLP.Chemscore.CHOScore>
0.0000

> <Gold.PLP.Chemscore.Metal>
0.0000

> <Gold.Chemscore.Hbonds>
donor molecule, donor type, donor heavy atom, donor atom, acceptor molecule, acceptor atom, score
      L1  H     6    32       P1  8028  1.00
      L1  H     9    33       P1  8028  1.00
      L1  H    16    46       P1 10175  1.98

> <Gold.PLP.Chemscore.Internal.Correction>
0.1237

> <Gold.Rescore>
     Score         DG    S(hbond)    S(metal)    S(lipo)     H(rot)  DE(clash)    DE(int)     intcor
     15.74     -20.82       2.94        0.00      85.86       1.77       3.44       1.64       ----

> <Gold.Chemscore.Fitness>
15.7428

> <Gold.Chemscore.DG>
-20.8180

> <Gold.Chemscore.ZeroCoef>
-5.4800

> <Gold.Chemscore.Hbond>
2.9388

> <Gold.Chemscore.Metal>
0.0000

> <Gold.Chemscore.Lipo>
85.8635

> <Gold.Chemscore.Internal_Hbond>
0.0000

> <Gold.Chemscore.DEClash>
3.4385

> <Gold.Chemscore.DEInternal>
1.6367

> <Gold.Chemscore.Rot>
1.7670

> <Gold.Chemscore.Internal.Correction>
   9.000000E+99

> <Gold.Chemscore.Hbonds>
donor molecule, donor type, donor heavy atom, donor atom, acceptor molecule, acceptor atom, score
      L1  H     6    32       P1  8028  0.95
      L1  H     9    33       P1  8028  1.00
      L1  H    16    46       P1 10175  0.92

> <Gold.Chemscore.Hbond.Weighted>
-9.8155

> <Gold.Chemscore.Metal.Weighted>
-0.0000

> <Gold.Chemscore.Lipo.Weighted>
-10.0460

> <Gold.Chemscore.Internal_Hbond.Weighted>
0.0000

> <Gold.Chemscore.DEClash.Weighted>
3.4385

> <Gold.Chemscore.DEInternal.Weighted>
1.6367

> <Gold.Chemscore.Rot.Weighted>
4.5235

> <Gold.Chemscore.Internal.Correction.Weighted>
   9.000000E+99

> <Gold.Protein.RotatedTorsions>
[ 6907 6896 6895 6894 ] final  -80.68 input  -60.11 | X-H torsion
[ 7974 7965 7964 7962 ] final -157.01 input  175.53 | X-H torsion
[ 8008 7997 7996 7995 ] final    6.58 input   59.86 | X-H torsion
[ 10167 10162 10161 10158 ] final  -53.53 input  -65.29 | X-H torsion
[ 10718 10713 10712 10709 ] final   28.87 input   66.30 | X-H torsion
[ 10763 10752 10751 10750 ] final   52.58 input  -60.55 | X-H torsion
[ 11005 11000 10999 10996 ] final  -67.15 input  -57.11 | X-H torsion

> <Gold.Protein.ActiveResidues>
 VAL166  LYS551  ARG553  GLY616  TRP617  ASP618  TYR619  PRO620  LYS621  CYS622 
 ASP623  PHE694  ASN695  SER759  ASP760  ASP761  ALA762  ILE779  LEU786  VAL792 
 PHE793  MET794  SER795  GLU796  ALA797  LYS798  CYS799  TRP800  GLU811  SER814 

> <Gold.Protein.RotatedAtoms>
  150.6925  134.3933  159.5085 H   0  0  0  0  0  0  0  0  0  0  0  0  # atno 6907 bound_to 6896
  152.1718  134.8825  160.0543 H   0  0  0  0  0  0  0  0  0  0  0  0  # atno 6908 bound_to 6896
  151.9849  133.3735  159.4158 H   0  0  0  0  0  0  0  0  0  0  0  0  # atno 6909 bound_to 6896
  144.7567  140.4029  143.6007 H   0  0  0  0  0  0  0  0  0  0  0  0  # atno 7974 bound_to 7965
  154.7428  140.2752  155.6359 H   0  0  0  0  0  0  0  0  0  0  0  0  # atno 8008 bound_to 7997
  156.2877  140.2694  156.2086 H   0  0  0  0  0  0  0  0  0  0  0  0  # atno 8009 bound_to 7997
  155.0237  140.0371  157.2437 H   0  0  0  0  0  0  0  0  0  0  0  0  # atno 8010 bound_to 7997
  140.6480  143.2547  151.4805 H   0  0  0  0  0  0  0  0  0  0  0  0  # atno 10167 bound_to 10162
  157.2391  130.7060  149.6350 H   0  0  0  0  0  0  0  0  0  0  0  0  # atno 10718 bound_to 10713
  152.9790  135.5807  154.4602 H   0  0  0  0  0  0  0  0  0  0  0  0  # atno 10763 bound_to 10752
  154.4179  135.2771  155.1996 H   0  0  0  0  0  0  0  0  0  0  0  0  # atno 10764 bound_to 10752
  154.3758  135.6158  153.5818 H   0  0  0  0  0  0  0  0  0  0  0  0  # atno 10765 bound_to 10752
  141.1501  133.6713  156.6248 H   0  0  0  0  0  0  0  0  0  0  0  0  # atno 11005 bound_to 11000
  145.6755  139.1608  143.2730 LP  0  0  0  0  0  0  0  0  0  0  0  0  # atno 17320 bound_to 7965
  146.1585  140.6822  142.9288 LP  0  0  0  0  0  0  0  0  0  0  0  0  # atno 17321 bound_to 7965
  139.5692  144.1969  152.1811 LP  0  0  0  0  0  0  0  0  0  0  0  0  # atno 17342 bound_to 10162
  140.1260  144.5331  150.6832 LP  0  0  0  0  0  0  0  0  0  0  0  0  # atno 17343 bound_to 10162
  155.9671  130.4464  150.5538 LP  0  0  0  0  0  0  0  0  0  0  0  0  # atno 17370 bound_to 10713
  157.3397  131.0714  151.1797 LP  0  0  0  0  0  0  0  0  0  0  0  0  # atno 17371 bound_to 10713
  140.3512  134.7767  157.4468 LP  0  0  0  0  0  0  0  0  0  0  0  0  # atno 17394 bound_to 11000
  140.0859  134.5667  155.8493 LP  0  0  0  0  0  0  0  0  0  0  0  0  # atno 17395 bound_to 11000

$$$$
