AV-unprocessed.smi:1498|AV-procd|sdf|6059|dock3
  -GOLD-   22720 6173D 1   1.00000     0.00000
 Structure written by MMmdl.
 38 39  0  0  0  0  0  0  0  0  2 V2000
  145.0649  138.4293  154.5246 C   0  0  0  0  0  0  0  0  0  0  0  0
  145.9293  139.5679  154.1473 N   0  3  0  0  0  0  0  0  0  0  0  0
  147.1836  139.1329  153.4789 C   0  0  0  0  0  0  0  0  0  0  0  0
  148.0665  140.3379  153.1019 C   0  0  0  0  0  0  0  0  0  0  0  0
  148.3207  141.1417  154.3079 N   0  0  0  0  0  0  0  0  0  0  0  0
  149.4838  141.1881  155.0059 C   0  0  0  0  0  0  0  0  0  0  0  0
  150.4572  140.4911  154.7183 O   0  0  0  0  0  0  0  0  0  0  0  0
  149.4531  142.0064  156.0752 N   0  0  0  0  0  0  0  0  0  0  0  0
  150.4987  142.2748  156.9946 C   0  0  0  0  0  0  0  0  0  0  0  0
  151.3305  141.2865  157.5819 C   0  0  0  0  0  0  0  0  0  0  0  0
  152.2198  141.8310  158.3980 N   0  0  0  0  0  0  0  0  0  0  0  0
  151.9747  143.1644  158.3468 N   0  0  0  0  0  0  0  0  0  0  0  0
  152.7859  144.0761  159.1342 C   0  0  0  0  0  0  0  0  0  0  0  0
  151.9156  144.9776  160.0118 C   0  0  0  0  0  0  0  0  0  0  0  0
  152.0160  144.8227  161.3347 N   0  0  0  0  0  0  0  0  0  0  0  0
  151.1592  145.8010  159.5017 O   0  0  0  0  0  0  0  0  0  0  0  0
  150.9267  143.4699  157.5001 C   0  0  0  0  0  0  0  0  0  0  0  0
  147.0675  141.6743  154.8528 C   0  0  0  0  0  0  0  0  0  0  0  0
  146.1629  140.5034  155.2780 C   0  0  0  0  0  0  0  0  0  0  0  0
  145.5501  137.8005  155.2723 H   0  0  0  0  0  0  0  0  0  0  0  0
  144.8384  137.8134  153.6538 H   0  0  0  0  0  0  0  0  0  0  0  0
  144.1197  138.7838  154.9366 H   0  0  0  0  0  0  0  0  0  0  0  0
  147.7352  138.4657  154.1435 H   0  0  0  0  0  0  0  0  0  0  0  0
  146.9390  138.5594  152.5841 H   0  0  0  0  0  0  0  0  0  0  0  0
  148.9697  139.9846  152.6047 H   0  0  0  0  0  0  0  0  0  0  0  0
  147.5543  140.9581  152.3648 H   0  0  0  0  0  0  0  0  0  0  0  0
  148.5880  142.4996  156.2411 H   0  0  0  0  0  0  0  0  0  0  0  0
  151.3200  140.2150  157.4462 H   0  0  0  0  0  0  0  0  0  0  0  0
  153.4624  143.4903  159.7579 H   0  0  0  0  0  0  0  0  0  0  0  0
  153.4055  144.6842  158.4727 H   0  0  0  0  0  0  0  0  0  0  0  0
  151.4540  145.3908  161.9521 H   0  0  0  0  0  0  0  0  0  0  0  0
  152.6483  144.1317  161.7120 H   0  0  0  0  0  0  0  0  0  0  0  0
  150.5983  144.4864  157.3417 H   0  0  0  0  0  0  0  0  0  0  0  0
  147.2265  142.3503  155.6945 H   0  0  0  0  0  0  0  0  0  0  0  0
  146.5703  142.2724  154.0876 H   0  0  0  0  0  0  0  0  0  0  0  0
  145.2072  140.8859  155.6383 H   0  0  0  0  0  0  0  0  0  0  0  0
  146.6231  139.9632  156.1072 H   0  0  0  0  0  0  0  0  0  0  0  0
  145.4164  140.0957  153.4553 H   0  0  0  0  0  0  0  0  0  0  0  0
  1  2  1  0  0  0  0
  1 20  1  0  0  0  0
  1 21  1  0  0  0  0
  1 22  1  0  0  0  0
  2 19  1  0  0  0  0
  2  3  1  0  0  0  0
  2 38  1  0  0  0  0
  3  4  1  0  0  0  0
  3 23  1  0  0  0  0
  3 24  1  0  0  0  0
  4  5  1  0  0  0  0
  4 25  1  0  0  0  0
  4 26  1  0  0  0  0
  5  6  1  0  0  0  0
  5 18  1  0  0  0  0
  6  7  2  0  0  0  0
  6  8  1  0  0  0  0
  8  9  1  0  0  0  0
  8 27  1  0  0  0  0
  9 17  2  0  0  0  0
  9 10  1  0  0  0  0
 10 11  2  0  0  0  0
 10 28  1  0  0  0  0
 11 12  1  0  0  0  0
 12 13  1  0  0  0  0
 12 17  1  0  0  0  0
 13 14  1  0  0  0  0
 13 29  1  0  0  0  0
 13 30  1  0  0  0  0
 14 15  1  0  0  0  0
 14 16  2  0  0  0  0
 15 31  1  0  0  0  0
 15 32  1  0  0  0  0
 17 33  1  0  0  0  0
 18 19  1  0  0  0  0
 18 34  1  0  0  0  0
 18 35  1  0  0  0  0
 19 36  1  0  0  0  0
 19 37  1  0  0  0  0
M  CHG  1   2   1
M  END
> <s_m_source_file>
AV-unprocessed.smi

> <i_m_source_file_index>
1498

> <i_lp_mmshare_version>
43012

> <i_f3d_flags>
0

> <s_epik_input>
W0NIM11OMVtDSDJdW0NIMl1OKFtDSDJdW0NIMl0xKUMoPU8pW05IXWMyW2NIXW5uKFtjSF0yKVtDSDJdQyg9TylbTkgyXQ==

> <s_epik_cmdline>
J2VwaWtfcHl0aG9uJywgJy1waCcsICc3LjAnLCAnLXRuJywgJzgnLCAnLW1hJywgJzIwMCcsICctbWV0YWxfYmluZGluZycsICctaW1hZScsICc8aW5maWxlLm1hZT4nLCAnLW9tYWUnLCAnPG91dGZpbGUubWFlPic=

> <r_lp_tautomer_probability>
1

> <r_epik_Ionization_Penalty>
0.25453

> <r_epik_Ionization_Penalty_Charging>
0.254506

> <r_epik_Ionization_Penalty_Neutral>
2.46477e-05

> <r_epik_State_Penalty>
0.245983

> <r_epik_Charging_Adjusted_Penalty>
0.500488

> <i_epik_Tot_Q>
1

> <i_epik_Tot_abs_Q>
1

> <r_epik_Metal_State_Penalty>
0.245984

> <b_epik_Metal_Only>
0

> <s_lp_Force_Field>
OPLS_2005

> <r_lp_Energy>
51.0402

> <b_lp_Chiralities_Consistent>
1

> <s_lp_Variant>
AV-unprocessed.smi:1498-1

> <Gold.Version>
5.8.1

> <Gold.Id.Protein>
6NUR|6NUR_protein|mol2

> <Gold.PLP.Fitness>
42.0789

> <Gold.PLP.PLP>
-33.5180

> <Gold.PLP.part.hbond>
-5.7929

> <Gold.PLP.part.metal>
0.0000

> <Gold.PLP.part.buried>
2.2997

> <Gold.PLP.part.nonpolar>
-30.9909

> <Gold.PLP.part.repulsive>
0.4499

> <Gold.PLP.ligand.clash>
1.7640

> <Gold.PLP.ligand.torsion>
0.5100

> <Gold.PLP.Chemscore.Hbond>
3.0515

> <Gold.PLP.Chemscore.CHOScore>
0.7120

> <Gold.PLP.Chemscore.Metal>
0.0000

> <Gold.Chemscore.Hbonds>
donor molecule, donor type, donor heavy atom, donor atom, acceptor molecule, acceptor atom, score
      L1  H     2    38       P1 10175  1.98
      L1  H     8    27       P1  8028  0.06
      P1  H  7989  7998       L1     7  1.00
      L1  C    17    33       P1  8028  0.71

> <Gold.PLP.Chemscore.Internal.Correction>
0.0545

> <Gold.Rescore>
     Score         DG    S(hbond)    S(metal)    S(lipo)     H(rot)  DE(clash)    DE(int)     intcor
     12.59     -14.38       1.85        0.00      57.08       1.55       0.75       1.04       ----

> <Gold.Chemscore.Fitness>
12.5935

> <Gold.Chemscore.DG>
-14.3768

> <Gold.Chemscore.ZeroCoef>
-5.4800

> <Gold.Chemscore.Hbond>
1.8519

> <Gold.Chemscore.Metal>
0.0000

> <Gold.Chemscore.Lipo>
57.0755

> <Gold.Chemscore.Internal_Hbond>
0.0000

> <Gold.Chemscore.DEClash>
0.7473

> <Gold.Chemscore.DEInternal>
1.0360

> <Gold.Chemscore.Rot>
1.5494

> <Gold.Chemscore.Internal.Correction>
   9.000000E+99

> <Gold.Chemscore.Hbonds>
donor molecule, donor type, donor heavy atom, donor atom, acceptor molecule, acceptor atom, score
      L1  H     2    38       P1 10175  0.88
      L1  H     8    27       P1  8028  0.06
      P1  H  7989  7998       L1     7  0.95

> <Gold.Chemscore.Hbond.Weighted>
-6.1855

> <Gold.Chemscore.Metal.Weighted>
-0.0000

> <Gold.Chemscore.Lipo.Weighted>
-6.6778

> <Gold.Chemscore.Internal_Hbond.Weighted>
0.0000

> <Gold.Chemscore.DEClash.Weighted>
0.7473

> <Gold.Chemscore.DEInternal.Weighted>
1.0360

> <Gold.Chemscore.Rot.Weighted>
3.9665

> <Gold.Chemscore.Internal.Correction.Weighted>
   9.000000E+99

> <Gold.Protein.RotatedTorsions>
[ 6907 6896 6895 6894 ] final -167.90 input  -60.11 | X-H torsion
[ 7974 7965 7964 7962 ] final  -88.75 input  175.53 | X-H torsion
[ 8008 7997 7996 7995 ] final -177.72 input   59.86 | X-H torsion
[ 10167 10162 10161 10158 ] final -122.46 input  -65.29 | X-H torsion
[ 10718 10713 10712 10709 ] final  168.10 input   66.30 | X-H torsion
[ 10763 10752 10751 10750 ] final  138.25 input  -60.55 | X-H torsion
[ 11005 11000 10999 10996 ] final  -43.07 input  -57.11 | X-H torsion

> <Gold.Protein.ActiveResidues>
 VAL166  LYS551  ARG553  GLY616  TRP617  ASP618  TYR619  PRO620  LYS621  CYS622 
 ASP623  PHE694  ASN695  SER759  ASP760  ASP761  ALA762  ILE779  LEU786  VAL792 
 PHE793  MET794  SER795  GLU796  ALA797  LYS798  CYS799  TRP800  GLU811  SER814 

> <Gold.Protein.RotatedAtoms>
  151.4669  133.3579  159.2817 H   0  0  0  0  0  0  0  0  0  0  0  0  # atno 6907 bound_to 6896
  150.8987  134.8400  159.7356 H   0  0  0  0  0  0  0  0  0  0  0  0  # atno 6908 bound_to 6896
  152.4867  134.4587  159.9650 H   0  0  0  0  0  0  0  0  0  0  0  0  # atno 6909 bound_to 6896
  145.4490  140.9560  143.2032 H   0  0  0  0  0  0  0  0  0  0  0  0  # atno 7974 bound_to 7965
  156.0102  140.1239  157.0461 H   0  0  0  0  0  0  0  0  0  0  0  0  # atno 8008 bound_to 7997
  154.4273  140.1089  156.5889 H   0  0  0  0  0  0  0  0  0  0  0  0  # atno 8009 bound_to 7997
  155.6090  140.3471  155.4618 H   0  0  0  0  0  0  0  0  0  0  0  0  # atno 8010 bound_to 7997
  140.0140  143.5412  152.2250 H   0  0  0  0  0  0  0  0  0  0  0  0  # atno 10167 bound_to 10162
  157.0419  131.0289  151.2710 H   0  0  0  0  0  0  0  0  0  0  0  0  # atno 10718 bound_to 10713
  153.8864  135.3038  155.3446 H   0  0  0  0  0  0  0  0  0  0  0  0  # atno 10763 bound_to 10752
  154.7737  135.4872  153.9704 H   0  0  0  0  0  0  0  0  0  0  0  0  # atno 10764 bound_to 10752
  153.1322  135.6806  153.9257 H   0  0  0  0  0  0  0  0  0  0  0  0  # atno 10765 bound_to 10752
  141.0359  133.6800  156.2682 H   0  0  0  0  0  0  0  0  0  0  0  0  # atno 11005 bound_to 11000
  144.8073  139.6027  143.7045 LP  0  0  0  0  0  0  0  0  0  0  0  0  # atno 17320 bound_to 7965
  146.2514  139.6209  142.9424 LP  0  0  0  0  0  0  0  0  0  0  0  0  # atno 17321 bound_to 7965
  139.6185  144.7624  151.2792 LP  0  0  0  0  0  0  0  0  0  0  0  0  # atno 17342 bound_to 10162
  140.7370  143.6691  150.8097 LP  0  0  0  0  0  0  0  0  0  0  0  0  # atno 17343 bound_to 10162
  157.5097  130.7931  149.7692 LP  0  0  0  0  0  0  0  0  0  0  0  0  # atno 17370 bound_to 10713
  156.0035  130.3867  150.2516 LP  0  0  0  0  0  0  0  0  0  0  0  0  # atno 17371 bound_to 10713
  140.6323  134.5251  157.5561 LP  0  0  0  0  0  0  0  0  0  0  0  0  # atno 17394 bound_to 11000
  139.9240  134.8092  156.1124 LP  0  0  0  0  0  0  0  0  0  0  0  0  # atno 17395 bound_to 11000

$$$$
