AV-unprocessed.smi:43|AV-procd|sdf|391|dock7
  -GOLD-   2262016243D 1   1.00000     0.00000
 Structure written by MMmdl.
 25 26  0  0  0  0  0  0  0  0  2 V2000
  153.5924  140.0815  160.2027 C   0  0  0  0  0  0  0  0  0  0  0  0
  152.7319  139.0528  159.6468 N   0  0  0  0  0  0  0  0  0  0  0  0
  152.8158  137.7868  160.1278 N   0  0  0  0  0  0  0  0  0  0  0  0
  151.9517  137.0713  159.4705 N   0  0  0  0  0  0  0  0  0  0  0  0
  151.2738  137.8344  158.5426 N   0  0  0  0  0  0  0  0  0  0  0  0
  151.7900  139.0503  158.6840 C   0  0  0  0  0  0  0  0  0  0  0  0
  151.4050  140.1798  157.9469 N   0  0  0  0  0  0  0  0  0  0  0  0
  151.6112  141.5976  158.2542 C   0  0  0  0  0  0  0  0  0  0  0  0
  151.1421  142.4253  157.0574 C   0  0  2  0  0  0  0  0  0  0  0  0
  150.6577  143.6971  157.4350 O   0  0  0  0  0  0  0  0  0  0  0  0
  150.0660  141.5421  156.4584 C   0  0  0  0  0  0  0  0  0  0  0  0
  150.6293  140.1375  156.7008 C   0  0  1  0  0  0  0  0  0  0  0  0
  151.4744  139.6350  155.5161 C   0  0  0  0  0  0  0  0  0  0  0  0
  150.9009  139.5635  154.4077 O   0  0  0  0  0  0  0  0  0  0  0  0
  152.6710  139.3364  155.7306 O   0  5  0  0  0  0  0  0  0  0  0  0
  151.9587  142.5497  156.3450 H   0  0  0  0  0  0  0  0  0  0  0  0
  149.7966  139.4448  156.8315 H   0  0  0  0  0  0  0  0  0  0  0  0
  152.9925  140.9164  160.5631 H   0  0  0  0  0  0  0  0  0  0  0  0
  154.2920  140.4284  159.4426 H   0  0  0  0  0  0  0  0  0  0  0  0
  154.1660  139.6856  161.0418 H   0  0  0  0  0  0  0  0  0  0  0  0
  151.0244  141.8395  159.1414 H   0  0  0  0  0  0  0  0  0  0  0  0
  152.6569  141.8150  158.4671 H   0  0  0  0  0  0  0  0  0  0  0  0
  150.1470  144.0459  156.7207 H   0  0  0  0  0  0  0  0  0  0  0  0
  149.1283  141.6571  157.0044 H   0  0  0  0  0  0  0  0  0  0  0  0
  149.8703  141.7650  155.4084 H   0  0  0  0  0  0  0  0  0  0  0  0
  1  2  1  0  0  0  0
  1 18  1  0  0  0  0
  1 19  1  0  0  0  0
  1 20  1  0  0  0  0
  2  6  1  0  0  0  0
  2  3  1  0  0  0  0
  3  4  2  0  0  0  0
  4  5  1  0  0  0  0
  5  6  2  0  0  0  0
  6  7  1  0  0  0  0
  7 12  1  0  0  0  0
  7  8  1  0  0  0  0
  8  9  1  0  0  0  0
  8 21  1  0  0  0  0
  8 22  1  0  0  0  0
  9 16  1  0  0  0  0
  9 10  1  0  0  0  0
  9 11  1  0  0  0  0
 10 23  1  0  0  0  0
 11 12  1  0  0  0  0
 11 24  1  0  0  0  0
 11 25  1  0  0  0  0
 12 17  1  0  0  0  0
 12 13  1  0  0  0  0
 13 14  2  0  0  0  0
 13 15  1  0  0  0  0
M  CHG  1  15  -1
M  END
> <s_m_source_file>
AV-unprocessed.smi

> <i_m_source_file_index>
43

> <i_lp_mmshare_version>
43012

> <i_f3d_flags>
0

> <s_epik_input>
W0NIM11uMW5ubmMxTjJbQ0gyXVtDQEhdKFtPSF0pW0NIMl1bQ0BIXTJDKD1PKVtPSF0=

> <s_epik_cmdline>
J2VwaWtfcHl0aG9uJywgJy1waCcsICc3LjAnLCAnLXRuJywgJzgnLCAnLW1hJywgJzIwMCcsICctbWV0YWxfYmluZGluZycsICctaW1hZScsICc8aW5maWxlLm1hZT4nLCAnLW9tYWUnLCAnPG91dGZpbGUubWFlPic=

> <r_lp_tautomer_probability>
1

> <r_epik_Ionization_Penalty>
0.000193127

> <r_epik_Ionization_Penalty_Charging>
0.000192933

> <r_epik_Ionization_Penalty_Neutral>
1.93728e-07

> <r_epik_State_Penalty>
-0

> <r_epik_Charging_Adjusted_Penalty>
0.000192933

> <i_epik_Tot_Q>
-1

> <i_epik_Tot_abs_Q>
1

> <r_epik_Metal_State_Penalty>
-0

> <b_epik_Metal_Only>
0

> <s_lp_Force_Field>
OPLS_2005

> <r_lp_Energy>
20.0938

> <b_lp_Chiralities_Consistent>
1

> <s_lp_Variant>
AV-unprocessed.smi:43-1

> <Gold.Version>
5.8.1

> <Gold.Id.Protein>
6NUR|6NUR_protein|mol2

> <Gold.PLP.Fitness>
39.2511

> <Gold.PLP.PLP>
-24.5098

> <Gold.PLP.part.hbond>
-4.0000

> <Gold.PLP.part.metal>
0.0000

> <Gold.PLP.part.buried>
-4.8991

> <Gold.PLP.part.nonpolar>
-15.7059

> <Gold.PLP.part.repulsive>
0.1263

> <Gold.PLP.ligand.clash>
0.0000

> <Gold.PLP.ligand.torsion>
0.1314

> <Gold.PLP.Chemscore.Hbond>
5.0000

> <Gold.PLP.Chemscore.CHOScore>
0.0000

> <Gold.PLP.Chemscore.Metal>
0.0000

> <Gold.Chemscore.Hbonds>
donor molecule, donor type, donor heavy atom, donor atom, acceptor molecule, acceptor atom, score
      L1  H    10    23       P1  8028  1.00
      P1  H  6896  6907       L1     4  1.00
      P1  H  7989  7998       L1    14  1.00
      P1  H  7997  8010       L1    15  2.00

> <Gold.PLP.Chemscore.Internal.Correction>
0.0041

> <Gold.Rescore>
     Score         DG    S(hbond)    S(metal)    S(lipo)     H(rot)  DE(clash)    DE(int)     intcor
     17.83     -18.01       3.85        0.00      34.26       1.69       0.00       0.17       ----

> <Gold.Chemscore.Fitness>
17.8349

> <Gold.Chemscore.DG>
-18.0088

> <Gold.Chemscore.ZeroCoef>
-5.4800

> <Gold.Chemscore.Hbond>
3.8454

> <Gold.Chemscore.Metal>
0.0000

> <Gold.Chemscore.Lipo>
34.2603

> <Gold.Chemscore.Internal_Hbond>
0.0000

> <Gold.Chemscore.DEClash>
0.0015

> <Gold.Chemscore.DEInternal>
0.1724

> <Gold.Chemscore.Rot>
1.6887

> <Gold.Chemscore.Internal.Correction>
   9.000000E+99

> <Gold.Chemscore.Hbonds>
donor molecule, donor type, donor heavy atom, donor atom, acceptor molecule, acceptor atom, score
      L1  H    10    23       P1  8028  0.99
      P1  H  6896  6907       L1     4  0.83
      P1  H  7989  7998       L1    14  0.45
      P1  H  7997  8010       L1    15  0.98

> <Gold.Chemscore.Hbond.Weighted>
-12.8435

> <Gold.Chemscore.Metal.Weighted>
-0.0000

> <Gold.Chemscore.Lipo.Weighted>
-4.0085

> <Gold.Chemscore.Internal_Hbond.Weighted>
0.0000

> <Gold.Chemscore.DEClash.Weighted>
0.0015

> <Gold.Chemscore.DEInternal.Weighted>
0.1724

> <Gold.Chemscore.Rot.Weighted>
4.3232

> <Gold.Chemscore.Internal.Correction.Weighted>
   9.000000E+99

> <Gold.Protein.RotatedTorsions>
[ 6907 6896 6895 6894 ] final   16.19 input  -60.11 | X-H torsion
[ 7974 7965 7964 7962 ] final   28.37 input  175.53 | X-H torsion
[ 8008 7997 7996 7995 ] final  100.44 input   59.86 | X-H torsion
[ 10167 10162 10161 10158 ] final   27.30 input  -65.29 | X-H torsion
[ 10718 10713 10712 10709 ] final  104.07 input   66.30 | X-H torsion
[ 10763 10752 10751 10750 ] final  -45.40 input  -60.55 | X-H torsion
[ 11005 11000 10999 10996 ] final  -40.66 input  -57.11 | X-H torsion

> <Gold.Protein.ActiveResidues>
 VAL166  LYS551  ARG553  GLY616  TRP617  ASP618  TYR619  PRO620  LYS621  CYS622 
 ASP623  PHE694  ASN695  SER759  ASP760  ASP761  ALA762  ILE779  LEU786  VAL792 
 PHE793  MET794  SER795  GLU796  ALA797  LYS798  CYS799  TRP800  GLU811  SER814 

> <Gold.Protein.RotatedAtoms>
  151.8300  135.0624  160.0435 H   0  0  0  0  0  0  0  0  0  0  0  0  # atno 6907 bound_to 6896
  152.2887  133.5536  159.5552 H   0  0  0  0  0  0  0  0  0  0  0  0  # atno 6908 bound_to 6896
  150.7221  134.0375  159.3796 H   0  0  0  0  0  0  0  0  0  0  0  0  # atno 6909 bound_to 6896
  146.1732  139.7065  142.8953 H   0  0  0  0  0  0  0  0  0  0  0  0  # atno 7974 bound_to 7965
  156.1203  140.3213  155.8199 H   0  0  0  0  0  0  0  0  0  0  0  0  # atno 8008 bound_to 7997
  155.4516  140.0533  157.3018 H   0  0  0  0  0  0  0  0  0  0  0  0  # atno 8009 bound_to 7997
  154.4823  140.2058  155.9749 H   0  0  0  0  0  0  0  0  0  0  0  0  # atno 8010 bound_to 7997
  140.4950  144.0407  150.6311 H   0  0  0  0  0  0  0  0  0  0  0  0  # atno 10167 bound_to 10162
  157.6752  131.0795  150.5651 H   0  0  0  0  0  0  0  0  0  0  0  0  # atno 10718 bound_to 10713
  154.0279  135.6660  153.4778 H   0  0  0  0  0  0  0  0  0  0  0  0  # atno 10763 bound_to 10752
  153.0552  135.5060  154.7961 H   0  0  0  0  0  0  0  0  0  0  0  0  # atno 10764 bound_to 10752
  154.6896  135.3059  154.9463 H   0  0  0  0  0  0  0  0  0  0  0  0  # atno 10765 bound_to 10752
  141.0191  133.6871  156.2352 H   0  0  0  0  0  0  0  0  0  0  0  0  # atno 11005 bound_to 11000
  145.4283  141.0413  143.2925 LP  0  0  0  0  0  0  0  0  0  0  0  0  # atno 17320 bound_to 7965
  144.8195  139.5816  143.6993 LP  0  0  0  0  0  0  0  0  0  0  0  0  # atno 17321 bound_to 7965
  140.3686  143.2867  152.0303 LP  0  0  0  0  0  0  0  0  0  0  0  0  # atno 17342 bound_to 10162
  139.4859  144.6247  151.7187 LP  0  0  0  0  0  0  0  0  0  0  0  0  # atno 17343 bound_to 10162
  156.5954  130.4340  149.5919 LP  0  0  0  0  0  0  0  0  0  0  0  0  # atno 17370 bound_to 10713
  156.2550  130.6929  151.1679 LP  0  0  0  0  0  0  0  0  0  0  0  0  # atno 17371 bound_to 10713
  140.6604  134.4973  157.5583 LP  0  0  0  0  0  0  0  0  0  0  0  0  # atno 17394 bound_to 11000
  139.9135  134.8295  156.1446 LP  0  0  0  0  0  0  0  0  0  0  0  0  # atno 17395 bound_to 11000

$$$$
