#       Name:                AV-unprocessed.smi:2615
#       Creating user name   scv26
#       Creation time:       Fri Mar 27 14:22:15 2020


#       File generated by GOLD software.
#

@<TRIPOS>MOLECULE
AV-unprocessed.smi:2615
    39    40     1
SMALL
NO_CHARGES


@<TRIPOS>ATOM
      1 ****        -6.7302  -0.9910  -0.8144 C.3            1 S1                 0.0000
      2 ****        -5.2353  -0.9669  -0.5737 C.ar           1 S1                 0.0000
      3 ****        -4.5054  -2.1565  -0.3884 C.ar           1 S1                 0.0000
      4 ****        -3.1170  -2.0732  -0.1686 C.ar           1 S1                 0.0000
      5 ****        -2.4917  -0.8063  -0.1392 C.ar           1 S1                 0.0000
      6 ****        -1.0900  -0.8330   0.0893 N.am           1 S1                 0.0000
      7 ****        -0.2401   0.2063   0.1666 C.2            1 S1                 0.0000
      8 ****        -0.5509   1.3918   0.0465 O.2            1 S1                 0.0000
      9 ****         1.0147  -0.2100   0.3926 N.am           1 S1                 0.0000
     10 ****         2.1796   0.6589   0.5318 C.3            1 S1                 0.0000
     11 ****         2.7290   1.0602  -0.8533 C.3            1 S1                 0.0000
     12 ****         4.0029   1.9114  -0.7281 C.3            1 S1                 0.0000
     13 ****         5.0764   1.1913   0.1026 C.3            1 S1                 0.0000
     14 ****         4.5341   0.7963   1.4851 C.3            1 S1                 0.0000
     15 ****         3.2617  -0.0576   1.3619 C.3            1 S1                 0.0000
     16 ****        -3.2038   0.3340  -0.3191 N.ar           1 S1                 0.0000
     17 ****        -4.5344   0.2535  -0.5298 C.ar           1 S1                 0.0000
     18 ****        -7.1220  -2.0079  -0.7742 H              1 S1                 0.0000
     19 ****        -6.9610  -0.5740  -1.7950 H              1 S1                 0.0000
     20 ****        -7.2445  -0.3972  -0.0582 H              1 S1                 0.0000
     21 ****        -4.9963  -3.1184  -0.4132 H              1 S1                 0.0000
     22 ****        -2.5417  -2.9761  -0.0241 H              1 S1                 0.0000
     23 ****        -0.6874  -1.7507   0.2072 H              1 S1                 0.0000
     24 ****         1.1780  -1.2026   0.4769 H              1 S1                 0.0000
     25 ****         1.8853   1.5626   1.0695 H              1 S1                 0.0000
     26 ****         2.9493   0.1650  -1.4367 H              1 S1                 0.0000
     27 ****         1.9747   1.6151  -1.4126 H              1 S1                 0.0000
     28 ****         4.3936   2.1433  -1.7194 H              1 S1                 0.0000
     29 ****         3.7592   2.8663  -0.2607 H              1 S1                 0.0000
     30 ****         5.4115   0.2991  -0.4278 H              1 S1                 0.0000
     31 ****         5.9517   1.8318   0.2151 H              1 S1                 0.0000
     32 ****         5.2966   0.2500   2.0410 H              1 S1                 0.0000
     33 ****         4.3153   1.6955   2.0624 H              1 S1                 0.0000
     34 ****         2.8783  -0.2885   2.3565 H              1 S1                 0.0000
     35 ****         3.5125  -1.0127   0.8978 H              1 S1                 0.0000
     36 ****        -5.0531   1.1909  -0.6670 H              1 S1                 0.0000
     37 ****        -1.5035   1.6442  -0.1233 LP             1 S1                 0.0000
     38 ****         0.1493   2.1020   0.1188 LP             1 S1                 0.0000
     39 ****        -2.7482   1.2239  -0.2959 LP             1 S1                 0.0000
@<TRIPOS>BOND
    1    1    2 1     
    2    1   18 1     
    3    1   19 1     
    4    1   20 1     
    5    2   17 ar    
    6    2    3 ar    
    7    3    4 ar    
    8    3   21 1     
    9    4    5 ar    
   10    4   22 1     
   11    5    6 1     
   12    5   16 ar    
   13    6    7 am    
   14    6   23 1     
   15    7    8 2     
   16    7    9 am    
   17    9   10 1     
   18    9   24 1     
   19   10   15 1     
   20   10   11 1     
   21   10   25 1     
   22   11   12 1     
   23   11   26 1     
   24   11   27 1     
   25   12   13 1     
   26   12   28 1     
   27   12   29 1     
   28   13   14 1     
   29   13   30 1     
   30   13   31 1     
   31   14   15 1     
   32   14   32 1     
   33   14   33 1     
   34   15   34 1     
   35   15   35 1     
   36   16   17 ar    
   37   17   36 1     
   38    8   37 1     
   39    8   38 1     
   40   16   39 1     
@<TRIPOS>SUBSTRUCTURE
      1 S1             1
@<TRIPOS>SET
LONE_PAIRS      STATIC     ATOMS    <user>   **** ""
3 37 38 39
DONOR_HYDROGENS      STATIC     ATOMS    <user>   **** ""
2 23 24
ATOM$BLUE        STATIC     ATOMS    COLORGROUP SYSTEM
3 37 38 39
ATOM$RED        STATIC     ATOMS    COLORGROUP SYSTEM
2 23 24
