AV-unprocessed.smi:251|AV-procd|sdf|1934|dock8
  -GOLD-   2262021 53D 1   1.00000     0.00000
 Structure written by MMmdl.
 50 54  0  0  0  0  0  0  0  0  1 V2000
  148.0836  136.4516  154.1198 O   0  0  0  0  0  0  0  0  0  0  0  0
  148.9318  135.4010  154.5387 C   0  0  0  0  0  0  0  0  0  0  0  0
  150.0064  135.8801  155.5568 C   0  0  0  0  0  0  0  0  0  0  0  0
  150.8442  137.0554  154.9703 C   0  0  0  0  0  0  0  0  0  0  0  0
  151.0775  138.1605  155.8899 N   0  0  0  0  0  0  0  0  0  0  0  0
  150.5257  139.4187  155.8200 C   0  0  0  0  0  0  0  0  0  0  0  0
  150.8911  140.2391  156.7656 N   0  0  0  0  0  0  0  0  0  0  0  0
  151.7441  139.4879  157.5676 C   0  0  0  0  0  0  0  0  0  0  0  0
  152.4897  139.7466  158.7574 C   0  0  0  0  0  0  0  0  0  0  0  0
  152.5122  140.9370  159.4134 N   0  0  0  0  0  0  0  0  0  0  0  0
  153.7229  141.4539  160.0440 C   0  0  0  0  0  0  0  0  0  0  0  0
  153.3963  142.8746  160.4342 C   0  0  2  0  0  0  0  0  0  0  0  0
  152.2184  143.2021  161.3297 C   0  0  0  0  0  0  0  0  0  0  0  0
  152.0775  143.2325  159.8219 C   0  0  1  0  0  0  0  0  0  0  0  0
  151.8208  144.5465  159.0949 C   0  0  0  0  0  0  0  0  0  0  0  0
  152.6919  144.7028  158.0980 F   0  0  0  0  0  0  0  0  0  0  0  0
  150.5847  144.5491  158.5968 F   0  0  0  0  0  0  0  0  0  0  0  0
  151.9455  145.5827  159.9246 F   0  0  0  0  0  0  0  0  0  0  0  0
  151.5810  142.0123  159.0726 C   0  0  0  0  0  0  0  0  0  0  0  0
  153.2376  138.7251  159.2532 N   0  0  0  0  0  0  0  0  0  0  0  0
  153.2524  137.5349  158.6478 C   0  0  0  0  0  0  0  0  0  0  0  0
  152.6081  137.1536  157.5450 N   0  0  0  0  0  0  0  0  0  0  0  0
  151.8638  138.1729  157.0298 C   0  0  0  0  0  0  0  0  0  0  0  0
  149.3556  136.3575  156.8794 C   0  0  0  0  0  0  0  0  0  0  0  0
  148.7438  135.2070  157.6989 C   0  0  0  0  0  0  0  0  0  0  0  0
  149.7354  134.2247  157.9686 O   0  0  0  0  0  0  0  0  0  0  0  0
  150.2575  133.6295  156.7881 C   0  0  0  0  0  0  0  0  0  0  0  0
  150.9417  134.6977  155.9149 C   0  0  0  0  0  0  0  0  0  0  0  0
  147.2438  136.0850  153.8882 H   0  0  0  0  0  0  0  0  0  0  0  0
  148.3004  134.6195  154.9576 H   0  0  0  0  0  0  0  0  0  0  0  0
  149.3993  134.9624  153.6571 H   0  0  0  0  0  0  0  0  0  0  0  0
  151.8154  136.6942  154.6293 H   0  0  0  0  0  0  0  0  0  0  0  0
  150.3569  137.4587  154.0817 H   0  0  0  0  0  0  0  0  0  0  0  0
  149.8446  139.7139  155.0349 H   0  0  0  0  0  0  0  0  0  0  0  0
  153.9914  140.8773  160.9292 H   0  0  0  0  0  0  0  0  0  0  0  0
  154.5566  141.4456  159.3408 H   0  0  0  0  0  0  0  0  0  0  0  0
  154.2110  143.5951  160.3958 H   0  0  0  0  0  0  0  0  0  0  0  0
  151.7449  142.3828  161.8673 H   0  0  0  0  0  0  0  0  0  0  0  0
  152.2461  144.1493  161.8644 H   0  0  0  0  0  0  0  0  0  0  0  0
  151.5890  142.1949  157.9976 H   0  0  0  0  0  0  0  0  0  0  0  0
  150.5640  141.7690  159.3820 H   0  0  0  0  0  0  0  0  0  0  0  0
  153.8696  136.7810  159.1135 H   0  0  0  0  0  0  0  0  0  0  0  0
  150.1113  136.8432  157.4986 H   0  0  0  0  0  0  0  0  0  0  0  0
  148.5986  137.1179  156.6861 H   0  0  0  0  0  0  0  0  0  0  0  0
  148.3680  135.5892  158.6480 H   0  0  0  0  0  0  0  0  0  0  0  0
  147.8926  134.7566  157.1877 H   0  0  0  0  0  0  0  0  0  0  0  0
  150.9838  132.8693  157.0764 H   0  0  0  0  0  0  0  0  0  0  0  0
  149.4669  133.1111  156.2452 H   0  0  0  0  0  0  0  0  0  0  0  0
  151.3344  134.2297  155.0116 H   0  0  0  0  0  0  0  0  0  0  0  0
  151.8066  135.0739  156.4625 H   0  0  0  0  0  0  0  0  0  0  0  0
  1  2  1  0  0  0  0
  1 29  1  0  0  0  0
  2  3  1  0  0  0  0
  2 30  1  0  0  0  0
  2 31  1  0  0  0  0
  3 28  1  0  0  0  0
  3  4  1  0  0  0  0
  3 24  1  0  0  0  0
  4  5  1  0  0  0  0
  4 32  1  0  0  0  0
  4 33  1  0  0  0  0
  5 23  1  0  0  0  0
  5  6  1  0  0  0  0
  6  7  2  0  0  0  0
  6 34  1  0  0  0  0
  7  8  1  0  0  0  0
  8 23  2  0  0  0  0
  8  9  1  0  0  0  0
  9 10  1  0  0  0  0
  9 20  2  0  0  0  0
 10 19  1  0  0  0  0
 10 11  1  0  0  0  0
 11 12  1  0  0  0  0
 11 35  1  0  0  0  0
 11 36  1  0  0  0  0
 12 14  1  0  0  0  0
 12 13  1  0  0  0  0
 12 37  1  0  0  0  0
 13 14  1  0  0  0  0
 13 38  1  0  0  0  0
 13 39  1  0  0  0  0
 14 15  1  0  0  0  0
 14 19  1  0  0  0  0
 15 16  1  0  0  0  0
 15 17  1  0  0  0  0
 15 18  1  0  0  0  0
 19 40  1  0  0  0  0
 19 41  1  0  0  0  0
 20 21  1  0  0  0  0
 21 22  2  0  0  0  0
 21 42  1  0  0  0  0
 22 23  1  0  0  0  0
 24 25  1  0  0  0  0
 24 43  1  0  0  0  0
 24 44  1  0  0  0  0
 25 26  1  0  0  0  0
 25 45  1  0  0  0  0
 25 46  1  0  0  0  0
 26 27  1  0  0  0  0
 27 28  1  0  0  0  0
 27 47  1  0  0  0  0
 27 48  1  0  0  0  0
 28 49  1  0  0  0  0
 28 50  1  0  0  0  0
M  END
> <s_m_source_file>
AV-unprocessed.smi

> <i_m_source_file_index>
251

> <i_lp_mmshare_version>
43012

> <i_f3d_flags>
0

> <s_epik_input>
W0NIMl0xW0NIMl1PW0NIMl1bQ0gyXUMxKFtDSDJdW09IXSlbQ0gyXW4oW2NIXW4yKWMoYzIzKW5bY0hdbmMzTihbQ0gyXTQpW0NIMl1bQ0BIXShbQ0gyXTUpW0NAQF00NUMoRikoRilG

> <s_epik_cmdline>
J2VwaWtfcHl0aG9uJywgJy1waCcsICc3LjAnLCAnLXRuJywgJzgnLCAnLW1hJywgJzIwMCcsICctbWV0YWxfYmluZGluZycsICctaW1hZScsICc8aW5maWxlLm1hZT4nLCAnLW9tYWUnLCAnPG91dGZpbGUubWFlPic=

> <r_lp_tautomer_probability>
1

> <r_epik_Ionization_Penalty>
0.00226625

> <r_epik_Ionization_Penalty_Charging>
0

> <r_epik_Ionization_Penalty_Neutral>
0.00226625

> <r_epik_State_Penalty>
0.00138204

> <r_epik_Charging_Adjusted_Penalty>
0.00138204

> <i_epik_Tot_Q>
0

> <i_epik_Tot_abs_Q>
0

> <r_epik_Metal_State_Penalty>
-0

> <b_epik_Metal_Only>
0

> <s_lp_Force_Field>
OPLS_2005

> <r_lp_Energy>
66.9783

> <b_lp_Chiralities_Consistent>
1

> <s_lp_Variant>
AV-unprocessed.smi:251-1

> <Gold.Version>
5.8.1

> <Gold.Id.Protein>
6NUR|6NUR_protein|mol2

> <Gold.PLP.Fitness>
49.3812

> <Gold.PLP.PLP>
-49.8261

> <Gold.PLP.part.hbond>
-1.6804

> <Gold.PLP.part.metal>
0.0000

> <Gold.PLP.part.buried>
-4.1751

> <Gold.PLP.part.nonpolar>
-43.4245

> <Gold.PLP.part.repulsive>
0.0000

> <Gold.PLP.ligand.clash>
0.0000

> <Gold.PLP.ligand.torsion>
2.6138

> <Gold.PLP.Chemscore.Hbond>
1.0000

> <Gold.PLP.Chemscore.CHOScore>
0.0000

> <Gold.PLP.Chemscore.Metal>
0.0000

> <Gold.Chemscore.Hbonds>
donor molecule, donor type, donor heavy atom, donor atom, acceptor molecule, acceptor atom, score
      P1  H  6896  6907       L1    26  1.00

> <Gold.PLP.Chemscore.Internal.Correction>
1.7827

> <Gold.Rescore>
     Score         DG    S(hbond)    S(metal)    S(lipo)     H(rot)  DE(clash)    DE(int)     intcor
     10.26     -14.05       0.89        0.00      96.63       2.23       0.09       3.70       ----

> <Gold.Chemscore.Fitness>
10.2646

> <Gold.Chemscore.DG>
-14.0536

> <Gold.Chemscore.ZeroCoef>
-5.4800

> <Gold.Chemscore.Hbond>
0.8946

> <Gold.Chemscore.Metal>
0.0000

> <Gold.Chemscore.Lipo>
96.6286

> <Gold.Chemscore.Internal_Hbond>
0.0000

> <Gold.Chemscore.DEClash>
0.0901

> <Gold.Chemscore.DEInternal>
3.6989

> <Gold.Chemscore.Rot>
2.2344

> <Gold.Chemscore.Internal.Correction>
   9.000000E+99

> <Gold.Chemscore.Hbonds>
donor molecule, donor type, donor heavy atom, donor atom, acceptor molecule, acceptor atom, score
      P1  H  6896  6907       L1    26  0.93

> <Gold.Chemscore.Hbond.Weighted>
-2.9881

> <Gold.Chemscore.Metal.Weighted>
-0.0000

> <Gold.Chemscore.Lipo.Weighted>
-11.3055

> <Gold.Chemscore.Internal_Hbond.Weighted>
0.0000

> <Gold.Chemscore.DEClash.Weighted>
0.0901

> <Gold.Chemscore.DEInternal.Weighted>
3.6989

> <Gold.Chemscore.Rot.Weighted>
5.7200

> <Gold.Chemscore.Internal.Correction.Weighted>
   9.000000E+99

> <Gold.Protein.RotatedTorsions>
[ 6907 6896 6895 6894 ] final  -98.16 input  -60.11 | X-H torsion
[ 7974 7965 7964 7962 ] final -103.22 input  175.53 | X-H torsion
[ 8008 7997 7996 7995 ] final  -48.31 input   59.86 | X-H torsion
[ 10167 10162 10161 10158 ] final -144.10 input  -65.29 | X-H torsion
[ 10718 10713 10712 10709 ] final  118.28 input   66.30 | X-H torsion
[ 10763 10752 10751 10750 ] final    4.50 input  -60.55 | X-H torsion
[ 11005 11000 10999 10996 ] final   -7.63 input  -57.11 | X-H torsion

> <Gold.Protein.ActiveResidues>
 VAL166  LYS551  ARG553  GLY616  TRP617  ASP618  TYR619  PRO620  LYS621  CYS622 
 ASP623  PHE694  ASN695  SER759  ASP760  ASP761  ALA762  ILE779  LEU786  VAL792 
 PHE793  MET794  SER795  GLU796  ALA797  LYS798  CYS799  TRP800  GLU811  SER814 

> <Gold.Protein.RotatedAtoms>
  150.7038  134.1237  159.4043 H   0  0  0  0  0  0  0  0  0  0  0  0  # atno 6907 bound_to 6896
  151.9223  135.0290  160.0532 H   0  0  0  0  0  0  0  0  0  0  0  0  # atno 6908 bound_to 6896
  152.2245  133.4974  159.5218 H   0  0  0  0  0  0  0  0  0  0  0  0  # atno 6909 bound_to 6896
  145.2587  140.9262  143.3053 H   0  0  0  0  0  0  0  0  0  0  0  0  # atno 7974 bound_to 7965
  154.4027  140.1324  156.4318 H   0  0  0  0  0  0  0  0  0  0  0  0  # atno 8008 bound_to 7997
  155.7543  140.3487  155.5146 H   0  0  0  0  0  0  0  0  0  0  0  0  # atno 8009 bound_to 7997
  155.8919  140.1005  157.1402 H   0  0  0  0  0  0  0  0  0  0  0  0  # atno 8010 bound_to 7997
  139.7930  143.7939  152.2652 H   0  0  0  0  0  0  0  0  0  0  0  0  # atno 10167 bound_to 10162
  157.6041  131.1046  150.7734 H   0  0  0  0  0  0  0  0  0  0  0  0  # atno 10718 bound_to 10713
  153.2706  135.6932  153.7485 H   0  0  0  0  0  0  0  0  0  0  0  0  # atno 10763 bound_to 10752
  153.6510  135.3377  155.3100 H   0  0  0  0  0  0  0  0  0  0  0  0  # atno 10764 bound_to 10752
  154.8462  135.4454  154.1727 H   0  0  0  0  0  0  0  0  0  0  0  0  # atno 10765 bound_to 10752
  140.7148  133.8878  155.8777 H   0  0  0  0  0  0  0  0  0  0  0  0  # atno 11005 bound_to 11000
  144.9438  139.4159  143.6436 LP  0  0  0  0  0  0  0  0  0  0  0  0  # atno 17320 bound_to 7965
  146.3281  139.8411  142.8890 LP  0  0  0  0  0  0  0  0  0  0  0  0  # atno 17321 bound_to 7965
  139.8036  144.7364  150.9791 LP  0  0  0  0  0  0  0  0  0  0  0  0  # atno 17342 bound_to 10162
  140.7820  143.4320  151.0680 LP  0  0  0  0  0  0  0  0  0  0  0  0  # atno 17343 bound_to 10162
  156.8126  130.4957  149.5354 LP  0  0  0  0  0  0  0  0  0  0  0  0  # atno 17370 bound_to 10713
  156.1122  130.6048  151.0065 LP  0  0  0  0  0  0  0  0  0  0  0  0  # atno 17371 bound_to 10713
  141.0053  134.1094  157.4276 LP  0  0  0  0  0  0  0  0  0  0  0  0  # atno 17394 bound_to 11000
  139.8862  135.0079  156.6486 LP  0  0  0  0  0  0  0  0  0  0  0  0  # atno 17395 bound_to 11000

$$$$
