AV-unprocessed.smi:1522|AV-procd|sdf|6137|dock10
  -GOLD-   22720 6283D 1   1.00000     0.00000
 Structure written by MMmdl.
 34 35  0  0  0  0  0  0  0  0  3 V2000
  145.7542  135.7730  152.0284 C   0  0  0  0  0  0  0  0  0  0  0  0
  146.3878  134.5048  151.4119 C   0  0  1  0  0  0  0  0  0  0  0  0
  146.7204  133.4684  152.5113 C   0  0  0  0  0  0  0  0  0  0  0  0
  147.8835  133.8662  153.2946 N   0  0  0  0  0  0  0  0  0  0  0  0
  148.4494  133.1346  154.2625 C   0  0  0  0  0  0  0  0  0  0  0  0
  147.9842  132.0286  154.5470 O   0  0  0  0  0  0  0  0  0  0  0  0
  149.5161  133.7316  154.8396 N   0  5  0  0  0  0  0  0  0  0  0  0
  150.2668  133.0559  155.7250 C   0  0  0  0  0  0  0  0  0  0  0  0
  150.8073  133.6438  156.8044 N   0  0  0  0  0  0  0  0  0  0  0  0
  151.5412  132.7679  157.5928 N   0  0  0  0  0  0  0  0  0  0  0  0
  151.5289  131.5339  157.0891 C   0  0  0  0  0  0  0  0  0  0  0  0
  150.6167  131.3288  155.6089 S   0  0  0  0  0  0  0  0  0  0  0  0
  145.4972  133.9073  150.3752 N   0  3  0  0  0  0  0  0  0  0  0  0
  145.8403  132.5324  149.9498 C   0  0  0  0  0  0  0  0  0  0  0  0
  144.5690  131.9866  149.3105 C   0  0  0  0  0  0  0  0  0  0  0  0
  143.4667  132.5796  150.1802 C   0  0  0  0  0  0  0  0  0  0  0  0
  144.0499  133.8969  150.7105 C   0  0  0  0  0  0  0  0  0  0  0  0
  146.3939  136.2143  152.7928 H   0  0  0  0  0  0  0  0  0  0  0  0
  144.7944  135.5477  152.4944 H   0  0  0  0  0  0  0  0  0  0  0  0
  145.5906  136.5527  151.2849 H   0  0  0  0  0  0  0  0  0  0  0  0
  147.3181  134.7971  150.9217 H   0  0  0  0  0  0  0  0  0  0  0  0
  145.8657  133.3438  153.1785 H   0  0  0  0  0  0  0  0  0  0  0  0
  146.9309  132.4896  152.0793 H   0  0  0  0  0  0  0  0  0  0  0  0
  148.2933  134.7660  153.0912 H   0  0  0  0  0  0  0  0  0  0  0  0
  152.0564  130.7389  157.5945 H   0  0  0  0  0  0  0  0  0  0  0  0
  146.6827  132.5151  149.2577 H   0  0  0  0  0  0  0  0  0  0  0  0
  146.1008  131.9306  150.8224 H   0  0  0  0  0  0  0  0  0  0  0  0
  144.4784  132.3590  148.2891 H   0  0  0  0  0  0  0  0  0  0  0  0
  144.5436  130.8970  149.2767 H   0  0  0  0  0  0  0  0  0  0  0  0
  142.5353  132.7229  149.6317 H   0  0  0  0  0  0  0  0  0  0  0  0
  143.2584  131.9092  151.0153 H   0  0  0  0  0  0  0  0  0  0  0  0
  143.8838  133.9617  151.7867 H   0  0  0  0  0  0  0  0  0  0  0  0
  143.5692  134.7591  150.2471 H   0  0  0  0  0  0  0  0  0  0  0  0
  145.5848  134.4803  149.5479 H   0  0  0  0  0  0  0  0  0  0  0  0
  1  2  1  0  0  0  0
  1 18  1  0  0  0  0
  1 19  1  0  0  0  0
  1 20  1  0  0  0  0
  2  3  1  0  0  0  0
  2 13  1  0  0  0  0
  2 21  1  0  0  0  0
  3  4  1  0  0  0  0
  3 22  1  0  0  0  0
  3 23  1  0  0  0  0
  4  5  1  0  0  0  0
  4 24  1  0  0  0  0
  5  6  2  0  0  0  0
  5  7  1  0  0  0  0
  7  8  1  0  0  0  0
  8 12  1  0  0  0  0
  8  9  2  0  0  0  0
  9 10  1  0  0  0  0
 10 11  2  0  0  0  0
 11 12  1  0  0  0  0
 11 25  1  0  0  0  0
 13 17  1  0  0  0  0
 13 14  1  0  0  0  0
 13 34  1  0  0  0  0
 14 15  1  0  0  0  0
 14 26  1  0  0  0  0
 14 27  1  0  0  0  0
 15 16  1  0  0  0  0
 15 28  1  0  0  0  0
 15 29  1  0  0  0  0
 16 17  1  0  0  0  0
 16 30  1  0  0  0  0
 16 31  1  0  0  0  0
 17 32  1  0  0  0  0
 17 33  1  0  0  0  0
M  CHG  1   7  -1
M  CHG  1  13   1
M  END
> <s_m_source_file>
AV-unprocessed.smi

> <i_m_source_file_index>
1522

> <i_lp_mmshare_version>
43012

> <i_f3d_flags>
0

> <s_epik_input>
W0NIMl0xW0NIMl1bQ0gyXVtDSDJdTjFbQ0BIXShbQ0gzXSlbQ0gyXVtOSF1DKD1PKVtOSF1jMm5uW2NIXXMy

> <s_epik_cmdline>
J2VwaWtfcHl0aG9uJywgJy1waCcsICc3LjAnLCAnLXRuJywgJzgnLCAnLW1hJywgJzIwMCcsICctbWV0YWxfYmluZGluZycsICctaW1hZScsICc8aW5maWxlLm1hZT4nLCAnLW9tYWUnLCAnPG91dGZpbGUubWFlPic=

> <r_lp_tautomer_probability>
1

> <r_epik_Ionization_Penalty>
3.04208

> <r_epik_Ionization_Penalty_Charging>
3.00964

> <r_epik_Ionization_Penalty_Neutral>
0.0324455

> <r_epik_State_Penalty>
3.0051

> <r_epik_Charging_Adjusted_Penalty>
6.01474

> <i_epik_Tot_Q>
0

> <i_epik_Tot_abs_Q>
2

> <r_epik_Metal_State_Penalty>
0.454155

> <b_epik_Metal_Only>
1

> <s_lp_Force_Field>
OPLS_2005

> <r_lp_Energy>
23.3187

> <b_lp_Chiralities_Consistent>
1

> <s_lp_Variant>
AV-unprocessed.smi:1522-4

> <Gold.Version>
5.8.1

> <Gold.Id.Protein>
6NUR|6NUR_protein|mol2

> <Gold.PLP.Fitness>
34.4677

> <Gold.PLP.PLP>
-26.9934

> <Gold.PLP.part.hbond>
-3.0563

> <Gold.PLP.part.metal>
0.0000

> <Gold.PLP.part.buried>
-1.1778

> <Gold.PLP.part.nonpolar>
-22.7503

> <Gold.PLP.part.repulsive>
0.2111

> <Gold.PLP.ligand.clash>
0.0000

> <Gold.PLP.ligand.torsion>
0.7232

> <Gold.PLP.Chemscore.Hbond>
2.9600

> <Gold.PLP.Chemscore.CHOScore>
0.0000

> <Gold.PLP.Chemscore.Metal>
0.0000

> <Gold.Chemscore.Hbonds>
donor molecule, donor type, donor heavy atom, donor atom, acceptor molecule, acceptor atom, score
      L1  H     4    24       P1  7948  1.00
      L1  H    13    34       P1  7921  1.00
      P1  H  6896  6908       L1    10  0.93

> <Gold.PLP.Chemscore.Internal.Correction>
0.0405

> <Gold.Rescore>
     Score         DG    S(hbond)    S(metal)    S(lipo)     H(rot)  DE(clash)    DE(int)     intcor
     15.43     -16.68       2.32        0.00      66.07       1.68       0.24       1.00       ----

> <Gold.Chemscore.Fitness>
15.4316

> <Gold.Chemscore.DG>
-16.6770

> <Gold.Chemscore.ZeroCoef>
-5.4800

> <Gold.Chemscore.Hbond>
2.3227

> <Gold.Chemscore.Metal>
0.0000

> <Gold.Chemscore.Lipo>
66.0693

> <Gold.Chemscore.Internal_Hbond>
0.0000

> <Gold.Chemscore.DEClash>
0.2420

> <Gold.Chemscore.DEInternal>
1.0035

> <Gold.Chemscore.Rot>
1.6762

> <Gold.Chemscore.Internal.Correction>
   9.000000E+99

> <Gold.Chemscore.Hbonds>
donor molecule, donor type, donor heavy atom, donor atom, acceptor molecule, acceptor atom, score
      L1  H     4    24       P1  7948  0.66
      L1  H    13    34       P1  7921  0.83
      P1  H  6896  6908       L1    10  0.75

> <Gold.Chemscore.Hbond.Weighted>
-7.7579

> <Gold.Chemscore.Metal.Weighted>
-0.0000

> <Gold.Chemscore.Lipo.Weighted>
-7.7301

> <Gold.Chemscore.Internal_Hbond.Weighted>
0.0000

> <Gold.Chemscore.DEClash.Weighted>
0.2420

> <Gold.Chemscore.DEInternal.Weighted>
1.0035

> <Gold.Chemscore.Rot.Weighted>
4.2910

> <Gold.Chemscore.Internal.Correction.Weighted>
   9.000000E+99

> <Gold.Protein.RotatedTorsions>
[ 6907 6896 6895 6894 ] final   59.98 input  -60.11 | X-H torsion
[ 7974 7965 7964 7962 ] final  -29.52 input  175.53 | X-H torsion
[ 8008 7997 7996 7995 ] final  168.35 input   59.86 | X-H torsion
[ 10167 10162 10161 10158 ] final   -3.60 input  -65.29 | X-H torsion
[ 10718 10713 10712 10709 ] final -161.08 input   66.30 | X-H torsion
[ 10763 10752 10751 10750 ] final  -44.18 input  -60.55 | X-H torsion
[ 11005 11000 10999 10996 ] final  173.84 input  -57.11 | X-H torsion

> <Gold.Protein.ActiveResidues>
 VAL166  LYS551  ARG553  GLY616  TRP617  ASP618  TYR619  PRO620  LYS621  CYS622 
 ASP623  PHE694  ASN695  SER759  ASP760  ASP761  ALA762  ILE779  LEU786  VAL792 
 PHE793  MET794  SER795  GLU796  ALA797  LYS798  CYS799  TRP800  GLU811  SER814 

> <Gold.Protein.RotatedAtoms>
  152.3962  134.6360  160.0087 H   0  0  0  0  0  0  0  0  0  0  0  0  # atno 6907 bound_to 6896
  151.6579  133.3312  159.3175 H   0  0  0  0  0  0  0  0  0  0  0  0  # atno 6908 bound_to 6896
  150.7870  134.6906  159.6539 H   0  0  0  0  0  0  0  0  0  0  0  0  # atno 6909 bound_to 6896
  146.1210  140.5423  142.8735 H   0  0  0  0  0  0  0  0  0  0  0  0  # atno 7974 bound_to 7965
  156.1555  140.1593  156.8700 H   0  0  0  0  0  0  0  0  0  0  0  0  # atno 8008 bound_to 7997
  154.5110  140.0801  156.8027 H   0  0  0  0  0  0  0  0  0  0  0  0  # atno 8009 bound_to 7997
  155.3812  140.3405  155.4249 H   0  0  0  0  0  0  0  0  0  0  0  0  # atno 8010 bound_to 7997
  140.6896  143.6520  150.8341 H   0  0  0  0  0  0  0  0  0  0  0  0  # atno 10167 bound_to 10162
  156.5911  130.8770  151.2890 H   0  0  0  0  0  0  0  0  0  0  0  0  # atno 10718 bound_to 10713
  154.0079  135.6685  153.4763 H   0  0  0  0  0  0  0  0  0  0  0  0  # atno 10763 bound_to 10752
  153.0634  135.5015  154.8141 H   0  0  0  0  0  0  0  0  0  0  0  0  # atno 10764 bound_to 10752
  154.7013  135.3079  154.9300 H   0  0  0  0  0  0  0  0  0  0  0  0  # atno 10765 bound_to 10752
  140.3448  134.7245  157.4227 H   0  0  0  0  0  0  0  0  0  0  0  0  # atno 11005 bound_to 11000
  144.7597  140.5393  143.6744 LP  0  0  0  0  0  0  0  0  0  0  0  0  # atno 17320 bound_to 7965
  145.5466  139.1476  143.3417 LP  0  0  0  0  0  0  0  0  0  0  0  0  # atno 17321 bound_to 7965
  140.0232  143.5521  152.2792 LP  0  0  0  0  0  0  0  0  0  0  0  0  # atno 17342 bound_to 10162
  139.6286  144.7641  151.2584 LP  0  0  0  0  0  0  0  0  0  0  0  0  # atno 17343 bound_to 10162
  157.7303  130.9684  150.1828 LP  0  0  0  0  0  0  0  0  0  0  0  0  # atno 17370 bound_to 10713
  156.2549  130.3704  149.8193 LP  0  0  0  0  0  0  0  0  0  0  0  0  # atno 17371 bound_to 10713
  140.0751  134.5808  155.8600 LP  0  0  0  0  0  0  0  0  0  0  0  0  # atno 17394 bound_to 11000
  141.2028  133.6628  156.6029 LP  0  0  0  0  0  0  0  0  0  0  0  0  # atno 17395 bound_to 11000

$$$$
