AV-unprocessed.smi:2990|AV-procd|sdf|11396|dock2
  -GOLD-   2272016323D 1   1.00000     0.00000
 Structure written by MMmdl.
 40 42  0  0  0  0  0  0  0  0  2 V2000
  146.3324  142.2765  153.8151 C   0  0  0  0  0  0  0  0  0  0  0  0
  147.5669  141.5189  154.1730 C   0  0  0  0  0  0  0  0  0  0  0  0
  148.5864  141.9719  154.9562 N   0  3  0  0  0  0  0  0  0  0  0  0
  149.5717  140.9890  155.0647 C   0  0  0  0  0  0  0  0  0  0  0  0
  150.7844  140.9843  155.7470 C   0  0  0  0  0  0  0  0  0  0  0  0
  151.5605  139.8105  155.6498 C   0  0  0  0  0  0  0  0  0  0  0  0
  151.1240  138.7015  154.8958 C   0  0  0  0  0  0  0  0  0  0  0  0
  149.8933  138.7187  154.2066 C   0  0  0  0  0  0  0  0  0  0  0  0
  149.1317  139.8823  154.3104 C   0  0  0  0  0  0  0  0  0  0  0  0
  147.8902  140.2527  153.7827 N   0  0  0  0  0  0  0  0  0  0  0  0
  147.1596  139.3007  152.9326 C   0  0  0  0  0  0  0  0  0  0  0  0
  146.2019  138.3914  153.7291 C   0  0  1  0  0  0  0  0  0  0  0  0
  145.3843  139.1792  154.5712 O   0  0  0  0  0  0  0  0  0  0  0  0
  145.2989  137.5522  152.8144 C   0  0  0  0  0  0  0  0  0  0  0  0
  146.0673  136.4939  152.2571 O   0  0  0  0  0  0  0  0  0  0  0  0
  145.4118  135.3440  151.8727 C   0  0  0  0  0  0  0  0  0  0  0  0
  146.1596  134.3934  151.1473 C   0  0  0  0  0  0  0  0  0  0  0  0
  145.5698  133.1904  150.7136 C   0  0  0  0  0  0  0  0  0  0  0  0
  144.2191  132.9245  151.0043 C   0  0  0  0  0  0  0  0  0  0  0  0
  143.4613  133.8631  151.7289 C   0  0  0  0  0  0  0  0  0  0  0  0
  144.0513  135.0667  152.1621 C   0  0  0  0  0  0  0  0  0  0  0  0
  146.2831  143.2135  154.3701 H   0  0  0  0  0  0  0  0  0  0  0  0
  145.4454  141.6880  154.0501 H   0  0  0  0  0  0  0  0  0  0  0  0
  146.3280  142.5036  152.7489 H   0  0  0  0  0  0  0  0  0  0  0  0
  151.1213  141.8329  156.3243 H   0  0  0  0  0  0  0  0  0  0  0  0
  152.5096  139.7598  156.1637 H   0  0  0  0  0  0  0  0  0  0  0  0
  151.7460  137.8196  154.8446 H   0  0  0  0  0  0  0  0  0  0  0  0
  149.5672  137.8650  153.6311 H   0  0  0  0  0  0  0  0  0  0  0  0
  146.6055  139.8759  152.1898 H   0  0  0  0  0  0  0  0  0  0  0  0
  147.8891  138.7095  152.3777 H   0  0  0  0  0  0  0  0  0  0  0  0
  146.7749  137.7199  154.3689 H   0  0  0  0  0  0  0  0  0  0  0  0
  144.8083  139.6966  154.0297 H   0  0  0  0  0  0  0  0  0  0  0  0
  144.4739  137.1355  153.3950 H   0  0  0  0  0  0  0  0  0  0  0  0
  144.8773  138.1801  152.0275 H   0  0  0  0  0  0  0  0  0  0  0  0
  147.1970  134.5895  150.9189 H   0  0  0  0  0  0  0  0  0  0  0  0
  146.1544  132.4720  150.1580 H   0  0  0  0  0  0  0  0  0  0  0  0
  143.7651  132.0023  150.6726 H   0  0  0  0  0  0  0  0  0  0  0  0
  142.4246  133.6601  151.9539 H   0  0  0  0  0  0  0  0  0  0  0  0
  143.4381  135.7605  152.7164 H   0  0  0  0  0  0  0  0  0  0  0  0
  148.6053  142.8891  155.3833 H   0  0  0  0  0  0  0  0  0  0  0  0
  1  2  1  0  0  0  0
  1 22  1  0  0  0  0
  1 23  1  0  0  0  0
  1 24  1  0  0  0  0
  2 10  1  0  0  0  0
  2  3  2  0  0  0  0
  3  4  1  0  0  0  0
  3 40  1  0  0  0  0
  4  9  2  0  0  0  0
  4  5  1  0  0  0  0
  5  6  2  0  0  0  0
  5 25  1  0  0  0  0
  6  7  1  0  0  0  0
  6 26  1  0  0  0  0
  7  8  2  0  0  0  0
  7 27  1  0  0  0  0
  8  9  1  0  0  0  0
  8 28  1  0  0  0  0
  9 10  1  0  0  0  0
 10 11  1  0  0  0  0
 11 12  1  0  0  0  0
 11 29  1  0  0  0  0
 11 30  1  0  0  0  0
 12 13  1  0  0  0  0
 12 14  1  0  0  0  0
 12 31  1  0  0  0  0
 13 32  1  0  0  0  0
 14 15  1  0  0  0  0
 14 33  1  0  0  0  0
 14 34  1  0  0  0  0
 15 16  1  0  0  0  0
 16 21  1  0  0  0  0
 16 17  2  0  0  0  0
 17 18  1  0  0  0  0
 17 35  1  0  0  0  0
 18 19  2  0  0  0  0
 18 36  1  0  0  0  0
 19 20  1  0  0  0  0
 19 37  1  0  0  0  0
 20 21  2  0  0  0  0
 20 38  1  0  0  0  0
 21 39  1  0  0  0  0
M  CHG  1   3   1
M  END
> <s_m_source_file>
AV-unprocessed.smi

> <i_m_source_file_index>
2990

> <i_lp_mmshare_version>
43012

> <i_f3d_flags>
0

> <s_epik_input>
W2NIXTFbY0hdW2NIXVtjSF1jKGMxMiluKGMobjIpW0NIM10pW0NIMl1bQ0BIXShbT0hdKVtDSDJdT2MzW2NIXVtjSF1bY0hdW2NIXVtjSF0z

> <s_epik_cmdline>
J2VwaWtfcHl0aG9uJywgJy1waCcsICc3LjAnLCAnLXRuJywgJzgnLCAnLW1hJywgJzIwMCcsICctbWV0YWxfYmluZGluZycsICctaW1hZScsICc8aW5maWxlLm1hZT4nLCAnLW9tYWUnLCAnPG91dGZpbGUubWFlPic=

> <r_lp_tautomer_probability>
1

> <r_epik_Ionization_Penalty>
1.00673

> <r_epik_Ionization_Penalty_Charging>
1.00673

> <r_epik_Ionization_Penalty_Neutral>
2.3993e-06

> <r_epik_State_Penalty>
1.05579

> <r_epik_Charging_Adjusted_Penalty>
2.06252

> <i_epik_Tot_Q>
1

> <i_epik_Tot_abs_Q>
1

> <r_epik_Metal_State_Penalty>
5.03947

> <b_epik_Metal_Only>
0

> <s_lp_Force_Field>
OPLS_2005

> <r_lp_Energy>
17.9265

> <b_lp_Chiralities_Consistent>
1

> <s_lp_Variant>
AV-unprocessed.smi:2990-4

> <Gold.Version>
5.8.1

> <Gold.Id.Protein>
6NUR|6NUR_protein|mol2

> <Gold.PLP.Fitness>
51.2930

> <Gold.PLP.PLP>
-43.6521

> <Gold.PLP.part.hbond>
-2.0000

> <Gold.PLP.part.metal>
0.0000

> <Gold.PLP.part.buried>
-3.9912

> <Gold.PLP.part.nonpolar>
-39.4679

> <Gold.PLP.part.repulsive>
1.8644

> <Gold.PLP.ligand.clash>
0.0000

> <Gold.PLP.ligand.torsion>
0.7686

> <Gold.PLP.Chemscore.Hbond>
3.0000

> <Gold.PLP.Chemscore.CHOScore>
0.0000

> <Gold.PLP.Chemscore.Metal>
0.0000

> <Gold.Chemscore.Hbonds>
donor molecule, donor type, donor heavy atom, donor atom, acceptor molecule, acceptor atom, score
      L1  H     3    40       P1  8028  2.00
      L1  H    13    32       P1 10175  0.91

> <Gold.PLP.Chemscore.Internal.Correction>
0.1782

> <Gold.Rescore>
     Score         DG    S(hbond)    S(metal)    S(lipo)     H(rot)  DE(clash)    DE(int)     intcor
     16.69     -18.57       1.97        0.00     102.10       2.12       1.14       0.75       ----

> <Gold.Chemscore.Fitness>
16.6882

> <Gold.Chemscore.DG>
-18.5728

> <Gold.Chemscore.ZeroCoef>
-5.4800

> <Gold.Chemscore.Hbond>
1.9671

> <Gold.Chemscore.Metal>
0.0000

> <Gold.Chemscore.Lipo>
102.1014

> <Gold.Chemscore.Internal_Hbond>
0.0000

> <Gold.Chemscore.DEClash>
1.1380

> <Gold.Chemscore.DEInternal>
0.7466

> <Gold.Chemscore.Rot>
2.1184

> <Gold.Chemscore.Internal.Correction>
   9.000000E+99

> <Gold.Chemscore.Hbonds>
donor molecule, donor type, donor heavy atom, donor atom, acceptor molecule, acceptor atom, score
      L1  H     3    40       P1  8028  1.00
      L1  H    13    32       P1 10175  0.87

> <Gold.Chemscore.Hbond.Weighted>
-6.5701

> <Gold.Chemscore.Metal.Weighted>
-0.0000

> <Gold.Chemscore.Lipo.Weighted>
-11.9459

> <Gold.Chemscore.Internal_Hbond.Weighted>
0.0000

> <Gold.Chemscore.DEClash.Weighted>
1.1380

> <Gold.Chemscore.DEInternal.Weighted>
0.7466

> <Gold.Chemscore.Rot.Weighted>
5.4231

> <Gold.Chemscore.Internal.Correction.Weighted>
   9.000000E+99

> <Gold.Protein.RotatedTorsions>
[ 6907 6896 6895 6894 ] final  -93.68 input  -60.11 | X-H torsion
[ 7974 7965 7964 7962 ] final   -4.25 input  175.53 | X-H torsion
[ 8008 7997 7996 7995 ] final -147.79 input   59.86 | X-H torsion
[ 10167 10162 10161 10158 ] final   90.37 input  -65.29 | X-H torsion
[ 10718 10713 10712 10709 ] final -164.97 input   66.30 | X-H torsion
[ 10763 10752 10751 10750 ] final  160.63 input  -60.55 | X-H torsion
[ 11005 11000 10999 10996 ] final  165.24 input  -57.11 | X-H torsion

> <Gold.Protein.ActiveResidues>
 VAL166  LYS551  ARG553  GLY616  TRP617  ASP618  TYR619  PRO620  LYS621  CYS622 
 ASP623  PHE694  ASN695  SER759  ASP760  ASP761  ALA762  ILE779  LEU786  VAL792 
 PHE793  MET794  SER795  GLU796  ALA797  LYS798  CYS799  TRP800  GLU811  SER814 

> <Gold.Protein.RotatedAtoms>
  150.6927  134.1930  159.4292 H   0  0  0  0  0  0  0  0  0  0  0  0  # atno 6907 bound_to 6896
  151.9899  134.9982  160.0570 H   0  0  0  0  0  0  0  0  0  0  0  0  # atno 6908 bound_to 6896
  152.1677  133.4588  159.4930 H   0  0  0  0  0  0  0  0  0  0  0  0  # atno 6909 bound_to 6896
  146.2376  140.1842  142.8332 H   0  0  0  0  0  0  0  0  0  0  0  0  # atno 7974 bound_to 7965
  155.5812  140.0643  157.2782 H   0  0  0  0  0  0  0  0  0  0  0  0  # atno 8008 bound_to 7997
  154.4332  140.1852  156.1025 H   0  0  0  0  0  0  0  0  0  0  0  0  # atno 8009 bound_to 7997
  156.0303  140.3307  155.7137 H   0  0  0  0  0  0  0  0  0  0  0  0  # atno 8010 bound_to 7997
  139.8480  144.6608  150.9204 H   0  0  0  0  0  0  0  0  0  0  0  0  # atno 10167 bound_to 10162
  156.6466  130.8990  151.3006 H   0  0  0  0  0  0  0  0  0  0  0  0  # atno 10718 bound_to 10713
  154.2504  135.2771  155.2818 H   0  0  0  0  0  0  0  0  0  0  0  0  # atno 10763 bound_to 10752
  154.5469  135.5686  153.6892 H   0  0  0  0  0  0  0  0  0  0  0  0  # atno 10764 bound_to 10752
  152.9981  135.6265  154.2651 H   0  0  0  0  0  0  0  0  0  0  0  0  # atno 10765 bound_to 10752
  140.2541  134.7954  157.3529 H   0  0  0  0  0  0  0  0  0  0  0  0  # atno 11005 bound_to 11000
  144.9910  140.8546  143.5340 LP  0  0  0  0  0  0  0  0  0  0  0  0  # atno 17320 bound_to 7965
  145.1848  139.2332  143.5273 LP  0  0  0  0  0  0  0  0  0  0  0  0  # atno 17321 bound_to 7965
  140.7791  143.3853  151.1405 LP  0  0  0  0  0  0  0  0  0  0  0  0  # atno 17342 bound_to 10162
  139.7493  143.8803  152.3072 LP  0  0  0  0  0  0  0  0  0  0  0  0  # atno 17343 bound_to 10162
  157.7154  130.9491  150.1237 LP  0  0  0  0  0  0  0  0  0  0  0  0  # atno 17370 bound_to 10713
  156.2117  130.3667  149.8662 LP  0  0  0  0  0  0  0  0  0  0  0  0  # atno 17371 bound_to 10713
  140.1529  134.4827  155.7948 LP  0  0  0  0  0  0  0  0  0  0  0  0  # atno 17394 bound_to 11000
  141.2198  133.6869  156.7409 LP  0  0  0  0  0  0  0  0  0  0  0  0  # atno 17395 bound_to 11000

$$$$
