AV-unprocessed.smi:1|AV-procd|sdf|11|dock10
  -GOLD-   2262015103D 1   1.00000     0.00000
 Structure written by MMmdl.
 57 62  0  0  0  0  0  0  0  0  1 V2000
  152.5573  139.6310  156.7691 O   0  0  0  0  0  0  0  0  0  0  0  0
  151.8378  139.9692  157.7130 C   0  0  0  0  0  0  0  0  0  0  0  0
  150.8065  139.2627  158.3188 N   0  0  0  0  0  0  0  0  0  0  0  0
  150.1458  138.3700  157.6456 C   0  0  0  0  0  0  0  0  0  0  0  0
  150.2479  137.9147  156.3242 N   0  0  0  0  0  0  0  0  0  0  0  0
  149.4398  136.9358  155.7251 C   0  0  0  0  0  0  0  0  0  0  0  0
  148.4659  136.3028  156.3228 N   0  0  0  0  0  0  0  0  0  0  0  0
  148.3253  136.7162  157.6398 C   0  0  0  0  0  0  0  0  0  0  0  0
  149.0519  137.6553  158.3391 C   0  0  0  0  0  0  0  0  0  0  0  0
  148.5899  137.7631  159.6470 N   0  0  0  0  0  0  0  0  0  0  0  0
  147.5944  136.8802  159.6782 C   0  0  0  0  0  0  0  0  0  0  0  0
  147.3743  136.2209  158.5242 N   0  0  0  0  0  0  0  0  0  0  0  0
  146.3401  135.1800  158.2417 C   0  0  2  0  0  0  0  0  0  0  0  0
  145.7127  134.8349  159.4359 O   0  0  0  0  0  0  0  0  0  0  0  0
  145.2056  133.5188  159.2842 C   0  0  2  0  0  0  0  0  0  0  0  0
  144.7916  132.9156  160.6327 C   0  0  0  0  0  0  0  0  0  0  0  0
  145.7814  133.2301  161.5979 O   0  0  0  0  0  0  0  0  0  0  0  0
  145.5095  134.1003  162.5882 C   0  0  0  0  0  0  0  0  0  0  0  0
  144.3806  134.2791  163.0497 O   0  0  0  0  0  0  0  0  0  0  0  0
  146.7213  134.8245  163.0696 C   0  0  0  0  0  0  0  0  0  0  0  0
  147.9464  134.1266  163.1838 C   0  0  0  0  0  0  0  0  0  0  0  0
  149.1072  134.7845  163.6345 C   0  0  0  0  0  0  0  0  0  0  0  0
  149.0570  136.1480  163.9784 C   0  0  0  0  0  0  0  0  0  0  0  0
  147.8442  136.8532  163.8706 C   0  0  0  0  0  0  0  0  0  0  0  0
  146.6824  136.1974  163.4186 C   0  0  0  0  0  0  0  0  0  0  0  0
  146.3432  132.7950  158.5586 C   0  0  2  0  0  0  0  0  0  0  0  0
  147.3245  132.3630  159.4864 O   0  0  0  0  0  0  0  0  0  0  0  0
  148.8330  132.8311  158.9484 S   0  0  0  0  0  0  0  0  0  0  0  0
  149.4708  133.6321  160.0040 O   0  0  0  0  0  0  0  0  0  0  0  0
  149.4857  131.6621  158.3395 O   0  0  0  0  0  0  0  0  0  0  0  0
  148.3594  133.8588  157.7205 O   0  0  0  0  0  0  0  0  0  0  0  0
  146.9418  133.8872  157.6555 C   0  0  2  0  0  0  0  0  0  0  0  0
  152.0877  141.3031  158.3374 C   0  0  0  0  0  0  0  0  0  0  0  0
  151.3484  142.4299  157.9192 C   0  0  0  0  0  0  0  0  0  0  0  0
  151.5860  143.6878  158.5073 C   0  0  0  0  0  0  0  0  0  0  0  0
  152.5642  143.8231  159.5115 C   0  0  0  0  0  0  0  0  0  0  0  0
  153.3065  142.7008  159.9276 C   0  0  0  0  0  0  0  0  0  0  0  0
  153.0694  141.4421  159.3413 C   0  0  0  0  0  0  0  0  0  0  0  0
  149.6903  136.7312  154.6832 H   0  0  0  0  0  0  0  0  0  0  0  0
  147.0107  136.7055  160.5701 H   0  0  0  0  0  0  0  0  0  0  0  0
  145.6262  135.6606  157.5711 H   0  0  0  0  0  0  0  0  0  0  0  0
  144.3342  133.5726  158.6285 H   0  0  0  0  0  0  0  0  0  0  0  0
  143.8188  133.2969  160.9459 H   0  0  0  0  0  0  0  0  0  0  0  0
  144.7037  131.8321  160.5425 H   0  0  0  0  0  0  0  0  0  0  0  0
  148.0099  133.0793  162.9258 H   0  0  0  0  0  0  0  0  0  0  0  0
  150.0373  134.2416  163.7162 H   0  0  0  0  0  0  0  0  0  0  0  0
  149.9471  136.6523  164.3244 H   0  0  0  0  0  0  0  0  0  0  0  0
  147.8044  137.8995  164.1349 H   0  0  0  0  0  0  0  0  0  0  0  0
  145.7683  136.7688  163.3483 H   0  0  0  0  0  0  0  0  0  0  0  0
  145.9887  131.9342  157.9910 H   0  0  0  0  0  0  0  0  0  0  0  0
  146.6099  133.7840  156.6222 H   0  0  0  0  0  0  0  0  0  0  0  0
  150.5973  142.3341  157.1485 H   0  0  0  0  0  0  0  0  0  0  0  0
  151.0179  144.5488  158.1875 H   0  0  0  0  0  0  0  0  0  0  0  0
  152.7462  144.7880  159.9614 H   0  0  0  0  0  0  0  0  0  0  0  0
  154.0581  142.8052  160.6962 H   0  0  0  0  0  0  0  0  0  0  0  0
  153.6433  140.5856  159.6649 H   0  0  0  0  0  0  0  0  0  0  0  0
  150.9672  138.3319  155.7510 H   0  0  0  0  0  0  0  0  0  0  0  0
  1  2  2  0  0  0  0
  2  3  1  0  0  0  0
  2 33  1  0  0  0  0
  3  4  2  0  0  0  0
  4  9  1  0  0  0  0
  4  5  1  0  0  0  0
  5  6  1  0  0  0  0
  5 57  1  0  0  0  0
  6  7  2  0  0  0  0
  6 39  1  0  0  0  0
  7  8  1  0  0  0  0
  8 12  1  0  0  0  0
  8  9  2  0  0  0  0
  9 10  1  0  0  0  0
 10 11  2  0  0  0  0
 11 12  1  0  0  0  0
 11 40  1  0  0  0  0
 12 13  1  0  0  0  0
 13 32  1  0  0  0  0
 13 14  1  0  0  0  0
 13 41  1  0  0  0  0
 14 15  1  0  0  0  0
 15 16  1  0  0  0  0
 15 26  1  0  0  0  0
 15 42  1  0  0  0  0
 16 17  1  0  0  0  0
 16 43  1  0  0  0  0
 16 44  1  0  0  0  0
 17 18  1  0  0  0  0
 18 19  2  0  0  0  0
 18 20  1  0  0  0  0
 20 25  1  0  0  0  0
 20 21  2  0  0  0  0
 21 22  1  0  0  0  0
 21 45  1  0  0  0  0
 22 23  2  0  0  0  0
 22 46  1  0  0  0  0
 23 24  1  0  0  0  0
 23 47  1  0  0  0  0
 24 25  2  0  0  0  0
 24 48  1  0  0  0  0
 25 49  1  0  0  0  0
 26 32  1  0  0  0  0
 26 27  1  0  0  0  0
 26 50  1  0  0  0  0
 27 28  1  0  0  0  0
 28 29  2  0  0  0  0
 28 30  2  0  0  0  0
 28 31  1  0  0  0  0
 31 32  1  0  0  0  0
 32 51  1  0  0  0  0
 33 38  1  0  0  0  0
 33 34  2  0  0  0  0
 34 35  1  0  0  0  0
 34 52  1  0  0  0  0
 35 36  2  0  0  0  0
 35 53  1  0  0  0  0
 36 37  1  0  0  0  0
 36 54  1  0  0  0  0
 37 38  2  0  0  0  0
 37 55  1  0  0  0  0
 38 56  1  0  0  0  0
M  END
> <s_m_source_file>
AV-unprocessed.smi

> <i_m_source_file_index>
1

> <i_lp_mmshare_version>
43012

> <i_f3d_flags>
0

> <s_epik_input>
W2NIXTFbY0hdW2NIXVtjSF1bY0hdYzFDKD1PKVtOSF1jKG5bY0hdbjIpYyhjMjMpbltjSF1uM1tDQEBIXShbQ0BIXShbQ0BIXTQ1KU9TKE81KSg9Tyk9TylPW0NASF00W0NIMl1PQyg9TyljNltjSF1bY0hdW2NIXVtjSF1bY0hdNg==

> <s_epik_cmdline>
J2VwaWtfcHl0aG9uJywgJy1waCcsICc3LjAnLCAnLXRuJywgJzgnLCAnLW1hJywgJzIwMCcsICctbWV0YWxfYmluZGluZycsICctaW1hZScsICc8aW5maWxlLm1hZT4nLCAnLW9tYWUnLCAnPG91dGZpbGUubWFlPic=

> <r_epik_Ionization_Penalty>
0.122545

> <r_epik_Ionization_Penalty_Charging>
0.122545

> <r_epik_Ionization_Penalty_Neutral>
7.8935e-16

> <r_epik_State_Penalty>
2.69178

> <r_epik_Charging_Adjusted_Penalty>
2.81433

> <i_epik_Tot_Q>
0

> <i_epik_Tot_abs_Q>
0

> <r_epik_Metal_State_Penalty>
3.02665

> <b_epik_Metal_Only>
0

> <s_epik_Chemistry_Notes>
This compound has an ester and may undergo hydrolysis at high or low pH. This compound contains an acetal/aminal-like group ( X-CH(R)-Y where X, Y are N, S, or O) that may be acid/base labile, releasing an aldehyde.

> <s_lp_Force_Field>
OPLS_2005

> <r_lp_Energy>
59.7171

> <b_lp_Chiralities_Consistent>
1

> <s_lp_Variant>
AV-unprocessed.smi:1-11

> <Gold.Version>
5.8.1

> <Gold.Id.Protein>
6NUR|6NUR_protein|mol2

> <Gold.PLP.Fitness>
49.8210

> <Gold.PLP.PLP>
-46.9989

> <Gold.PLP.part.hbond>
-3.0000

> <Gold.PLP.part.metal>
0.0000

> <Gold.PLP.part.buried>
-4.5949

> <Gold.PLP.part.nonpolar>
-38.0030

> <Gold.PLP.part.repulsive>
0.0821

> <Gold.PLP.ligand.clash>
0.0000

> <Gold.PLP.ligand.torsion>
3.1879

> <Gold.PLP.Chemscore.Hbond>
2.0072

> <Gold.PLP.Chemscore.CHOScore>
1.0000

> <Gold.PLP.Chemscore.Metal>
0.0000

> <Gold.Chemscore.Hbonds>
donor molecule, donor type, donor heavy atom, donor atom, acceptor molecule, acceptor atom, score
      P1  H  6896  6908       L1    29  0.23
      P1  H  6931  6943       L1    10  0.06
      P1  H  6934  6947       L1    10  0.03
      P1  H  7997  8009       L1     1  1.00

> <Gold.PLP.Chemscore.Internal.Correction>
0.1765

> <Gold.Rescore>
     Score         DG    S(hbond)    S(metal)    S(lipo)     H(rot)  DE(clash)    DE(int)     intcor
     12.74     -19.78       1.90        0.00     114.76       2.13       0.00       7.03       ----

> <Gold.Chemscore.Fitness>
12.7398

> <Gold.Chemscore.DG>
-19.7779

> <Gold.Chemscore.ZeroCoef>
-5.4800

> <Gold.Chemscore.Hbond>
1.8960

> <Gold.Chemscore.Metal>
0.0000

> <Gold.Chemscore.Lipo>
114.7575

> <Gold.Chemscore.Internal_Hbond>
0.0000

> <Gold.Chemscore.DEClash>
0.0047

> <Gold.Chemscore.DEInternal>
7.0334

> <Gold.Chemscore.Rot>
2.1333

> <Gold.Chemscore.Internal.Correction>
   9.000000E+99

> <Gold.Chemscore.Hbonds>
donor molecule, donor type, donor heavy atom, donor atom, acceptor molecule, acceptor atom, score
      P1  H  6896  6908       L1    29  0.13
      P1  H  6931  6943       L1    10  0.04
      P1  H  7997  8009       L1     1  1.00

> <Gold.Chemscore.Hbond.Weighted>
-6.3327

> <Gold.Chemscore.Metal.Weighted>
-0.0000

> <Gold.Chemscore.Lipo.Weighted>
-13.4266

> <Gold.Chemscore.Internal_Hbond.Weighted>
0.0000

> <Gold.Chemscore.DEClash.Weighted>
0.0047

> <Gold.Chemscore.DEInternal.Weighted>
7.0334

> <Gold.Chemscore.Rot.Weighted>
5.4614

> <Gold.Chemscore.Internal.Correction.Weighted>
   9.000000E+99

> <Gold.Protein.RotatedTorsions>
[ 6907 6896 6895 6894 ] final  146.17 input  -60.11 | X-H torsion
[ 7974 7965 7964 7962 ] final -111.34 input  175.53 | X-H torsion
[ 8008 7997 7996 7995 ] final -176.79 input   59.86 | X-H torsion
[ 10167 10162 10161 10158 ] final -129.18 input  -65.29 | X-H torsion
[ 10718 10713 10712 10709 ] final -107.48 input   66.30 | X-H torsion
[ 10763 10752 10751 10750 ] final   25.09 input  -60.55 | X-H torsion
[ 11005 11000 10999 10996 ] final  159.09 input  -57.11 | X-H torsion

> <Gold.Protein.ActiveResidues>
 VAL166  LYS551  ARG553  GLY616  TRP617  ASP618  TYR619  PRO620  LYS621  CYS622 
 ASP623  PHE694  ASN695  SER759  ASP760  ASP761  ALA762  ILE779  LEU786  VAL792 
 PHE793  MET794  SER795  GLU796  ALA797  LYS798  CYS799  TRP800  GLU811  SER814 

> <Gold.Protein.RotatedAtoms>
  152.1714  133.4646  159.4910 H   0  0  0  0  0  0  0  0  0  0  0  0  # atno 6907 bound_to 6896
  150.6920  134.1948  159.4308 H   0  0  0  0  0  0  0  0  0  0  0  0  # atno 6908 bound_to 6896
  151.9855  135.0006  160.0610 H   0  0  0  0  0  0  0  0  0  0  0  0  # atno 6909 bound_to 6896
  145.1573  140.8860  143.3611 H   0  0  0  0  0  0  0  0  0  0  0  0  # atno 7974 bound_to 7965
  155.9991  140.1217  157.0565 H   0  0  0  0  0  0  0  0  0  0  0  0  # atno 8008 bound_to 7997
  154.4236  140.1110  156.5740 H   0  0  0  0  0  0  0  0  0  0  0  0  # atno 8009 bound_to 7997
  155.6237  140.3472  155.4662 H   0  0  0  0  0  0  0  0  0  0  0  0  # atno 8010 bound_to 7997
  139.9425  143.6147  152.2499 H   0  0  0  0  0  0  0  0  0  0  0  0  # atno 10167 bound_to 10162
  156.0439  130.5665  150.7827 H   0  0  0  0  0  0  0  0  0  0  0  0  # atno 10718 bound_to 10713
  153.0717  135.6591  154.0233 H   0  0  0  0  0  0  0  0  0  0  0  0  # atno 10763 bound_to 10752
  153.9877  135.2949  155.3416 H   0  0  0  0  0  0  0  0  0  0  0  0  # atno 10764 bound_to 10752
  154.7093  135.5212  153.8712 H   0  0  0  0  0  0  0  0  0  0  0  0  # atno 10765 bound_to 10752
  140.1928  134.8394  157.2931 H   0  0  0  0  0  0  0  0  0  0  0  0  # atno 11005 bound_to 11000
  145.0368  139.3294  143.5997 LP  0  0  0  0  0  0  0  0  0  0  0  0  # atno 17320 bound_to 7965
  146.3487  139.9726  142.8704 LP  0  0  0  0  0  0  0  0  0  0  0  0  # atno 17321 bound_to 7965
  139.6693  144.7661  151.1813 LP  0  0  0  0  0  0  0  0  0  0  0  0  # atno 17342 bound_to 10162
  140.7607  143.5889  150.8817 LP  0  0  0  0  0  0  0  0  0  0  0  0  # atno 17343 bound_to 10162
  157.5290  131.0935  150.9980 LP  0  0  0  0  0  0  0  0  0  0  0  0  # atno 17370 bound_to 10713
  157.0291  130.5704  149.5341 LP  0  0  0  0  0  0  0  0  0  0  0  0  # atno 17371 bound_to 10713
  140.2140  134.4104  155.7598 LP  0  0  0  0  0  0  0  0  0  0  0  0  # atno 17394 bound_to 11000
  141.2226  133.7132  156.8384 LP  0  0  0  0  0  0  0  0  0  0  0  0  # atno 17395 bound_to 11000

$$$$
