AV-unprocessed.smi:3057|AV-procd|sdf|11664|dock3
  -GOLD-   2272017 73D 1   1.00000     0.00000
 Structure written by MMmdl.
 40 42  0  0  0  0  0  0  0  0  1 V2000
  152.9017  137.1556  164.4870 C   0  0  0  0  0  0  0  0  0  0  0  0
  154.3792  136.8492  164.1739 C   0  0  2  0  0  0  0  0  0  0  0  0
  155.2955  137.2054  165.3588 C   0  0  0  0  0  0  0  0  0  0  0  0
  155.8106  138.6162  165.0379 C   0  0  0  0  0  0  0  0  0  0  0  0
  155.6518  138.6874  163.5275 C   0  0  0  0  0  0  0  0  0  0  0  0
  156.2228  139.5207  162.8257 O   0  0  0  0  0  0  0  0  0  0  0  0
  154.8706  137.6882  163.0985 N   0  0  0  0  0  0  0  0  0  0  0  0
  154.7397  137.1938  161.7253 C   0  0  2  0  0  0  0  0  0  0  0  0
  153.7081  138.0155  160.9320 C   0  0  0  0  0  0  0  0  0  0  0  0
  152.6918  137.4927  160.4719 O   0  0  0  0  0  0  0  0  0  0  0  0
  154.0022  139.3134  160.7650 N   0  0  0  0  0  0  0  0  0  0  0  0
  153.1891  140.2747  160.0257 C   0  0  0  0  0  0  0  0  0  0  0  0
  153.9186  141.6071  159.7557 C   0  0  0  0  0  0  0  0  0  0  0  0
  152.9866  142.8024  159.6456 C   0  0  0  0  0  0  0  0  0  0  0  0
  152.8514  143.5000  158.4259 C   0  0  0  0  0  0  0  0  0  0  0  0
  151.9907  144.6133  158.3806 C   0  0  0  0  0  0  0  0  0  0  0  0
  151.2973  144.9814  159.5495 C   0  0  0  0  0  0  0  0  0  0  0  0
  151.4957  144.2158  160.7160 C   0  0  0  0  0  0  0  0  0  0  0  0
  152.3214  143.1482  160.7708 N   0  0  0  0  0  0  0  0  0  0  0  0
  154.2612  135.7234  161.8333 C   0  0  0  0  0  0  0  0  0  0  0  0
  154.5839  135.1792  163.5337 S   0  0  0  0  0  0  0  0  0  0  0  0
  152.7620  138.1994  164.7700 H   0  0  0  0  0  0  0  0  0  0  0  0
  152.5423  136.5389  165.3111 H   0  0  0  0  0  0  0  0  0  0  0  0
  152.2577  136.9592  163.6296 H   0  0  0  0  0  0  0  0  0  0  0  0
  154.7793  137.1617  166.3184 H   0  0  0  0  0  0  0  0  0  0  0  0
  156.1393  136.5157  165.4130 H   0  0  0  0  0  0  0  0  0  0  0  0
  155.1899  139.3830  165.5022 H   0  0  0  0  0  0  0  0  0  0  0  0
  156.8460  138.7609  165.3475 H   0  0  0  0  0  0  0  0  0  0  0  0
  155.7150  137.2352  161.2367 H   0  0  0  0  0  0  0  0  0  0  0  0
  154.8582  139.6613  161.1723 H   0  0  0  0  0  0  0  0  0  0  0  0
  152.8412  139.8342  159.0903 H   0  0  0  0  0  0  0  0  0  0  0  0
  152.2984  140.4676  160.6242 H   0  0  0  0  0  0  0  0  0  0  0  0
  154.6410  141.7964  160.5505 H   0  0  0  0  0  0  0  0  0  0  0  0
  154.5019  141.5259  158.8378 H   0  0  0  0  0  0  0  0  0  0  0  0
  153.4011  143.1955  157.5473 H   0  0  0  0  0  0  0  0  0  0  0  0
  151.8670  145.1752  157.4667 H   0  0  0  0  0  0  0  0  0  0  0  0
  150.6290  145.8298  159.5520 H   0  0  0  0  0  0  0  0  0  0  0  0
  150.9788  144.4688  161.6300 H   0  0  0  0  0  0  0  0  0  0  0  0
  153.1880  135.6278  161.6622 H   0  0  0  0  0  0  0  0  0  0  0  0
  154.7660  135.0740  161.1178 H   0  0  0  0  0  0  0  0  0  0  0  0
  1  2  1  0  0  0  0
  1 22  1  0  0  0  0
  1 23  1  0  0  0  0
  1 24  1  0  0  0  0
  2  7  1  0  0  0  0
  2 21  1  0  0  0  0
  2  3  1  0  0  0  0
  3  4  1  0  0  0  0
  3 25  1  0  0  0  0
  3 26  1  0  0  0  0
  4  5  1  0  0  0  0
  4 27  1  0  0  0  0
  4 28  1  0  0  0  0
  5  6  2  0  0  0  0
  5  7  1  0  0  0  0
  7  8  1  0  0  0  0
  8  9  1  0  0  0  0
  8 20  1  0  0  0  0
  8 29  1  0  0  0  0
  9 10  2  0  0  0  0
  9 11  1  0  0  0  0
 11 12  1  0  0  0  0
 11 30  1  0  0  0  0
 12 13  1  0  0  0  0
 12 31  1  0  0  0  0
 12 32  1  0  0  0  0
 13 14  1  0  0  0  0
 13 33  1  0  0  0  0
 13 34  1  0  0  0  0
 14 19  1  0  0  0  0
 14 15  2  0  0  0  0
 15 16  1  0  0  0  0
 15 35  1  0  0  0  0
 16 17  2  0  0  0  0
 16 36  1  0  0  0  0
 17 18  1  0  0  0  0
 17 37  1  0  0  0  0
 18 19  2  0  0  0  0
 18 38  1  0  0  0  0
 20 21  1  0  0  0  0
 20 39  1  0  0  0  0
 20 40  1  0  0  0  0
M  END
> <s_m_source_file>
AV-unprocessed.smi

> <i_m_source_file_index>
3057

> <i_lp_mmshare_version>
43012

> <i_f3d_flags>
0

> <s_epik_input>
W0NIMl0xW0NIMl1DKD1PKU4oW0NAQF0xMltDSDNdKVtDQEhdKFtDSDJdUzIpQyg9TylbTkhdW0NIMl1bQ0gyXWMzW2NIXVtjSF1bY0hdW2NIXW4z

> <s_epik_cmdline>
J2VwaWtfcHl0aG9uJywgJy1waCcsICc3LjAnLCAnLXRuJywgJzgnLCAnLW1hJywgJzIwMCcsICctbWV0YWxfYmluZGluZycsICctaW1hZScsICc8aW5maWxlLm1hZT4nLCAnLW9tYWUnLCAnPG91dGZpbGUubWFlPic=

> <r_epik_Ionization_Penalty>
0.0249631

> <r_epik_Ionization_Penalty_Charging>
0

> <r_epik_Ionization_Penalty_Neutral>
0.0249631

> <r_epik_State_Penalty>
0.0202943

> <r_epik_Charging_Adjusted_Penalty>
0.0202943

> <i_epik_Tot_Q>
0

> <i_epik_Tot_abs_Q>
0

> <r_epik_Metal_State_Penalty>
0.0194661

> <b_epik_Metal_Only>
0

> <s_lp_Force_Field>
OPLS_2005

> <r_lp_Energy>
26.6501

> <b_lp_Chiralities_Consistent>
1

> <s_lp_Variant>
AV-unprocessed.smi:3057-4

> <Gold.Version>
5.8.1

> <Gold.Id.Protein>
6NUR|6NUR_protein|mol2

> <Gold.PLP.Fitness>
42.8373

> <Gold.PLP.PLP>
-43.3707

> <Gold.PLP.part.hbond>
0.0000

> <Gold.PLP.part.metal>
0.0000

> <Gold.PLP.part.buried>
-5.7818

> <Gold.PLP.part.nonpolar>
-37.8006

> <Gold.PLP.part.repulsive>
0.0939

> <Gold.PLP.ligand.clash>
0.0000

> <Gold.PLP.ligand.torsion>
0.2766

> <Gold.PLP.Chemscore.Hbond>
0.0000

> <Gold.PLP.Chemscore.CHOScore>
0.0000

> <Gold.PLP.Chemscore.Metal>
0.0000

> <Gold.PLP.Chemscore.Internal.Correction>
0.0198

> <Gold.Rescore>
     Score         DG    S(hbond)    S(metal)    S(lipo)     H(rot)  DE(clash)    DE(int)     intcor
     15.92     -16.58       0.00        0.00     128.41       1.53       0.26       0.40       ----

> <Gold.Chemscore.Fitness>
15.9240

> <Gold.Chemscore.DG>
-16.5778

> <Gold.Chemscore.ZeroCoef>
-5.4800

> <Gold.Chemscore.Hbond>
0.0000

> <Gold.Chemscore.Metal>
0.0000

> <Gold.Chemscore.Lipo>
128.4149

> <Gold.Chemscore.Internal_Hbond>
0.0000

> <Gold.Chemscore.DEClash>
0.2576

> <Gold.Chemscore.DEInternal>
0.3961

> <Gold.Chemscore.Rot>
1.5339

> <Gold.Chemscore.Internal.Correction>
   9.000000E+99

> <Gold.Chemscore.Hbond.Weighted>
-0.0000

> <Gold.Chemscore.Metal.Weighted>
-0.0000

> <Gold.Chemscore.Lipo.Weighted>
-15.0245

> <Gold.Chemscore.Internal_Hbond.Weighted>
0.0000

> <Gold.Chemscore.DEClash.Weighted>
0.2576

> <Gold.Chemscore.DEInternal.Weighted>
0.3961

> <Gold.Chemscore.Rot.Weighted>
3.9267

> <Gold.Chemscore.Internal.Correction.Weighted>
   9.000000E+99

> <Gold.Protein.RotatedTorsions>
[ 6907 6896 6895 6894 ] final  -98.15 input  -60.11 | X-H torsion
[ 7974 7965 7964 7962 ] final   22.65 input  175.53 | X-H torsion
[ 8008 7997 7996 7995 ] final  -42.87 input   59.86 | X-H torsion
[ 10167 10162 10161 10158 ] final  -53.64 input  -65.29 | X-H torsion
[ 10718 10713 10712 10709 ] final  132.93 input   66.30 | X-H torsion
[ 10763 10752 10751 10750 ] final   43.98 input  -60.55 | X-H torsion
[ 11005 11000 10999 10996 ] final  168.91 input  -57.11 | X-H torsion

> <Gold.Protein.ActiveResidues>
 VAL166  LYS551  ARG553  GLY616  TRP617  ASP618  TYR619  PRO620  LYS621  CYS622 
 ASP623  PHE694  ASN695  SER759  ASP760  ASP761  ALA762  ILE779  LEU786  VAL792 
 PHE793  MET794  SER795  GLU796  ALA797  LYS798  CYS799  TRP800  GLU811  SER814 

> <Gold.Protein.RotatedAtoms>
  150.7038  134.1239  159.4044 H   0  0  0  0  0  0  0  0  0  0  0  0  # atno 6907 bound_to 6896
  151.9225  135.0289  160.0532 H   0  0  0  0  0  0  0  0  0  0  0  0  # atno 6908 bound_to 6896
  152.2244  133.4973  159.5217 H   0  0  0  0  0  0  0  0  0  0  0  0  # atno 6909 bound_to 6896
  146.2019  139.7855  142.8755 H   0  0  0  0  0  0  0  0  0  0  0  0  # atno 7974 bound_to 7965
  154.3998  140.1462  156.3426 H   0  0  0  0  0  0  0  0  0  0  0  0  # atno 8008 bound_to 7997
  155.8342  140.3464  155.5570 H   0  0  0  0  0  0  0  0  0  0  0  0  # atno 8009 bound_to 7997
  155.8156  140.0890  157.1869 H   0  0  0  0  0  0  0  0  0  0  0  0  # atno 8010 bound_to 7997
  140.6474  143.2543  151.4822 H   0  0  0  0  0  0  0  0  0  0  0  0  # atno 10167 bound_to 10162
  157.4822  131.1086  150.9666 H   0  0  0  0  0  0  0  0  0  0  0  0  # atno 10718 bound_to 10713
  152.9850  135.6084  154.3200 H   0  0  0  0  0  0  0  0  0  0  0  0  # atno 10763 bound_to 10752
  154.2910  135.2775  155.2656 H   0  0  0  0  0  0  0  0  0  0  0  0  # atno 10764 bound_to 10752
  154.4952  135.5881  153.6545 H   0  0  0  0  0  0  0  0  0  0  0  0  # atno 10765 bound_to 10752
  140.2922  134.7664  157.3848 H   0  0  0  0  0  0  0  0  0  0  0  0  # atno 11005 bound_to 11000
  145.3453  141.0296  143.3369 LP  0  0  0  0  0  0  0  0  0  0  0  0  # atno 17320 bound_to 7965
  144.8704  139.5047  143.6770 LP  0  0  0  0  0  0  0  0  0  0  0  0  # atno 17321 bound_to 7965
  139.5685  144.1984  152.1801 LP  0  0  0  0  0  0  0  0  0  0  0  0  # atno 17342 bound_to 10162
  140.1273  144.5320  150.6824 LP  0  0  0  0  0  0  0  0  0  0  0  0  # atno 17343 bound_to 10162
  157.0395  130.5743  149.5354 LP  0  0  0  0  0  0  0  0  0  0  0  0  # atno 17370 bound_to 10713
  156.0128  130.5220  150.8041 LP  0  0  0  0  0  0  0  0  0  0  0  0  # atno 17371 bound_to 10713
  140.1185  134.5251  155.8204 LP  0  0  0  0  0  0  0  0  0  0  0  0  # atno 17394 bound_to 11000
  141.2144  133.6748  156.6821 LP  0  0  0  0  0  0  0  0  0  0  0  0  # atno 17395 bound_to 11000

$$$$
