AV-unprocessed.smi:1904|AV-procd|sdf|7723|dock7
  -GOLD-   22720 9463D 1   1.00000     0.00000
 Structure written by MMmdl.
 50 51  0  0  0  0  0  0  0  0  2 V2000
  152.6988  138.1662  154.8875 C   0  0  0  0  0  0  0  0  0  0  0  0
  151.9519  139.1666  155.7224 C   0  0  0  0  0  0  0  0  0  0  0  0
  152.4893  139.5966  156.8514 N   0  0  0  0  0  0  0  0  0  0  0  0
  151.5851  140.4593  157.3565 N   0  0  0  0  0  0  0  0  0  0  0  0
  151.8646  141.1275  158.6128 C   0  0  0  0  0  0  0  0  0  0  0  0
  150.4697  140.5681  156.5488 C   0  0  0  0  0  0  0  0  0  0  0  0
  149.3166  141.4525  156.8994 C   0  0  0  0  0  0  0  0  0  0  0  0
  150.6729  139.7464  155.4722 C   0  0  0  0  0  0  0  0  0  0  0  0
  149.7650  139.4932  154.2955 C   0  0  0  0  0  0  0  0  0  0  0  0
  148.4902  138.8031  154.7794 C   0  0  0  0  0  0  0  0  0  0  0  0
  147.7386  139.3776  155.5672 O   0  0  0  0  0  0  0  0  0  0  0  0
  148.2681  137.5623  154.3195 N   0  0  0  0  0  0  0  0  0  0  0  0
  147.1490  136.7156  154.7122 C   0  0  0  0  0  0  0  0  0  0  0  0
  145.9924  136.8231  153.6999 C   0  0  0  0  0  0  0  0  0  0  0  0
  146.0444  135.7676  152.6568 N   0  3  2  0  0  0  0  0  0  0  0  0
  144.8774  135.8328  151.7393 C   0  0  0  0  0  0  0  0  0  0  0  0
  145.0198  134.8292  150.5828 C   0  0  0  0  0  0  0  0  0  0  0  0
  145.2075  133.3957  151.1059 C   0  0  1  0  0  0  0  0  0  0  0  0
  145.3868  132.3915  149.9585 C   0  0  0  0  0  0  0  0  0  0  0  0
  146.3965  133.3656  152.0805 C   0  0  0  0  0  0  0  0  0  0  0  0
  146.2235  134.3976  153.2077 C   0  0  0  0  0  0  0  0  0  0  0  0
  152.6682  138.4360  153.8320 H   0  0  0  0  0  0  0  0  0  0  0  0
  152.2614  137.1730  154.9900 H   0  0  0  0  0  0  0  0  0  0  0  0
  153.7474  138.0992  155.1795 H   0  0  0  0  0  0  0  0  0  0  0  0
  151.6691  142.1955  158.5134 H   0  0  0  0  0  0  0  0  0  0  0  0
  152.9081  140.9884  158.8989 H   0  0  0  0  0  0  0  0  0  0  0  0
  151.2246  140.7188  159.3949 H   0  0  0  0  0  0  0  0  0  0  0  0
  148.4644  141.2721  156.2447 H   0  0  0  0  0  0  0  0  0  0  0  0
  149.5946  142.5024  156.8087 H   0  0  0  0  0  0  0  0  0  0  0  0
  148.9882  141.2760  157.9239 H   0  0  0  0  0  0  0  0  0  0  0  0
  149.4910  140.4197  153.7904 H   0  0  0  0  0  0  0  0  0  0  0  0
  150.2566  138.8777  153.5410 H   0  0  0  0  0  0  0  0  0  0  0  0
  148.9369  137.1693  153.6727 H   0  0  0  0  0  0  0  0  0  0  0  0
  147.4764  135.6794  154.8139 H   0  0  0  0  0  0  0  0  0  0  0  0
  146.8329  137.0410  155.7024 H   0  0  0  0  0  0  0  0  0  0  0  0
  145.0279  136.7924  154.2095 H   0  0  0  0  0  0  0  0  0  0  0  0
  146.0526  137.7990  153.2155 H   0  0  0  0  0  0  0  0  0  0  0  0
  143.9616  135.6361  152.2992 H   0  0  0  0  0  0  0  0  0  0  0  0
  144.7868  136.8385  151.3272 H   0  0  0  0  0  0  0  0  0  0  0  0
  144.1379  134.8802  149.9431 H   0  0  0  0  0  0  0  0  0  0  0  0
  145.8692  135.1109  149.9589 H   0  0  0  0  0  0  0  0  0  0  0  0
  144.3086  133.1136  151.6565 H   0  0  0  0  0  0  0  0  0  0  0  0
  146.2732  132.6197  149.3659 H   0  0  0  0  0  0  0  0  0  0  0  0
  144.5265  132.4032  149.2887 H   0  0  0  0  0  0  0  0  0  0  0  0
  145.4937  131.3754  150.3390 H   0  0  0  0  0  0  0  0  0  0  0  0
  146.5022  132.3685  152.5096 H   0  0  0  0  0  0  0  0  0  0  0  0
  147.3230  133.5686  151.5412 H   0  0  0  0  0  0  0  0  0  0  0  0
  147.0995  134.3563  153.8534 H   0  0  0  0  0  0  0  0  0  0  0  0
  145.3633  134.1373  153.8263 H   0  0  0  0  0  0  0  0  0  0  0  0
  146.8569  135.9669  152.0906 H   0  0  0  0  0  0  0  0  0  0  0  0
  1  2  1  0  0  0  0
  1 22  1  0  0  0  0
  1 23  1  0  0  0  0
  1 24  1  0  0  0  0
  2  8  1  0  0  0  0
  2  3  2  0  0  0  0
  3  4  1  0  0  0  0
  4  5  1  0  0  0  0
  4  6  1  0  0  0  0
  5 25  1  0  0  0  0
  5 26  1  0  0  0  0
  5 27  1  0  0  0  0
  6  7  1  0  0  0  0
  6  8  2  0  0  0  0
  7 28  1  0  0  0  0
  7 29  1  0  0  0  0
  7 30  1  0  0  0  0
  8  9  1  0  0  0  0
  9 10  1  0  0  0  0
  9 31  1  0  0  0  0
  9 32  1  0  0  0  0
 10 11  2  0  0  0  0
 10 12  1  0  0  0  0
 12 13  1  0  0  0  0
 12 33  1  0  0  0  0
 13 14  1  0  0  0  0
 13 34  1  0  0  0  0
 13 35  1  0  0  0  0
 14 15  1  0  0  0  0
 14 36  1  0  0  0  0
 14 37  1  0  0  0  0
 15 21  1  0  0  0  0
 15 16  1  0  0  0  0
 15 50  1  0  0  0  0
 16 17  1  0  0  0  0
 16 38  1  0  0  0  0
 16 39  1  0  0  0  0
 17 18  1  0  0  0  0
 17 40  1  0  0  0  0
 17 41  1  0  0  0  0
 18 19  1  0  0  0  0
 18 20  1  0  0  0  0
 18 42  1  0  0  0  0
 19 43  1  0  0  0  0
 19 44  1  0  0  0  0
 19 45  1  0  0  0  0
 20 21  1  0  0  0  0
 20 46  1  0  0  0  0
 20 47  1  0  0  0  0
 21 48  1  0  0  0  0
 21 49  1  0  0  0  0
M  CHG  1  15   1
M  END
> <s_m_source_file>
AV-unprocessed.smi

> <i_m_source_file_index>
1904

> <i_lp_mmshare_version>
43012

> <i_f3d_flags>
0

> <s_epik_input>
W0NIM11jMW5uKFtDSDNdKWMoW0NIM10pYzFbQ0gyXUMoPU8pW05IXVtDSDJdW0NIMl1OMltDSDJdW0NIMl1bQ0hdKFtDSDNdKVtDSDJdW0NIMl0y

> <s_epik_cmdline>
J2VwaWtfcHl0aG9uJywgJy1waCcsICc3LjAnLCAnLXRuJywgJzgnLCAnLW1hJywgJzIwMCcsICctbWV0YWxfYmluZGluZycsICctaW1hZScsICc8aW5maWxlLm1hZT4nLCAnLW9tYWUnLCAnPG91dGZpbGUubWFlPic=

> <r_lp_tautomer_probability>
1

> <r_epik_Ionization_Penalty>
0.00374255

> <r_epik_Ionization_Penalty_Charging>
0.00158211

> <r_epik_Ionization_Penalty_Neutral>
0.00216044

> <r_epik_State_Penalty>
-0

> <r_epik_Charging_Adjusted_Penalty>
0.00158211

> <i_epik_Tot_Q>
1

> <i_epik_Tot_abs_Q>
1

> <r_epik_Metal_State_Penalty>
-0

> <b_epik_Metal_Only>
0

> <s_lp_Force_Field>
OPLS_2005

> <r_lp_Energy>
10.069

> <b_lp_Chiralities_Consistent>
1

> <s_lp_Variant>
AV-unprocessed.smi:1904-1

> <Gold.Version>
5.8.1

> <Gold.Id.Protein>
6NUR|6NUR_protein|mol2

> <Gold.PLP.Fitness>
46.8431

> <Gold.PLP.PLP>
-36.6272

> <Gold.PLP.part.hbond>
-3.0000

> <Gold.PLP.part.metal>
0.0000

> <Gold.PLP.part.buried>
-2.8368

> <Gold.PLP.part.nonpolar>
-31.1423

> <Gold.PLP.part.repulsive>
0.0023

> <Gold.PLP.ligand.clash>
0.0000

> <Gold.PLP.ligand.torsion>
0.4667

> <Gold.PLP.Chemscore.Hbond>
3.7040

> <Gold.PLP.Chemscore.CHOScore>
0.0000

> <Gold.PLP.Chemscore.Metal>
0.0000

> <Gold.Chemscore.Hbonds>
donor molecule, donor type, donor heavy atom, donor atom, acceptor molecule, acceptor atom, score
      L1  H    12    33       P1  7948  0.80
      L1  H    15    50       P1  7948  1.62
      P1  H  7997  8010       L1     3  1.00

> <Gold.PLP.Chemscore.Internal.Correction>
0.0372

> <Gold.Rescore>
     Score         DG    S(hbond)    S(metal)    S(lipo)     H(rot)  DE(clash)    DE(int)     intcor
     19.90     -20.93       2.65        0.00      91.57       1.61       0.44       0.59       ----

> <Gold.Chemscore.Fitness>
19.8985

> <Gold.Chemscore.DG>
-20.9288

> <Gold.Chemscore.ZeroCoef>
-5.4800

> <Gold.Chemscore.Hbond>
2.6549

> <Gold.Chemscore.Metal>
0.0000

> <Gold.Chemscore.Lipo>
91.5711

> <Gold.Chemscore.Internal_Hbond>
0.0000

> <Gold.Chemscore.DEClash>
0.4369

> <Gold.Chemscore.DEInternal>
0.5934

> <Gold.Chemscore.Rot>
1.6142

> <Gold.Chemscore.Internal.Correction>
   9.000000E+99

> <Gold.Chemscore.Hbonds>
donor molecule, donor type, donor heavy atom, donor atom, acceptor molecule, acceptor atom, score
      L1  H    12    33       P1  7948  0.74
      L1  H    15    50       P1  7948  0.78
      P1  H  7997  8010       L1     3  0.69

> <Gold.Chemscore.Hbond.Weighted>
-8.8674

> <Gold.Chemscore.Metal.Weighted>
-0.0000

> <Gold.Chemscore.Lipo.Weighted>
-10.7138

> <Gold.Chemscore.Internal_Hbond.Weighted>
0.0000

> <Gold.Chemscore.DEClash.Weighted>
0.4369

> <Gold.Chemscore.DEInternal.Weighted>
0.5934

> <Gold.Chemscore.Rot.Weighted>
4.1324

> <Gold.Chemscore.Internal.Correction.Weighted>
   9.000000E+99

> <Gold.Protein.RotatedTorsions>
[ 6907 6896 6895 6894 ] final   63.02 input  -60.11 | X-H torsion
[ 7974 7965 7964 7962 ] final  -49.78 input  175.53 | X-H torsion
[ 8008 7997 7996 7995 ] final   66.62 input   59.86 | X-H torsion
[ 10167 10162 10161 10158 ] final   57.43 input  -65.29 | X-H torsion
[ 10718 10713 10712 10709 ] final  -82.84 input   66.30 | X-H torsion
[ 10763 10752 10751 10750 ] final  111.45 input  -60.55 | X-H torsion
[ 11005 11000 10999 10996 ] final   32.71 input  -57.11 | X-H torsion

> <Gold.Protein.ActiveResidues>
 VAL166  LYS551  ARG553  GLY616  TRP617  ASP618  TYR619  PRO620  LYS621  CYS622 
 ASP623  PHE694  ASN695  SER759  ASP760  ASP761  ALA762  ILE779  LEU786  VAL792 
 PHE793  MET794  SER795  GLU796  ALA797  LYS798  CYS799  TRP800  GLU811  SER814 

> <Gold.Protein.RotatedAtoms>
  152.4219  134.5939  159.9981 H   0  0  0  0  0  0  0  0  0  0  0  0  # atno 6907 bound_to 6896
  151.6086  133.3343  159.3070 H   0  0  0  0  0  0  0  0  0  0  0  0  # atno 6908 bound_to 6896
  150.8108  134.7299  159.6751 H   0  0  0  0  0  0  0  0  0  0  0  0  # atno 6909 bound_to 6896
  145.9369  140.7698  142.9571 H   0  0  0  0  0  0  0  0  0  0  0  0  # atno 7974 bound_to 7965
  155.6802  140.3496  155.4852 H   0  0  0  0  0  0  0  0  0  0  0  0  # atno 8008 bound_to 7997
  155.9613  140.1138  157.0916 H   0  0  0  0  0  0  0  0  0  0  0  0  # atno 8009 bound_to 7997
  154.4144  140.1175  156.5169 H   0  0  0  0  0  0  0  0  0  0  0  0  # atno 8010 bound_to 7997
  140.1980  144.4017  150.6541 H   0  0  0  0  0  0  0  0  0  0  0  0  # atno 10167 bound_to 10162
  156.0027  130.4647  150.4166 H   0  0  0  0  0  0  0  0  0  0  0  0  # atno 10718 bound_to 10713
  153.4635  135.3716  155.2351 H   0  0  0  0  0  0  0  0  0  0  0  0  # atno 10763 bound_to 10752
  154.8757  135.3914  154.3896 H   0  0  0  0  0  0  0  0  0  0  0  0  # atno 10764 bound_to 10752
  153.4473  135.7085  153.6195 H   0  0  0  0  0  0  0  0  0  0  0  0  # atno 10765 bound_to 10752
  140.2707  134.3086  155.7829 H   0  0  0  0  0  0  0  0  0  0  0  0  # atno 11005 bound_to 11000
  144.6773  140.2218  143.7365 LP  0  0  0  0  0  0  0  0  0  0  0  0  # atno 17320 bound_to 7965
  145.8351  139.2104  143.1860 LP  0  0  0  0  0  0  0  0  0  0  0  0  # atno 17321 bound_to 7965
  140.6410  143.2203  151.6290 LP  0  0  0  0  0  0  0  0  0  0  0  0  # atno 17342 bound_to 10162
  139.5228  144.3150  152.0960 LP  0  0  0  0  0  0  0  0  0  0  0  0  # atno 17343 bound_to 10162
  157.2225  131.0485  151.2538 LP  0  0  0  0  0  0  0  0  0  0  0  0  # atno 17370 bound_to 10713
  157.3787  130.7220  149.6615 LP  0  0  0  0  0  0  0  0  0  0  0  0  # atno 17371 bound_to 10713
  141.2178  133.7465  156.9329 LP  0  0  0  0  0  0  0  0  0  0  0  0  # atno 17394 bound_to 11000
  140.1376  134.9315  157.2423 LP  0  0  0  0  0  0  0  0  0  0  0  0  # atno 17395 bound_to 11000

$$$$
