AV-unprocessed.smi:649|AV-procd|sdf|3180|dock8
  -GOLD-   22720 0103D 1   1.00000     0.00000
 Structure written by MMmdl.
 34 35  0  0  0  0  0  0  0  0  2 V2000
  150.9609  145.1822  159.3402 C   0  0  0  0  0  0  0  0  0  0  0  0
  151.7192  143.9020  159.6228 C   0  0  0  0  0  0  0  0  0  0  0  0
  152.5033  143.7803  160.7840 C   0  0  0  0  0  0  0  0  0  0  0  0
  153.2170  142.5933  161.0269 C   0  0  0  0  0  0  0  0  0  0  0  0
  153.1618  141.5156  160.1164 C   0  0  0  0  0  0  0  0  0  0  0  0
  153.9762  140.2729  160.4374 C   0  0  0  0  0  0  0  0  0  0  0  0
  152.3655  141.6305  158.9421 C   0  0  0  0  0  0  0  0  0  0  0  0
  152.2574  140.5320  157.8788 C   0  0  2  0  0  0  0  0  0  0  0  0
  151.2881  140.7948  156.8853 O   0  0  0  0  0  0  0  0  0  0  0  0
  152.0465  139.1083  158.4480 C   0  0  0  0  0  0  0  0  0  0  0  0
  151.6065  138.1490  157.4222 N   0  0  0  0  0  0  0  0  0  0  0  0
  150.4210  137.4410  157.6811 C   0  0  0  0  0  0  0  0  0  0  0  0
  149.9039  136.5628  156.8007 C   0  0  0  0  0  0  0  0  0  0  0  0
  148.4387  135.7146  157.1447 Cl  0  0  0  0  0  0  0  0  0  0  0  0
  150.6178  136.3522  155.5432 C   0  0  0  0  0  0  0  0  0  0  0  0
  150.1718  135.5589  154.7155 O   0  0  0  0  0  0  0  0  0  0  0  0
  151.7683  137.0586  155.3417 N   0  5  0  0  0  0  0  0  0  0  0  0
  152.2770  137.9502  156.2472 C   0  0  0  0  0  0  0  0  0  0  0  0
  153.3126  138.5807  156.0343 O   0  0  0  0  0  0  0  0  0  0  0  0
  151.6525  142.8298  158.7135 C   0  0  0  0  0  0  0  0  0  0  0  0
  150.8333  145.7734  160.2475 H   0  0  0  0  0  0  0  0  0  0  0  0
  149.9717  144.9617  158.9378 H   0  0  0  0  0  0  0  0  0  0  0  0
  151.5028  145.7845  158.6107 H   0  0  0  0  0  0  0  0  0  0  0  0
  152.5662  144.5965  161.4886 H   0  0  0  0  0  0  0  0  0  0  0  0
  153.8192  142.5179  161.9203 H   0  0  0  0  0  0  0  0  0  0  0  0
  153.3228  139.4490  160.7231 H   0  0  0  0  0  0  0  0  0  0  0  0
  154.6593  140.4538  161.2675 H   0  0  0  0  0  0  0  0  0  0  0  0
  154.5812  139.9640  159.5875 H   0  0  0  0  0  0  0  0  0  0  0  0
  153.2041  140.5212  157.3371 H   0  0  0  0  0  0  0  0  0  0  0  0
  151.5882  141.5226  156.3629 H   0  0  0  0  0  0  0  0  0  0  0  0
  152.9503  138.7578  158.9450 H   0  0  0  0  0  0  0  0  0  0  0  0
  151.2997  139.1435  159.2427 H   0  0  0  0  0  0  0  0  0  0  0  0
  149.9585  137.6630  158.6318 H   0  0  0  0  0  0  0  0  0  0  0  0
  151.0572  142.9382  157.8186 H   0  0  0  0  0  0  0  0  0  0  0  0
  1  2  1  0  0  0  0
  1 21  1  0  0  0  0
  1 22  1  0  0  0  0
  1 23  1  0  0  0  0
  2 20  1  0  0  0  0
  2  3  2  0  0  0  0
  3  4  1  0  0  0  0
  3 24  1  0  0  0  0
  4  5  2  0  0  0  0
  4 25  1  0  0  0  0
  5  6  1  0  0  0  0
  5  7  1  0  0  0  0
  6 26  1  0  0  0  0
  6 27  1  0  0  0  0
  6 28  1  0  0  0  0
  7  8  1  0  0  0  0
  7 20  2  0  0  0  0
  8  9  1  0  0  0  0
  8 10  1  0  0  0  0
  8 29  1  0  0  0  0
  9 30  1  0  0  0  0
 10 11  1  0  0  0  0
 10 31  1  0  0  0  0
 10 32  1  0  0  0  0
 11 18  1  0  0  0  0
 11 12  1  0  0  0  0
 12 13  2  0  0  0  0
 12 33  1  0  0  0  0
 13 14  1  0  0  0  0
 13 15  1  0  0  0  0
 15 16  2  0  0  0  0
 15 17  1  0  0  0  0
 17 18  1  0  0  0  0
 18 19  2  0  0  0  0
 20 34  1  0  0  0  0
M  CHG  1  17  -1
M  END
> <s_m_source_file>
AV-unprocessed.smi

> <i_m_source_file_index>
649

> <i_lp_mmshare_version>
43012

> <i_f3d_flags>
0

> <s_epik_input>
W0NIM11jMVtjSF1bY0hdYyhbQ0gzXSljKFtjSF0xKVtDQEhdKFtPSF0pW0NIMl1uMltjSF1jKENsKWMoPU8pW25IXWMyPU8=

> <s_epik_cmdline>
J2VwaWtfcHl0aG9uJywgJy1waCcsICc3LjAnLCAnLXRuJywgJzgnLCAnLW1hJywgJzIwMCcsICctbWV0YWxfYmluZGluZycsICctaW1hZScsICc8aW5maWxlLm1hZT4nLCAnLW9tYWUnLCAnPG91dGZpbGUubWFlPic=

> <r_epik_Ionization_Penalty>
1.7979

> <r_epik_Ionization_Penalty_Charging>
3.23819e-08

> <r_epik_Ionization_Penalty_Neutral>
1.7979

> <r_epik_State_Penalty>
1.91135

> <r_epik_Charging_Adjusted_Penalty>
1.91135

> <i_epik_Tot_Q>
-1

> <i_epik_Tot_abs_Q>
1

> <r_epik_Metal_State_Penalty>
0.014155

> <b_epik_Metal_Only>
0

> <s_lp_Force_Field>
OPLS_2005

> <r_lp_Energy>
21.5696

> <b_lp_Chiralities_Consistent>
1

> <s_lp_Variant>
AV-unprocessed.smi:649-3

> <Gold.Version>
5.8.1

> <Gold.Id.Protein>
6NUR|6NUR_protein|mol2

> <Gold.PLP.Fitness>
42.6030

> <Gold.PLP.PLP>
-34.6348

> <Gold.PLP.part.hbond>
-2.0000

> <Gold.PLP.part.metal>
0.0000

> <Gold.PLP.part.buried>
-6.8033

> <Gold.PLP.part.nonpolar>
-26.5882

> <Gold.PLP.part.repulsive>
0.2560

> <Gold.PLP.ligand.clash>
0.0000

> <Gold.PLP.ligand.torsion>
0.4708

> <Gold.PLP.Chemscore.Hbond>
2.9440

> <Gold.PLP.Chemscore.CHOScore>
0.0000

> <Gold.PLP.Chemscore.Metal>
0.0000

> <Gold.Chemscore.Hbonds>
donor molecule, donor type, donor heavy atom, donor atom, acceptor molecule, acceptor atom, score
      P1  H  7997  8008       L1    19  0.93
      P1  H 10752 10763       L1    17  2.00

> <Gold.PLP.Chemscore.Internal.Correction>
0.0777

> <Gold.Rescore>
     Score         DG    S(hbond)    S(metal)    S(lipo)     H(rot)  DE(clash)    DE(int)     intcor
     15.61     -17.09       1.49        0.00     102.40       2.09       0.10       1.37       ----

> <Gold.Chemscore.Fitness>
15.6102

> <Gold.Chemscore.DG>
-17.0881

> <Gold.Chemscore.ZeroCoef>
-5.4800

> <Gold.Chemscore.Hbond>
1.4879

> <Gold.Chemscore.Metal>
0.0000

> <Gold.Chemscore.Lipo>
102.3995

> <Gold.Chemscore.Internal_Hbond>
0.0000

> <Gold.Chemscore.DEClash>
0.1036

> <Gold.Chemscore.DEInternal>
1.3743

> <Gold.Chemscore.Rot>
2.0868

> <Gold.Chemscore.Internal.Correction>
   9.000000E+99

> <Gold.Chemscore.Hbonds>
donor molecule, donor type, donor heavy atom, donor atom, acceptor molecule, acceptor atom, score
      P1  H  7997  8008       L1    19  0.91
      P1  H 10752 10763       L1    17  0.22

> <Gold.Chemscore.Hbond.Weighted>
-4.9696

> <Gold.Chemscore.Metal.Weighted>
-0.0000

> <Gold.Chemscore.Lipo.Weighted>
-11.9807

> <Gold.Chemscore.Internal_Hbond.Weighted>
0.0000

> <Gold.Chemscore.DEClash.Weighted>
0.1036

> <Gold.Chemscore.DEInternal.Weighted>
1.3743

> <Gold.Chemscore.Rot.Weighted>
5.3423

> <Gold.Chemscore.Internal.Correction.Weighted>
   9.000000E+99

> <Gold.Protein.RotatedTorsions>
[ 6907 6896 6895 6894 ] final   35.49 input  -60.11 | X-H torsion
[ 7974 7965 7964 7962 ] final  -79.69 input  175.53 | X-H torsion
[ 8008 7997 7996 7995 ] final  -38.30 input   59.86 | X-H torsion
[ 10167 10162 10161 10158 ] final -116.86 input  -65.29 | X-H torsion
[ 10718 10713 10712 10709 ] final  -85.82 input   66.30 | X-H torsion
[ 10763 10752 10751 10750 ] final   54.47 input  -60.55 | X-H torsion
[ 11005 11000 10999 10996 ] final  138.04 input  -57.11 | X-H torsion

> <Gold.Protein.ActiveResidues>
 VAL166  LYS551  ARG553  GLY616  TRP617  ASP618  TYR619  PRO620  LYS621  CYS622 
 ASP623  PHE694  ASN695  SER759  ASP760  ASP761  ALA762  ILE779  LEU786  VAL792 
 PHE793  MET794  SER795  GLU796  ALA797  LYS798  CYS799  TRP800  GLU811  SER814 

> <Gold.Protein.RotatedAtoms>
  152.1169  134.9234  160.0564 H   0  0  0  0  0  0  0  0  0  0  0  0  # atno 6907 bound_to 6896
  152.0390  133.3964  159.4337 H   0  0  0  0  0  0  0  0  0  0  0  0  # atno 6908 bound_to 6896
  150.6846  134.3357  159.4890 H   0  0  0  0  0  0  0  0  0  0  0  0  # atno 6909 bound_to 6896
  145.5699  140.9468  143.1401 H   0  0  0  0  0  0  0  0  0  0  0  0  # atno 7974 bound_to 7965
  154.4039  140.1581  156.2678 H   0  0  0  0  0  0  0  0  0  0  0  0  # atno 8008 bound_to 7997
  155.8980  140.3435  155.5983 H   0  0  0  0  0  0  0  0  0  0  0  0  # atno 8009 bound_to 7997
  155.7481  140.0801  157.2205 H   0  0  0  0  0  0  0  0  0  0  0  0  # atno 8010 bound_to 7997
  140.0746  143.4844  152.1960 H   0  0  0  0  0  0  0  0  0  0  0  0  # atno 10167 bound_to 10162
  155.9994  130.4744  150.4620 H   0  0  0  0  0  0  0  0  0  0  0  0  # atno 10718 bound_to 10713
  152.9805  135.5744  154.4909 H   0  0  0  0  0  0  0  0  0  0  0  0  # atno 10763 bound_to 10752
  154.4444  135.2776  155.1827 H   0  0  0  0  0  0  0  0  0  0  0  0  # atno 10764 bound_to 10752
  154.3482  135.6215  153.5683 H   0  0  0  0  0  0  0  0  0  0  0  0  # atno 10765 bound_to 10752
  140.0156  134.9420  157.0369 H   0  0  0  0  0  0  0  0  0  0  0  0  # atno 11005 bound_to 11000
  144.7443  139.7363  143.7298 LP  0  0  0  0  0  0  0  0  0  0  0  0  # atno 17320 bound_to 7965
  146.1792  139.4976  142.9878 LP  0  0  0  0  0  0  0  0  0  0  0  0  # atno 17321 bound_to 7965
  139.5815  144.7512  151.3627 LP  0  0  0  0  0  0  0  0  0  0  0  0  # atno 17342 bound_to 10162
  140.7108  143.7395  150.7564 LP  0  0  0  0  0  0  0  0  0  0  0  0  # atno 17343 bound_to 10162
  157.2643  131.0573  151.2300 LP  0  0  0  0  0  0  0  0  0  0  0  0  # atno 17370 bound_to 10713
  157.3403  130.7030  149.6377 LP  0  0  0  0  0  0  0  0  0  0  0  0  # atno 17371 bound_to 10713
  140.4477  134.1615  155.7179 LP  0  0  0  0  0  0  0  0  0  0  0  0  # atno 17394 bound_to 11000
  141.1740  133.8551  157.1480 LP  0  0  0  0  0  0  0  0  0  0  0  0  # atno 17395 bound_to 11000

$$$$
