#       Name:                AV-unprocessed.smi:1066
#       Creating user name   scv26
#       Creation time:       Fri Mar 27 03:18:09 2020


#       File generated by GOLD software.
#

@<TRIPOS>MOLECULE
AV-unprocessed.smi:1066
    43    45     1
SMALL
NO_CHARGES


@<TRIPOS>ATOM
      1 ****        -2.1817   0.8706  -4.8590 C.3            1 S1                 0.0000
      2 ****        -2.8451   1.0511  -3.5239 C.2            1 S1                 0.0000
      3 ****        -3.5156   2.1680  -3.2732 N.2            1 S1                 0.0000
      4 ****        -4.0110   2.0468  -1.9699 O.3            1 S1                 0.0000
      5 ****        -3.6064   0.8435  -1.5030 C.2            1 S1                 0.0000
      6 ****        -3.9905   0.2947   0.0807 Cl             1 S1                 0.0000
      7 ****        -2.8660   0.1515  -2.4181 C.2            1 S1                 0.0000
      8 ****        -2.2247  -1.2083  -2.3063 C.3            1 S1                 0.0000
      9 ****        -0.7989  -1.0627  -1.7749 C.2            1 S1                 0.0000
     10 ****         0.1597  -1.1846  -2.5367 O.2            1 S1                 0.0000
     11 ****        -0.6728  -0.7962  -0.4661 N.am           1 S1                 0.0000
     12 ****         0.5940  -0.5884   0.2238 C.3            1 S1                 0.0000
     13 ****         1.3357  -1.8705   0.5869 C.3            1 S1                 0.0000
     14 ****         2.2694  -1.4102   1.7133 C.3            1 S1                 0.0000
     15 ****         1.6217  -0.2395   2.3576 N.4            1 S1                 1.0000
     16 ****         2.5237   0.9228   2.5123 C.3            1 S1                 0.0000
     17 ****         3.3725   0.8679   3.7599 C.3            1 S1                 0.0000
     18 ****         2.1815   1.7994   3.6932 C.3            1 S1                 0.0000
     19 ****         0.3951   0.0660   1.5894 C.3            1 S1                 0.0000
     20 ****        -1.2278   0.3530  -4.7563 H              1 S1                 0.0000
     21 ****        -1.9850   1.8275  -5.3437 H              1 S1                 0.0000
     22 ****        -2.8087   0.2812  -5.5279 H              1 S1                 0.0000
     23 ****        -2.7883  -1.8653  -1.6429 H              1 S1                 0.0000
     24 ****        -2.1951  -1.7115  -3.2735 H              1 S1                 0.0000
     25 ****        -1.5163  -0.7147   0.0836 H              1 S1                 0.0000
     26 ****         1.2439   0.0495  -0.3794 H              1 S1                 0.0000
     27 ****         0.6371  -2.6190   0.9646 H              1 S1                 0.0000
     28 ****         1.8731  -2.3056  -0.2564 H              1 S1                 0.0000
     29 ****         2.4530  -2.2027   2.4392 H              1 S1                 0.0000
     30 ****         3.2343  -1.1236   1.2918 H              1 S1                 0.0000
     31 ****         2.9132   1.3607   1.5947 H              1 S1                 0.0000
     32 ****         3.2903  -0.0069   4.4024 H              1 S1                 0.0000
     33 ****         4.3615   1.3192   3.7138 H              1 S1                 0.0000
     34 ****         2.3873   2.8643   3.6056 H              1 S1                 0.0000
     35 ****         1.3070   1.5423   4.2883 H              1 S1                 0.0000
     36 ****         0.1954   1.1362   1.5142 H              1 S1                 0.0000
     37 ****        -0.4485  -0.3896   2.1103 H              1 S1                 0.0000
     38 ****         1.3312  -0.5156   3.2847 H              1 S1                 0.0000
     39 ****        -3.6419   2.9428  -3.8926 LP             1 S1                 0.0000
     40 ****        -5.0098   2.0944  -1.9764 LP             1 S1                 0.0000
     41 ****        -3.6461   2.7787  -1.3944 LP             1 S1                 0.0000
     42 ****         0.0068  -1.3793  -3.5055 LP             1 S1                 0.0000
     43 ****         1.0917  -1.0890  -2.1869 LP             1 S1                 0.0000
@<TRIPOS>BOND
    1    1    2 1     
    2    1   20 1     
    3    1   21 1     
    4    1   22 1     
    5    2    7 1     
    6    2    3 2     
    7    3    4 1     
    8    4    5 1     
    9    5    6 1     
   10    5    7 2     
   11    7    8 1     
   12    8    9 1     
   13    8   23 1     
   14    8   24 1     
   15    9   10 2     
   16    9   11 am    
   17   11   12 1     
   18   11   25 1     
   19   12   19 1     
   20   12   13 1     
   21   12   26 1     
   22   13   14 1     
   23   13   27 1     
   24   13   28 1     
   25   14   15 1     
   26   14   29 1     
   27   14   30 1     
   28   15   16 1     
   29   15   19 1     
   30   15   38 1     
   31   16   18 1     
   32   16   17 1     
   33   16   31 1     
   34   17   18 1     
   35   17   32 1     
   36   17   33 1     
   37   18   34 1     
   38   18   35 1     
   39   19   36 1     
   40   19   37 1     
   41    3   39 1     
   42    4   40 1     
   43    4   41 1     
   44   10   42 1     
   45   10   43 1     
@<TRIPOS>SUBSTRUCTURE
      1 S1             1
@<TRIPOS>SET
LONE_PAIRS      STATIC     ATOMS    <user>   **** ""
5 39 40 41 42 43
DONOR_HYDROGENS      STATIC     ATOMS    <user>   **** ""
2 25 38
ATOM$BLUE        STATIC     ATOMS    COLORGROUP SYSTEM
5 39 40 41 42 43
ATOM$RED        STATIC     ATOMS    COLORGROUP SYSTEM
2 25 38
