AV-unprocessed.smi:2169|AV-procd|sdf|8822|dock3
  -GOLD-   2272012 13D 1   1.00000     0.00000
 Structure written by MMmdl.
 44 45  0  0  0  0  0  0  0  0  1 V2000
  150.7938  141.5043  156.4386 C   0  0  0  0  0  0  0  0  0  0  0  0
  151.7560  139.9373  156.3833 S   0  0  0  0  0  0  0  0  0  0  0  0
  152.2079  139.7249  154.9997 O   0  0  0  0  0  0  0  0  0  0  0  0
  152.7410  139.9657  157.4754 O   0  0  0  0  0  0  0  0  0  0  0  0
  150.5847  138.7051  156.7558 N   0  0  0  0  0  0  0  0  0  0  0  0
  149.1567  139.0588  156.8841 C   0  0  0  0  0  0  0  0  0  0  0  0
  148.3611  138.6821  155.6216 C   0  0  0  0  0  0  0  0  0  0  0  0
  148.5574  137.2009  155.2565 C   0  0  0  0  0  0  0  0  0  0  0  0
  147.8614  136.8702  154.0163 N   0  0  0  0  0  0  0  0  0  0  0  0
  146.5585  136.5713  153.9180 C   0  0  0  0  0  0  0  0  0  0  0  0
  145.7788  136.5587  154.8706 O   0  0  0  0  0  0  0  0  0  0  0  0
  146.2087  136.2817  152.6570 N   0  0  0  0  0  0  0  0  0  0  0  0
  144.8678  135.9028  152.2278 C   0  0  0  0  0  0  0  0  0  0  0  0
  144.8766  135.2917  150.8168 C   0  0  0  0  0  0  0  0  0  0  0  0
  144.9373  133.7773  150.8493 C   0  0  0  0  0  0  0  0  0  0  0  0
  145.9819  133.1071  151.5188 C   0  0  0  0  0  0  0  0  0  0  0  0
  145.9933  131.6989  151.5201 C   0  0  0  0  0  0  0  0  0  0  0  0
  144.9571  131.0196  150.8486 C   0  0  0  0  0  0  0  0  0  0  0  0
  143.9527  131.6508  150.2032 N   0  0  0  0  0  0  0  0  0  0  0  0
  143.9487  133.0013  150.2079 C   0  0  0  0  0  0  0  0  0  0  0  0
  150.0576  136.9113  155.1026 C   0  0  0  0  0  0  0  0  0  0  0  0
  150.8390  137.3028  156.3690 C   0  0  0  0  0  0  0  0  0  0  0  0
  151.4578  142.3368  156.2074 H   0  0  0  0  0  0  0  0  0  0  0  0
  150.3791  141.6502  157.4344 H   0  0  0  0  0  0  0  0  0  0  0  0
  149.9940  141.4758  155.7009 H   0  0  0  0  0  0  0  0  0  0  0  0
  148.7474  138.5271  157.7439 H   0  0  0  0  0  0  0  0  0  0  0  0
  149.0460  140.1213  157.0994 H   0  0  0  0  0  0  0  0  0  0  0  0
  147.3038  138.8905  155.7881 H   0  0  0  0  0  0  0  0  0  0  0  0
  148.6663  139.3133  154.7876 H   0  0  0  0  0  0  0  0  0  0  0  0
  148.1670  136.5775  156.0635 H   0  0  0  0  0  0  0  0  0  0  0  0
  148.4171  136.8542  153.1738 H   0  0  0  0  0  0  0  0  0  0  0  0
  146.9214  136.3197  151.9431 H   0  0  0  0  0  0  0  0  0  0  0  0
  144.4286  135.2077  152.9454 H   0  0  0  0  0  0  0  0  0  0  0  0
  144.2452  136.7979  152.2403 H   0  0  0  0  0  0  0  0  0  0  0  0
  143.9858  135.6016  150.2687 H   0  0  0  0  0  0  0  0  0  0  0  0
  145.7310  135.6622  150.2486 H   0  0  0  0  0  0  0  0  0  0  0  0
  146.7614  133.6600  152.0222 H   0  0  0  0  0  0  0  0  0  0  0  0
  146.7767  131.1522  152.0236 H   0  0  0  0  0  0  0  0  0  0  0  0
  144.9350  129.9400  150.8293 H   0  0  0  0  0  0  0  0  0  0  0  0
  143.1333  133.4764  149.6821 H   0  0  0  0  0  0  0  0  0  0  0  0
  150.2120  135.8516  154.8959 H   0  0  0  0  0  0  0  0  0  0  0  0
  150.4537  137.4491  154.2416 H   0  0  0  0  0  0  0  0  0  0  0  0
  151.9058  137.1357  156.2226 H   0  0  0  0  0  0  0  0  0  0  0  0
  150.5381  136.6589  157.1960 H   0  0  0  0  0  0  0  0  0  0  0  0
  1  2  1  0  0  0  0
  1 23  1  0  0  0  0
  1 24  1  0  0  0  0
  1 25  1  0  0  0  0
  2  3  2  0  0  0  0
  2  4  2  0  0  0  0
  2  5  1  0  0  0  0
  5 22  1  0  0  0  0
  5  6  1  0  0  0  0
  6  7  1  0  0  0  0
  6 26  1  0  0  0  0
  6 27  1  0  0  0  0
  7  8  1  0  0  0  0
  7 28  1  0  0  0  0
  7 29  1  0  0  0  0
  8  9  1  0  0  0  0
  8 21  1  0  0  0  0
  8 30  1  0  0  0  0
  9 10  1  0  0  0  0
  9 31  1  0  0  0  0
 10 11  2  0  0  0  0
 10 12  1  0  0  0  0
 12 13  1  0  0  0  0
 12 32  1  0  0  0  0
 13 14  1  0  0  0  0
 13 33  1  0  0  0  0
 13 34  1  0  0  0  0
 14 15  1  0  0  0  0
 14 35  1  0  0  0  0
 14 36  1  0  0  0  0
 15 20  1  0  0  0  0
 15 16  2  0  0  0  0
 16 17  1  0  0  0  0
 16 37  1  0  0  0  0
 17 18  2  0  0  0  0
 17 38  1  0  0  0  0
 18 19  1  0  0  0  0
 18 39  1  0  0  0  0
 19 20  2  0  0  0  0
 20 40  1  0  0  0  0
 21 22  1  0  0  0  0
 21 41  1  0  0  0  0
 21 42  1  0  0  0  0
 22 43  1  0  0  0  0
 22 44  1  0  0  0  0
M  END
> <s_m_source_file>
AV-unprocessed.smi

> <i_m_source_file_index>
2169

> <i_lp_mmshare_version>
43012

> <i_f3d_flags>
0

> <s_epik_input>
W0NIM11TKD1PKSg9TylOMVtDSDJdW0NIMl1bQ0hdKFtDSDJdW0NIMl0xKVtOSF1DKD1PKVtOSF1bQ0gyXVtDSDJdYzJbY0hdW2NIXVtjSF1uW2NIXTI=

> <s_epik_cmdline>
J2VwaWtfcHl0aG9uJywgJy1waCcsICc3LjAnLCAnLXRuJywgJzgnLCAnLW1hJywgJzIwMCcsICctbWV0YWxfYmluZGluZycsICctaW1hZScsICc8aW5maWxlLm1hZT4nLCAnLW9tYWUnLCAnPG91dGZpbGUubWFlPic=

> <r_epik_Ionization_Penalty>
0.0144137

> <r_epik_Ionization_Penalty_Charging>
0

> <r_epik_Ionization_Penalty_Neutral>
0.0144137

> <r_epik_State_Penalty>
0.0112268

> <r_epik_Charging_Adjusted_Penalty>
0.0112268

> <i_epik_Tot_Q>
0

> <i_epik_Tot_abs_Q>
0

> <r_epik_Metal_State_Penalty>
0.0109605

> <b_epik_Metal_Only>
0

> <s_lp_Force_Field>
OPLS_2005

> <r_lp_Energy>
-3.92684

> <b_lp_Chiralities_Consistent>
1

> <s_lp_Variant>
AV-unprocessed.smi:2169-1

> <Gold.Version>
5.8.1

> <Gold.Id.Protein>
6NUR|6NUR_protein|mol2

> <Gold.PLP.Fitness>
43.7116

> <Gold.PLP.PLP>
-30.4278

> <Gold.PLP.part.hbond>
-4.7443

> <Gold.PLP.part.metal>
0.0000

> <Gold.PLP.part.buried>
-5.9174

> <Gold.PLP.part.nonpolar>
-21.0227

> <Gold.PLP.part.repulsive>
0.2373

> <Gold.PLP.ligand.clash>
0.0000

> <Gold.PLP.ligand.torsion>
1.8869

> <Gold.PLP.Chemscore.Hbond>
3.9723

> <Gold.PLP.Chemscore.CHOScore>
1.0000

> <Gold.PLP.Chemscore.Metal>
0.0000

> <Gold.Chemscore.Hbonds>
donor molecule, donor type, donor heavy atom, donor atom, acceptor molecule, acceptor atom, score
      L1  H     9    31       P1  7948  1.00
      L1  H    12    32       P1  7948  0.77
      P1  H  7989  7998       L1     3  0.78
      P1  H  7997  8008       L1     4  1.00
      P1  H 10785 10796       L1    19  0.39
      L1  C    20    40       P1 10186  1.00

> <Gold.PLP.Chemscore.Internal.Correction>
2.1409

> <Gold.Rescore>
     Score         DG    S(hbond)    S(metal)    S(lipo)     H(rot)  DE(clash)    DE(int)     intcor
     20.87     -22.82       4.03        0.00      69.01       1.64       0.07       1.88       ----

> <Gold.Chemscore.Fitness>
20.8681

> <Gold.Chemscore.DG>
-22.8154

> <Gold.Chemscore.ZeroCoef>
-5.4800

> <Gold.Chemscore.Hbond>
4.0316

> <Gold.Chemscore.Metal>
0.0000

> <Gold.Chemscore.Lipo>
69.0121

> <Gold.Chemscore.Internal_Hbond>
0.0000

> <Gold.Chemscore.DEClash>
0.0671

> <Gold.Chemscore.DEInternal>
1.8802

> <Gold.Chemscore.Rot>
1.6425

> <Gold.Chemscore.Internal.Correction>
   9.000000E+99

> <Gold.Chemscore.Hbonds>
donor molecule, donor type, donor heavy atom, donor atom, acceptor molecule, acceptor atom, score
      L1  H     9    31       P1  7948  0.93
      L1  H    12    32       P1  7948  0.72
      P1  H  7989  7998       L1     3  0.77
      P1  H  7997  8008       L1     4  0.81
      P1  H 10785 10796       L1    19  0.18

> <Gold.Chemscore.Hbond.Weighted>
-13.4657

> <Gold.Chemscore.Metal.Weighted>
-0.0000

> <Gold.Chemscore.Lipo.Weighted>
-8.0744

> <Gold.Chemscore.Internal_Hbond.Weighted>
0.0000

> <Gold.Chemscore.DEClash.Weighted>
0.0671

> <Gold.Chemscore.DEInternal.Weighted>
1.8802

> <Gold.Chemscore.Rot.Weighted>
4.2047

> <Gold.Chemscore.Internal.Correction.Weighted>
   9.000000E+99

> <Gold.Protein.RotatedTorsions>
[ 6907 6896 6895 6894 ] final -105.74 input  -60.11 | X-H torsion
[ 7974 7965 7964 7962 ] final   72.77 input  175.53 | X-H torsion
[ 8008 7997 7996 7995 ] final  -72.44 input   59.86 | X-H torsion
[ 10167 10162 10161 10158 ] final   12.98 input  -65.29 | X-H torsion
[ 10718 10713 10712 10709 ] final  109.71 input   66.30 | X-H torsion
[ 10763 10752 10751 10750 ] final   64.51 input  -60.55 | X-H torsion
[ 11005 11000 10999 10996 ] final   82.97 input  -57.11 | X-H torsion

> <Gold.Protein.ActiveResidues>
 VAL166  LYS551  ARG553  GLY616  TRP617  ASP618  TYR619  PRO620  LYS621  CYS622 
 ASP623  PHE694  ASN695  SER759  ASP760  ASP761  ALA762  ILE779  LEU786  VAL792 
 PHE793  MET794  SER795  GLU796  ALA797  LYS798  CYS799  TRP800  GLU811  SER814 

> <Gold.Protein.RotatedAtoms>
  150.7352  134.0081  159.3660 H   0  0  0  0  0  0  0  0  0  0  0  0  # atno 6907 bound_to 6896
  151.8039  135.0699  160.0413 H   0  0  0  0  0  0  0  0  0  0  0  0  # atno 6908 bound_to 6896
  152.3121  133.5727  159.5724 H   0  0  0  0  0  0  0  0  0  0  0  0  # atno 6909 bound_to 6896
  145.7493  139.2753  143.1441 H   0  0  0  0  0  0  0  0  0  0  0  0  # atno 7974 bound_to 7965
  154.5166  140.0797  156.8093 H   0  0  0  0  0  0  0  0  0  0  0  0  # atno 8008 bound_to 7997
  155.3666  140.3420  155.4224 H   0  0  0  0  0  0  0  0  0  0  0  0  # atno 8009 bound_to 7997
  156.1635  140.1596  156.8559 H   0  0  0  0  0  0  0  0  0  0  0  0  # atno 8010 bound_to 7997
  140.6032  143.8561  150.6987 H   0  0  0  0  0  0  0  0  0  0  0  0  # atno 10167 bound_to 10162
  157.6528  131.0919  150.6494 H   0  0  0  0  0  0  0  0  0  0  0  0  # atno 10718 bound_to 10713
  153.0059  135.5390  154.6522 H   0  0  0  0  0  0  0  0  0  0  0  0  # atno 10763 bound_to 10752
  154.5751  135.2845  155.0791 H   0  0  0  0  0  0  0  0  0  0  0  0  # atno 10764 bound_to 10752
  154.1942  135.6495  153.5121 H   0  0  0  0  0  0  0  0  0  0  0  0  # atno 10765 bound_to 10752
  139.9046  134.8111  156.2246 H   0  0  0  0  0  0  0  0  0  0  0  0  # atno 11005 bound_to 11000
  146.0372  140.8200  142.9846 LP  0  0  0  0  0  0  0  0  0  0  0  0  # atno 17320 bound_to 7965
  144.6853  140.2857  143.7285 LP  0  0  0  0  0  0  0  0  0  0  0  0  # atno 17321 bound_to 7965
  140.2112  143.3882  152.1717 LP  0  0  0  0  0  0  0  0  0  0  0  0  # atno 17342 bound_to 10162
  139.5306  144.7154  151.5069 LP  0  0  0  0  0  0  0  0  0  0  0  0  # atno 17343 bound_to 10162
  156.6804  130.4565  149.5629 LP  0  0  0  0  0  0  0  0  0  0  0  0  # atno 17370 bound_to 10713
  156.1933  130.6574  151.1086 LP  0  0  0  0  0  0  0  0  0  0  0  0  # atno 17371 bound_to 10713
  141.0384  133.6951  156.1553 LP  0  0  0  0  0  0  0  0  0  0  0  0  # atno 17394 bound_to 11000
  140.6993  134.4582  157.5586 LP  0  0  0  0  0  0  0  0  0  0  0  0  # atno 17395 bound_to 11000

$$$$
