AV-unprocessed.smi:1286|AV-procd|sdf|5377|dock10
  -GOLD-   22720 4523D 1   1.00000     0.00000
 Structure written by MMmdl.
 36 37  0  0  0  0  0  0  0  0  1 V2000
  153.0538  141.5809  161.3333 C   0  0  0  0  0  0  0  0  0  0  0  0
  153.3518  141.7133  159.8317 C   0  0  2  0  0  0  0  0  0  0  0  0
  153.5916  143.1821  159.4317 C   0  0  0  0  0  0  0  0  0  0  0  0
  152.4095  144.0060  159.6128 N   0  0  0  0  0  0  0  0  0  0  0  0
  151.7961  144.3785  160.7906 C   0  0  0  0  0  0  0  0  0  0  0  0
  150.7166  145.1468  160.4608 C   0  0  0  0  0  0  0  0  0  0  0  0
  150.7542  145.1896  159.0389 C   0  0  0  0  0  0  0  0  0  0  0  0
  151.7691  144.5068  158.5343 N   0  0  0  0  0  0  0  0  0  0  0  0
  152.2458  141.1579  159.0545 N   0  0  0  0  0  0  0  0  0  0  0  0
  152.3241  140.1004  158.2322 C   0  0  0  0  0  0  0  0  0  0  0  0
  153.3601  139.4622  158.0458 O   0  0  0  0  0  0  0  0  0  0  0  0
  151.0324  139.7053  157.5081 C   0  0  0  0  0  0  0  0  0  0  0  0
  151.0853  139.9222  155.9798 C   0  0  1  0  0  0  0  0  0  0  0  0
  152.2183  139.1879  155.3034 C   0  0  0  0  0  0  0  0  0  0  0  0
  151.8042  138.4029  154.3116 C   0  0  0  0  0  0  0  0  0  0  0  0
  150.3133  138.4499  154.1241 C   0  0  0  0  0  0  0  0  0  0  0  0
  149.8255  139.3929  155.2471 C   0  0  0  0  0  0  0  0  0  0  0  0
  153.8753  141.9759  161.9314 H   0  0  0  0  0  0  0  0  0  0  0  0
  152.9146  140.5376  161.6183 H   0  0  0  0  0  0  0  0  0  0  0  0
  152.1497  142.1252  161.6086 H   0  0  0  0  0  0  0  0  0  0  0  0
  154.2626  141.1506  159.6173 H   0  0  0  0  0  0  0  0  0  0  0  0
  154.4096  143.6108  160.0127 H   0  0  0  0  0  0  0  0  0  0  0  0
  153.8902  143.2434  158.3840 H   0  0  0  0  0  0  0  0  0  0  0  0
  152.1727  144.0665  161.7536 H   0  0  0  0  0  0  0  0  0  0  0  0
  150.0079  145.6077  161.1326 H   0  0  0  0  0  0  0  0  0  0  0  0
  150.0788  145.6933  158.3630 H   0  0  0  0  0  0  0  0  0  0  0  0
  151.3518  141.6183  159.1448 H   0  0  0  0  0  0  0  0  0  0  0  0
  150.7999  138.6604  157.7221 H   0  0  0  0  0  0  0  0  0  0  0  0
  150.2179  140.2934  157.9324 H   0  0  0  0  0  0  0  0  0  0  0  0
  151.2066  140.9847  155.7626 H   0  0  0  0  0  0  0  0  0  0  0  0
  153.2490  139.3156  155.6011 H   0  0  0  0  0  0  0  0  0  0  0  0
  152.4448  137.7968  153.6880 H   0  0  0  0  0  0  0  0  0  0  0  0
  150.0734  138.8412  153.1350 H   0  0  0  0  0  0  0  0  0  0  0  0
  149.8851  137.4516  154.2184 H   0  0  0  0  0  0  0  0  0  0  0  0
  149.1728  138.8476  155.9302 H   0  0  0  0  0  0  0  0  0  0  0  0
  149.2383  140.2161  154.8382 H   0  0  0  0  0  0  0  0  0  0  0  0
  1  2  1  0  0  0  0
  1 18  1  0  0  0  0
  1 19  1  0  0  0  0
  1 20  1  0  0  0  0
  2  3  1  0  0  0  0
  2  9  1  0  0  0  0
  2 21  1  0  0  0  0
  3  4  1  0  0  0  0
  3 22  1  0  0  0  0
  3 23  1  0  0  0  0
  4  8  1  0  0  0  0
  4  5  1  0  0  0  0
  5  6  2  0  0  0  0
  5 24  1  0  0  0  0
  6  7  1  0  0  0  0
  6 25  1  0  0  0  0
  7  8  2  0  0  0  0
  7 26  1  0  0  0  0
  9 10  1  0  0  0  0
  9 27  1  0  0  0  0
 10 11  2  0  0  0  0
 10 12  1  0  0  0  0
 12 13  1  0  0  0  0
 12 28  1  0  0  0  0
 12 29  1  0  0  0  0
 13 17  1  0  0  0  0
 13 14  1  0  0  0  0
 13 30  1  0  0  0  0
 14 15  2  0  0  0  0
 14 31  1  0  0  0  0
 15 16  1  0  0  0  0
 15 32  1  0  0  0  0
 16 17  1  0  0  0  0
 16 33  1  0  0  0  0
 16 34  1  0  0  0  0
 17 35  1  0  0  0  0
 17 36  1  0  0  0  0
M  END
> <s_m_source_file>
AV-unprocessed.smi

> <i_m_source_file_index>
1286

> <i_lp_mmshare_version>
43012

> <i_f3d_flags>
0

> <s_epik_input>
bjFbY0hdW2NIXVtjSF1uMVtDSDJdW0NAQEhdKFtDSDNdKVtOSF1DKD1PKVtDSDJdW0NAQEhdMltDSF09W0NIXVtDSDJdW0NIMl0y

> <s_epik_cmdline>
J2VwaWtfcHl0aG9uJywgJy1waCcsICc3LjAnLCAnLXRuJywgJzgnLCAnLW1hJywgJzIwMCcsICctbWV0YWxfYmluZGluZycsICctaW1hZScsICc8aW5maWxlLm1hZT4nLCAnLW9tYWUnLCAnPG91dGZpbGUubWFlPic=

> <r_lp_tautomer_probability>
1

> <r_epik_Ionization_Penalty>
0.000301761

> <r_epik_Ionization_Penalty_Charging>
0

> <r_epik_Ionization_Penalty_Neutral>
0.000301761

> <r_epik_State_Penalty>
-0

> <r_epik_Charging_Adjusted_Penalty>
0

> <i_epik_Tot_Q>
0

> <i_epik_Tot_abs_Q>
0

> <r_epik_Metal_State_Penalty>
-0

> <b_epik_Metal_Only>
0

> <s_lp_Force_Field>
OPLS_2005

> <r_lp_Energy>
17.4811

> <b_lp_Chiralities_Consistent>
1

> <s_lp_Variant>
AV-unprocessed.smi:1286-3

> <Gold.Version>
5.8.1

> <Gold.Id.Protein>
6NUR|6NUR_protein|mol2

> <Gold.PLP.Fitness>
47.7785

> <Gold.PLP.PLP>
-42.1104

> <Gold.PLP.part.hbond>
-1.0000

> <Gold.PLP.part.metal>
0.0000

> <Gold.PLP.part.buried>
-6.5886

> <Gold.PLP.part.nonpolar>
-34.5622

> <Gold.PLP.part.repulsive>
0.1960

> <Gold.PLP.ligand.clash>
0.0000

> <Gold.PLP.ligand.torsion>
0.1349

> <Gold.PLP.Chemscore.Hbond>
1.0000

> <Gold.PLP.Chemscore.CHOScore>
0.9725

> <Gold.PLP.Chemscore.Metal>
0.0000

> <Gold.Chemscore.Hbonds>
donor molecule, donor type, donor heavy atom, donor atom, acceptor molecule, acceptor atom, score
      P1  H  7997  8008       L1    11  1.00
      L1  C     7    26       P1  8029  1.00

> <Gold.PLP.Chemscore.Internal.Correction>
0.0204

> <Gold.Rescore>
     Score         DG    S(hbond)    S(metal)    S(lipo)     H(rot)  DE(clash)    DE(int)     intcor
     17.00     -17.23       0.99        0.00     108.06       1.64       0.08       0.16       ----

> <Gold.Chemscore.Fitness>
16.9952

> <Gold.Chemscore.DG>
-17.2286

> <Gold.Chemscore.ZeroCoef>
-5.4800

> <Gold.Chemscore.Hbond>
0.9889

> <Gold.Chemscore.Metal>
0.0000

> <Gold.Chemscore.Lipo>
108.0555

> <Gold.Chemscore.Internal_Hbond>
0.0000

> <Gold.Chemscore.DEClash>
0.0760

> <Gold.Chemscore.DEInternal>
0.1573

> <Gold.Chemscore.Rot>
1.6394

> <Gold.Chemscore.Internal.Correction>
   9.000000E+99

> <Gold.Chemscore.Hbonds>
donor molecule, donor type, donor heavy atom, donor atom, acceptor molecule, acceptor atom, score
      P1  H  7997  8008       L1    11  1.00

> <Gold.Chemscore.Hbond.Weighted>
-3.3030

> <Gold.Chemscore.Metal.Weighted>
-0.0000

> <Gold.Chemscore.Lipo.Weighted>
-12.6425

> <Gold.Chemscore.Internal_Hbond.Weighted>
0.0000

> <Gold.Chemscore.DEClash.Weighted>
0.0760

> <Gold.Chemscore.DEInternal.Weighted>
0.1573

> <Gold.Chemscore.Rot.Weighted>
4.1969

> <Gold.Chemscore.Internal.Correction.Weighted>
   9.000000E+99

> <Gold.Protein.RotatedTorsions>
[ 6907 6896 6895 6894 ] final   93.32 input  -60.11 | X-H torsion
[ 7974 7965 7964 7962 ] final  -14.25 input  175.53 | X-H torsion
[ 8008 7997 7996 7995 ] final  -92.87 input   59.86 | X-H torsion
[ 10167 10162 10161 10158 ] final -151.35 input  -65.29 | X-H torsion
[ 10718 10713 10712 10709 ] final   76.08 input   66.30 | X-H torsion
[ 10763 10752 10751 10750 ] final -110.62 input  -60.55 | X-H torsion
[ 11005 11000 10999 10996 ] final   36.02 input  -57.11 | X-H torsion

> <Gold.Protein.ActiveResidues>
 VAL166  LYS551  ARG553  GLY616  TRP617  ASP618  TYR619  PRO620  LYS621  CYS622 
 ASP623  PHE694  ASN695  SER759  ASP760  ASP761  ALA762  ILE779  LEU786  VAL792 
 PHE793  MET794  SER795  GLU796  ALA797  LYS798  CYS799  TRP800  GLU811  SER814 

> <Gold.Protein.RotatedAtoms>
  152.5452  134.1366  159.8461 H   0  0  0  0  0  0  0  0  0  0  0  0  # atno 6907 bound_to 6896
  151.1407  133.4966  159.2604 H   0  0  0  0  0  0  0  0  0  0  0  0  # atno 6908 bound_to 6896
  151.1576  135.0268  159.8751 H   0  0  0  0  0  0  0  0  0  0  0  0  # atno 6909 bound_to 6896
  146.2081  140.3322  142.8400 H   0  0  0  0  0  0  0  0  0  0  0  0  # atno 7974 bound_to 7965
  154.7285  140.0504  157.0705 H   0  0  0  0  0  0  0  0  0  0  0  0  # atno 8008 bound_to 7997
  155.0333  140.3160  155.4731 H   0  0  0  0  0  0  0  0  0  0  0  0  # atno 8009 bound_to 7997
  156.2835  140.2146  156.5455 H   0  0  0  0  0  0  0  0  0  0  0  0  # atno 8010 bound_to 7997
  139.7275  143.8860  152.2524 H   0  0  0  0  0  0  0  0  0  0  0  0  # atno 10167 bound_to 10162
  157.6660  130.9757  150.1446 H   0  0  0  0  0  0  0  0  0  0  0  0  # atno 10718 bound_to 10713
  154.8258  135.4557  154.0914 H   0  0  0  0  0  0  0  0  0  0  0  0  # atno 10763 bound_to 10752
  153.2229  135.6896  153.7985 H   0  0  0  0  0  0  0  0  0  0  0  0  # atno 10764 bound_to 10752
  153.7395  135.3314  155.3278 H   0  0  0  0  0  0  0  0  0  0  0  0  # atno 10765 bound_to 10752
  140.2368  134.3462  155.7941 H   0  0  0  0  0  0  0  0  0  0  0  0  # atno 11005 bound_to 11000
  144.8844  140.7443  143.5966 LP  0  0  0  0  0  0  0  0  0  0  0  0  # atno 17320 bound_to 7965
  145.3243  139.1779  143.4571 LP  0  0  0  0  0  0  0  0  0  0  0  0  # atno 17321 bound_to 7965
  139.8774  144.7036  150.8917 LP  0  0  0  0  0  0  0  0  0  0  0  0  # atno 17342 bound_to 10162
  140.7765  143.3689  151.1687 LP  0  0  0  0  0  0  0  0  0  0  0  0  # atno 17343 bound_to 10162
  156.2260  130.3678  149.8500 LP  0  0  0  0  0  0  0  0  0  0  0  0  # atno 17370 bound_to 10713
  156.6340  130.8677  151.3501 LP  0  0  0  0  0  0  0  0  0  0  0  0  # atno 17371 bound_to 10713
  141.2214  133.7276  156.8821 LP  0  0  0  0  0  0  0  0  0  0  0  0  # atno 17394 bound_to 11000
  140.1694  134.9110  157.2814 LP  0  0  0  0  0  0  0  0  0  0  0  0  # atno 17395 bound_to 11000

$$$$
