AV-unprocessed.smi:2430|AV-procd|sdf|9583|dock2
  -GOLD-   2272013213D 1   1.00000     0.00000
 Structure written by MMmdl.
 46 47  0  0  0  0  0  0  0  0  1 V2000
  154.3057  141.6782  159.9483 C   0  0  0  0  0  0  0  0  0  0  0  0
  152.8123  141.9314  160.2212 C   0  0  2  0  0  0  0  0  0  0  0  0
  151.8758  141.1930  159.2439 C   0  0  0  0  0  0  0  0  0  0  0  0
  151.8513  141.8502  157.9403 N   0  0  0  0  0  0  0  0  0  0  0  0
  151.2528  141.1071  156.9007 C   0  0  0  0  0  0  0  0  0  0  0  0
  151.7158  139.8037  156.6042 C   0  0  0  0  0  0  0  0  0  0  0  0
  151.1082  139.0764  155.5630 C   0  0  0  0  0  0  0  0  0  0  0  0
  150.0536  139.6745  154.8357 C   0  0  0  0  0  0  0  0  0  0  0  0
  149.3516  139.0370  153.7783 N   0  0  0  0  0  0  0  0  0  0  0  0
  148.1074  139.2890  153.3376 C   0  0  0  0  0  0  0  0  0  0  0  0
  147.3497  140.1431  153.7975 O   0  0  0  0  0  0  0  0  0  0  0  0
  147.7724  138.4659  152.3341 N   0  0  0  0  0  0  0  0  0  0  0  0
  146.4744  138.4423  151.6698 C   0  0  0  0  0  0  0  0  0  0  0  0
  145.6364  137.2352  152.1212 C   0  0  0  0  0  0  0  0  0  0  0  0
  145.6709  136.0853  151.1066 C   0  0  0  0  0  0  0  0  0  0  0  0
  145.2963  136.5610  149.8321 O   0  0  0  0  0  0  0  0  0  0  0  0
  149.6527  140.9712  155.2126 C   0  0  0  0  0  0  0  0  0  0  0  0
  150.2350  141.6732  156.2071 N   0  0  0  0  0  0  0  0  0  0  0  0
  151.5536  143.2773  158.0219 C   0  0  0  0  0  0  0  0  0  0  0  0
  152.5330  143.9744  158.9823 C   0  0  1  0  0  0  0  0  0  0  0  0
  152.1756  145.4494  159.1927 C   0  0  0  0  0  0  0  0  0  0  0  0
  152.4982  143.3256  160.2528 O   0  0  0  0  0  0  0  0  0  0  0  0
  154.5448  140.6210  160.0651 H   0  0  0  0  0  0  0  0  0  0  0  0
  154.9291  142.2362  160.6473 H   0  0  0  0  0  0  0  0  0  0  0  0
  154.5960  141.9644  158.9378 H   0  0  0  0  0  0  0  0  0  0  0  0
  152.6078  141.5528  161.2230 H   0  0  0  0  0  0  0  0  0  0  0  0
  152.1795  140.1494  159.1697 H   0  0  0  0  0  0  0  0  0  0  0  0
  150.8601  141.1939  159.6416 H   0  0  0  0  0  0  0  0  0  0  0  0
  152.5322  139.3604  157.1547 H   0  0  0  0  0  0  0  0  0  0  0  0
  151.4539  138.0763  155.3522 H   0  0  0  0  0  0  0  0  0  0  0  0
  149.8204  138.2467  153.3605 H   0  0  0  0  0  0  0  0  0  0  0  0
  148.4567  137.7936  152.0196 H   0  0  0  0  0  0  0  0  0  0  0  0
  145.9372  139.3738  151.8565 H   0  0  0  0  0  0  0  0  0  0  0  0
  146.6460  138.3941  150.5942 H   0  0  0  0  0  0  0  0  0  0  0  0
  146.0023  136.8804  153.0859 H   0  0  0  0  0  0  0  0  0  0  0  0
  144.6019  137.5448  152.2782 H   0  0  0  0  0  0  0  0  0  0  0  0
  146.6713  135.6557  151.0464 H   0  0  0  0  0  0  0  0  0  0  0  0
  144.9888  135.2877  151.4027 H   0  0  0  0  0  0  0  0  0  0  0  0
  144.8418  137.3826  149.9392 H   0  0  0  0  0  0  0  0  0  0  0  0
  148.8430  141.4670  154.6971 H   0  0  0  0  0  0  0  0  0  0  0  0
  151.6283  143.7342  157.0340 H   0  0  0  0  0  0  0  0  0  0  0  0
  150.5272  143.4104  158.3669 H   0  0  0  0  0  0  0  0  0  0  0  0
  153.5422  143.9279  158.5728 H   0  0  0  0  0  0  0  0  0  0  0  0
  152.1949  145.9964  158.2498 H   0  0  0  0  0  0  0  0  0  0  0  0
  152.8834  145.9288  159.8693 H   0  0  0  0  0  0  0  0  0  0  0  0
  151.1789  145.5567  159.6217 H   0  0  0  0  0  0  0  0  0  0  0  0
  1  2  1  0  0  0  0
  1 23  1  0  0  0  0
  1 24  1  0  0  0  0
  1 25  1  0  0  0  0
  2 22  1  0  0  0  0
  2  3  1  0  0  0  0
  2 26  1  0  0  0  0
  3  4  1  0  0  0  0
  3 27  1  0  0  0  0
  3 28  1  0  0  0  0
  4  5  1  0  0  0  0
  4 19  1  0  0  0  0
  5 18  1  0  0  0  0
  5  6  2  0  0  0  0
  6  7  1  0  0  0  0
  6 29  1  0  0  0  0
  7  8  2  0  0  0  0
  7 30  1  0  0  0  0
  8  9  1  0  0  0  0
  8 17  1  0  0  0  0
  9 10  1  0  0  0  0
  9 31  1  0  0  0  0
 10 11  2  0  0  0  0
 10 12  1  0  0  0  0
 12 13  1  0  0  0  0
 12 32  1  0  0  0  0
 13 14  1  0  0  0  0
 13 33  1  0  0  0  0
 13 34  1  0  0  0  0
 14 15  1  0  0  0  0
 14 35  1  0  0  0  0
 14 36  1  0  0  0  0
 15 16  1  0  0  0  0
 15 37  1  0  0  0  0
 15 38  1  0  0  0  0
 16 39  1  0  0  0  0
 17 18  2  0  0  0  0
 17 40  1  0  0  0  0
 19 20  1  0  0  0  0
 19 41  1  0  0  0  0
 19 42  1  0  0  0  0
 20 21  1  0  0  0  0
 20 22  1  0  0  0  0
 20 43  1  0  0  0  0
 21 44  1  0  0  0  0
 21 45  1  0  0  0  0
 21 46  1  0  0  0  0
M  END
> <s_m_source_file>
AV-unprocessed.smi

> <i_m_source_file_index>
2430

> <i_lp_mmshare_version>
43012

> <i_f3d_flags>
0

> <s_epik_input>
W0NIM11bQ0BASF0xW0NIMl1OKFtDSDJdW0NASF0oTzEpW0NIM10pYzJbY0hdW2NIXWMoW2NIXW4yKVtOSF1DKD1PKVtOSF1bQ0gyXVtDSDJdW0NIMl1bT0hd

> <s_epik_cmdline>
J2VwaWtfcHl0aG9uJywgJy1waCcsICc3LjAnLCAnLXRuJywgJzgnLCAnLW1hJywgJzIwMCcsICctbWV0YWxfYmluZGluZycsICctaW1hZScsICc8aW5maWxlLm1hZT4nLCAnLW9tYWUnLCAnPG91dGZpbGUubWFlPic=

> <r_lp_tautomer_probability>
1

> <r_epik_Ionization_Penalty>
0.00269907

> <r_epik_Ionization_Penalty_Charging>
0

> <r_epik_Ionization_Penalty_Neutral>
0.00269907

> <r_epik_State_Penalty>
0.00185337

> <r_epik_Charging_Adjusted_Penalty>
0.00185337

> <i_epik_Tot_Q>
0

> <i_epik_Tot_abs_Q>
0

> <r_epik_Metal_State_Penalty>
-0

> <b_epik_Metal_Only>
0

> <s_lp_Force_Field>
OPLS_2005

> <r_lp_Energy>
20.8666

> <b_lp_Chiralities_Consistent>
1

> <s_lp_Variant>
AV-unprocessed.smi:2430-1

> <Gold.Version>
5.8.1

> <Gold.Id.Protein>
6NUR|6NUR_protein|mol2

> <Gold.PLP.Fitness>
53.2798

> <Gold.PLP.PLP>
-48.2991

> <Gold.PLP.part.hbond>
-4.8048

> <Gold.PLP.part.metal>
0.0000

> <Gold.PLP.part.buried>
-3.7928

> <Gold.PLP.part.nonpolar>
-40.9333

> <Gold.PLP.part.repulsive>
0.4403

> <Gold.PLP.ligand.clash>
0.0000

> <Gold.PLP.ligand.torsion>
0.6918

> <Gold.PLP.Chemscore.Hbond>
2.0000

> <Gold.PLP.Chemscore.CHOScore>
0.0000

> <Gold.PLP.Chemscore.Metal>
0.0000

> <Gold.Chemscore.Hbonds>
donor molecule, donor type, donor heavy atom, donor atom, acceptor molecule, acceptor atom, score
      L1  H    12    32       P1  7948  1.00
      L1  H    16    39       P1 10171  1.00

> <Gold.PLP.Chemscore.Internal.Correction>
0.3642

> <Gold.Rescore>
     Score         DG    S(hbond)    S(metal)    S(lipo)     H(rot)  DE(clash)    DE(int)     intcor
     17.01     -19.58       1.99        0.00     114.87       2.33       0.54       2.03       ----

> <Gold.Chemscore.Fitness>
17.0134

> <Gold.Chemscore.DG>
-19.5837

> <Gold.Chemscore.ZeroCoef>
-5.4800

> <Gold.Chemscore.Hbond>
1.9881

> <Gold.Chemscore.Metal>
0.0000

> <Gold.Chemscore.Lipo>
114.8716

> <Gold.Chemscore.Internal_Hbond>
0.0000

> <Gold.Chemscore.DEClash>
0.5424

> <Gold.Chemscore.DEInternal>
2.0279

> <Gold.Chemscore.Rot>
2.3346

> <Gold.Chemscore.Internal.Correction>
   9.000000E+99

> <Gold.Chemscore.Hbonds>
donor molecule, donor type, donor heavy atom, donor atom, acceptor molecule, acceptor atom, score
      L1  H    12    32       P1  7948  0.95
      L1  H    16    39       P1 10171  0.93

> <Gold.Chemscore.Hbond.Weighted>
-6.6403

> <Gold.Chemscore.Metal.Weighted>
-0.0000

> <Gold.Chemscore.Lipo.Weighted>
-13.4400

> <Gold.Chemscore.Internal_Hbond.Weighted>
0.0000

> <Gold.Chemscore.DEClash.Weighted>
0.5424

> <Gold.Chemscore.DEInternal.Weighted>
2.0279

> <Gold.Chemscore.Rot.Weighted>
5.9766

> <Gold.Chemscore.Internal.Correction.Weighted>
   9.000000E+99

> <Gold.Protein.RotatedTorsions>
[ 6907 6896 6895 6894 ] final -155.33 input  -60.11 | X-H torsion
[ 7974 7965 7964 7962 ] final  -59.17 input  175.53 | X-H torsion
[ 8008 7997 7996 7995 ] final   82.49 input   59.86 | X-H torsion
[ 10167 10162 10161 10158 ] final   54.34 input  -65.29 | X-H torsion
[ 10718 10713 10712 10709 ] final   18.35 input   66.30 | X-H torsion
[ 10763 10752 10751 10750 ] final    7.93 input  -60.55 | X-H torsion
[ 11005 11000 10999 10996 ] final -142.76 input  -57.11 | X-H torsion

> <Gold.Protein.ActiveResidues>
 VAL166  LYS551  ARG553  GLY616  TRP617  ASP618  TYR619  PRO620  LYS621  CYS622 
 ASP623  PHE694  ASN695  SER759  ASP760  ASP761  ALA762  ILE779  LEU786  VAL792 
 PHE793  MET794  SER795  GLU796  ALA797  LYS798  CYS799  TRP800  GLU811  SER814 

> <Gold.Protein.RotatedAtoms>
  151.2709  133.4255  159.2620 H   0  0  0  0  0  0  0  0  0  0  0  0  # atno 6907 bound_to 6896
  151.0446  134.9631  159.8190 H   0  0  0  0  0  0  0  0  0  0  0  0  # atno 6908 bound_to 6896
  152.5371  134.2666  159.9008 H   0  0  0  0  0  0  0  0  0  0  0  0  # atno 6909 bound_to 6896
  145.8307  140.8482  143.0085 H   0  0  0  0  0  0  0  0  0  0  0  0  # atno 7974 bound_to 7965
  155.9113  140.3427  155.6100 H   0  0  0  0  0  0  0  0  0  0  0  0  # atno 8008 bound_to 7997
  155.7384  140.0804  157.2275 H   0  0  0  0  0  0  0  0  0  0  0  0  # atno 8009 bound_to 7997
  154.4056  140.1575  156.2576 H   0  0  0  0  0  0  0  0  0  0  0  0  # atno 8010 bound_to 7997
  140.2311  144.3685  150.6414 H   0  0  0  0  0  0  0  0  0  0  0  0  # atno 10167 bound_to 10162
  157.0951  130.6444  149.5858 H   0  0  0  0  0  0  0  0  0  0  0  0  # atno 10718 bound_to 10713
  153.2307  135.6892  153.7893 H   0  0  0  0  0  0  0  0  0  0  0  0  # atno 10763 bound_to 10752
  153.7058  135.3290  155.3236 H   0  0  0  0  0  0  0  0  0  0  0  0  # atno 10764 bound_to 10752
  154.8312  135.4579  154.1191 H   0  0  0  0  0  0  0  0  0  0  0  0  # atno 10765 bound_to 10752
  140.8193  134.2651  157.4907 H   0  0  0  0  0  0  0  0  0  0  0  0  # atno 11005 bound_to 11000
  144.6740  140.0667  143.7474 LP  0  0  0  0  0  0  0  0  0  0  0  0  # atno 17320 bound_to 7965
  145.9574  139.2776  143.1176 LP  0  0  0  0  0  0  0  0  0  0  0  0  # atno 17321 bound_to 7965
  140.6184  143.2174  151.6744 LP  0  0  0  0  0  0  0  0  0  0  0  0  # atno 17342 bound_to 10162
  139.5109  144.3525  152.0638 LP  0  0  0  0  0  0  0  0  0  0  0  0  # atno 17343 bound_to 10162
  155.9888  130.4933  150.7185 LP  0  0  0  0  0  0  0  0  0  0  0  0  # atno 17370 bound_to 10713
  157.4688  131.0891  151.0665 LP  0  0  0  0  0  0  0  0  0  0  0  0  # atno 17371 bound_to 10713
  139.8709  134.9526  156.4121 LP  0  0  0  0  0  0  0  0  0  0  0  0  # atno 17394 bound_to 11000
  140.9116  133.7708  155.9798 LP  0  0  0  0  0  0  0  0  0  0  0  0  # atno 17395 bound_to 11000

$$$$
