AV-unprocessed.smi:3295|AV-procd|sdf|12635|dock3
  -GOLD-   2272018573D 1   1.00000     0.00000
 Structure written by MMmdl.
 37 38  0  0  0  0  0  0  0  0  1 V2000
  150.9660  137.3327  154.6010 C   0  0  0  0  0  0  0  0  0  0  0  0
  150.5191  138.7625  154.8514 C   0  0  0  0  0  0  0  0  0  0  0  0
  151.3132  139.6184  155.6447 C   0  0  0  0  0  0  0  0  0  0  0  0
  150.9913  140.9006  155.9117 N   0  0  0  0  0  0  0  0  0  0  0  0
  149.8487  141.3842  155.3833 C   0  0  0  0  0  0  0  0  0  0  0  0
  148.9813  140.6198  154.5788 C   0  0  0  0  0  0  0  0  0  0  0  0
  149.3115  139.2689  154.3111 C   0  0  0  0  0  0  0  0  0  0  0  0
  148.5156  138.4126  153.4974 N   0  0  0  0  0  0  0  0  0  0  0  0
  147.1764  138.3147  153.4282 C   0  0  0  0  0  0  0  0  0  0  0  0
  146.3761  138.9800  154.0851 O   0  0  0  0  0  0  0  0  0  0  0  0
  146.8088  137.3710  152.5501 N   0  0  0  0  0  0  0  0  0  0  0  0
  145.4311  137.0176  152.2185 C   0  0  0  0  0  0  0  0  0  0  0  0
  145.3207  136.0895  150.9812 C   0  0  0  0  0  0  0  0  0  0  0  0
  145.6821  136.8317  149.8327 O   0  0  0  0  0  0  0  0  0  0  0  0
  146.1264  134.7839  151.0800 C   0  0  0  0  0  0  0  0  0  0  0  0
  145.2406  133.8385  151.8975 C   0  0  0  0  0  0  0  0  0  0  0  0
  143.7949  134.3016  151.6587 C   0  0  0  0  0  0  0  0  0  0  0  0
  143.8847  135.5748  150.8050 C   0  0  0  0  0  0  0  0  0  0  0  0
  151.9086  137.1181  155.1054 H   0  0  0  0  0  0  0  0  0  0  0  0
  151.1077  137.1591  153.5341 H   0  0  0  0  0  0  0  0  0  0  0  0
  150.2185  136.6299  154.9700 H   0  0  0  0  0  0  0  0  0  0  0  0
  152.2373  139.2661  156.0790 H   0  0  0  0  0  0  0  0  0  0  0  0
  149.6205  142.4167  155.6033 H   0  0  0  0  0  0  0  0  0  0  0  0
  148.0957  141.0874  154.1776 H   0  0  0  0  0  0  0  0  0  0  0  0
  149.0333  137.7443  152.9461 H   0  0  0  0  0  0  0  0  0  0  0  0
  147.5343  136.8686  152.0606 H   0  0  0  0  0  0  0  0  0  0  0  0
  145.0325  136.5067  153.0954 H   0  0  0  0  0  0  0  0  0  0  0  0
  144.8124  137.9082  152.0927 H   0  0  0  0  0  0  0  0  0  0  0  0
  144.9738  137.4191  149.6183 H   0  0  0  0  0  0  0  0  0  0  0  0
  146.2591  134.3597  150.0833 H   0  0  0  0  0  0  0  0  0  0  0  0
  147.1228  134.9024  151.5058 H   0  0  0  0  0  0  0  0  0  0  0  0
  145.3919  132.7963  151.6146 H   0  0  0  0  0  0  0  0  0  0  0  0
  145.4833  133.9277  152.9570 H   0  0  0  0  0  0  0  0  0  0  0  0
  143.2031  133.5355  151.1566 H   0  0  0  0  0  0  0  0  0  0  0  0
  143.3099  134.5137  152.6122 H   0  0  0  0  0  0  0  0  0  0  0  0
  143.1304  136.3153  151.0743 H   0  0  0  0  0  0  0  0  0  0  0  0
  143.7100  135.3043  149.7622 H   0  0  0  0  0  0  0  0  0  0  0  0
  1  2  1  0  0  0  0
  1 19  1  0  0  0  0
  1 20  1  0  0  0  0
  1 21  1  0  0  0  0
  2  7  1  0  0  0  0
  2  3  2  0  0  0  0
  3  4  1  0  0  0  0
  3 22  1  0  0  0  0
  4  5  2  0  0  0  0
  5  6  1  0  0  0  0
  5 23  1  0  0  0  0
  6  7  2  0  0  0  0
  6 24  1  0  0  0  0
  7  8  1  0  0  0  0
  8  9  1  0  0  0  0
  8 25  1  0  0  0  0
  9 10  2  0  0  0  0
  9 11  1  0  0  0  0
 11 12  1  0  0  0  0
 11 26  1  0  0  0  0
 12 13  1  0  0  0  0
 12 27  1  0  0  0  0
 12 28  1  0  0  0  0
 13 18  1  0  0  0  0
 13 14  1  0  0  0  0
 13 15  1  0  0  0  0
 14 29  1  0  0  0  0
 15 16  1  0  0  0  0
 15 30  1  0  0  0  0
 15 31  1  0  0  0  0
 16 17  1  0  0  0  0
 16 32  1  0  0  0  0
 16 33  1  0  0  0  0
 17 18  1  0  0  0  0
 17 34  1  0  0  0  0
 17 35  1  0  0  0  0
 18 36  1  0  0  0  0
 18 37  1  0  0  0  0
M  END
> <s_m_source_file>
AV-unprocessed.smi

> <i_m_source_file_index>
3295

> <i_lp_mmshare_version>
43012

> <i_f3d_flags>
0

> <s_epik_input>
W0NIM11jMVtjSF1uW2NIXVtjSF1jMVtOSF1DKD1PKVtOSF1bQ0gyXUMyKFtPSF0pW0NIMl1bQ0gyXVtDSDJdW0NIMl0y

> <s_epik_cmdline>
J2VwaWtfcHl0aG9uJywgJy1waCcsICc3LjAnLCAnLXRuJywgJzgnLCAnLW1hJywgJzIwMCcsICctbWV0YWxfYmluZGluZycsICctaW1hZScsICc8aW5maWxlLm1hZT4nLCAnLW9tYWUnLCAnPG91dGZpbGUubWFlPic=

> <r_epik_Ionization_Penalty>
0.224243

> <r_epik_Ionization_Penalty_Charging>
0

> <r_epik_Ionization_Penalty_Neutral>
0.224243

> <r_epik_State_Penalty>
0.214648

> <r_epik_Charging_Adjusted_Penalty>
0.214648

> <i_epik_Tot_Q>
0

> <i_epik_Tot_abs_Q>
0

> <r_epik_Metal_State_Penalty>
0.155078

> <b_epik_Metal_Only>
0

> <s_lp_Force_Field>
OPLS_2005

> <r_lp_Energy>
30.8814

> <b_lp_Chiralities_Consistent>
1

> <s_lp_Variant>
AV-unprocessed.smi:3295-1

> <Gold.Version>
5.8.1

> <Gold.Id.Protein>
6NUR|6NUR_protein|mol2

> <Gold.PLP.Fitness>
46.4880

> <Gold.PLP.PLP>
-35.3835

> <Gold.PLP.part.hbond>
-5.8591

> <Gold.PLP.part.metal>
0.0000

> <Gold.PLP.part.buried>
-0.5306

> <Gold.PLP.part.nonpolar>
-28.8028

> <Gold.PLP.part.repulsive>
0.2884

> <Gold.PLP.ligand.clash>
0.0000

> <Gold.PLP.ligand.torsion>
0.3926

> <Gold.PLP.Chemscore.Hbond>
2.9600

> <Gold.PLP.Chemscore.CHOScore>
1.0000

> <Gold.PLP.Chemscore.Metal>
0.0000

> <Gold.Chemscore.Hbonds>
donor molecule, donor type, donor heavy atom, donor atom, acceptor molecule, acceptor atom, score
      L1  H     8    25       P1  7948  0.96
      L1  H    11    26       P1  7948  1.00
      L1  H    14    29       P1 10171  1.00
      L1  C     5    23       P1  8028  1.00

> <Gold.PLP.Chemscore.Internal.Correction>
0.0097

> <Gold.Rescore>
     Score         DG    S(hbond)    S(metal)    S(lipo)     H(rot)  DE(clash)    DE(int)     intcor
     19.07     -19.44       2.92        0.00      73.21       1.71       0.00       0.36       ----

> <Gold.Chemscore.Fitness>
19.0738

> <Gold.Chemscore.DG>
-19.4356

> <Gold.Chemscore.ZeroCoef>
-5.4800

> <Gold.Chemscore.Hbond>
2.9248

> <Gold.Chemscore.Metal>
0.0000

> <Gold.Chemscore.Lipo>
73.2081

> <Gold.Chemscore.Internal_Hbond>
0.0000

> <Gold.Chemscore.DEClash>
0.0015

> <Gold.Chemscore.DEInternal>
0.3604

> <Gold.Chemscore.Rot>
1.7103

> <Gold.Chemscore.Internal.Correction>
   9.000000E+99

> <Gold.Chemscore.Hbonds>
donor molecule, donor type, donor heavy atom, donor atom, acceptor molecule, acceptor atom, score
      L1  H     8    25       P1  7948  0.92
      L1  H    11    26       P1  7948  0.94
      L1  H    14    29       P1 10171  0.98

> <Gold.Chemscore.Hbond.Weighted>
-9.7688

> <Gold.Chemscore.Metal.Weighted>
-0.0000

> <Gold.Chemscore.Lipo.Weighted>
-8.5654

> <Gold.Chemscore.Internal_Hbond.Weighted>
0.0000

> <Gold.Chemscore.DEClash.Weighted>
0.0015

> <Gold.Chemscore.DEInternal.Weighted>
0.3604

> <Gold.Chemscore.Rot.Weighted>
4.3785

> <Gold.Chemscore.Internal.Correction.Weighted>
   9.000000E+99

> <Gold.Protein.RotatedTorsions>
[ 6907 6896 6895 6894 ] final   28.84 input  -60.11 | X-H torsion
[ 7974 7965 7964 7962 ] final   -8.18 input  175.53 | X-H torsion
[ 8008 7997 7996 7995 ] final  -23.38 input   59.86 | X-H torsion
[ 10167 10162 10161 10158 ] final  -81.17 input  -65.29 | X-H torsion
[ 10718 10713 10712 10709 ] final  100.02 input   66.30 | X-H torsion
[ 10763 10752 10751 10750 ] final  151.19 input  -60.55 | X-H torsion
[ 11005 11000 10999 10996 ] final   -2.73 input  -57.11 | X-H torsion

> <Gold.Protein.ActiveResidues>
 VAL166  LYS551  ARG553  GLY616  TRP617  ASP618  TYR619  PRO620  LYS621  CYS622 
 ASP623  PHE694  ASN695  SER759  ASP760  ASP761  ALA762  ILE779  LEU786  VAL792 
 PHE793  MET794  SER795  GLU796  ALA797  LYS798  CYS799  TRP800  GLU811  SER814 

> <Gold.Protein.RotatedAtoms>
  152.0229  134.9812  160.0570 H   0  0  0  0  0  0  0  0  0  0  0  0  # atno 6907 bound_to 6896
  152.1320  133.4408  159.4733 H   0  0  0  0  0  0  0  0  0  0  0  0  # atno 6908 bound_to 6896
  150.6857  134.2328  159.4484 H   0  0  0  0  0  0  0  0  0  0  0  0  # atno 6909 bound_to 6896
  146.2287  140.2430  142.8344 H   0  0  0  0  0  0  0  0  0  0  0  0  # atno 7974 bound_to 7965
  154.4588  140.1982  156.0302 H   0  0  0  0  0  0  0  0  0  0  0  0  # atno 8008 bound_to 7997
  156.0800  140.3273  155.7654 H   0  0  0  0  0  0  0  0  0  0  0  0  # atno 8009 bound_to 7997
  155.5127  140.0563  157.2911 H   0  0  0  0  0  0  0  0  0  0  0  0  # atno 8010 bound_to 7997
  140.4436  143.2506  151.8590 H   0  0  0  0  0  0  0  0  0  0  0  0  # atno 10167 bound_to 10162
  157.6863  131.0686  150.5038 H   0  0  0  0  0  0  0  0  0  0  0  0  # atno 10718 bound_to 10713
  154.0998  135.2846  155.3254 H   0  0  0  0  0  0  0  0  0  0  0  0  # atno 10763 bound_to 10752
  154.6563  135.5351  153.7966 H   0  0  0  0  0  0  0  0  0  0  0  0  # atno 10764 bound_to 10752
  153.0383  135.6522  154.1162 H   0  0  0  0  0  0  0  0  0  0  0  0  # atno 10765 bound_to 10752
  140.6615  133.9315  155.8439 H   0  0  0  0  0  0  0  0  0  0  0  0  # atno 11005 bound_to 11000
  144.9470  140.8139  143.5595 LP  0  0  0  0  0  0  0  0  0  0  0  0  # atno 17320 bound_to 7965
  145.2387  139.2082  143.5004 LP  0  0  0  0  0  0  0  0  0  0  0  0  # atno 17321 bound_to 7965
  139.4791  144.5201  151.8814 LP  0  0  0  0  0  0  0  0  0  0  0  0  # atno 17342 bound_to 10162
  140.4289  144.2142  150.5887 LP  0  0  0  0  0  0  0  0  0  0  0  0  # atno 17343 bound_to 10162
  156.5358  130.4196  149.6178 LP  0  0  0  0  0  0  0  0  0  0  0  0  # atno 17370 bound_to 10713
  156.3029  130.7186  151.2062 LP  0  0  0  0  0  0  0  0  0  0  0  0  # atno 17371 bound_to 10713
  141.0461  134.0552  157.3842 LP  0  0  0  0  0  0  0  0  0  0  0  0  # atno 17394 bound_to 11000
  139.9011  135.0165  156.7273 LP  0  0  0  0  0  0  0  0  0  0  0  0  # atno 17395 bound_to 11000

$$$$
