AV-unprocessed.smi:3206|AV-procd|sdf|12257|dock1
  -GOLD-   2272018 93D 1   1.00000     0.00000
 Structure written by MMmdl.
 42 43  0  0  0  0  0  0  0  0  2 V2000
  152.4592  143.5854  161.3489 C   0  0  0  0  0  0  0  0  0  0  0  0
  152.5042  143.1750  159.8702 C   0  0  2  0  0  0  0  0  0  0  0  0
  151.5165  144.0009  159.0257 C   0  0  0  0  0  0  0  0  0  0  0  0
  151.5553  143.5879  157.5433 C   0  0  0  0  0  0  0  0  0  0  0  0
  151.2980  142.0793  157.3404 C   0  0  2  0  0  0  0  0  0  0  0  0
  149.8166  141.6908  157.5691 C   0  0  0  0  0  0  0  0  0  0  0  0
  148.9931  141.9566  156.3723 N   0  3  0  0  0  0  0  0  0  0  0  0
  149.6456  141.5891  155.1005 C   0  0  0  0  0  0  0  0  0  0  0  0
  149.4574  140.0941  154.7932 C   0  0  0  0  0  0  0  0  0  0  0  0
  150.7354  139.3091  154.7275 C   0  0  0  0  0  0  0  0  0  0  0  0
  151.9523  139.8359  154.6181 N   0  0  0  0  0  0  0  0  0  0  0  0
  152.7132  138.7035  154.6033 C   0  0  0  0  0  0  0  0  0  0  0  0
  152.0454  137.5571  154.6947 N   0  0  0  0  0  0  0  0  0  0  0  0
  150.7596  137.9688  154.7748 N   0  0  0  0  0  0  0  0  0  0  0  0
  149.6963  136.9886  154.8893 C   0  0  0  0  0  0  0  0  0  0  0  0
  152.2702  141.2561  158.2122 C   0  0  0  0  0  0  0  0  0  0  0  0
  152.2312  141.6698  159.6944 C   0  0  0  0  0  0  0  0  0  0  0  0
  151.4739  143.4072  161.7807 H   0  0  0  0  0  0  0  0  0  0  0  0
  152.6890  144.6444  161.4696 H   0  0  0  0  0  0  0  0  0  0  0  0
  153.1863  143.0226  161.9349 H   0  0  0  0  0  0  0  0  0  0  0  0
  153.5115  143.3787  159.5039 H   0  0  0  0  0  0  0  0  0  0  0  0
  150.5063  143.8819  159.4187 H   0  0  0  0  0  0  0  0  0  0  0  0
  151.7529  145.0622  159.1116 H   0  0  0  0  0  0  0  0  0  0  0  0
  150.8342  144.1744  156.9729 H   0  0  0  0  0  0  0  0  0  0  0  0
  152.5350  143.8396  157.1353 H   0  0  0  0  0  0  0  0  0  0  0  0
  151.5471  141.8576  156.3013 H   0  0  0  0  0  0  0  0  0  0  0  0
  149.7253  140.6339  157.8224 H   0  0  0  0  0  0  0  0  0  0  0  0
  149.3935  142.2439  158.4085 H   0  0  0  0  0  0  0  0  0  0  0  0
  148.1320  141.4350  156.4546 H   0  0  0  0  0  0  0  0  0  0  0  0
  149.2229  142.1934  154.2965 H   0  0  0  0  0  0  0  0  0  0  0  0
  150.7083  141.8281  155.1641 H   0  0  0  0  0  0  0  0  0  0  0  0
  148.8198  139.6432  155.5547 H   0  0  0  0  0  0  0  0  0  0  0  0
  148.9388  139.9805  153.8404 H   0  0  0  0  0  0  0  0  0  0  0  0
  153.7901  138.7250  154.5229 H   0  0  0  0  0  0  0  0  0  0  0  0
  148.7227  137.4746  154.9436 H   0  0  0  0  0  0  0  0  0  0  0  0
  149.8418  136.3933  155.7912 H   0  0  0  0  0  0  0  0  0  0  0  0
  149.7109  136.3285  154.0216 H   0  0  0  0  0  0  0  0  0  0  0  0
  152.0554  140.1914  158.1156 H   0  0  0  0  0  0  0  0  0  0  0  0
  153.2856  141.3915  157.8376 H   0  0  0  0  0  0  0  0  0  0  0  0
  152.9702  141.0918  160.2506 H   0  0  0  0  0  0  0  0  0  0  0  0
  151.2617  141.4183  160.1255 H   0  0  0  0  0  0  0  0  0  0  0  0
  148.7734  142.9423  156.3481 H   0  0  0  0  0  0  0  0  0  0  0  0
  1  2  1  0  0  0  0
  1 18  1  0  0  0  0
  1 19  1  0  0  0  0
  1 20  1  0  0  0  0
  2 17  1  0  0  0  0
  2  3  1  0  0  0  0
  2 21  1  0  0  0  0
  3  4  1  0  0  0  0
  3 22  1  0  0  0  0
  3 23  1  0  0  0  0
  4  5  1  0  0  0  0
  4 24  1  0  0  0  0
  4 25  1  0  0  0  0
  5  6  1  0  0  0  0
  5 16  1  0  0  0  0
  5 26  1  0  0  0  0
  6  7  1  0  0  0  0
  6 27  1  0  0  0  0
  6 28  1  0  0  0  0
  7  8  1  0  0  0  0
  7 29  1  0  0  0  0
  7 42  1  0  0  0  0
  8  9  1  0  0  0  0
  8 30  1  0  0  0  0
  8 31  1  0  0  0  0
  9 10  1  0  0  0  0
  9 32  1  0  0  0  0
  9 33  1  0  0  0  0
 10 14  1  0  0  0  0
 10 11  2  0  0  0  0
 11 12  1  0  0  0  0
 12 13  2  0  0  0  0
 12 34  1  0  0  0  0
 13 14  1  0  0  0  0
 14 15  1  0  0  0  0
 15 35  1  0  0  0  0
 15 36  1  0  0  0  0
 15 37  1  0  0  0  0
 16 17  1  0  0  0  0
 16 38  1  0  0  0  0
 16 39  1  0  0  0  0
 17 40  1  0  0  0  0
 17 41  1  0  0  0  0
M  CHG  1   7   1
M  END
> <s_m_source_file>
AV-unprocessed.smi

> <i_m_source_file_index>
3206

> <i_lp_mmshare_version>
43012

> <i_f3d_flags>
0

> <s_epik_input>
W0NIM11bQ0BASF0xW0NIMl1bQ0gyXVtDQEhdKFtDSDJdW0NIMl0xKVtDSDJdW05IXVtDSDJdW0NIMl1jMm5bY0hdbm4yW0NIM10=

> <s_epik_cmdline>
J2VwaWtfcHl0aG9uJywgJy1waCcsICc3LjAnLCAnLXRuJywgJzgnLCAnLW1hJywgJzIwMCcsICctbWV0YWxfYmluZGluZycsICctaW1hZScsICc8aW5maWxlLm1hZT4nLCAnLW9tYWUnLCAnPG91dGZpbGUubWFlPic=

> <r_lp_tautomer_probability>
1

> <r_epik_Ionization_Penalty>
0.00114491

> <r_epik_Ionization_Penalty_Charging>
0.00114083

> <r_epik_Ionization_Penalty_Neutral>
4.0852e-06

> <r_epik_State_Penalty>
-0

> <r_epik_Charging_Adjusted_Penalty>
0.00114083

> <i_epik_Tot_Q>
1

> <i_epik_Tot_abs_Q>
1

> <r_epik_Metal_State_Penalty>
-0

> <b_epik_Metal_Only>
0

> <s_lp_Force_Field>
OPLS_2005

> <r_lp_Energy>
20.2126

> <b_lp_Chiralities_Consistent>
1

> <s_lp_Variant>
AV-unprocessed.smi:3206-2

> <Gold.Version>
5.8.1

> <Gold.Id.Protein>
6NUR|6NUR_protein|mol2

> <Gold.PLP.Fitness>
50.0192

> <Gold.PLP.PLP>
-40.8883

> <Gold.PLP.part.hbond>
-3.0000

> <Gold.PLP.part.metal>
0.0000

> <Gold.PLP.part.buried>
-5.5125

> <Gold.PLP.part.nonpolar>
-32.9339

> <Gold.PLP.part.repulsive>
0.1944

> <Gold.PLP.ligand.clash>
0.0000

> <Gold.PLP.ligand.torsion>
1.0569

> <Gold.PLP.Chemscore.Hbond>
3.7162

> <Gold.PLP.Chemscore.CHOScore>
0.0000

> <Gold.PLP.Chemscore.Metal>
0.0000

> <Gold.Chemscore.Hbonds>
donor molecule, donor type, donor heavy atom, donor atom, acceptor molecule, acceptor atom, score
      L1  H     7    42       P1  8028  2.00
      P1  H  7989  7998       L1    11  0.87
      P1  H 10752 10765       L1    13  0.64

> <Gold.PLP.Chemscore.Internal.Correction>
0.0960

> <Gold.Rescore>
     Score         DG    S(hbond)    S(metal)    S(lipo)     H(rot)  DE(clash)    DE(int)     intcor
     19.10     -20.12       2.61        0.00      95.63       2.05       0.21       0.82       ----

> <Gold.Chemscore.Fitness>
19.1020

> <Gold.Chemscore.DG>
-20.1244

> <Gold.Chemscore.ZeroCoef>
-5.4800

> <Gold.Chemscore.Hbond>
2.6082

> <Gold.Chemscore.Metal>
0.0000

> <Gold.Chemscore.Lipo>
95.6261

> <Gold.Chemscore.Internal_Hbond>
0.0000

> <Gold.Chemscore.DEClash>
0.2059

> <Gold.Chemscore.DEInternal>
0.8165

> <Gold.Chemscore.Rot>
2.0528

> <Gold.Chemscore.Internal.Correction>
   9.000000E+99

> <Gold.Chemscore.Hbonds>
donor molecule, donor type, donor heavy atom, donor atom, acceptor molecule, acceptor atom, score
      L1  H     7    42       P1  8028  0.96
      P1  H  7989  7998       L1    11  0.18
      P1  H 10752 10765       L1    13  0.62

> <Gold.Chemscore.Hbond.Weighted>
-8.7112

> <Gold.Chemscore.Metal.Weighted>
-0.0000

> <Gold.Chemscore.Lipo.Weighted>
-11.1883

> <Gold.Chemscore.Internal_Hbond.Weighted>
0.0000

> <Gold.Chemscore.DEClash.Weighted>
0.2059

> <Gold.Chemscore.DEInternal.Weighted>
0.8165

> <Gold.Chemscore.Rot.Weighted>
5.2551

> <Gold.Chemscore.Internal.Correction.Weighted>
   9.000000E+99

> <Gold.Protein.RotatedTorsions>
[ 6907 6896 6895 6894 ] final   49.62 input  -60.11 | X-H torsion
[ 7974 7965 7964 7962 ] final  -34.10 input  175.53 | X-H torsion
[ 8008 7997 7996 7995 ] final -164.51 input   59.86 | X-H torsion
[ 10167 10162 10161 10158 ] final   45.23 input  -65.29 | X-H torsion
[ 10718 10713 10712 10709 ] final   89.70 input   66.30 | X-H torsion
[ 10763 10752 10751 10750 ] final  169.73 input  -60.55 | X-H torsion
[ 11005 11000 10999 10996 ] final   15.28 input  -57.11 | X-H torsion

> <Gold.Protein.ActiveResidues>
 VAL166  LYS551  ARG553  GLY616  TRP617  ASP618  TYR619  PRO620  LYS621  CYS622 
 ASP623  PHE694  ASN695  SER759  ASP760  ASP761  ALA762  ILE779  LEU786  VAL792 
 PHE793  MET794  SER795  GLU796  ALA797  LYS798  CYS799  TRP800  GLU811  SER814 

> <Gold.Protein.RotatedAtoms>
  152.2928  134.7701  160.0373 H   0  0  0  0  0  0  0  0  0  0  0  0  # atno 6907 bound_to 6896
  151.8242  133.3393  159.3601 H   0  0  0  0  0  0  0  0  0  0  0  0  # atno 6908 bound_to 6896
  150.7238  134.5474  159.5822 H   0  0  0  0  0  0  0  0  0  0  0  0  # atno 6909 bound_to 6896
  146.0857  140.5997  142.8887 H   0  0  0  0  0  0  0  0  0  0  0  0  # atno 7974 bound_to 7965
  155.8366  140.0942  157.1760 H   0  0  0  0  0  0  0  0  0  0  0  0  # atno 8008 bound_to 7997
  154.3981  140.1409  156.3739 H   0  0  0  0  0  0  0  0  0  0  0  0  # atno 8009 bound_to 7997
  155.8109  140.3449  155.5460 H   0  0  0  0  0  0  0  0  0  0  0  0  # atno 8010 bound_to 7997
  140.3263  144.2644  150.6175 H   0  0  0  0  0  0  0  0  0  0  0  0  # atno 10167 bound_to 10162
  157.6956  131.0343  150.3466 H   0  0  0  0  0  0  0  0  0  0  0  0  # atno 10718 bound_to 10713
  154.3873  135.2754  155.2175 H   0  0  0  0  0  0  0  0  0  0  0  0  # atno 10763 bound_to 10752
  154.4256  135.5989  153.6040 H   0  0  0  0  0  0  0  0  0  0  0  0  # atno 10764 bound_to 10752
  152.9833  135.5983  154.4124 H   0  0  0  0  0  0  0  0  0  0  0  0  # atno 10765 bound_to 10752
  140.4601  134.1136  155.7715 H   0  0  0  0  0  0  0  0  0  0  0  0  # atno 11005 bound_to 11000
  144.7324  140.4711  143.6928 LP  0  0  0  0  0  0  0  0  0  0  0  0  # atno 17320 bound_to 7965
  145.6134  139.1516  143.3063 LP  0  0  0  0  0  0  0  0  0  0  0  0  # atno 17321 bound_to 7965
  140.5438  143.2218  151.8041 LP  0  0  0  0  0  0  0  0  0  0  0  0  # atno 17342 bound_to 10162
  139.4864  144.4566  151.9591 LP  0  0  0  0  0  0  0  0  0  0  0  0  # atno 17343 bound_to 10162
  156.3920  130.3899  149.7023 LP  0  0  0  0  0  0  0  0  0  0  0  0  # atno 17370 bound_to 10713
  156.4369  130.7842  151.2863 LP  0  0  0  0  0  0  0  0  0  0  0  0  # atno 17371 bound_to 10713
  141.1625  133.8766  157.1808 LP  0  0  0  0  0  0  0  0  0  0  0  0  # atno 17394 bound_to 11000
  139.9951  135.0050  157.0063 LP  0  0  0  0  0  0  0  0  0  0  0  0  # atno 17395 bound_to 11000

$$$$
