#       Name:                AV-unprocessed.smi:1916
#       Creating user name   scv26
#       Creation time:       Fri Mar 27 09:51:01 2020


#       File generated by GOLD software.
#

@<TRIPOS>MOLECULE
AV-unprocessed.smi:1916
    50    52     1
SMALL
NO_CHARGES


@<TRIPOS>ATOM
      1 ****         1.1069   0.4124  -0.2938 O.2            1 S1                 0.0000
      2 ****         1.1419  -0.7523  -0.6925 C.2            1 S1                 0.0000
      3 ****         2.2820  -1.3980  -0.9848 N.am           1 S1                 0.0000
      4 ****         3.6286  -0.8481  -0.8455 C.3            1 S1                 0.0000
      5 ****         4.2748  -1.2032   0.5091 C.3            1 S1                 0.0000
      6 ****         3.5137  -0.6672   1.7101 C.ar           1 S1                 0.0000
      7 ****         2.6913  -1.5161   2.4821 C.ar           1 S1                 0.0000
      8 ****         1.9770  -0.9588   3.5601 C.ar           1 S1                 0.0000
      9 ****         2.1157   0.4167   3.8267 C.ar           1 S1                 0.0000
     10 ****         2.9682   1.1768   3.0013 C.ar           1 S1                 0.0000
     11 ****         3.6578   0.6527   1.9653 N.ar           1 S1                 0.0000
     12 ****        -0.1604  -1.5508  -0.8611 C.3            1 S1                 0.0000
     13 ****        -0.7736  -1.9066   0.5046 C.3            1 S1                 0.0000
     14 ****        -1.9812  -0.9904   0.6087 C.2            1 S1                 0.0000
     15 ****        -2.6264  -0.8638   1.6485 O.2            1 S1                 0.0000
     16 ****        -2.1999  -0.3407  -0.5427 N.am           1 S1                 0.0000
     17 ****        -3.1952   0.7268  -0.7273 C.3            1 S1                 0.0000
     18 ****        -3.7490   0.8761  -2.1649 C.3            1 S1                 0.0000
     19 ****        -3.6754   2.3706  -2.4869 C.3            1 S1                 0.0000
     20 ****        -2.5080   2.8866  -1.6512 C.3            1 S1                 0.0000
     21 ****        -2.6058   2.0990  -0.3453 C.3            1 S1                 0.0000
     22 ****        -1.2622  -0.7486  -1.5827 C.3            1 S1                 0.0000
     23 ****         2.2133  -2.3523  -1.3075 H              1 S1                 0.0000
     24 ****         4.2388  -1.2532  -1.6528 H              1 S1                 0.0000
     25 ****         3.6196   0.2339  -0.9879 H              1 S1                 0.0000
     26 ****         4.3670  -2.2864   0.5983 H              1 S1                 0.0000
     27 ****         5.2926  -0.8124   0.5399 H              1 S1                 0.0000
     28 ****         2.5958  -2.5655   2.2452 H              1 S1                 0.0000
     29 ****         1.3304  -1.5743   4.1679 H              1 S1                 0.0000
     30 ****         1.5809   0.8787   4.6433 H              1 S1                 0.0000
     31 ****         3.0991   2.2343   3.1771 H              1 S1                 0.0000
     32 ****         0.0545  -2.4612  -1.4237 H              1 S1                 0.0000
     33 ****        -1.1036  -2.9456   0.5292 H              1 S1                 0.0000
     34 ****        -0.0962  -1.7471   1.3449 H              1 S1                 0.0000
     35 ****        -4.0414   0.5264  -0.0672 H              1 S1                 0.0000
     36 ****        -3.1628   0.3343  -2.9044 H              1 S1                 0.0000
     37 ****        -4.7702   0.5018  -2.2441 H              1 S1                 0.0000
     38 ****        -3.5470   2.5645  -3.5522 H              1 S1                 0.0000
     39 ****        -4.5966   2.8606  -2.1686 H              1 S1                 0.0000
     40 ****        -1.5667   2.6540  -2.1508 H              1 S1                 0.0000
     41 ****        -2.5463   3.9649  -1.4950 H              1 S1                 0.0000
     42 ****        -3.2895   2.6086   0.3349 H              1 S1                 0.0000
     43 ****        -1.6413   2.0328   0.1607 H              1 S1                 0.0000
     44 ****        -0.8737   0.1161  -2.1236 H              1 S1                 0.0000
     45 ****        -1.7754  -1.3873  -2.3026 H              1 S1                 0.0000
     46 ****         1.9568   0.9254  -0.1732 LP             1 S1                 0.0000
     47 ****         0.2285   0.8452  -0.0906 LP             1 S1                 0.0000
     48 ****         4.2569   1.2236   1.4039 LP             1 S1                 0.0000
     49 ****        -2.3618  -1.3746   2.4665 LP             1 S1                 0.0000
     50 ****        -3.4155  -0.2501   1.6758 LP             1 S1                 0.0000
@<TRIPOS>BOND
    1    1    2 2     
    2    2    3 am    
    3    2   12 1     
    4    3    4 1     
    5    3   23 1     
    6    4    5 1     
    7    4   24 1     
    8    4   25 1     
    9    5    6 1     
   10    5   26 1     
   11    5   27 1     
   12    6   11 ar    
   13    6    7 ar    
   14    7    8 ar    
   15    7   28 1     
   16    8    9 ar    
   17    8   29 1     
   18    9   10 ar    
   19    9   30 1     
   20   10   11 ar    
   21   10   31 1     
   22   12   22 1     
   23   12   13 1     
   24   12   32 1     
   25   13   14 1     
   26   13   33 1     
   27   13   34 1     
   28   14   15 2     
   29   14   16 am    
   30   16   17 1     
   31   16   22 1     
   32   17   21 1     
   33   17   18 1     
   34   17   35 1     
   35   18   19 1     
   36   18   36 1     
   37   18   37 1     
   38   19   20 1     
   39   19   38 1     
   40   19   39 1     
   41   20   21 1     
   42   20   40 1     
   43   20   41 1     
   44   21   42 1     
   45   21   43 1     
   46   22   44 1     
   47   22   45 1     
   48    1   46 1     
   49    1   47 1     
   50   11   48 1     
   51   15   49 1     
   52   15   50 1     
@<TRIPOS>SUBSTRUCTURE
      1 S1             1
@<TRIPOS>SET
LONE_PAIRS      STATIC     ATOMS    <user>   **** ""
5 46 47 48 49 50
DONOR_HYDROGENS      STATIC     ATOMS    <user>   **** ""
1 23
ATOM$BLUE        STATIC     ATOMS    COLORGROUP SYSTEM
5 46 47 48 49 50
ATOM$RED        STATIC     ATOMS    COLORGROUP SYSTEM
1 23
