AV-unprocessed.smi:631|AV-procd|sdf|3125|dock2
  -GOLD-   22720 0 43D 1   1.00000     0.00000
 Structure written by MMmdl.
 38 39  0  0  0  0  0  0  0  0  1 V2000
  148.6658  141.9092  155.5482 C   0  0  0  0  0  0  0  0  0  0  0  0
  149.8705  141.0739  155.8882 C   0  0  0  0  0  0  0  0  0  0  0  0
  150.5477  141.4287  156.9301 N   0  0  0  0  0  0  0  0  0  0  0  0
  151.6666  140.7261  157.3379 N   0  0  0  0  0  0  0  0  0  0  0  0
  152.3014  141.2584  158.5546 C   0  0  0  0  0  0  0  0  0  0  0  0
  151.6611  142.5665  159.1049 C   0  0  0  0  0  0  0  0  0  0  0  0
  150.2833  142.3093  159.3064 O   0  0  0  0  0  0  0  0  0  0  0  0
  152.2570  142.8821  160.4992 C   0  0  0  0  0  0  0  0  0  0  0  0
  151.7310  144.1967  161.1036 C   0  0  0  0  0  0  0  0  0  0  0  0
  151.9479  145.3754  160.1455 C   0  0  0  0  0  0  0  0  0  0  0  0
  151.2980  145.0994  158.7828 C   0  0  0  0  0  0  0  0  0  0  0  0
  151.8184  143.7897  158.1640 C   0  0  0  0  0  0  0  0  0  0  0  0
  152.1863  139.6503  156.6798 C   0  0  0  0  0  0  0  0  0  0  0  0
  153.2165  139.0820  157.0433 O   0  0  0  0  0  0  0  0  0  0  0  0
  151.4070  139.2464  155.5073 C   0  0  0  0  0  0  0  0  0  0  0  0
  151.9009  138.1056  154.8060 C   0  0  0  0  0  0  0  0  0  0  0  0
  152.2830  137.1803  154.2244 N   0  0  0  0  0  0  0  0  0  0  0  0
  150.2931  139.9124  155.1133 C   0  0  0  0  0  0  0  0  0  0  0  0
  149.4532  139.5359  153.9003 C   0  0  0  0  0  0  0  0  0  0  0  0
  148.7435  142.3084  154.5369 H   0  0  0  0  0  0  0  0  0  0  0  0
  148.5528  142.7558  156.2273 H   0  0  0  0  0  0  0  0  0  0  0  0
  147.7541  141.3148  155.6091 H   0  0  0  0  0  0  0  0  0  0  0  0
  152.3460  140.4953  159.3343 H   0  0  0  0  0  0  0  0  0  0  0  0
  153.3486  141.4568  158.3171 H   0  0  0  0  0  0  0  0  0  0  0  0
  150.1888  141.7710  160.0773 H   0  0  0  0  0  0  0  0  0  0  0  0
  152.0632  142.0589  161.1885 H   0  0  0  0  0  0  0  0  0  0  0  0
  153.3423  142.9553  160.4177 H   0  0  0  0  0  0  0  0  0  0  0  0
  150.6697  144.1023  161.3362 H   0  0  0  0  0  0  0  0  0  0  0  0
  152.2339  144.3938  162.0507 H   0  0  0  0  0  0  0  0  0  0  0  0
  151.5350  146.2873  160.5777 H   0  0  0  0  0  0  0  0  0  0  0  0
  153.0165  145.5503  160.0145 H   0  0  0  0  0  0  0  0  0  0  0  0
  150.2146  145.0488  158.8974 H   0  0  0  0  0  0  0  0  0  0  0  0
  151.4944  145.9306  158.1051 H   0  0  0  0  0  0  0  0  0  0  0  0
  152.8729  143.9168  157.9161 H   0  0  0  0  0  0  0  0  0  0  0  0
  151.3017  143.6168  157.2193 H   0  0  0  0  0  0  0  0  0  0  0  0
  149.8114  138.6283  153.4160 H   0  0  0  0  0  0  0  0  0  0  0  0
  149.4750  140.3348  153.1586 H   0  0  0  0  0  0  0  0  0  0  0  0
  148.4163  139.3625  154.1893 H   0  0  0  0  0  0  0  0  0  0  0  0
  1  2  1  0  0  0  0
  1 20  1  0  0  0  0
  1 21  1  0  0  0  0
  1 22  1  0  0  0  0
  2 18  1  0  0  0  0
  2  3  2  0  0  0  0
  3  4  1  0  0  0  0
  4  5  1  0  0  0  0
  4 13  1  0  0  0  0
  5  6  1  0  0  0  0
  5 23  1  0  0  0  0
  5 24  1  0  0  0  0
  6 12  1  0  0  0  0
  6  7  1  0  0  0  0
  6  8  1  0  0  0  0
  7 25  1  0  0  0  0
  8  9  1  0  0  0  0
  8 26  1  0  0  0  0
  8 27  1  0  0  0  0
  9 10  1  0  0  0  0
  9 28  1  0  0  0  0
  9 29  1  0  0  0  0
 10 11  1  0  0  0  0
 10 30  1  0  0  0  0
 10 31  1  0  0  0  0
 11 12  1  0  0  0  0
 11 32  1  0  0  0  0
 11 33  1  0  0  0  0
 12 34  1  0  0  0  0
 12 35  1  0  0  0  0
 13 14  2  0  0  0  0
 13 15  1  0  0  0  0
 15 16  1  0  0  0  0
 15 18  2  0  0  0  0
 16 17  3  0  0  0  0
 18 19  1  0  0  0  0
 19 36  1  0  0  0  0
 19 37  1  0  0  0  0
 19 38  1  0  0  0  0
M  END
> <s_m_source_file>
AV-unprocessed.smi

> <i_m_source_file_index>
631

> <i_lp_mmshare_version>
43012

> <i_f3d_flags>
0

> <s_epik_input>
TiNDYyhjMVtDSDNdKWMoPU8pbihuYzFbQ0gzXSlbQ0gyXUMyKFtPSF0pW0NIMl1bQ0gyXVtDSDJdW0NIMl1bQ0gyXTI=

> <s_epik_cmdline>
J2VwaWtfcHl0aG9uJywgJy1waCcsICc3LjAnLCAnLXRuJywgJzgnLCAnLW1hJywgJzIwMCcsICctbWV0YWxfYmluZGluZycsICctaW1hZScsICc8aW5maWxlLm1hZT4nLCAnLW9tYWUnLCAnPG91dGZpbGUubWFlPic=

> <r_lp_tautomer_probability>
1

> <r_epik_Ionization_Penalty>
3.87467e-07

> <r_epik_Ionization_Penalty_Charging>
4.48646e-10

> <r_epik_Ionization_Penalty_Neutral>
3.87018e-07

> <r_epik_State_Penalty>
-0

> <r_epik_Charging_Adjusted_Penalty>
4.48646e-10

> <i_epik_Tot_Q>
0

> <i_epik_Tot_abs_Q>
0

> <r_epik_Metal_State_Penalty>
-0

> <b_epik_Metal_Only>
0

> <s_lp_Force_Field>
OPLS_2005

> <r_lp_Energy>
32.3916

> <b_lp_Chiralities_Consistent>
1

> <s_lp_Variant>
AV-unprocessed.smi:631-1

> <Gold.Version>
5.8.1

> <Gold.Id.Protein>
6NUR|6NUR_protein|mol2

> <Gold.PLP.Fitness>
47.1560

> <Gold.PLP.PLP>
-41.5319

> <Gold.PLP.part.hbond>
-2.9207

> <Gold.PLP.part.metal>
0.0000

> <Gold.PLP.part.buried>
-0.3418

> <Gold.PLP.part.nonpolar>
-39.1138

> <Gold.PLP.part.repulsive>
0.6788

> <Gold.PLP.ligand.clash>
0.0000

> <Gold.PLP.ligand.torsion>
0.0600

> <Gold.PLP.Chemscore.Hbond>
1.9120

> <Gold.PLP.Chemscore.CHOScore>
0.0000

> <Gold.PLP.Chemscore.Metal>
0.0000

> <Gold.Chemscore.Hbonds>
donor molecule, donor type, donor heavy atom, donor atom, acceptor molecule, acceptor atom, score
      P1  H  7997  8010       L1    14  1.00
      P1  H 10752 10765       L1    17  0.85

> <Gold.PLP.Chemscore.Internal.Correction>
0.0082

> <Gold.Rescore>
     Score         DG    S(hbond)    S(metal)    S(lipo)     H(rot)  DE(clash)    DE(int)     intcor
     19.63     -20.09       1.96        0.00     105.51       1.68       0.27       0.19       ----

> <Gold.Chemscore.Fitness>
19.6316

> <Gold.Chemscore.DG>
-20.0915

> <Gold.Chemscore.ZeroCoef>
-5.4800

> <Gold.Chemscore.Hbond>
1.9626

> <Gold.Chemscore.Metal>
0.0000

> <Gold.Chemscore.Lipo>
105.5146

> <Gold.Chemscore.Internal_Hbond>
0.0000

> <Gold.Chemscore.DEClash>
0.2718

> <Gold.Chemscore.DEInternal>
0.1881

> <Gold.Chemscore.Rot>
1.6753

> <Gold.Chemscore.Internal.Correction>
   9.000000E+99

> <Gold.Chemscore.Hbonds>
donor molecule, donor type, donor heavy atom, donor atom, acceptor molecule, acceptor atom, score
      P1  H  7997  8010       L1    14  0.77
      P1  H 10752 10765       L1    17  0.84

> <Gold.Chemscore.Hbond.Weighted>
-6.5551

> <Gold.Chemscore.Metal.Weighted>
-0.0000

> <Gold.Chemscore.Lipo.Weighted>
-12.3452

> <Gold.Chemscore.Internal_Hbond.Weighted>
0.0000

> <Gold.Chemscore.DEClash.Weighted>
0.2718

> <Gold.Chemscore.DEInternal.Weighted>
0.1881

> <Gold.Chemscore.Rot.Weighted>
4.2888

> <Gold.Chemscore.Internal.Correction.Weighted>
   9.000000E+99

> <Gold.Protein.RotatedTorsions>
[ 6907 6896 6895 6894 ] final   26.77 input  -60.11 | X-H torsion
[ 7974 7965 7964 7962 ] final   83.36 input  175.53 | X-H torsion
[ 8008 7997 7996 7995 ] final   43.59 input   59.86 | X-H torsion
[ 10167 10162 10161 10158 ] final  -31.93 input  -65.29 | X-H torsion
[ 10718 10713 10712 10709 ] final   14.07 input   66.30 | X-H torsion
[ 10763 10752 10751 10750 ] final  157.21 input  -60.55 | X-H torsion
[ 11005 11000 10999 10996 ] final   64.69 input  -57.11 | X-H torsion

> <Gold.Protein.ActiveResidues>
 VAL166  LYS551  ARG553  GLY616  TRP617  ASP618  TYR619  PRO620  LYS621  CYS622 
 ASP623  PHE694  ASN695  SER759  ASP760  ASP761  ALA762  ILE779  LEU786  VAL792 
 PHE793  MET794  SER795  GLU796  ALA797  LYS798  CYS799  TRP800  GLU811  SER814 

> <Gold.Protein.RotatedAtoms>
  151.9924  134.9972  160.0561 H   0  0  0  0  0  0  0  0  0  0  0  0  # atno 6907 bound_to 6896
  152.1595  133.4568  159.4862 H   0  0  0  0  0  0  0  0  0  0  0  0  # atno 6908 bound_to 6896
  150.6886  134.2006  159.4364 H   0  0  0  0  0  0  0  0  0  0  0  0  # atno 6909 bound_to 6896
  145.6129  139.2371  143.2182 H   0  0  0  0  0  0  0  0  0  0  0  0  # atno 7974 bound_to 7965
  155.3052  140.3387  155.4246 H   0  0  0  0  0  0  0  0  0  0  0  0  # atno 8008 bound_to 7997
  156.1982  140.1723  156.7993 H   0  0  0  0  0  0  0  0  0  0  0  0  # atno 8009 bound_to 7997
  154.5525  140.0703  156.8675 H   0  0  0  0  0  0  0  0  0  0  0  0  # atno 8010 bound_to 7997
  140.7229  143.3733  151.1737 H   0  0  0  0  0  0  0  0  0  0  0  0  # atno 10167 bound_to 10162
  157.0338  130.6203  149.5739 H   0  0  0  0  0  0  0  0  0  0  0  0  # atno 10718 bound_to 10713
  154.1966  135.2792  155.3005 H   0  0  0  0  0  0  0  0  0  0  0  0  # atno 10763 bound_to 10752
  154.5887  135.5566  153.7260 H   0  0  0  0  0  0  0  0  0  0  0  0  # atno 10764 bound_to 10752
  153.0098  135.6363  154.2104 H   0  0  0  0  0  0  0  0  0  0  0  0  # atno 10765 bound_to 10752
  139.9942  134.6543  156.0038 H   0  0  0  0  0  0  0  0  0  0  0  0  # atno 11005 bound_to 11000
  146.1491  140.6951  142.9331 LP  0  0  0  0  0  0  0  0  0  0  0  0  # atno 17320 bound_to 7965
  144.7262  140.4533  143.6971 LP  0  0  0  0  0  0  0  0  0  0  0  0  # atno 17321 bound_to 7965
  139.7308  143.9075  152.3019 LP  0  0  0  0  0  0  0  0  0  0  0  0  # atno 17342 bound_to 10162
  139.8864  144.6990  150.8820 LP  0  0  0  0  0  0  0  0  0  0  0  0  # atno 17343 bound_to 10162
  156.0061  130.5147  150.7833 LP  0  0  0  0  0  0  0  0  0  0  0  0  # atno 17370 bound_to 10713
  157.5157  131.0928  151.0142 LP  0  0  0  0  0  0  0  0  0  0  0  0  # atno 17371 bound_to 10713
  141.1591  133.6540  156.4259 LP  0  0  0  0  0  0  0  0  0  0  0  0  # atno 17394 bound_to 11000
  140.4849  134.6629  157.5187 LP  0  0  0  0  0  0  0  0  0  0  0  0  # atno 17395 bound_to 11000

$$$$
