AV-unprocessed.smi:149|AV-procd|sdf|1235|dock4
  -GOLD-   2262018443D 1   1.00000     0.00000
 Structure written by MMmdl.
 60 64  0  0  0  0  0  0  0  0  2 V2000
  153.4090  136.9494  163.4234 C   0  0  0  0  0  0  0  0  0  0  0  0
  154.6388  137.1200  162.5083 C   0  0  1  0  0  0  0  0  0  0  0  0
  154.2064  137.2168  161.0355 C   0  0  0  0  0  0  0  0  0  0  0  0
  154.1818  138.6385  160.7129 N   0  0  0  0  0  0  0  0  0  0  0  0
  153.3245  139.1350  159.7834 C   0  0  0  0  0  0  0  0  0  0  0  0
  153.2984  140.4773  159.5700 N   0  0  0  0  0  0  0  0  0  0  0  0
  152.4695  141.0036  158.6645 C   0  0  0  0  0  0  0  0  0  0  0  0
  151.5996  140.3800  157.8696 N   0  0  0  0  0  0  0  0  0  0  0  0
  151.6257  139.0303  158.0645 C   0  0  0  0  0  0  0  0  0  0  0  0
  152.4515  138.3310  158.9924 C   0  0  0  0  0  0  0  0  0  0  0  0
  152.2089  136.9655  158.8964 N   0  0  0  0  0  0  0  0  0  0  0  0
  151.2899  136.8640  157.9765 C   0  0  0  0  0  0  0  0  0  0  0  0
  150.8791  138.0547  157.4215 N   0  0  0  0  0  0  0  0  0  0  0  0
  149.8874  138.2158  156.3943 C   0  0  0  0  0  0  0  0  0  0  0  0
  150.2220  138.8701  155.0527 C   0  0  0  0  0  0  0  0  0  0  0  0
  148.7859  139.4374  154.9807 C   0  0  0  0  0  0  0  0  0  0  0  0
  148.6827  140.8906  154.4891 C   0  0  0  0  0  0  0  0  0  0  0  0
  149.3939  141.0772  153.2822 O   0  0  0  0  0  0  0  0  0  0  0  0
  147.7769  138.5659  154.2058 C   0  0  0  0  0  0  0  0  0  0  0  0
  148.0557  138.5575  152.8202 O   0  0  0  0  0  0  0  0  0  0  0  0
  148.7706  139.2537  156.5164 C   0  0  0  0  0  0  0  0  0  0  0  0
  154.5947  139.4222  161.8673 C   0  0  0  0  0  0  0  0  0  0  0  0
  155.4095  138.4401  162.7155 C   0  0  1  0  0  0  0  0  0  0  0  0
  155.6052  138.8422  164.1368 N   0  3  0  0  0  0  0  0  0  0  0  0
  156.6990  138.0865  164.8001 C   0  0  0  0  0  0  0  0  0  0  0  0
  156.8246  138.4957  166.2768 C   0  0  0  0  0  0  0  0  0  0  0  0
  157.0521  139.8959  166.3637 O   0  0  0  0  0  0  0  0  0  0  0  0
  155.9739  140.6405  165.8139 C   0  0  0  0  0  0  0  0  0  0  0  0
  155.8151  140.3010  164.3222 C   0  0  0  0  0  0  0  0  0  0  0  0
  152.7100  137.7796  163.3195 H   0  0  0  0  0  0  0  0  0  0  0  0
  153.6902  136.8815  164.4737 H   0  0  0  0  0  0  0  0  0  0  0  0
  152.8689  136.0350  163.1771 H   0  0  0  0  0  0  0  0  0  0  0  0
  155.2961  136.2611  162.6482 H   0  0  0  0  0  0  0  0  0  0  0  0
  154.9375  136.7284  160.3905 H   0  0  0  0  0  0  0  0  0  0  0  0
  153.2397  136.7392  160.8703 H   0  0  0  0  0  0  0  0  0  0  0  0
  152.5085  142.0782  158.5619 H   0  0  0  0  0  0  0  0  0  0  0  0
  150.8863  135.9081  157.6758 H   0  0  0  0  0  0  0  0  0  0  0  0
  149.4553  137.2278  156.2255 H   0  0  0  0  0  0  0  0  0  0  0  0
  150.9811  139.6494  155.1348 H   0  0  0  0  0  0  0  0  0  0  0  0
  150.4751  138.1661  154.2593 H   0  0  0  0  0  0  0  0  0  0  0  0
  147.6456  141.1922  154.3413 H   0  0  0  0  0  0  0  0  0  0  0  0
  149.0975  141.5778  155.2273 H   0  0  0  0  0  0  0  0  0  0  0  0
  149.1349  140.4016  152.6741 H   0  0  0  0  0  0  0  0  0  0  0  0
  147.7751  137.5380  154.5691 H   0  0  0  0  0  0  0  0  0  0  0  0
  146.7585  138.9325  154.3366 H   0  0  0  0  0  0  0  0  0  0  0  0
  148.7585  139.1664  152.6520 H   0  0  0  0  0  0  0  0  0  0  0  0
  147.8392  138.8616  156.9259 H   0  0  0  0  0  0  0  0  0  0  0  0
  149.0799  140.1508  157.0549 H   0  0  0  0  0  0  0  0  0  0  0  0
  155.1880  140.2853  161.5630 H   0  0  0  0  0  0  0  0  0  0  0  0
  153.7169  139.7773  162.4088 H   0  0  0  0  0  0  0  0  0  0  0  0
  156.3933  138.3399  162.2521 H   0  0  0  0  0  0  0  0  0  0  0  0
  156.5163  137.0139  164.7409 H   0  0  0  0  0  0  0  0  0  0  0  0
  157.6405  138.2762  164.2822 H   0  0  0  0  0  0  0  0  0  0  0  0
  155.9284  138.2227  166.8364 H   0  0  0  0  0  0  0  0  0  0  0  0
  157.6615  137.9737  166.7409 H   0  0  0  0  0  0  0  0  0  0  0  0
  155.0536  140.4302  166.3614 H   0  0  0  0  0  0  0  0  0  0  0  0
  156.1812  141.7035  165.9373 H   0  0  0  0  0  0  0  0  0  0  0  0
  156.7016  140.6167  163.7702 H   0  0  0  0  0  0  0  0  0  0  0  0
  154.9714  140.8651  163.9251 H   0  0  0  0  0  0  0  0  0  0  0  0
  154.7498  138.6118  164.6219 H   0  0  0  0  0  0  0  0  0  0  0  0
  1  2  1  0  0  0  0
  1 30  1  0  0  0  0
  1 31  1  0  0  0  0
  1 32  1  0  0  0  0
  2 23  1  0  0  0  0
  2  3  1  0  0  0  0
  2 33  1  0  0  0  0
  3  4  1  0  0  0  0
  3 34  1  0  0  0  0
  3 35  1  0  0  0  0
  4  5  1  0  0  0  0
  4 22  1  0  0  0  0
  5 10  1  0  0  0  0
  5  6  2  0  0  0  0
  6  7  1  0  0  0  0
  7  8  2  0  0  0  0
  7 36  1  0  0  0  0
  8  9  1  0  0  0  0
  9 13  1  0  0  0  0
  9 10  2  0  0  0  0
 10 11  1  0  0  0  0
 11 12  2  0  0  0  0
 12 13  1  0  0  0  0
 12 37  1  0  0  0  0
 13 14  1  0  0  0  0
 14 21  1  0  0  0  0
 14 15  1  0  0  0  0
 14 38  1  0  0  0  0
 15 16  1  0  0  0  0
 15 39  1  0  0  0  0
 15 40  1  0  0  0  0
 16 17  1  0  0  0  0
 16 19  1  0  0  0  0
 16 21  1  0  0  0  0
 17 18  1  0  0  0  0
 17 41  1  0  0  0  0
 17 42  1  0  0  0  0
 18 43  1  0  0  0  0
 19 20  1  0  0  0  0
 19 44  1  0  0  0  0
 19 45  1  0  0  0  0
 20 46  1  0  0  0  0
 21 47  1  0  0  0  0
 21 48  1  0  0  0  0
 22 23  1  0  0  0  0
 22 49  1  0  0  0  0
 22 50  1  0  0  0  0
 23 24  1  0  0  0  0
 23 51  1  0  0  0  0
 24 29  1  0  0  0  0
 24 25  1  0  0  0  0
 24 60  1  0  0  0  0
 25 26  1  0  0  0  0
 25 52  1  0  0  0  0
 25 53  1  0  0  0  0
 26 27  1  0  0  0  0
 26 54  1  0  0  0  0
 26 55  1  0  0  0  0
 27 28  1  0  0  0  0
 28 29  1  0  0  0  0
 28 56  1  0  0  0  0
 28 57  1  0  0  0  0
 29 58  1  0  0  0  0
 29 59  1  0  0  0  0
M  CHG  1  24   1
M  END
> <s_m_source_file>
AV-unprocessed.smi

> <i_m_source_file_index>
149

> <i_lp_mmshare_version>
43012

> <i_f3d_flags>
0

> <s_epik_input>
W0NIMl0xW0NIMl1PW0NIMl1bQ0gyXU4xW0NAQEhdMltDSDJdTihbQ0gyXVtDQEhdMltDSDNdKWMobltjSF1uMyljKGMzNCluW2NIXW40W0NIXShbQ0gyXTUpW0NIMl1DNShbQ0gyXVtPSF0pW0NIMl1bT0hd

> <s_epik_cmdline>
J2VwaWtfcHl0aG9uJywgJy1waCcsICc3LjAnLCAnLXRuJywgJzgnLCAnLW1hJywgJzIwMCcsICctbWV0YWxfYmluZGluZycsICctaW1hZScsICc8aW5maWxlLm1hZT4nLCAnLW9tYWUnLCAnPG91dGZpbGUubWFlPic=

> <r_lp_tautomer_probability>
1

> <r_epik_Ionization_Penalty>
0.404847

> <r_epik_Ionization_Penalty_Charging>
0.404623

> <r_epik_Ionization_Penalty_Neutral>
0.000224096

> <r_epik_State_Penalty>
0.238803

> <r_epik_Charging_Adjusted_Penalty>
0.643425

> <i_epik_Tot_Q>
1

> <i_epik_Tot_abs_Q>
1

> <r_epik_Metal_State_Penalty>
0.239083

> <b_epik_Metal_Only>
0

> <s_lp_Force_Field>
OPLS_2005

> <r_lp_Energy>
70.5457

> <b_lp_Chiralities_Consistent>
1

> <s_lp_Variant>
AV-unprocessed.smi:149-2

> <Gold.Version>
5.8.1

> <Gold.Id.Protein>
6NUR|6NUR_protein|mol2

> <Gold.PLP.Fitness>
45.7524

> <Gold.PLP.PLP>
-38.1840

> <Gold.PLP.part.hbond>
-5.2692

> <Gold.PLP.part.metal>
0.0000

> <Gold.PLP.part.buried>
-7.5223

> <Gold.PLP.part.nonpolar>
-26.4270

> <Gold.PLP.part.repulsive>
0.0223

> <Gold.PLP.ligand.clash>
0.0000

> <Gold.PLP.ligand.torsion>
1.0915

> <Gold.PLP.Chemscore.Hbond>
3.0130

> <Gold.PLP.Chemscore.CHOScore>
0.0000

> <Gold.PLP.Chemscore.Metal>
0.0000

> <Gold.Chemscore.Hbonds>
donor molecule, donor type, donor heavy atom, donor atom, acceptor molecule, acceptor atom, score
      L1  H    18    43       P1  7957  0.64
      L1  H    20    46       P1  7957  0.77
      P1  H  6896  6909       L1    11  0.53
      P1  H  7989  7998       L1    18  0.09
      P1  H  8011  8017       L1    18  1.00

> <Gold.PLP.Chemscore.Internal.Correction>
0.7123

> <Gold.Rescore>
     Score         DG    S(hbond)    S(metal)    S(lipo)     H(rot)  DE(clash)    DE(int)     intcor
     12.83     -14.75       2.28        0.00      81.79       3.09       0.00       1.91       ----

> <Gold.Chemscore.Fitness>
12.8321

> <Gold.Chemscore.DG>
-14.7456

> <Gold.Chemscore.ZeroCoef>
-5.4800

> <Gold.Chemscore.Hbond>
2.2783

> <Gold.Chemscore.Metal>
0.0000

> <Gold.Chemscore.Lipo>
81.7906

> <Gold.Chemscore.Internal_Hbond>
0.0000

> <Gold.Chemscore.DEClash>
0.0015

> <Gold.Chemscore.DEInternal>
1.9119

> <Gold.Chemscore.Rot>
3.0912

> <Gold.Chemscore.Internal.Correction>
   9.000000E+99

> <Gold.Chemscore.Hbonds>
donor molecule, donor type, donor heavy atom, donor atom, acceptor molecule, acceptor atom, score
      L1  H    18    43       P1  7957  0.64
      L1  H    20    46       P1  7957  0.76
      P1  H  6896  6909       L1    11  0.12
      P1  H  7989  7998       L1    18  0.04
      P1  H  8011  8017       L1    18  0.50

> <Gold.Chemscore.Hbond.Weighted>
-7.6095

> <Gold.Chemscore.Metal.Weighted>
-0.0000

> <Gold.Chemscore.Lipo.Weighted>
-9.5695

> <Gold.Chemscore.Internal_Hbond.Weighted>
0.0000

> <Gold.Chemscore.DEClash.Weighted>
0.0015

> <Gold.Chemscore.DEInternal.Weighted>
1.9119

> <Gold.Chemscore.Rot.Weighted>
7.9135

> <Gold.Chemscore.Internal.Correction.Weighted>
   9.000000E+99

> <Gold.Protein.RotatedTorsions>
[ 6907 6896 6895 6894 ] final  133.02 input  -60.11 | X-H torsion
[ 7974 7965 7964 7962 ] final  -36.77 input  175.53 | X-H torsion
[ 8008 7997 7996 7995 ] final   32.31 input   59.86 | X-H torsion
[ 10167 10162 10161 10158 ] final   38.46 input  -65.29 | X-H torsion
[ 10718 10713 10712 10709 ] final   -5.23 input   66.30 | X-H torsion
[ 10763 10752 10751 10750 ] final    1.12 input  -60.55 | X-H torsion
[ 11005 11000 10999 10996 ] final   95.22 input  -57.11 | X-H torsion

> <Gold.Protein.ActiveResidues>
 VAL166  LYS551  ARG553  GLY616  TRP617  ASP618  TYR619  PRO620  LYS621  CYS622 
 ASP623  PHE694  ASN695  SER759  ASP760  ASP761  ALA762  ILE779  LEU786  VAL792 
 PHE793  MET794  SER795  GLU796  ALA797  LYS798  CYS799  TRP800  GLU811  SER814 

> <Gold.Protein.RotatedAtoms>
  152.3263  133.5909  159.5778 H   0  0  0  0  0  0  0  0  0  0  0  0  # atno 6907 bound_to 6896
  150.7398  133.9935  159.3624 H   0  0  0  0  0  0  0  0  0  0  0  0  # atno 6908 bound_to 6896
  151.7815  135.0761  160.0425 H   0  0  0  0  0  0  0  0  0  0  0  0  # atno 6909 bound_to 6896
  146.0633  140.6318  142.8987 H   0  0  0  0  0  0  0  0  0  0  0  0  # atno 7974 bound_to 7965
  155.1204  140.3247  155.4499 H   0  0  0  0  0  0  0  0  0  0  0  0  # atno 8008 bound_to 7997
  156.2664  140.2028  156.6274 H   0  0  0  0  0  0  0  0  0  0  0  0  # atno 8009 bound_to 7997
  154.6688  140.0539  157.0130 H   0  0  0  0  0  0  0  0  0  0  0  0  # atno 8010 bound_to 7997
  140.3934  144.1822  150.6131 H   0  0  0  0  0  0  0  0  0  0  0  0  # atno 10167 bound_to 10162
  156.7497  130.5235  149.5806 H   0  0  0  0  0  0  0  0  0  0  0  0  # atno 10718 bound_to 10713
  153.3121  135.6963  153.7106 H   0  0  0  0  0  0  0  0  0  0  0  0  # atno 10763 bound_to 10752
  153.5980  135.3467  155.2936 H   0  0  0  0  0  0  0  0  0  0  0  0  # atno 10764 bound_to 10752
  154.8577  135.4334  154.2261 H   0  0  0  0  0  0  0  0  0  0  0  0  # atno 10765 bound_to 10752
  139.8791  134.8887  156.3978 H   0  0  0  0  0  0  0  0  0  0  0  0  # atno 11005 bound_to 11000
  144.7187  140.4300  143.7024 LP  0  0  0  0  0  0  0  0  0  0  0  0  # atno 17320 bound_to 7965
  145.6522  139.1567  143.2855 LP  0  0  0  0  0  0  0  0  0  0  0  0  # atno 17321 bound_to 7965
  140.4816  143.2377  151.8947 LP  0  0  0  0  0  0  0  0  0  0  0  0  # atno 17342 bound_to 10162
  139.4788  144.5263  151.8730 LP  0  0  0  0  0  0  0  0  0  0  0  0  # atno 17343 bound_to 10162
  156.1410  130.6244  151.0466 LP  0  0  0  0  0  0  0  0  0  0  0  0  # atno 17370 bound_to 10713
  157.6783  131.0845  150.7438 LP  0  0  0  0  0  0  0  0  0  0  0  0  # atno 17371 bound_to 10713
  140.9288  133.7594  155.9998 LP  0  0  0  0  0  0  0  0  0  0  0  0  # atno 17394 bound_to 11000
  140.8355  134.3128  157.5333 LP  0  0  0  0  0  0  0  0  0  0  0  0  # atno 17395 bound_to 11000

$$$$
