#       Name:                AV-unprocessed.smi:2922
#       Creating user name   scv26
#       Creation time:       Fri Mar 27 16:09:04 2020


#       File generated by GOLD software.
#

@<TRIPOS>MOLECULE
AV-unprocessed.smi:2922
    36    37     1
SMALL
NO_CHARGES


@<TRIPOS>ATOM
      1 ****        -2.2939   1.8155   0.6350 N.am           1 S1                 0.0000
      2 ****        -2.9529   1.0921  -0.2750 C.2            1 S1                 0.0000
      3 ****        -4.0977   0.6899  -0.0760 O.2            1 S1                 0.0000
      4 ****        -2.2375   0.7966  -1.6066 C.3            1 S1                 0.0000
      5 ****        -2.4197  -0.6524  -2.1037 C.3            1 S1                 0.0000
      6 ****        -1.0073  -1.2123  -2.1516 C.3            1 S1                 0.0000
      7 ****        -0.2529  -0.3177  -1.1758 C.3            1 S1                 0.0000
      8 ****         1.2659  -0.2881  -1.4036 C.3            1 S1                 0.0000
      9 ****         1.9540   0.5091  -0.3974 N.pl3          1 S1                 0.0000
     10 ****         2.1666   0.1138   0.9109 C.ar           1 S1                 0.0000
     11 ****         1.8890  -1.1525   1.2468 N.ar           1 S1                 0.0000
     12 ****         2.1009  -1.5087   2.5327 C.ar           1 S1                 0.0000
     13 ****         2.5936  -0.5895   3.4800 C.ar           1 S1                 0.0000
     14 ****         2.8649  -1.0370   5.1238 Cl             1 S1                 0.0000
     15 ****         2.8527   0.7149   3.0140 C.ar           1 S1                 0.0000
     16 ****         2.6372   1.0620   1.7258 N.ar           1 S1                 0.0000
     17 ****        -0.8262   0.9521  -1.4514 O.3            1 S1                 0.0000
     18 ****        -2.7297   2.0289   1.5204 H              1 S1                 0.0000
     19 ****        -1.3609   2.1444   0.4312 H              1 S1                 0.0000
     20 ****        -2.5886   1.5105  -2.3523 H              1 S1                 0.0000
     21 ****        -3.0301  -1.2504  -1.4254 H              1 S1                 0.0000
     22 ****        -2.8940  -0.6890  -3.0846 H              1 S1                 0.0000
     23 ****        -0.9581  -2.2680  -1.8838 H              1 S1                 0.0000
     24 ****        -0.6011  -1.0986  -3.1577 H              1 S1                 0.0000
     25 ****        -0.4908  -0.6128  -0.1522 H              1 S1                 0.0000
     26 ****         1.6672  -1.3020  -1.3927 H              1 S1                 0.0000
     27 ****         1.4900   0.1224  -2.3884 H              1 S1                 0.0000
     28 ****         2.1520   1.4738  -0.6198 H              1 S1                 0.0000
     29 ****         1.8759  -2.5295   2.8043 H              1 S1                 0.0000
     30 ****         3.2321   1.4816   3.6735 H              1 S1                 0.0000
     31 ****        -4.5597   0.9024   0.7850 LP             1 S1                 0.0000
     32 ****        -4.5667   0.1503  -0.7752 LP             1 S1                 0.0000
     33 ****         1.5400  -1.8059   0.5751 LP             1 S1                 0.0000
     34 ****         2.8219   1.9882   1.3970 LP             1 S1                 0.0000
     35 ****        -0.6384   1.5772  -0.6938 LP             1 S1                 0.0000
     36 ****        -0.4343   1.3221  -2.2938 LP             1 S1                 0.0000
@<TRIPOS>BOND
    1    1    2 am    
    2    1   18 1     
    3    1   19 1     
    4    2    3 2     
    5    2    4 1     
    6    4   17 1     
    7    4    5 1     
    8    4   20 1     
    9    5    6 1     
   10    5   21 1     
   11    5   22 1     
   12    6    7 1     
   13    6   23 1     
   14    6   24 1     
   15    7    8 1     
   16    7   17 1     
   17    7   25 1     
   18    8    9 1     
   19    8   26 1     
   20    8   27 1     
   21    9   10 1     
   22    9   28 1     
   23   10   16 ar    
   24   10   11 ar    
   25   11   12 ar    
   26   12   13 ar    
   27   12   29 1     
   28   13   14 1     
   29   13   15 ar    
   30   15   16 ar    
   31   15   30 1     
   32    3   31 1     
   33    3   32 1     
   34   11   33 1     
   35   16   34 1     
   36   17   35 1     
   37   17   36 1     
@<TRIPOS>SUBSTRUCTURE
      1 S1             1
@<TRIPOS>SET
LONE_PAIRS      STATIC     ATOMS    <user>   **** ""
6 31 32 33 34 35 36
DONOR_HYDROGENS      STATIC     ATOMS    <user>   **** ""
3 18 19 28
ATOM$BLUE        STATIC     ATOMS    COLORGROUP SYSTEM
6 31 32 33 34 35 36
ATOM$RED        STATIC     ATOMS    COLORGROUP SYSTEM
3 18 19 28
