#       Name:                AV-unprocessed.smi:2055
#       Creating user name   scv26
#       Creation time:       Fri Mar 27 11:00:16 2020


#       File generated by GOLD software.
#

@<TRIPOS>MOLECULE
AV-unprocessed.smi:2055
    51    52     1
SMALL
NO_CHARGES


@<TRIPOS>ATOM
      1 ****        -4.2839  -1.4113  -2.7085 C.3            1 S1                 0.0000
      2 ****        -3.5928  -0.4692  -1.7108 C.3            1 S1                 0.0000
      3 ****        -3.4022  -1.1199  -0.3259 C.3            1 S1                 0.0000
      4 ****        -4.6470  -1.2858   0.3190 O.3            1 S1                 0.0000
      5 ****        -2.3018  -0.0604  -2.2570 N.am           1 S1                 0.0000
      6 ****        -1.6470   1.0649  -1.9383 C.2            1 S1                 0.0000
      7 ****        -2.0722   1.9151  -1.1562 O.2            1 S1                 0.0000
      8 ****        -0.4589   1.1387  -2.5540 N.am           1 S1                 0.0000
      9 ****         0.5170   2.2069  -2.3580 C.3            1 S1                 0.0000
     10 ****         1.3054   2.1362  -1.0542 C.ar           1 S1                 0.0000
     11 ****         2.0446   3.2591  -0.6356 C.ar           1 S1                 0.0000
     12 ****         2.7701   3.1768   0.5665 C.ar           1 S1                 0.0000
     13 ****         2.7927   2.0740   1.3429 N.ar           1 S1                 0.0000
     14 ****         2.0881   0.9835   0.9566 C.ar           1 S1                 0.0000
     15 ****         2.1294  -0.1331   1.8208 N.3            1 S1                 0.0000
     16 ****         1.2145  -1.2454   1.5796 C.3            1 S1                 0.0000
     17 ****         1.1604  -2.1722   2.8056 C.3            1 S1                 0.0000
     18 ****         2.4758  -2.5964   3.1458 O.3            1 S1                 0.0000
     19 ****         3.3088  -1.4975   3.5004 C.3            1 S1                 0.0000
     20 ****         3.4475  -0.5394   2.3049 C.3            1 S1                 0.0000
     21 ****         1.3372   0.9760  -0.2462 C.ar           1 S1                 0.0000
     22 ****        -5.2722  -1.7057  -2.3545 H              1 S1                 0.0000
     23 ****        -3.7027  -2.3205  -2.8650 H              1 S1                 0.0000
     24 ****        -4.4154  -0.9287  -3.6773 H              1 S1                 0.0000
     25 ****        -4.2155   0.4210  -1.6007 H              1 S1                 0.0000
     26 ****        -2.9014  -2.0849  -0.4102 H              1 S1                 0.0000
     27 ****        -2.7817  -0.4918   0.3143 H              1 S1                 0.0000
     28 ****        -4.4950  -1.6559   1.1752 H              1 S1                 0.0000
     29 ****        -1.8657  -0.6946  -2.9100 H              1 S1                 0.0000
     30 ****        -0.1962   0.3903  -3.1782 H              1 S1                 0.0000
     31 ****         1.2253   2.1709  -3.1858 H              1 S1                 0.0000
     32 ****         0.0160   3.1744  -2.4238 H              1 S1                 0.0000
     33 ****         2.0561   4.1666  -1.2214 H              1 S1                 0.0000
     34 ****         3.3475   4.0200   0.9154 H              1 S1                 0.0000
     35 ****         0.2104  -0.8729   1.3733 H              1 S1                 0.0000
     36 ****         1.5478  -1.8025   0.7031 H              1 S1                 0.0000
     37 ****         0.6985  -1.6664   3.6551 H              1 S1                 0.0000
     38 ****         0.5491  -3.0477   2.5870 H              1 S1                 0.0000
     39 ****         2.8956  -0.9791   4.3672 H              1 S1                 0.0000
     40 ****         4.2885  -1.8750   3.7934 H              1 S1                 0.0000
     41 ****         3.9825  -1.0316   1.4919 H              1 S1                 0.0000
     42 ****         4.0482   0.3180   2.6081 H              1 S1                 0.0000
     43 ****         0.7938   0.0967  -0.5544 H              1 S1                 0.0000
     44 ****        -5.2248  -1.9016  -0.2167 LP             1 S1                 0.0000
     45 ****        -5.1000  -0.3991   0.4106 LP             1 S1                 0.0000
     46 ****        -2.9598   1.7879  -0.7135 LP             1 S1                 0.0000
     47 ****        -1.5300   2.7330  -0.9636 LP             1 S1                 0.0000
     48 ****         3.3219   2.0616   2.1913 LP             1 S1                 0.0000
     49 ****         1.6955   0.3065   2.6073 LP             1 S1                 0.0000
     50 ****         2.8776  -3.0674   2.3605 LP             1 S1                 0.0000
     51 ****         2.4229  -3.2262   3.9208 LP             1 S1                 0.0000
@<TRIPOS>BOND
    1    1    2 1     
    2    1   22 1     
    3    1   23 1     
    4    1   24 1     
    5    2    3 1     
    6    2    5 1     
    7    2   25 1     
    8    3    4 1     
    9    3   26 1     
   10    3   27 1     
   11    4   28 1     
   12    5    6 am    
   13    5   29 1     
   14    6    7 2     
   15    6    8 am    
   16    8    9 1     
   17    8   30 1     
   18    9   10 1     
   19    9   31 1     
   20    9   32 1     
   21   10   21 ar    
   22   10   11 ar    
   23   11   12 ar    
   24   11   33 1     
   25   12   13 ar    
   26   12   34 1     
   27   13   14 ar    
   28   14   15 1     
   29   14   21 ar    
   30   15   20 1     
   31   15   16 1     
   32   16   17 1     
   33   16   35 1     
   34   16   36 1     
   35   17   18 1     
   36   17   37 1     
   37   17   38 1     
   38   18   19 1     
   39   19   20 1     
   40   19   39 1     
   41   19   40 1     
   42   20   41 1     
   43   20   42 1     
   44   21   43 1     
   45    4   44 1     
   46    4   45 1     
   47    7   46 1     
   48    7   47 1     
   49   13   48 1     
   50   15   49 1     
   51   18   50 1     
   52   18   51 1     
@<TRIPOS>SUBSTRUCTURE
      1 S1             1
@<TRIPOS>SET
LONE_PAIRS      STATIC     ATOMS    <user>   **** ""
8 44 45 46 47 48 49 50 51
DONOR_HYDROGENS      STATIC     ATOMS    <user>   **** ""
3 28 29 30
ATOM$BLUE        STATIC     ATOMS    COLORGROUP SYSTEM
8 44 45 46 47 48 49 50 51
ATOM$RED        STATIC     ATOMS    COLORGROUP SYSTEM
3 28 29 30
