#       Name:                AV-unprocessed.smi:2509
#       Creating user name   scv26
#       Creation time:       Fri Mar 27 13:49:48 2020


#       File generated by GOLD software.
#

@<TRIPOS>MOLECULE
AV-unprocessed.smi:2509
    51    52     1
SMALL
NO_CHARGES


@<TRIPOS>ATOM
      1 ****        -5.8707   2.2236   0.1284 C.3            1 S1                 0.0000
      2 ****        -4.5893   2.8782   0.6965 C.3            1 S1                 0.0000
      3 ****        -4.3376   4.1399  -0.1621 C.3            1 S1                 0.0000
      4 ****        -4.8276   3.2891   2.1612 C.3            1 S1                 0.0000
      5 ****        -3.3932   1.9129   0.6228 C.ar           1 S1                 0.0000
      6 ****        -3.6455   0.6113   0.8115 N.ar           1 S1                 0.0000
      7 ****        -2.5908  -0.2279   0.8762 C.ar           1 S1                 0.0000
      8 ****        -1.2613   0.2311   0.7874 C.ar           1 S1                 0.0000
      9 ****        -0.2070  -0.7202   0.8668 N.am           1 S1                 0.0000
     10 ****         1.1214  -0.5229   0.8150 C.2            1 S1                 0.0000
     11 ****         1.6799   0.5660   0.6900 O.2            1 S1                 0.0000
     12 ****         1.7850  -1.6833   0.9150 N.am           1 S1                 0.0000
     13 ****         3.2371  -1.8247   0.8763 C.3            1 S1                 0.0000
     14 ****         3.7888  -1.7615  -0.5639 C.3            1 S1                 0.0000
     15 ****         5.3106  -1.9199  -0.6662 C.3            1 S1                 0.0000
     16 ****         5.5864  -2.3974  -2.1010 C.3            1 S1                 0.0000
     17 ****         4.2213  -2.7361  -2.7213 C.3            1 S1                 0.0000
     18 ****         3.2347  -2.8004  -1.5518 C.3            1 S1                 0.0000
     19 ****         3.2584  -4.1051  -1.0021 O.3            1 S1                 0.0000
     20 ****        -1.1064   1.6300   0.6305 C.ar           1 S1                 0.0000
     21 ****        -2.1711   2.4580   0.5667 N.ar           1 S1                 0.0000
     22 ****        -6.7099   2.9201   0.1387 H              1 S1                 0.0000
     23 ****        -6.1779   1.3535   0.7093 H              1 S1                 0.0000
     24 ****        -5.7271   1.8989  -0.9029 H              1 S1                 0.0000
     25 ****        -4.1394   3.8793  -1.2025 H              1 S1                 0.0000
     26 ****        -3.4882   4.7194   0.2011 H              1 S1                 0.0000
     27 ****        -5.2003   4.8068  -0.1503 H              1 S1                 0.0000
     28 ****        -5.6737   3.9709   2.2511 H              1 S1                 0.0000
     29 ****        -3.9541   3.7918   2.5779 H              1 S1                 0.0000
     30 ****        -5.0363   2.4207   2.7870 H              1 S1                 0.0000
     31 ****        -2.8132  -1.2769   1.0067 H              1 S1                 0.0000
     32 ****        -0.5038  -1.6790   0.9748 H              1 S1                 0.0000
     33 ****         1.2492  -2.5333   1.0129 H              1 S1                 0.0000
     34 ****         3.7003  -1.0503   1.4897 H              1 S1                 0.0000
     35 ****         3.4973  -2.7750   1.3429 H              1 S1                 0.0000
     36 ****         3.5483  -0.7777  -0.9711 H              1 S1                 0.0000
     37 ****         5.8325  -0.9912  -0.4330 H              1 S1                 0.0000
     38 ****         5.6585  -2.6746   0.0405 H              1 S1                 0.0000
     39 ****         6.0939  -1.6290  -2.6854 H              1 S1                 0.0000
     40 ****         6.2337  -3.2748  -2.0864 H              1 S1                 0.0000
     41 ****         3.9259  -1.9264  -3.3899 H              1 S1                 0.0000
     42 ****         4.2419  -3.6505  -3.3158 H              1 S1                 0.0000
     43 ****         2.2167  -2.5668  -1.8655 H              1 S1                 0.0000
     44 ****         4.1494  -4.3143  -0.7665 H              1 S1                 0.0000
     45 ****        -0.1468   2.1155   0.5596 H              1 S1                 0.0000
     46 ****        -4.5823   0.2733   0.9013 LP             1 S1                 0.0000
     47 ****         1.1356   1.4017   0.6172 LP             1 S1                 0.0000
     48 ****         2.6783   0.6155   0.6612 LP             1 S1                 0.0000
     49 ****         2.9248  -4.7622  -1.6780 LP             1 S1                 0.0000
     50 ****         2.6773  -4.1393  -0.1889 LP             1 S1                 0.0000
     51 ****        -2.0509   3.4470   0.4803 LP             1 S1                 0.0000
@<TRIPOS>BOND
    1    1    2 1     
    2    1   22 1     
    3    1   23 1     
    4    1   24 1     
    5    2    3 1     
    6    2    4 1     
    7    2    5 1     
    8    3   25 1     
    9    3   26 1     
   10    3   27 1     
   11    4   28 1     
   12    4   29 1     
   13    4   30 1     
   14    5   21 ar    
   15    5    6 ar    
   16    6    7 ar    
   17    7    8 ar    
   18    7   31 1     
   19    8    9 1     
   20    8   20 ar    
   21    9   10 am    
   22    9   32 1     
   23   10   11 2     
   24   10   12 am    
   25   12   13 1     
   26   12   33 1     
   27   13   14 1     
   28   13   34 1     
   29   13   35 1     
   30   14   18 1     
   31   14   15 1     
   32   14   36 1     
   33   15   16 1     
   34   15   37 1     
   35   15   38 1     
   36   16   17 1     
   37   16   39 1     
   38   16   40 1     
   39   17   18 1     
   40   17   41 1     
   41   17   42 1     
   42   18   19 1     
   43   18   43 1     
   44   19   44 1     
   45   20   21 ar    
   46   20   45 1     
   47    6   46 1     
   48   11   47 1     
   49   11   48 1     
   50   19   49 1     
   51   19   50 1     
   52   21   51 1     
@<TRIPOS>SUBSTRUCTURE
      1 S1             1
@<TRIPOS>SET
LONE_PAIRS      STATIC     ATOMS    <user>   **** ""
6 46 47 48 49 50 51
DONOR_HYDROGENS      STATIC     ATOMS    <user>   **** ""
3 32 33 44
ATOM$BLUE        STATIC     ATOMS    COLORGROUP SYSTEM
6 46 47 48 49 50 51
ATOM$RED        STATIC     ATOMS    COLORGROUP SYSTEM
3 32 33 44
