AV-unprocessed.smi:3262|AV-procd|sdf|12484|dock6
  -GOLD-   2272018383D 1   1.00000     0.00000
 Structure written by MMmdl.
 39 40  0  0  0  0  0  0  0  0  1 V2000
  156.0235  140.6315  162.5195 O   0  0  0  0  0  0  0  0  0  0  0  0
  155.3462  139.7606  161.9703 C   0  0  0  0  0  0  0  0  0  0  0  0
  154.4978  140.0511  160.9699 N   0  0  0  0  0  0  0  0  0  0  0  0
  154.2639  141.3885  160.4422 C   0  0  0  0  0  0  0  0  0  0  0  0
  152.8926  141.9133  160.8894 C   0  0  0  0  0  0  0  0  0  0  0  0
  152.5176  143.2088  160.1947 C   0  0  0  0  0  0  0  0  0  0  0  0
  152.1827  144.3571  160.9436 C   0  0  0  0  0  0  0  0  0  0  0  0
  151.8487  145.5365  160.2499 C   0  0  0  0  0  0  0  0  0  0  0  0
  151.8635  145.5226  158.8419 C   0  0  0  0  0  0  0  0  0  0  0  0
  152.2141  144.3249  158.1872 C   0  0  0  0  0  0  0  0  0  0  0  0
  152.5359  143.1888  158.8427 N   0  0  0  0  0  0  0  0  0  0  0  0
  155.4348  138.4399  162.2839 N   0  0  0  0  0  0  0  0  0  0  0  0
  154.8246  137.3500  161.4915 C   0  0  0  0  0  0  0  0  0  0  0  0
  154.2257  136.1965  162.3249 C   0  0  0  0  0  0  0  0  0  0  0  0
  153.4213  136.6413  163.5607 C   0  0  0  0  0  0  0  0  0  0  0  0
  154.2979  136.8458  164.8083 C   0  0  0  0  0  0  0  0  0  0  0  0
  155.2621  138.0407  164.7311 C   0  0  0  0  0  0  0  0  0  0  0  0
  156.1705  138.0250  163.4882 C   0  0  0  0  0  0  0  0  0  0  0  0
  153.9856  139.2921  160.5450 H   0  0  0  0  0  0  0  0  0  0  0  0
  155.0505  142.0611  160.7882 H   0  0  0  0  0  0  0  0  0  0  0  0
  154.3199  141.3580  159.3529 H   0  0  0  0  0  0  0  0  0  0  0  0
  152.1224  141.1678  160.6862 H   0  0  0  0  0  0  0  0  0  0  0  0
  152.8880  142.0719  161.9688 H   0  0  0  0  0  0  0  0  0  0  0  0
  152.1836  144.3373  162.0235 H   0  0  0  0  0  0  0  0  0  0  0  0
  151.5868  146.4354  160.7880 H   0  0  0  0  0  0  0  0  0  0  0  0
  151.6130  146.4083  158.2770 H   0  0  0  0  0  0  0  0  0  0  0  0
  152.2369  144.2783  157.1085 H   0  0  0  0  0  0  0  0  0  0  0  0
  154.0064  137.7220  160.8741 H   0  0  0  0  0  0  0  0  0  0  0  0
  155.5702  136.9578  160.7990 H   0  0  0  0  0  0  0  0  0  0  0  0
  153.5716  135.6194  161.6704 H   0  0  0  0  0  0  0  0  0  0  0  0
  155.0086  135.4996  162.6256 H   0  0  0  0  0  0  0  0  0  0  0  0
  152.8399  137.5379  163.3422 H   0  0  0  0  0  0  0  0  0  0  0  0
  152.6940  135.8623  163.7912 H   0  0  0  0  0  0  0  0  0  0  0  0
  153.6514  136.9789  165.6762 H   0  0  0  0  0  0  0  0  0  0  0  0
  154.8667  135.9353  165.0010 H   0  0  0  0  0  0  0  0  0  0  0  0
  154.6994  138.9741  164.7743 H   0  0  0  0  0  0  0  0  0  0  0  0
  155.8878  138.0321  165.6239 H   0  0  0  0  0  0  0  0  0  0  0  0
  156.6181  137.0404  163.3501 H   0  0  0  0  0  0  0  0  0  0  0  0
  157.0207  138.6889  163.6548 H   0  0  0  0  0  0  0  0  0  0  0  0
  1  2  2  0  0  0  0
  2  3  1  0  0  0  0
  2 12  1  0  0  0  0
  3  4  1  0  0  0  0
  3 19  1  0  0  0  0
  4  5  1  0  0  0  0
  4 20  1  0  0  0  0
  4 21  1  0  0  0  0
  5  6  1  0  0  0  0
  5 22  1  0  0  0  0
  5 23  1  0  0  0  0
  6 11  1  0  0  0  0
  6  7  2  0  0  0  0
  7  8  1  0  0  0  0
  7 24  1  0  0  0  0
  8  9  2  0  0  0  0
  8 25  1  0  0  0  0
  9 10  1  0  0  0  0
  9 26  1  0  0  0  0
 10 11  2  0  0  0  0
 10 27  1  0  0  0  0
 12 18  1  0  0  0  0
 12 13  1  0  0  0  0
 13 14  1  0  0  0  0
 13 28  1  0  0  0  0
 13 29  1  0  0  0  0
 14 15  1  0  0  0  0
 14 30  1  0  0  0  0
 14 31  1  0  0  0  0
 15 16  1  0  0  0  0
 15 32  1  0  0  0  0
 15 33  1  0  0  0  0
 16 17  1  0  0  0  0
 16 34  1  0  0  0  0
 16 35  1  0  0  0  0
 17 18  1  0  0  0  0
 17 36  1  0  0  0  0
 17 37  1  0  0  0  0
 18 38  1  0  0  0  0
 18 39  1  0  0  0  0
M  END
> <s_m_source_file>
AV-unprocessed.smi

> <i_m_source_file_index>
3262

> <i_lp_mmshare_version>
43012

> <i_f3d_flags>
0

> <s_epik_input>
W0NIMl0xW0NIMl1bQ0gyXVtDSDJdW0NIMl1bQ0gyXU4xQyg9TylbTkhdW0NIMl1bQ0gyXWMyW2NIXVtjSF1bY0hdW2NIXW4y

> <s_epik_cmdline>
J2VwaWtfcHl0aG9uJywgJy1waCcsICc3LjAnLCAnLXRuJywgJzgnLCAnLW1hJywgJzIwMCcsICctbWV0YWxfYmluZGluZycsICctaW1hZScsICc8aW5maWxlLm1hZT4nLCAnLW9tYWUnLCAnPG91dGZpbGUubWFlPic=

> <r_epik_Ionization_Penalty>
0.0449498

> <r_epik_Ionization_Penalty_Charging>
0

> <r_epik_Ionization_Penalty_Neutral>
0.0449498

> <r_epik_State_Penalty>
0.0380669

> <r_epik_Charging_Adjusted_Penalty>
0.0380669

> <i_epik_Tot_Q>
0

> <i_epik_Tot_abs_Q>
0

> <r_epik_Metal_State_Penalty>
0.0353734

> <b_epik_Metal_Only>
0

> <s_lp_Force_Field>
OPLS_2005

> <r_lp_Energy>
31.2799

> <b_lp_Chiralities_Consistent>
1

> <s_lp_Variant>
AV-unprocessed.smi:3262-1

> <Gold.Version>
5.8.1

> <Gold.Id.Protein>
6NUR|6NUR_protein|mol2

> <Gold.PLP.Fitness>
44.9744

> <Gold.PLP.PLP>
-45.2986

> <Gold.PLP.part.hbond>
-0.3887

> <Gold.PLP.part.metal>
0.0000

> <Gold.PLP.part.buried>
-3.1046

> <Gold.PLP.part.nonpolar>
-40.5289

> <Gold.PLP.part.repulsive>
0.0157

> <Gold.PLP.ligand.clash>
0.0000

> <Gold.PLP.ligand.torsion>
0.1677

> <Gold.PLP.Chemscore.Hbond>
0.0000

> <Gold.PLP.Chemscore.CHOScore>
0.0000

> <Gold.PLP.Chemscore.Metal>
0.0000

> <Gold.PLP.Chemscore.Internal.Correction>
0.0111

> <Gold.Rescore>
     Score         DG    S(hbond)    S(metal)    S(lipo)     H(rot)  DE(clash)    DE(int)     intcor
     14.89     -17.00       0.00        0.00     126.29       1.27       1.89       0.21       ----

> <Gold.Chemscore.Fitness>
14.8940

> <Gold.Chemscore.DG>
-16.9950

> <Gold.Chemscore.ZeroCoef>
-5.4800

> <Gold.Chemscore.Hbond>
0.0000

> <Gold.Chemscore.Metal>
0.0000

> <Gold.Chemscore.Lipo>
126.2911

> <Gold.Chemscore.Internal_Hbond>
0.0000

> <Gold.Chemscore.DEClash>
1.8888

> <Gold.Chemscore.DEInternal>
0.2122

> <Gold.Chemscore.Rot>
1.2738

> <Gold.Chemscore.Internal.Correction>
   9.000000E+99

> <Gold.Chemscore.Hbond.Weighted>
-0.0000

> <Gold.Chemscore.Metal.Weighted>
-0.0000

> <Gold.Chemscore.Lipo.Weighted>
-14.7761

> <Gold.Chemscore.Internal_Hbond.Weighted>
0.0000

> <Gold.Chemscore.DEClash.Weighted>
1.8888

> <Gold.Chemscore.DEInternal.Weighted>
0.2122

> <Gold.Chemscore.Rot.Weighted>
3.2610

> <Gold.Chemscore.Internal.Correction.Weighted>
   9.000000E+99

> <Gold.Protein.RotatedTorsions>
[ 6907 6896 6895 6894 ] final  -33.40 input  -60.11 | X-H torsion
[ 7974 7965 7964 7962 ] final  -54.69 input  175.53 | X-H torsion
[ 8008 7997 7996 7995 ] final -160.66 input   59.86 | X-H torsion
[ 10167 10162 10161 10158 ] final  132.78 input  -65.29 | X-H torsion
[ 10718 10713 10712 10709 ] final -122.00 input   66.30 | X-H torsion
[ 10763 10752 10751 10750 ] final -152.68 input  -60.55 | X-H torsion
[ 11005 11000 10999 10996 ] final   55.07 input  -57.11 | X-H torsion

> <Gold.Protein.ActiveResidues>
 VAL166  LYS551  ARG553  GLY616  TRP617  ASP618  TYR619  PRO620  LYS621  CYS622 
 ASP623  PHE694  ASN695  SER759  ASP760  ASP761  ALA762  ILE779  LEU786  VAL792 
 PHE793  MET794  SER795  GLU796  ALA797  LYS798  CYS799  TRP800  GLU811  SER814 

> <Gold.Protein.RotatedAtoms>
  151.0661  134.9768  159.8284 H   0  0  0  0  0  0  0  0  0  0  0  0  # atno 6907 bound_to 6896
  152.5402  134.2357  159.8852 H   0  0  0  0  0  0  0  0  0  0  0  0  # atno 6908 bound_to 6896
  151.2379  133.4372  159.2640 H   0  0  0  0  0  0  0  0  0  0  0  0  # atno 6909 bound_to 6896
  145.8827  140.8132  142.9831 H   0  0  0  0  0  0  0  0  0  0  0  0  # atno 7974 bound_to 7965
  155.7807  140.0864  157.2061 H   0  0  0  0  0  0  0  0  0  0  0  0  # atno 8008 bound_to 7997
  154.3990  140.1508  156.3106 H   0  0  0  0  0  0  0  0  0  0  0  0  # atno 8009 bound_to 7997
  155.8657  140.3428  155.5789 H   0  0  0  0  0  0  0  0  0  0  0  0  # atno 8010 bound_to 7997
  139.5325  144.6646  151.4901 H   0  0  0  0  0  0  0  0  0  0  0  0  # atno 10167 bound_to 10162
  156.1383  130.6447  150.9731 H   0  0  0  0  0  0  0  0  0  0  0  0  # atno 10718 bound_to 10713
  154.7978  135.3230  154.7625 H   0  0  0  0  0  0  0  0  0  0  0  0  # atno 10763 bound_to 10752
  153.8299  135.6880  153.4820 H   0  0  0  0  0  0  0  0  0  0  0  0  # atno 10764 bound_to 10752
  153.1678  135.4635  154.9803 H   0  0  0  0  0  0  0  0  0  0  0  0  # atno 10765 bound_to 10752
  140.0636  134.5568  155.9124 H   0  0  0  0  0  0  0  0  0  0  0  0  # atno 11005 bound_to 11000
  144.6727  140.1409  143.7437 LP  0  0  0  0  0  0  0  0  0  0  0  0  # atno 17320 bound_to 7965
  145.9004  139.2427  143.1497 LP  0  0  0  0  0  0  0  0  0  0  0  0  # atno 17321 bound_to 7965
  140.6512  143.8693  150.6787 LP  0  0  0  0  0  0  0  0  0  0  0  0  # atno 17342 bound_to 10162
  140.2058  143.3922  152.1756 LP  0  0  0  0  0  0  0  0  0  0  0  0  # atno 17343 bound_to 10162
  157.6552  131.0890  150.7962 LP  0  0  0  0  0  0  0  0  0  0  0  0  # atno 17370 bound_to 10713
  156.8040  130.4930  149.5365 LP  0  0  0  0  0  0  0  0  0  0  0  0  # atno 17371 bound_to 10713
  141.1983  133.6601  156.5787 LP  0  0  0  0  0  0  0  0  0  0  0  0  # atno 17394 bound_to 11000
  140.3732  134.7587  157.4613 LP  0  0  0  0  0  0  0  0  0  0  0  0  # atno 17395 bound_to 11000

$$$$
