AV-unprocessed.smi:3|AV-procd|sdf|29|dock1
  -GOLD-   2262015143D 1   1.00000     0.00000
 Structure written by MMmdl.
 34 36  0  0  0  0  0  0  0  0  2 V2000
  153.2811  142.2986  161.9688 C   0  0  0  0  0  0  0  0  0  0  0  0
  153.5937  141.6874  160.6845 N   0  0  0  0  0  0  0  0  0  0  0  0
  154.5852  140.6092  160.6677 C   0  0  0  0  0  0  0  0  0  0  0  0
  153.9605  139.2401  160.9353 C   0  0  1  0  0  0  0  0  0  0  0  0
  153.4140  138.3964  159.7733 C   0  0  0  0  0  0  0  0  0  0  0  0
  153.9002  137.1407  160.5035 C   0  0  1  0  0  0  0  0  0  0  0  0
  154.4548  136.1101  159.7173 O   0  0  0  0  0  0  0  0  0  0  0  0
  154.8769  138.0508  161.2554 C   0  0  0  0  0  0  0  0  0  0  0  0
  152.7567  141.9258  159.5656 C   0  0  0  0  0  0  0  0  0  0  0  0
  152.5924  140.9062  158.6765 N   0  0  0  0  0  0  0  0  0  0  0  0
  151.8262  141.0026  157.5826 C   0  0  0  0  0  0  0  0  0  0  0  0
  151.1589  142.1147  157.2677 N   0  3  0  0  0  0  0  0  0  0  0  0
  151.2931  143.1652  158.1144 C   0  0  0  0  0  0  0  0  0  0  0  0
  150.7195  144.4148  158.0144 N   0  0  0  0  0  0  0  0  0  0  0  0
  151.1122  145.2009  159.0814 C   0  0  0  0  0  0  0  0  0  0  0  0
  151.9462  144.4706  159.8895 C   0  0  0  0  0  0  0  0  0  0  0  0
  152.0809  143.1586  159.2979 C   0  0  0  0  0  0  0  0  0  0  0  0
  153.2012  139.3001  161.7179 H   0  0  0  0  0  0  0  0  0  0  0  0
  153.1361  136.7335  161.1679 H   0  0  0  0  0  0  0  0  0  0  0  0
  150.1025  144.7403  157.2836 H   0  0  0  0  0  0  0  0  0  0  0  0
  153.4198  143.3787  161.9218 H   0  0  0  0  0  0  0  0  0  0  0  0
  153.9378  141.9195  162.7526 H   0  0  0  0  0  0  0  0  0  0  0  0
  152.2558  142.0766  162.2653 H   0  0  0  0  0  0  0  0  0  0  0  0
  155.1557  140.6018  159.7390 H   0  0  0  0  0  0  0  0  0  0  0  0
  155.3227  140.8271  161.4409 H   0  0  0  0  0  0  0  0  0  0  0  0
  152.3335  138.4600  159.6419 H   0  0  0  0  0  0  0  0  0  0  0  0
  153.9416  138.5663  158.8332 H   0  0  0  0  0  0  0  0  0  0  0  0
  155.2108  136.4716  159.2804 H   0  0  0  0  0  0  0  0  0  0  0  0
  155.8523  138.1207  160.7704 H   0  0  0  0  0  0  0  0  0  0  0  0
  154.9755  137.8318  162.3191 H   0  0  0  0  0  0  0  0  0  0  0  0
  151.7253  140.1641  156.9092 H   0  0  0  0  0  0  0  0  0  0  0  0
  150.7664  146.2199  159.1797 H   0  0  0  0  0  0  0  0  0  0  0  0
  152.4098  144.8240  160.7976 H   0  0  0  0  0  0  0  0  0  0  0  0
  150.5779  142.1800  156.4320 H   0  0  0  0  0  0  0  0  0  0  0  0
  1  2  1  0  0  0  0
  1 21  1  0  0  0  0
  1 22  1  0  0  0  0
  1 23  1  0  0  0  0
  2  3  1  0  0  0  0
  2  9  1  0  0  0  0
  3  4  1  0  0  0  0
  3 24  1  0  0  0  0
  3 25  1  0  0  0  0
  4 18  1  0  0  0  0
  4  8  1  0  0  0  0
  4  5  1  0  0  0  0
  5  6  1  0  0  0  0
  5 26  1  0  0  0  0
  5 27  1  0  0  0  0
  6 19  1  0  0  0  0
  6  7  1  0  0  0  0
  6  8  1  0  0  0  0
  7 28  1  0  0  0  0
  8 29  1  0  0  0  0
  8 30  1  0  0  0  0
  9 17  1  0  0  0  0
  9 10  2  0  0  0  0
 10 11  1  0  0  0  0
 11 12  2  0  0  0  0
 11 31  1  0  0  0  0
 12 13  1  0  0  0  0
 12 34  1  0  0  0  0
 13 17  2  0  0  0  0
 13 14  1  0  0  0  0
 14 20  1  0  0  0  0
 14 15  1  0  0  0  0
 15 16  2  0  0  0  0
 15 32  1  0  0  0  0
 16 17  1  0  0  0  0
 16 33  1  0  0  0  0
M  CHG  1  12   1
M  END
> <s_m_source_file>
AV-unprocessed.smi

> <i_m_source_file_index>
3

> <i_lp_mmshare_version>
43012

> <i_f3d_flags>
0

> <s_epik_input>
W25IXTFbY0hdW2NIXWMoYzEyKWMobltjSF1uMilOKFtDSDNdKVtDSDJdW0NASF0zW0NIMl1bQ0BASF0oW09IXSlbQ0gyXTM=

> <s_epik_cmdline>
J2VwaWtfcHl0aG9uJywgJy1waCcsICc3LjAnLCAnLXRuJywgJzgnLCAnLW1hJywgJzIwMCcsICctbWV0YWxfYmluZGluZycsICctaW1hZScsICc8aW5maWxlLm1hZT4nLCAnLW9tYWUnLCAnPG91dGZpbGUubWFlPic=

> <r_lp_tautomer_probability>
1.75997e-05

> <r_epik_Ionization_Penalty>
2.28439

> <r_epik_Ionization_Penalty_Charging>
2.28438

> <r_epik_Ionization_Penalty_Neutral>
1.03791e-05

> <r_epik_State_Penalty>
2.43392

> <r_epik_Charging_Adjusted_Penalty>
4.7183

> <i_epik_Tot_Q>
1

> <i_epik_Tot_abs_Q>
1

> <r_epik_Metal_State_Penalty>
2.4464

> <b_epik_Metal_Only>
0

> <s_lp_Force_Field>
OPLS_2005

> <r_lp_Energy>
16.7386

> <b_lp_Chiralities_Consistent>
1

> <s_lp_Variant>
AV-unprocessed.smi:3-3

> <Gold.Version>
5.8.1

> <Gold.Id.Protein>
6NUR|6NUR_protein|mol2

> <Gold.PLP.Fitness>
46.9895

> <Gold.PLP.PLP>
-39.5106

> <Gold.PLP.part.hbond>
-1.9740

> <Gold.PLP.part.metal>
0.0000

> <Gold.PLP.part.buried>
-5.3198

> <Gold.PLP.part.nonpolar>
-32.4044

> <Gold.PLP.part.repulsive>
0.1240

> <Gold.PLP.ligand.clash>
0.0000

> <Gold.PLP.ligand.torsion>
0.8673

> <Gold.PLP.Chemscore.Hbond>
3.0000

> <Gold.PLP.Chemscore.CHOScore>
0.0000

> <Gold.PLP.Chemscore.Metal>
0.0000

> <Gold.Chemscore.Hbonds>
donor molecule, donor type, donor heavy atom, donor atom, acceptor molecule, acceptor atom, score
      L1  H    14    20       P1  8028  1.90

> <Gold.PLP.Chemscore.Internal.Correction>
0.2134

> <Gold.Rescore>
     Score         DG    S(hbond)    S(metal)    S(lipo)     H(rot)  DE(clash)    DE(int)     intcor
     15.97     -16.74       1.89        0.00      83.14       1.86       0.01       0.77       ----

> <Gold.Chemscore.Fitness>
15.9683

> <Gold.Chemscore.DG>
-16.7406

> <Gold.Chemscore.ZeroCoef>
-5.4800

> <Gold.Chemscore.Hbond>
1.8879

> <Gold.Chemscore.Metal>
0.0000

> <Gold.Chemscore.Lipo>
83.1443

> <Gold.Chemscore.Internal_Hbond>
0.0000

> <Gold.Chemscore.DEClash>
0.0064

> <Gold.Chemscore.DEInternal>
0.7659

> <Gold.Chemscore.Rot>
1.8645

> <Gold.Chemscore.Internal.Correction>
   9.000000E+99

> <Gold.Chemscore.Hbonds>
donor molecule, donor type, donor heavy atom, donor atom, acceptor molecule, acceptor atom, score
      L1  H    14    20       P1  8028  0.21

> <Gold.Chemscore.Hbond.Weighted>
-6.3057

> <Gold.Chemscore.Metal.Weighted>
-0.0000

> <Gold.Chemscore.Lipo.Weighted>
-9.7279

> <Gold.Chemscore.Internal_Hbond.Weighted>
0.0000

> <Gold.Chemscore.DEClash.Weighted>
0.0064

> <Gold.Chemscore.DEInternal.Weighted>
0.7659

> <Gold.Chemscore.Rot.Weighted>
4.7730

> <Gold.Chemscore.Internal.Correction.Weighted>
   9.000000E+99

> <Gold.Protein.RotatedTorsions>
[ 6907 6896 6895 6894 ] final  -69.35 input  -60.11 | X-H torsion
[ 7974 7965 7964 7962 ] final -130.46 input  175.53 | X-H torsion
[ 8008 7997 7996 7995 ] final   48.80 input   59.86 | X-H torsion
[ 10167 10162 10161 10158 ] final  -59.62 input  -65.29 | X-H torsion
[ 10718 10713 10712 10709 ] final -172.95 input   66.30 | X-H torsion
[ 10763 10752 10751 10750 ] final  -52.81 input  -60.55 | X-H torsion
[ 11005 11000 10999 10996 ] final  -60.77 input  -57.11 | X-H torsion

> <Gold.Protein.ActiveResidues>
 VAL166  LYS551  ARG553  GLY616  TRP617  ASP618  TYR619  PRO620  LYS621  CYS622 
 ASP623  PHE694  ASN695  SER759  ASP760  ASP761  ALA762  ILE779  LEU786  VAL792 
 PHE793  MET794  SER795  GLU796  ALA797  LYS798  CYS799  TRP800  GLU811  SER814 

> <Gold.Protein.RotatedAtoms>
  150.7310  134.5609  159.5841 H   0  0  0  0  0  0  0  0  0  0  0  0  # atno 6907 bound_to 6896
  152.3072  134.7537  160.0353 H   0  0  0  0  0  0  0  0  0  0  0  0  # atno 6908 bound_to 6896
  151.8098  133.3344  159.3588 H   0  0  0  0  0  0  0  0  0  0  0  0  # atno 6909 bound_to 6896
  144.9472  140.7305  143.4810 H   0  0  0  0  0  0  0  0  0  0  0  0  # atno 7974 bound_to 7965
  155.3916  140.3433  155.4251 H   0  0  0  0  0  0  0  0  0  0  0  0  # atno 8008 bound_to 7997
  156.1554  140.1584  156.8733 H   0  0  0  0  0  0  0  0  0  0  0  0  # atno 8009 bound_to 7997
  154.5090  140.0795  156.7934 H   0  0  0  0  0  0  0  0  0  0  0  0  # atno 8010 bound_to 7997
  140.6124  143.2391  151.5679 H   0  0  0  0  0  0  0  0  0  0  0  0  # atno 10167 bound_to 10162
  156.7631  130.9421  151.3118 H   0  0  0  0  0  0  0  0  0  0  0  0  # atno 10718 bound_to 10713
  154.1488  135.6493  153.4958 H   0  0  0  0  0  0  0  0  0  0  0  0  # atno 10763 bound_to 10752
  153.0144  135.5333  154.6830 H   0  0  0  0  0  0  0  0  0  0  0  0  # atno 10764 bound_to 10752
  154.6111  135.2954  155.0402 H   0  0  0  0  0  0  0  0  0  0  0  0  # atno 10765 bound_to 10752
  141.1300  133.6625  156.5274 H   0  0  0  0  0  0  0  0  0  0  0  0  # atno 11005 bound_to 11000
  145.2899  139.1887  143.4746 LP  0  0  0  0  0  0  0  0  0  0  0  0  # atno 17320 bound_to 7965
  146.3308  140.2874  142.8613 LP  0  0  0  0  0  0  0  0  0  0  0  0  # atno 17321 bound_to 7965
  139.5371  144.2750  152.1274 LP  0  0  0  0  0  0  0  0  0  0  0  0  # atno 17342 bound_to 10162
  140.1952  144.4712  150.6459 LP  0  0  0  0  0  0  0  0  0  0  0  0  # atno 17343 bound_to 10162
  157.6725  130.9064  150.0074 LP  0  0  0  0  0  0  0  0  0  0  0  0  # atno 17370 bound_to 10713
  156.1326  130.3643  149.9708 LP  0  0  0  0  0  0  0  0  0  0  0  0  # atno 17371 bound_to 10713
  140.4243  134.7159  157.4907 LP  0  0  0  0  0  0  0  0  0  0  0  0  # atno 17394 bound_to 11000
  140.0338  134.6367  155.9071 LP  0  0  0  0  0  0  0  0  0  0  0  0  # atno 17395 bound_to 11000

$$$$
