AV-unprocessed.smi:3141|AV-procd|sdf|11962|dock2
  -GOLD-   2272017363D 1   1.00000     0.00000
 Structure written by MMmdl.
 36 38  0  0  0  0  0  0  0  0  2 V2000
  151.5406  142.0211  158.4275 O   0  0  0  0  0  0  0  0  0  0  0  0
  151.2170  142.8339  157.5607 C   0  0  0  0  0  0  0  0  0  0  0  0
  151.5815  144.1226  157.5609 N   0  0  0  0  0  0  0  0  0  0  0  0
  152.3957  144.7498  158.5507 C   0  0  0  0  0  0  0  0  0  0  0  0
  152.3859  144.1624  159.9453 C   0  0  0  0  0  0  0  0  0  0  0  0
  151.6945  145.4717  159.6810 C   0  0  0  0  0  0  0  0  0  0  0  0
  150.4512  142.5332  156.5024 N   0  0  0  0  0  0  0  0  0  0  0  0
  149.9018  141.2092  156.2242 C   0  0  2  0  0  0  0  0  0  0  0  0
  150.9380  140.1123  156.5376 C   0  0  0  0  0  0  0  0  0  0  0  0
  151.3123  139.4754  155.1966 C   0  0  0  0  0  0  0  0  0  0  0  0
  150.0684  139.6512  154.3314 C   0  0  0  0  0  0  0  0  0  0  0  0
  149.5500  141.0383  154.7264 C   0  0  1  0  0  0  0  0  0  0  0  0
  148.1275  141.2498  154.4182 N   0  0  0  0  0  0  0  0  0  0  0  0
  147.2900  142.1680  154.9992 C   0  0  0  0  0  0  0  0  0  0  0  0
  146.0596  142.0014  154.4180 C   0  0  0  0  0  0  0  0  0  0  0  0
  146.1962  140.9908  153.5051 N   0  3  0  0  0  0  0  0  0  0  0  0
  147.4531  140.5363  153.5050 C   0  0  0  0  0  0  0  0  0  0  0  0
  151.2628  144.7064  156.8014 H   0  0  0  0  0  0  0  0  0  0  0  0
  153.3399  145.1819  158.2211 H   0  0  0  0  0  0  0  0  0  0  0  0
  151.7591  143.2913  160.1271 H   0  0  0  0  0  0  0  0  0  0  0  0
  153.3172  144.1908  160.5075 H   0  0  0  0  0  0  0  0  0  0  0  0
  152.1642  146.3751  160.0649 H   0  0  0  0  0  0  0  0  0  0  0  0
  150.6059  145.4744  159.6870 H   0  0  0  0  0  0  0  0  0  0  0  0
  150.2366  143.2665  155.8422 H   0  0  0  0  0  0  0  0  0  0  0  0
  149.0319  141.0442  156.8627 H   0  0  0  0  0  0  0  0  0  0  0  0
  151.8163  140.4842  157.0676 H   0  0  0  0  0  0  0  0  0  0  0  0
  150.4782  139.3580  157.1774 H   0  0  0  0  0  0  0  0  0  0  0  0
  152.1472  140.0188  154.7524 H   0  0  0  0  0  0  0  0  0  0  0  0
  151.6106  138.4315  155.2973 H   0  0  0  0  0  0  0  0  0  0  0  0
  150.2855  139.5730  153.2657 H   0  0  0  0  0  0  0  0  0  0  0  0
  149.3435  138.8756  154.5815 H   0  0  0  0  0  0  0  0  0  0  0  0
  150.1140  141.7690  154.1426 H   0  0  0  0  0  0  0  0  0  0  0  0
  147.6212  142.8507  155.7682 H   0  0  0  0  0  0  0  0  0  0  0  0
  145.1216  142.5114  154.5828 H   0  0  0  0  0  0  0  0  0  0  0  0
  147.8441  139.7436  152.8923 H   0  0  0  0  0  0  0  0  0  0  0  0
  145.4536  140.6342  152.9167 H   0  0  0  0  0  0  0  0  0  0  0  0
  1  2  2  0  0  0  0
  2  3  1  0  0  0  0
  2  7  1  0  0  0  0
  3  4  1  0  0  0  0
  3 18  1  0  0  0  0
  4  6  1  0  0  0  0
  4  5  1  0  0  0  0
  4 19  1  0  0  0  0
  5  6  1  0  0  0  0
  5 20  1  0  0  0  0
  5 21  1  0  0  0  0
  6 22  1  0  0  0  0
  6 23  1  0  0  0  0
  7  8  1  0  0  0  0
  7 24  1  0  0  0  0
  8 12  1  0  0  0  0
  8  9  1  0  0  0  0
  8 25  1  0  0  0  0
  9 10  1  0  0  0  0
  9 26  1  0  0  0  0
  9 27  1  0  0  0  0
 10 11  1  0  0  0  0
 10 28  1  0  0  0  0
 10 29  1  0  0  0  0
 11 12  1  0  0  0  0
 11 30  1  0  0  0  0
 11 31  1  0  0  0  0
 12 13  1  0  0  0  0
 12 32  1  0  0  0  0
 13 17  1  0  0  0  0
 13 14  1  0  0  0  0
 14 15  2  0  0  0  0
 14 33  1  0  0  0  0
 15 16  1  0  0  0  0
 15 34  1  0  0  0  0
 16 17  2  0  0  0  0
 16 36  1  0  0  0  0
 17 35  1  0  0  0  0
M  CHG  1  16   1
M  END
> <s_m_source_file>
AV-unprocessed.smi

> <i_m_source_file_index>
3141

> <i_lp_mmshare_version>
43012

> <i_f3d_flags>
0

> <s_epik_input>
W0NIMl0xW0NIMl1bQ0hdMVtOSF1DKD1PKVtOSF1bQ0BASF0yW0NIMl1bQ0gyXVtDSDJdW0NASF0ybjNbY0hdW2NIXW5bY0hdMw==

> <s_epik_cmdline>
J2VwaWtfcHl0aG9uJywgJy1waCcsICc3LjAnLCAnLXRuJywgJzgnLCAnLW1hJywgJzIwMCcsICctbWV0YWxfYmluZGluZycsICctaW1hZScsICc8aW5maWxlLm1hZT4nLCAnLW9tYWUnLCAnPG91dGZpbGUubWFlPic=

> <r_lp_tautomer_probability>
1

> <r_epik_Ionization_Penalty>
0.205063

> <r_epik_Ionization_Penalty_Charging>
0

> <r_epik_Ionization_Penalty_Neutral>
0.205063

> <r_epik_State_Penalty>
0.194948

> <r_epik_Charging_Adjusted_Penalty>
0.194948

> <i_epik_Tot_Q>
1

> <i_epik_Tot_abs_Q>
1

> <r_epik_Metal_State_Penalty>
0.500882

> <b_epik_Metal_Only>
0

> <s_lp_Force_Field>
OPLS_2005

> <r_lp_Energy>
34.6624

> <b_lp_Chiralities_Consistent>
1

> <s_lp_Variant>
AV-unprocessed.smi:3141-1

> <Gold.Version>
5.8.1

> <Gold.Id.Protein>
6NUR|6NUR_protein|mol2

> <Gold.PLP.Fitness>
52.3115

> <Gold.PLP.PLP>
-40.9305

> <Gold.PLP.part.hbond>
-2.0000

> <Gold.PLP.part.metal>
0.0000

> <Gold.PLP.part.buried>
-1.5724

> <Gold.PLP.part.nonpolar>
-37.8036

> <Gold.PLP.part.repulsive>
0.1241

> <Gold.PLP.ligand.clash>
0.0000

> <Gold.PLP.ligand.torsion>
1.2904

> <Gold.PLP.Chemscore.Hbond>
2.7520

> <Gold.PLP.Chemscore.CHOScore>
1.8877

> <Gold.PLP.Chemscore.Metal>
0.0000

> <Gold.Chemscore.Hbonds>
donor molecule, donor type, donor heavy atom, donor atom, acceptor molecule, acceptor atom, score
      L1  H     7    24       P1  8028  0.75
      L1  H    16    36       P1 10175  2.00
      L1  C    14    33       P1  8028  1.00
      L1  C    17    35       P1  7957  0.90

> <Gold.PLP.Chemscore.Internal.Correction>
0.0428

> <Gold.Rescore>
     Score         DG    S(hbond)    S(metal)    S(lipo)     H(rot)  DE(clash)    DE(int)     intcor
     13.52     -17.79       1.92        0.00      85.51       1.61       0.12       4.15       ----

> <Gold.Chemscore.Fitness>
13.5163

> <Gold.Chemscore.DG>
-17.7936

> <Gold.Chemscore.ZeroCoef>
-5.4800

> <Gold.Chemscore.Hbond>
1.9245

> <Gold.Chemscore.Metal>
0.0000

> <Gold.Chemscore.Lipo>
85.5063

> <Gold.Chemscore.Internal_Hbond>
0.0000

> <Gold.Chemscore.DEClash>
0.1242

> <Gold.Chemscore.DEInternal>
4.1531

> <Gold.Chemscore.Rot>
1.6088

> <Gold.Chemscore.Internal.Correction>
   9.000000E+99

> <Gold.Chemscore.Hbonds>
donor molecule, donor type, donor heavy atom, donor atom, acceptor molecule, acceptor atom, score
      L1  H     7    24       P1  8028  0.74
      L1  H    16    36       P1 10175  0.67

> <Gold.Chemscore.Hbond.Weighted>
-6.4279

> <Gold.Chemscore.Metal.Weighted>
-0.0000

> <Gold.Chemscore.Lipo.Weighted>
-10.0042

> <Gold.Chemscore.Internal_Hbond.Weighted>
0.0000

> <Gold.Chemscore.DEClash.Weighted>
0.1242

> <Gold.Chemscore.DEInternal.Weighted>
4.1531

> <Gold.Chemscore.Rot.Weighted>
4.1186

> <Gold.Chemscore.Internal.Correction.Weighted>
   9.000000E+99

> <Gold.Protein.RotatedTorsions>
[ 6907 6896 6895 6894 ] final   60.24 input  -60.11 | X-H torsion
[ 7974 7965 7964 7962 ] final -168.13 input  175.53 | X-H torsion
[ 8008 7997 7996 7995 ] final  128.15 input   59.86 | X-H torsion
[ 10167 10162 10161 10158 ] final  108.04 input  -65.29 | X-H torsion
[ 10718 10713 10712 10709 ] final -135.70 input   66.30 | X-H torsion
[ 10763 10752 10751 10750 ] final  -29.26 input  -60.55 | X-H torsion
[ 11005 11000 10999 10996 ] final   44.20 input  -57.11 | X-H torsion

> <Gold.Protein.ActiveResidues>
 VAL166  LYS551  ARG553  GLY616  TRP617  ASP618  TYR619  PRO620  LYS621  CYS622 
 ASP623  PHE694  ASN695  SER759  ASP760  ASP761  ALA762  ILE779  LEU786  VAL792 
 PHE793  MET794  SER795  GLU796  ALA797  LYS798  CYS799  TRP800  GLU811  SER814 

> <Gold.Protein.RotatedAtoms>
  152.3985  134.6325  160.0079 H   0  0  0  0  0  0  0  0  0  0  0  0  # atno 6907 bound_to 6896
  151.6537  133.3314  159.3166 H   0  0  0  0  0  0  0  0  0  0  0  0  # atno 6908 bound_to 6896
  150.7889  134.6940  159.6557 H   0  0  0  0  0  0  0  0  0  0  0  0  # atno 6909 bound_to 6896
  144.7209  140.2416  143.6291 H   0  0  0  0  0  0  0  0  0  0  0  0  # atno 7974 bound_to 7965
  156.2908  140.2652  156.2388 H   0  0  0  0  0  0  0  0  0  0  0  0  # atno 8008 bound_to 7997
  154.9998  140.0388  157.2373 H   0  0  0  0  0  0  0  0  0  0  0  0  # atno 8009 bound_to 7997
  154.7612  140.2761  155.6218 H   0  0  0  0  0  0  0  0  0  0  0  0  # atno 8010 bound_to 7997
  139.6878  144.7111  151.1402 H   0  0  0  0  0  0  0  0  0  0  0  0  # atno 10167 bound_to 10162
  156.2690  130.7254  151.1214 H   0  0  0  0  0  0  0  0  0  0  0  0  # atno 10718 bound_to 10713
  153.7618  135.6919  153.4924 H   0  0  0  0  0  0  0  0  0  0  0  0  # atno 10763 bound_to 10752
  153.1933  135.4463  155.0175 H   0  0  0  0  0  0  0  0  0  0  0  0  # atno 10764 bound_to 10752
  154.8150  135.3395  154.7133 H   0  0  0  0  0  0  0  0  0  0  0  0  # atno 10765 bound_to 10752
  140.1574  134.4384  155.8340 H   0  0  0  0  0  0  0  0  0  0  0  0  # atno 11005 bound_to 11000
  145.8314  139.2088  143.1880 LP  0  0  0  0  0  0  0  0  0  0  0  0  # atno 17320 bound_to 7965
  146.0427  140.8149  142.9821 LP  0  0  0  0  0  0  0  0  0  0  0  0  # atno 17321 bound_to 7965
  140.7673  143.5604  150.9105 LP  0  0  0  0  0  0  0  0  0  0  0  0  # atno 17342 bound_to 10162
  139.9280  143.6527  152.3082 LP  0  0  0  0  0  0  0  0  0  0  0  0  # atno 17343 bound_to 10162
  157.7277  131.0637  150.5853 LP  0  0  0  0  0  0  0  0  0  0  0  0  # atno 17370 bound_to 10713
  156.5947  130.4338  149.5922 LP  0  0  0  0  0  0  0  0  0  0  0  0  # atno 17371 bound_to 10713
  141.2206  133.6898  156.7532 LP  0  0  0  0  0  0  0  0  0  0  0  0  # atno 17394 bound_to 11000
  140.2531  134.8525  157.3686 LP  0  0  0  0  0  0  0  0  0  0  0  0  # atno 17395 bound_to 11000

$$$$
