AV-unprocessed.smi:2097|AV-procd|sdf|8563|dock9
  -GOLD-   2272011293D 1   1.00000     0.00000
 Structure written by MMmdl.
 41 42  0  0  0  0  0  0  0  0  1 V2000
  140.9272  140.6289  155.3111 C   0  0  0  0  0  0  0  0  0  0  0  0
  140.0539  140.0463  154.1898 C   0  0  2  0  0  0  0  0  0  0  0  0
  138.7019  140.0750  154.6416 O   0  0  0  0  0  0  0  0  0  0  0  0
  137.7203  140.2956  153.6334 C   0  0  0  0  0  0  0  0  0  0  0  0
  136.3772  139.7195  154.0976 C   0  0  0  0  0  0  0  0  0  0  0  0
  136.1649  140.0685  155.3659 F   0  0  0  0  0  0  0  0  0  0  0  0
  135.3855  140.2019  153.3494 F   0  0  0  0  0  0  0  0  0  0  0  0
  136.3936  138.3892  154.0170 F   0  0  0  0  0  0  0  0  0  0  0  0
  140.4739  138.6084  153.8426 C   0  0  0  0  0  0  0  0  0  0  0  0
  139.6652  137.6896  153.9716 O   0  0  0  0  0  0  0  0  0  0  0  0
  141.7264  138.4637  153.3715 N   0  0  0  0  0  0  0  0  0  0  0  0
  142.3818  137.2760  152.9487 C   0  0  0  0  0  0  0  0  0  0  0  0
  141.6696  136.0636  153.0251 C   0  0  0  0  0  0  0  0  0  0  0  0
  142.2900  134.8723  152.6042 C   0  0  0  0  0  0  0  0  0  0  0  0
  143.6132  134.9219  152.1061 C   0  0  0  0  0  0  0  0  0  0  0  0
  144.2596  133.7383  151.6876 N   0  0  0  0  0  0  0  0  0  0  0  0
  145.7128  133.8236  151.5622 C   0  0  0  0  0  0  0  0  0  0  0  0
  146.3213  132.4198  151.4017 C   0  0  0  0  0  0  0  0  0  0  0  0
  145.7102  131.7514  150.3033 O   0  0  0  0  0  0  0  0  0  0  0  0
  144.3110  131.5792  150.5015 C   0  0  0  0  0  0  0  0  0  0  0  0
  143.6325  132.9538  150.6253 C   0  0  0  0  0  0  0  0  0  0  0  0
  144.2886  136.0934  152.0086 N   0  0  0  0  0  0  0  0  0  0  0  0
  143.6917  137.2335  152.4157 C   0  0  0  0  0  0  0  0  0  0  0  0
  141.9822  140.6258  155.0345 H   0  0  0  0  0  0  0  0  0  0  0  0
  140.8213  140.0641  156.2382 H   0  0  0  0  0  0  0  0  0  0  0  0
  140.6459  141.6608  155.5221 H   0  0  0  0  0  0  0  0  0  0  0  0
  140.1546  140.6862  153.3109 H   0  0  0  0  0  0  0  0  0  0  0  0
  137.6162  141.3646  153.4425 H   0  0  0  0  0  0  0  0  0  0  0  0
  138.0114  139.8234  152.6944 H   0  0  0  0  0  0  0  0  0  0  0  0
  142.2490  139.3174  153.2397 H   0  0  0  0  0  0  0  0  0  0  0  0
  140.6589  136.0416  153.4057 H   0  0  0  0  0  0  0  0  0  0  0  0
  141.7424  133.9433  152.6556 H   0  0  0  0  0  0  0  0  0  0  0  0
  145.9546  134.4359  150.6925 H   0  0  0  0  0  0  0  0  0  0  0  0
  146.1658  134.3082  152.4258 H   0  0  0  0  0  0  0  0  0  0  0  0
  147.3933  132.4949  151.2194 H   0  0  0  0  0  0  0  0  0  0  0  0
  146.1943  131.8345  152.3139 H   0  0  0  0  0  0  0  0  0  0  0  0
  143.8966  131.0314  149.6552 H   0  0  0  0  0  0  0  0  0  0  0  0
  144.1303  130.9744  151.3917 H   0  0  0  0  0  0  0  0  0  0  0  0
  142.5712  132.8142  150.8346 H   0  0  0  0  0  0  0  0  0  0  0  0
  143.7115  133.4950  149.6813 H   0  0  0  0  0  0  0  0  0  0  0  0
  144.2859  138.1244  152.2854 H   0  0  0  0  0  0  0  0  0  0  0  0
  1  2  1  0  0  0  0
  1 24  1  0  0  0  0
  1 25  1  0  0  0  0
  1 26  1  0  0  0  0
  2  3  1  0  0  0  0
  2  9  1  0  0  0  0
  2 27  1  0  0  0  0
  3  4  1  0  0  0  0
  4  5  1  0  0  0  0
  4 28  1  0  0  0  0
  4 29  1  0  0  0  0
  5  6  1  0  0  0  0
  5  7  1  0  0  0  0
  5  8  1  0  0  0  0
  9 10  2  0  0  0  0
  9 11  1  0  0  0  0
 11 12  1  0  0  0  0
 11 30  1  0  0  0  0
 12 23  1  0  0  0  0
 12 13  2  0  0  0  0
 13 14  1  0  0  0  0
 13 31  1  0  0  0  0
 14 15  2  0  0  0  0
 14 32  1  0  0  0  0
 15 16  1  0  0  0  0
 15 22  1  0  0  0  0
 16 21  1  0  0  0  0
 16 17  1  0  0  0  0
 17 18  1  0  0  0  0
 17 33  1  0  0  0  0
 17 34  1  0  0  0  0
 18 19  1  0  0  0  0
 18 35  1  0  0  0  0
 18 36  1  0  0  0  0
 19 20  1  0  0  0  0
 20 21  1  0  0  0  0
 20 37  1  0  0  0  0
 20 38  1  0  0  0  0
 21 39  1  0  0  0  0
 21 40  1  0  0  0  0
 22 23  2  0  0  0  0
 23 41  1  0  0  0  0
M  END
> <s_m_source_file>
AV-unprocessed.smi

> <i_m_source_file_index>
2097

> <i_lp_mmshare_version>
43012

> <i_f3d_flags>
0

> <s_epik_input>
RkMoRikoRilbQ0gyXU9bQ0BASF0oW0NIM10pQyg9TylbTkhdYzFbY0hdW2NIXWMobltjSF0xKU4yW0NIMl1bQ0gyXU9bQ0gyXVtDSDJdMg==

> <s_epik_cmdline>
J2VwaWtfcHl0aG9uJywgJy1waCcsICc3LjAnLCAnLXRuJywgJzgnLCAnLW1hJywgJzIwMCcsICctbWV0YWxfYmluZGluZycsICctaW1hZScsICc8aW5maWxlLm1hZT4nLCAnLW9tYWUnLCAnPG91dGZpbGUubWFlPic=

> <r_lp_tautomer_probability>
1

> <r_epik_Ionization_Penalty>
0.000443452

> <r_epik_Ionization_Penalty_Charging>
0

> <r_epik_Ionization_Penalty_Neutral>
0.000443452

> <r_epik_State_Penalty>
0.00027288

> <r_epik_Charging_Adjusted_Penalty>
0.00027288

> <i_epik_Tot_Q>
0

> <i_epik_Tot_abs_Q>
0

> <r_epik_Metal_State_Penalty>
-0

> <b_epik_Metal_Only>
0

> <s_lp_Force_Field>
OPLS_2005

> <r_lp_Energy>
25.2007

> <b_lp_Chiralities_Consistent>
1

> <s_lp_Variant>
AV-unprocessed.smi:2097-1

> <Gold.Version>
5.8.1

> <Gold.Id.Protein>
6NUR|6NUR_protein|mol2

> <Gold.PLP.Fitness>
39.2873

> <Gold.PLP.PLP>
-33.2505

> <Gold.PLP.part.hbond>
-1.0000

> <Gold.PLP.part.metal>
0.0000

> <Gold.PLP.part.buried>
-5.4710

> <Gold.PLP.part.nonpolar>
-27.3716

> <Gold.PLP.part.repulsive>
0.4883

> <Gold.PLP.ligand.clash>
0.0364

> <Gold.PLP.ligand.torsion>
0.9595

> <Gold.PLP.Chemscore.Hbond>
1.0000

> <Gold.PLP.Chemscore.CHOScore>
1.5382

> <Gold.PLP.Chemscore.Metal>
0.0000

> <Gold.Chemscore.Hbonds>
donor molecule, donor type, donor heavy atom, donor atom, acceptor molecule, acceptor atom, score
      L1  H    11    30       P1 10175  1.00
      L1  C    23    41       P1 10171  0.40
      L1  C    23    41       P1 10175  0.99

> <Gold.PLP.Chemscore.Internal.Correction>
0.3775

> <Gold.Rescore>
     Score         DG    S(hbond)    S(metal)    S(lipo)     H(rot)  DE(clash)    DE(int)     intcor
      8.36     -11.81       1.00        0.00      68.22       1.95       1.24       2.22       ----

> <Gold.Chemscore.Fitness>
8.3555

> <Gold.Chemscore.DG>
-11.8125

> <Gold.Chemscore.ZeroCoef>
-5.4800

> <Gold.Chemscore.Hbond>
1.0000

> <Gold.Chemscore.Metal>
0.0000

> <Gold.Chemscore.Lipo>
68.2241

> <Gold.Chemscore.Internal_Hbond>
0.0000

> <Gold.Chemscore.DEClash>
1.2390

> <Gold.Chemscore.DEInternal>
2.2180

> <Gold.Chemscore.Rot>
1.9491

> <Gold.Chemscore.Internal.Correction>
   9.000000E+99

> <Gold.Chemscore.Hbonds>
donor molecule, donor type, donor heavy atom, donor atom, acceptor molecule, acceptor atom, score
      L1  H    11    30       P1 10175  0.97

> <Gold.Chemscore.Hbond.Weighted>
-3.3399

> <Gold.Chemscore.Metal.Weighted>
-0.0000

> <Gold.Chemscore.Lipo.Weighted>
-7.9822

> <Gold.Chemscore.Internal_Hbond.Weighted>
0.0000

> <Gold.Chemscore.DEClash.Weighted>
1.2390

> <Gold.Chemscore.DEInternal.Weighted>
2.2180

> <Gold.Chemscore.Rot.Weighted>
4.9897

> <Gold.Chemscore.Internal.Correction.Weighted>
   9.000000E+99

> <Gold.Protein.RotatedTorsions>
[ 6907 6896 6895 6894 ] final -138.61 input  -60.11 | X-H torsion
[ 7974 7965 7964 7962 ] final  -22.51 input  175.53 | X-H torsion
[ 8008 7997 7996 7995 ] final    7.69 input   59.86 | X-H torsion
[ 10167 10162 10161 10158 ] final  178.93 input  -65.29 | X-H torsion
[ 10718 10713 10712 10709 ] final -113.61 input   66.30 | X-H torsion
[ 10763 10752 10751 10750 ] final   53.93 input  -60.55 | X-H torsion
[ 11005 11000 10999 10996 ] final  120.73 input  -57.11 | X-H torsion

> <Gold.Protein.ActiveResidues>
 VAL166  LYS551  ARG553  GLY616  TRP617  ASP618  TYR619  PRO620  LYS621  CYS622 
 ASP623  PHE694  ASN695  SER759  ASP760  ASP761  ALA762  ILE779  LEU786  VAL792 
 PHE793  MET794  SER795  GLU796  ALA797  LYS798  CYS799  TRP800  GLU811  SER814 

> <Gold.Protein.RotatedAtoms>
  151.0373  133.5737  159.2654 H   0  0  0  0  0  0  0  0  0  0  0  0  # atno 6907 bound_to 6896
  151.2797  135.0709  159.9174 H   0  0  0  0  0  0  0  0  0  0  0  0  # atno 6908 bound_to 6896
  152.5357  134.0089  159.7983 H   0  0  0  0  0  0  0  0  0  0  0  0  # atno 6909 bound_to 6896
  146.1671  140.4489  142.8547 H   0  0  0  0  0  0  0  0  0  0  0  0  # atno 7974 bound_to 7965
  154.7572  140.2778  155.6244 H   0  0  0  0  0  0  0  0  0  0  0  0  # atno 8008 bound_to 7997
  156.2908  140.2667  156.2267 H   0  0  0  0  0  0  0  0  0  0  0  0  # atno 8009 bound_to 7997
  155.0063  140.0372  157.2371 H   0  0  0  0  0  0  0  0  0  0  0  0  # atno 8010 bound_to 7997
  139.5314  144.2622  152.0698 H   0  0  0  0  0  0  0  0  0  0  0  0  # atno 10167 bound_to 10162
  156.0777  130.5982  150.8664 H   0  0  0  0  0  0  0  0  0  0  0  0  # atno 10718 bound_to 10713
  152.9799  135.5762  154.4822 H   0  0  0  0  0  0  0  0  0  0  0  0  # atno 10763 bound_to 10752
  154.4369  135.2775  155.1876 H   0  0  0  0  0  0  0  0  0  0  0  0  # atno 10764 bound_to 10752
  154.3561  135.6199  153.5720 H   0  0  0  0  0  0  0  0  0  0  0  0  # atno 10765 bound_to 10752
  139.9197  134.9636  156.7851 H   0  0  0  0  0  0  0  0  0  0  0  0  # atno 11005 bound_to 11000
  144.8108  140.6382  143.6416 LP  0  0  0  0  0  0  0  0  0  0  0  0  # atno 17320 bound_to 7965
  145.4438  139.1532  143.3955 LP  0  0  0  0  0  0  0  0  0  0  0  0  # atno 17321 bound_to 7965
  140.2086  144.4586  150.6397 LP  0  0  0  0  0  0  0  0  0  0  0  0  # atno 17342 bound_to 10162
  140.6495  143.2221  151.6109 LP  0  0  0  0  0  0  0  0  0  0  0  0  # atno 17343 bound_to 10162
  157.5880  131.0945  150.9165 LP  0  0  0  0  0  0  0  0  0  0  0  0  # atno 17370 bound_to 10713
  156.9346  130.5362  149.5279 LP  0  0  0  0  0  0  0  0  0  0  0  0  # atno 17371 bound_to 10713
  140.6512  133.9729  155.7756 LP  0  0  0  0  0  0  0  0  0  0  0  0  # atno 17394 bound_to 11000
  141.0706  134.0210  157.3531 LP  0  0  0  0  0  0  0  0  0  0  0  0  # atno 17395 bound_to 11000

$$$$
