AV-unprocessed.smi:1995|AV-procd|sdf|8078|dock7
  -GOLD-   2272010293D 1   1.00000     0.00000
 Structure written by MMmdl.
 43 44  0  0  0  0  0  0  0  0  2 V2000
  146.7668  140.7222  153.8266 C   0  0  0  0  0  0  0  0  0  0  0  0
  147.6069  139.4917  153.4413 C   0  0  0  0  0  0  0  0  0  0  0  0
  147.7499  138.3898  154.5358 C   0  0  1  0  0  0  0  0  0  0  0  0
  147.6194  139.0448  155.9355 C   0  0  0  0  0  0  0  0  0  0  0  0
  146.5900  137.3547  154.3891 C   0  0  0  0  0  0  0  0  0  0  0  0
  146.7495  136.4352  153.2609 N   0  0  0  0  0  0  0  0  0  0  0  0
  145.7582  135.7749  152.6450 C   0  0  0  0  0  0  0  0  0  0  0  0
  144.5771  135.8546  152.9825 O   0  0  0  0  0  0  0  0  0  0  0  0
  146.2283  135.0295  151.6297 N   0  0  0  0  0  0  0  0  0  0  0  0
  145.5013  134.1736  150.7608 C   0  0  0  0  0  0  0  0  0  0  0  0
  144.2574  134.4151  150.3303 N   0  0  0  0  0  0  0  0  0  0  0  0
  143.7884  133.4032  149.4885 C   0  0  0  0  0  0  0  0  0  0  0  0
  144.6936  132.3904  149.2908 C   0  0  0  0  0  0  0  0  0  0  0  0
  146.1803  132.6690  150.1579 S   0  0  0  0  0  0  0  0  0  0  0  0
  149.0847  137.6918  154.4286 N   0  3  0  0  0  0  0  0  0  0  0  0
  150.2838  138.5607  154.5968 C   0  0  0  0  0  0  0  0  0  0  0  0
  151.5630  137.7837  154.2466 C   0  0  0  0  0  0  0  0  0  0  0  0
  151.6634  136.6366  155.0786 O   0  0  0  0  0  0  0  0  0  0  0  0
  150.5713  135.7485  154.8861 C   0  0  0  0  0  0  0  0  0  0  0  0
  149.2523  136.4549  155.2439 C   0  0  0  0  0  0  0  0  0  0  0  0
  146.7209  141.4241  152.9937 H   0  0  0  0  0  0  0  0  0  0  0  0
  147.1935  141.2587  154.6735 H   0  0  0  0  0  0  0  0  0  0  0  0
  145.7404  140.4548  154.0757 H   0  0  0  0  0  0  0  0  0  0  0  0
  147.1608  139.0686  152.5418 H   0  0  0  0  0  0  0  0  0  0  0  0
  148.5915  139.8508  153.1437 H   0  0  0  0  0  0  0  0  0  0  0  0
  146.5916  139.3371  156.1516 H   0  0  0  0  0  0  0  0  0  0  0  0
  148.2202  139.9501  156.0238 H   0  0  0  0  0  0  0  0  0  0  0  0
  147.9275  138.3644  156.7298 H   0  0  0  0  0  0  0  0  0  0  0  0
  146.4574  136.7847  155.3101 H   0  0  0  0  0  0  0  0  0  0  0  0
  145.6400  137.8703  154.2481 H   0  0  0  0  0  0  0  0  0  0  0  0
  147.6859  136.3171  152.9029 H   0  0  0  0  0  0  0  0  0  0  0  0
  147.2212  135.0791  151.4549 H   0  0  0  0  0  0  0  0  0  0  0  0
  142.7946  133.4842  149.0730 H   0  0  0  0  0  0  0  0  0  0  0  0
  144.5761  131.5009  148.6899 H   0  0  0  0  0  0  0  0  0  0  0  0
  150.2342  139.4408  153.9586 H   0  0  0  0  0  0  0  0  0  0  0  0
  150.3535  138.9142  155.6259 H   0  0  0  0  0  0  0  0  0  0  0  0
  151.5679  137.4916  153.1951 H   0  0  0  0  0  0  0  0  0  0  0  0
  152.4397  138.4116  154.4070 H   0  0  0  0  0  0  0  0  0  0  0  0
  150.5542  135.3919  153.8548 H   0  0  0  0  0  0  0  0  0  0  0  0
  150.7132  134.8742  155.5218 H   0  0  0  0  0  0  0  0  0  0  0  0
  149.2479  136.6993  156.3063 H   0  0  0  0  0  0  0  0  0  0  0  0
  148.4452  135.7453  155.0732 H   0  0  0  0  0  0  0  0  0  0  0  0
  149.1198  137.3746  153.4703 H   0  0  0  0  0  0  0  0  0  0  0  0
  1  2  1  0  0  0  0
  1 21  1  0  0  0  0
  1 22  1  0  0  0  0
  1 23  1  0  0  0  0
  2  3  1  0  0  0  0
  2 24  1  0  0  0  0
  2 25  1  0  0  0  0
  3  4  1  0  0  0  0
  3  5  1  0  0  0  0
  3 15  1  0  0  0  0
  4 26  1  0  0  0  0
  4 27  1  0  0  0  0
  4 28  1  0  0  0  0
  5  6  1  0  0  0  0
  5 29  1  0  0  0  0
  5 30  1  0  0  0  0
  6  7  1  0  0  0  0
  6 31  1  0  0  0  0
  7  8  2  0  0  0  0
  7  9  1  0  0  0  0
  9 10  1  0  0  0  0
  9 32  1  0  0  0  0
 10 14  1  0  0  0  0
 10 11  2  0  0  0  0
 11 12  1  0  0  0  0
 12 13  2  0  0  0  0
 12 33  1  0  0  0  0
 13 14  1  0  0  0  0
 13 34  1  0  0  0  0
 15 20  1  0  0  0  0
 15 16  1  0  0  0  0
 15 43  1  0  0  0  0
 16 17  1  0  0  0  0
 16 35  1  0  0  0  0
 16 36  1  0  0  0  0
 17 18  1  0  0  0  0
 17 37  1  0  0  0  0
 17 38  1  0  0  0  0
 18 19  1  0  0  0  0
 19 20  1  0  0  0  0
 19 39  1  0  0  0  0
 19 40  1  0  0  0  0
 20 41  1  0  0  0  0
 20 42  1  0  0  0  0
M  CHG  1  15   1
M  END
> <s_m_source_file>
AV-unprocessed.smi

> <i_m_source_file_index>
1995

> <i_lp_mmshare_version>
43012

> <i_f3d_flags>
0

> <s_epik_input>
W0NIMl0xW0NIMl1PW0NIMl1bQ0gyXU4xW0NAQF0oW0NIM10pKFtDSDJdW0NIM10pW0NIMl1bTkhdQyg9TylbTkhdYzJuW2NIXVtjSF1zMg==

> <s_epik_cmdline>
J2VwaWtfcHl0aG9uJywgJy1waCcsICc3LjAnLCAnLXRuJywgJzgnLCAnLW1hJywgJzIwMCcsICctbWV0YWxfYmluZGluZycsICctaW1hZScsICc8aW5maWxlLm1hZT4nLCAnLW9tYWUnLCAnPG91dGZpbGUubWFlPic=

> <r_lp_tautomer_probability>
0.999

> <r_epik_Ionization_Penalty>
0.55406

> <r_epik_Ionization_Penalty_Charging>
0.553838

> <r_epik_Ionization_Penalty_Neutral>
0.000222147

> <r_epik_State_Penalty>
0.564424

> <r_epik_Charging_Adjusted_Penalty>
1.11826

> <i_epik_Tot_Q>
1

> <i_epik_Tot_abs_Q>
1

> <r_epik_Metal_State_Penalty>
0.573776

> <b_epik_Metal_Only>
0

> <s_lp_Force_Field>
OPLS_2005

> <r_lp_Energy>
32.5614

> <b_lp_Chiralities_Consistent>
1

> <s_lp_Variant>
AV-unprocessed.smi:1995-3

> <Gold.Version>
5.8.1

> <Gold.Id.Protein>
6NUR|6NUR_protein|mol2

> <Gold.PLP.Fitness>
43.4929

> <Gold.PLP.PLP>
-28.3644

> <Gold.PLP.part.hbond>
-4.0000

> <Gold.PLP.part.metal>
0.0000

> <Gold.PLP.part.buried>
-1.7107

> <Gold.PLP.part.nonpolar>
-23.5843

> <Gold.PLP.part.repulsive>
0.4570

> <Gold.PLP.ligand.clash>
0.0000

> <Gold.PLP.ligand.torsion>
1.2569

> <Gold.PLP.Chemscore.Hbond>
4.8357

> <Gold.PLP.Chemscore.CHOScore>
1.0000

> <Gold.PLP.Chemscore.Metal>
0.0000

> <Gold.Chemscore.Hbonds>
donor molecule, donor type, donor heavy atom, donor atom, acceptor molecule, acceptor atom, score
      L1  H     6    31       P1  7948  1.00
      L1  H     9    32       P1  7948  0.82
      L1  H    15    43       P1  7948  2.00
      P1  H 10752 10763       L1    18  0.90
      L1  C    12    33       P1 10186  1.00

> <Gold.PLP.Chemscore.Internal.Correction>
0.1352

> <Gold.Rescore>
     Score         DG    S(hbond)    S(metal)    S(lipo)     H(rot)  DE(clash)    DE(int)     intcor
     17.34     -18.49       2.65        0.00      74.75       1.79       0.07       1.09       ----

> <Gold.Chemscore.Fitness>
17.3412

> <Gold.Chemscore.DG>
-18.4938

> <Gold.Chemscore.ZeroCoef>
-5.4800

> <Gold.Chemscore.Hbond>
2.6530

> <Gold.Chemscore.Metal>
0.0000

> <Gold.Chemscore.Lipo>
74.7522

> <Gold.Chemscore.Internal_Hbond>
0.0000

> <Gold.Chemscore.DEClash>
0.0673

> <Gold.Chemscore.DEInternal>
1.0852

> <Gold.Chemscore.Rot>
1.7942

> <Gold.Chemscore.Internal.Correction>
   9.000000E+99

> <Gold.Chemscore.Hbonds>
donor molecule, donor type, donor heavy atom, donor atom, acceptor molecule, acceptor atom, score
      L1  H     6    31       P1  7948  0.99
      L1  H     9    32       P1  7948  0.60
      L1  H    15    43       P1  7948  0.98
      P1  H 10752 10763       L1    18  0.09

> <Gold.Chemscore.Hbond.Weighted>
-8.8609

> <Gold.Chemscore.Metal.Weighted>
-0.0000

> <Gold.Chemscore.Lipo.Weighted>
-8.7460

> <Gold.Chemscore.Internal_Hbond.Weighted>
0.0000

> <Gold.Chemscore.DEClash.Weighted>
0.0673

> <Gold.Chemscore.DEInternal.Weighted>
1.0852

> <Gold.Chemscore.Rot.Weighted>
4.5931

> <Gold.Chemscore.Internal.Correction.Weighted>
   9.000000E+99

> <Gold.Protein.RotatedTorsions>
[ 6907 6896 6895 6894 ] final  -20.26 input  -60.11 | X-H torsion
[ 7974 7965 7964 7962 ] final   34.69 input  175.53 | X-H torsion
[ 8008 7997 7996 7995 ] final   31.51 input   59.86 | X-H torsion
[ 10167 10162 10161 10158 ] final -158.24 input  -65.29 | X-H torsion
[ 10718 10713 10712 10709 ] final  -82.09 input   66.30 | X-H torsion
[ 10763 10752 10751 10750 ] final   44.16 input  -60.55 | X-H torsion
[ 11005 11000 10999 10996 ] final  109.89 input  -57.11 | X-H torsion

> <Gold.Protein.ActiveResidues>
 VAL166  LYS551  ARG553  GLY616  TRP617  ASP618  TYR619  PRO620  LYS621  CYS622 
 ASP623  PHE694  ASN695  SER759  ASP760  ASP761  ALA762  ILE779  LEU786  VAL792 
 PHE793  MET794  SER795  GLU796  ALA797  LYS798  CYS799  TRP800  GLU811  SER814 

> <Gold.Protein.RotatedAtoms>
  151.2508  135.0621  159.9060 H   0  0  0  0  0  0  0  0  0  0  0  0  # atno 6907 bound_to 6896
  152.5380  134.0334  159.8045 H   0  0  0  0  0  0  0  0  0  0  0  0  # atno 6908 bound_to 6896
  151.0542  133.5549  159.2671 H   0  0  0  0  0  0  0  0  0  0  0  0  # atno 6909 bound_to 6896
  146.1336  139.6238  142.9210 H   0  0  0  0  0  0  0  0  0  0  0  0  # atno 7974 bound_to 7965
  155.1076  140.3236  155.4530 H   0  0  0  0  0  0  0  0  0  0  0  0  # atno 8008 bound_to 7997
  156.2699  140.2050  156.6149 H   0  0  0  0  0  0  0  0  0  0  0  0  # atno 8009 bound_to 7997
  154.6780  140.0529  157.0223 H   0  0  0  0  0  0  0  0  0  0  0  0  # atno 8010 bound_to 7997
  139.6707  143.9750  152.2282 H   0  0  0  0  0  0  0  0  0  0  0  0  # atno 10167 bound_to 10162
  156.0039  130.4623  150.4052 H   0  0  0  0  0  0  0  0  0  0  0  0  # atno 10718 bound_to 10713
  152.9846  135.6079  154.3228 H   0  0  0  0  0  0  0  0  0  0  0  0  # atno 10763 bound_to 10752
  154.2937  135.2774  155.2645 H   0  0  0  0  0  0  0  0  0  0  0  0  # atno 10764 bound_to 10752
  154.4929  135.5887  153.6529 H   0  0  0  0  0  0  0  0  0  0  0  0  # atno 10765 bound_to 10752
  139.8871  134.9470  156.6194 H   0  0  0  0  0  0  0  0  0  0  0  0  # atno 11005 bound_to 11000
  145.5207  141.0432  143.2437 LP  0  0  0  0  0  0  0  0  0  0  0  0  # atno 17320 bound_to 7965
  144.7716  139.6723  143.7192 LP  0  0  0  0  0  0  0  0  0  0  0  0  # atno 17321 bound_to 7965
  139.9513  144.6618  150.8169 LP  0  0  0  0  0  0  0  0  0  0  0  0  # atno 17342 bound_to 10162
  140.7617  143.3180  151.2688 LP  0  0  0  0  0  0  0  0  0  0  0  0  # atno 17343 bound_to 10162
  157.2118  131.0462  151.2595 LP  0  0  0  0  0  0  0  0  0  0  0  0  # atno 17370 bound_to 10713
  157.3881  130.7267  149.6678 LP  0  0  0  0  0  0  0  0  0  0  0  0  # atno 17371 bound_to 10713
  140.7750  133.8707  155.8522 LP  0  0  0  0  0  0  0  0  0  0  0  0  # atno 17394 bound_to 11000
  140.9809  134.1407  157.4495 LP  0  0  0  0  0  0  0  0  0  0  0  0  # atno 17395 bound_to 11000

$$$$
