AV-unprocessed.smi:3007|AV-procd|sdf|11446|dock1
  -GOLD-   2272016373D 1   1.00000     0.00000
 Structure written by MMmdl.
 39 40  0  0  0  0  0  0  0  0  1 V2000
  152.8468  142.5106  162.2371 C   0  0  0  0  0  0  0  0  0  0  0  0
  152.4876  143.4162  161.0570 C   0  0  0  0  0  0  0  0  0  0  0  0
  151.9496  144.4965  161.3007 O   0  0  0  0  0  0  0  0  0  0  0  0
  152.7691  143.0065  159.7968 N   0  0  0  0  0  0  0  0  0  0  0  0
  153.3611  141.6961  159.5023 C   0  0  0  0  0  0  0  0  0  0  0  0
  152.3027  140.8136  158.8168 C   0  0  0  0  0  0  0  0  0  0  0  0
  151.7453  141.4921  157.5479 C   0  0  0  0  0  0  0  0  0  0  0  0
  150.6265  140.7133  157.0279 N   0  0  0  0  0  0  0  0  0  0  0  0
  150.5545  140.1827  155.7965 C   0  0  0  0  0  0  0  0  0  0  0  0
  151.4576  140.2883  154.9655 O   0  0  0  0  0  0  0  0  0  0  0  0
  149.2621  139.4191  155.4640 C   0  0  2  0  0  0  0  0  0  0  0  0
  149.5246  138.0607  154.7820 C   0  0  0  0  0  0  0  0  0  0  0  0
  148.3609  140.2594  154.6834 N   0  0  0  0  0  0  0  0  0  0  0  0
  148.2079  141.6298  154.7497 C   0  0  0  0  0  0  0  0  0  0  0  0
  147.2811  141.9858  153.8124 C   0  0  0  0  0  0  0  0  0  0  0  0
  146.9253  140.7506  153.2034 C   0  0  0  0  0  0  0  0  0  0  0  0
  147.5764  139.7217  153.7202 N   0  0  0  0  0  0  0  0  0  0  0  0
  151.3080  142.9470  157.8342 C   0  0  0  0  0  0  0  0  0  0  0  0
  152.4128  143.7279  158.5683 C   0  0  0  0  0  0  0  0  0  0  0  0
  153.9188  142.3123  162.2610 H   0  0  0  0  0  0  0  0  0  0  0  0
  152.3109  141.5634  162.1744 H   0  0  0  0  0  0  0  0  0  0  0  0
  152.5748  142.9839  163.1812 H   0  0  0  0  0  0  0  0  0  0  0  0
  154.2218  141.8278  158.8451 H   0  0  0  0  0  0  0  0  0  0  0  0
  153.7423  141.1938  160.3924 H   0  0  0  0  0  0  0  0  0  0  0  0
  152.7334  139.8440  158.5651 H   0  0  0  0  0  0  0  0  0  0  0  0
  151.4917  140.6185  159.5206 H   0  0  0  0  0  0  0  0  0  0  0  0
  152.5456  141.5113  156.8055 H   0  0  0  0  0  0  0  0  0  0  0  0
  149.8400  140.5793  157.6464 H   0  0  0  0  0  0  0  0  0  0  0  0
  148.7641  139.2099  156.4121 H   0  0  0  0  0  0  0  0  0  0  0  0
  150.1421  137.4184  155.4106 H   0  0  0  0  0  0  0  0  0  0  0  0
  150.0336  138.1736  153.8239 H   0  0  0  0  0  0  0  0  0  0  0  0
  148.5888  137.5325  154.5974 H   0  0  0  0  0  0  0  0  0  0  0  0
  148.7655  142.2323  155.4517 H   0  0  0  0  0  0  0  0  0  0  0  0
  146.9167  142.9783  153.5922 H   0  0  0  0  0  0  0  0  0  0  0  0
  146.2208  140.5726  152.4045 H   0  0  0  0  0  0  0  0  0  0  0  0
  151.0535  143.4539  156.9027 H   0  0  0  0  0  0  0  0  0  0  0  0
  150.4028  142.9489  158.4435 H   0  0  0  0  0  0  0  0  0  0  0  0
  152.0872  144.7525  158.7411 H   0  0  0  0  0  0  0  0  0  0  0  0
  153.2956  143.8082  157.9325 H   0  0  0  0  0  0  0  0  0  0  0  0
  1  2  1  0  0  0  0
  1 20  1  0  0  0  0
  1 21  1  0  0  0  0
  1 22  1  0  0  0  0
  2  3  2  0  0  0  0
  2  4  1  0  0  0  0
  4 19  1  0  0  0  0
  4  5  1  0  0  0  0
  5  6  1  0  0  0  0
  5 23  1  0  0  0  0
  5 24  1  0  0  0  0
  6  7  1  0  0  0  0
  6 25  1  0  0  0  0
  6 26  1  0  0  0  0
  7  8  1  0  0  0  0
  7 18  1  0  0  0  0
  7 27  1  0  0  0  0
  8  9  1  0  0  0  0
  8 28  1  0  0  0  0
  9 10  2  0  0  0  0
  9 11  1  0  0  0  0
 11 12  1  0  0  0  0
 11 13  1  0  0  0  0
 11 29  1  0  0  0  0
 12 30  1  0  0  0  0
 12 31  1  0  0  0  0
 12 32  1  0  0  0  0
 13 17  1  0  0  0  0
 13 14  1  0  0  0  0
 14 15  2  0  0  0  0
 14 33  1  0  0  0  0
 15 16  1  0  0  0  0
 15 34  1  0  0  0  0
 16 17  2  0  0  0  0
 16 35  1  0  0  0  0
 18 19  1  0  0  0  0
 18 36  1  0  0  0  0
 18 37  1  0  0  0  0
 19 38  1  0  0  0  0
 19 39  1  0  0  0  0
M  END
> <s_m_source_file>
AV-unprocessed.smi

> <i_m_source_file_index>
3007

> <i_lp_mmshare_version>
43012

> <i_f3d_flags>
0

> <s_epik_input>
W0NIM11DKD1PKU4xW0NIMl1bQ0gyXVtDSF0oW0NIMl1bQ0gyXTEpW05IXUMoPU8pW0NASF0oW0NIM10pbjJbY0hdW2NIXVtjSF1uMg==

> <s_epik_cmdline>
J2VwaWtfcHl0aG9uJywgJy1waCcsICc3LjAnLCAnLXRuJywgJzgnLCAnLW1hJywgJzIwMCcsICctbWV0YWxfYmluZGluZycsICctaW1hZScsICc8aW5maWxlLm1hZT4nLCAnLW9tYWUnLCAnPG91dGZpbGUubWFlPic=

> <r_lp_tautomer_probability>
1

> <r_epik_Ionization_Penalty>
4.2887e-05

> <r_epik_Ionization_Penalty_Charging>
0

> <r_epik_Ionization_Penalty_Neutral>
4.2887e-05

> <r_epik_State_Penalty>
-0

> <r_epik_Charging_Adjusted_Penalty>
0

> <i_epik_Tot_Q>
0

> <i_epik_Tot_abs_Q>
0

> <r_epik_Metal_State_Penalty>
-0

> <b_epik_Metal_Only>
0

> <s_lp_Force_Field>
OPLS_2005

> <r_lp_Energy>
25.1722

> <b_lp_Chiralities_Consistent>
1

> <s_lp_Variant>
AV-unprocessed.smi:3007-1

> <Gold.Version>
5.8.1

> <Gold.Id.Protein>
6NUR|6NUR_protein|mol2

> <Gold.PLP.Fitness>
48.3422

> <Gold.PLP.PLP>
-41.5352

> <Gold.PLP.part.hbond>
-0.9572

> <Gold.PLP.part.metal>
0.0000

> <Gold.PLP.part.buried>
-6.9411

> <Gold.PLP.part.nonpolar>
-34.9834

> <Gold.PLP.part.repulsive>
0.4636

> <Gold.PLP.ligand.clash>
0.0000

> <Gold.PLP.ligand.torsion>
1.0991

> <Gold.PLP.Chemscore.Hbond>
1.0000

> <Gold.PLP.Chemscore.CHOScore>
1.9644

> <Gold.PLP.Chemscore.Metal>
0.0000

> <Gold.Chemscore.Hbonds>
donor molecule, donor type, donor heavy atom, donor atom, acceptor molecule, acceptor atom, score
      P1  H  7989  7998       L1    10  1.00
      L1  C    14    33       P1  8028  0.97
      L1  C    16    35       P1 10175  1.00

> <Gold.PLP.Chemscore.Internal.Correction>
0.1119

> <Gold.Rescore>
     Score         DG    S(hbond)    S(metal)    S(lipo)     H(rot)  DE(clash)    DE(int)     intcor
     14.61     -15.54       0.97        0.00      90.24       1.46       0.05       0.88       ----

> <Gold.Chemscore.Fitness>
14.6105

> <Gold.Chemscore.DG>
-15.5429

> <Gold.Chemscore.ZeroCoef>
-5.4800

> <Gold.Chemscore.Hbond>
0.9694

> <Gold.Chemscore.Metal>
0.0000

> <Gold.Chemscore.Lipo>
90.2425

> <Gold.Chemscore.Internal_Hbond>
0.0000

> <Gold.Chemscore.DEClash>
0.0533

> <Gold.Chemscore.DEInternal>
0.8790

> <Gold.Chemscore.Rot>
1.4583

> <Gold.Chemscore.Internal.Correction>
   9.000000E+99

> <Gold.Chemscore.Hbonds>
donor molecule, donor type, donor heavy atom, donor atom, acceptor molecule, acceptor atom, score
      P1  H  7989  7998       L1    10  0.93

> <Gold.Chemscore.Hbond.Weighted>
-3.2377

> <Gold.Chemscore.Metal.Weighted>
-0.0000

> <Gold.Chemscore.Lipo.Weighted>
-10.5584

> <Gold.Chemscore.Internal_Hbond.Weighted>
0.0000

> <Gold.Chemscore.DEClash.Weighted>
0.0533

> <Gold.Chemscore.DEInternal.Weighted>
0.8790

> <Gold.Chemscore.Rot.Weighted>
3.7332

> <Gold.Chemscore.Internal.Correction.Weighted>
   9.000000E+99

> <Gold.Protein.RotatedTorsions>
[ 6907 6896 6895 6894 ] final  -10.59 input  -60.11 | X-H torsion
[ 7974 7965 7964 7962 ] final   -2.60 input  175.53 | X-H torsion
[ 8008 7997 7996 7995 ] final -177.58 input   59.86 | X-H torsion
[ 10167 10162 10161 10158 ] final -144.04 input  -65.29 | X-H torsion
[ 10718 10713 10712 10709 ] final   79.81 input   66.30 | X-H torsion
[ 10763 10752 10751 10750 ] final    9.28 input  -60.55 | X-H torsion
[ 11005 11000 10999 10996 ] final -108.57 input  -57.11 | X-H torsion

> <Gold.Protein.ActiveResidues>
 VAL166  LYS551  ARG553  GLY616  TRP617  ASP618  TYR619  PRO620  LYS621  CYS622 
 ASP623  PHE694  ASN695  SER759  ASP760  ASP761  ALA762  ILE779  LEU786  VAL792 
 PHE793  MET794  SER795  GLU796  ALA797  LYS798  CYS799  TRP800  GLU811  SER814 

> <Gold.Protein.RotatedAtoms>
  151.3996  135.0969  159.9551 H   0  0  0  0  0  0  0  0  0  0  0  0  # atno 6907 bound_to 6896
  152.5054  133.8901  159.7400 H   0  0  0  0  0  0  0  0  0  0  0  0  # atno 6908 bound_to 6896
  150.9372  133.6642  159.2827 H   0  0  0  0  0  0  0  0  0  0  0  0  # atno 6909 bound_to 6896
  146.2402  140.1595  142.8333 H   0  0  0  0  0  0  0  0  0  0  0  0  # atno 7974 bound_to 7965
  156.0087  140.1236  157.0476 H   0  0  0  0  0  0  0  0  0  0  0  0  # atno 8008 bound_to 7997
  154.4268  140.1092  156.5868 H   0  0  0  0  0  0  0  0  0  0  0  0  # atno 8009 bound_to 7997
  155.6111  140.3471  155.4625 H   0  0  0  0  0  0  0  0  0  0  0  0  # atno 8010 bound_to 7997
  139.7937  143.7931  152.2652 H   0  0  0  0  0  0  0  0  0  0  0  0  # atno 10167 bound_to 10162
  157.6788  130.9931  150.1987 H   0  0  0  0  0  0  0  0  0  0  0  0  # atno 10718 bound_to 10713
  153.2158  135.6875  153.8059 H   0  0  0  0  0  0  0  0  0  0  0  0  # atno 10763 bound_to 10752
  153.7276  135.3257  155.3280 H   0  0  0  0  0  0  0  0  0  0  0  0  # atno 10764 bound_to 10752
  154.8245  135.4628  154.0984 H   0  0  0  0  0  0  0  0  0  0  0  0  # atno 10765 bound_to 10752
  141.0894  133.9081  157.2110 H   0  0  0  0  0  0  0  0  0  0  0  0  # atno 11005 bound_to 11000
  145.0101  140.8706  143.5229 LP  0  0  0  0  0  0  0  0  0  0  0  0  # atno 17320 bound_to 7965
  145.1627  139.2449  143.5383 LP  0  0  0  0  0  0  0  0  0  0  0  0  # atno 17321 bound_to 7965
  139.8030  144.7366  150.9800 LP  0  0  0  0  0  0  0  0  0  0  0  0  # atno 17342 bound_to 10162
  140.7820  143.4326  151.0671 LP  0  0  0  0  0  0  0  0  0  0  0  0  # atno 17343 bound_to 10162
  156.2682  130.3718  149.8059 LP  0  0  0  0  0  0  0  0  0  0  0  0  # atno 17370 bound_to 10713
  156.5784  130.8455  151.3376 LP  0  0  0  0  0  0  0  0  0  0  0  0  # atno 17371 bound_to 10713
  139.9717  135.0126  156.9530 LP  0  0  0  0  0  0  0  0  0  0  0  0  # atno 17394 bound_to 11000
  140.5287  134.0835  155.7310 LP  0  0  0  0  0  0  0  0  0  0  0  0  # atno 17395 bound_to 11000

$$$$
