AV-unprocessed.smi:1356|AV-procd|sdf|5540|dock9
  -GOLD-   22720 5133D 1   1.00000     0.00000
 Structure written by MMmdl.
 41 42  0  0  0  0  0  0  0  0  1 V2000
  149.3430  131.3879  153.9674 C   0  0  0  0  0  0  0  0  0  0  0  0
  149.5818  132.5353  154.9251 C   0  0  2  0  0  0  0  0  0  0  0  0
  148.4518  133.4443  155.3437 C   0  0  0  0  0  0  0  0  0  0  0  0
  149.5400  133.9691  154.4299 C   0  0  1  0  0  0  0  0  0  0  0  0
  150.5148  134.9397  155.0118 C   0  0  0  0  0  0  0  0  0  0  0  0
  151.2962  134.6477  155.9182 O   0  0  0  0  0  0  0  0  0  0  0  0
  150.4512  136.1643  154.4676 N   0  0  0  0  0  0  0  0  0  0  0  0
  151.2504  137.3186  154.8764 C   0  0  0  0  0  0  0  0  0  0  0  0
  150.6490  138.6713  154.4322 C   0  0  0  0  0  0  0  0  0  0  0  0
  151.2455  139.8742  155.1703 C   0  0  0  0  0  0  0  0  0  0  0  0
  152.4605  139.9462  155.3549 O   0  0  0  0  0  0  0  0  0  0  0  0
  150.3798  140.8201  155.5651 N   0  0  0  0  0  0  0  0  0  0  0  0
  150.7488  142.0794  156.1990 C   0  0  0  0  0  0  0  0  0  0  0  0
  150.2320  142.1483  157.6460 C   0  0  0  0  0  0  0  0  0  0  0  0
  150.7357  143.3778  158.3775 C   0  0  0  0  0  0  0  0  0  0  0  0
  151.8176  144.1269  157.8672 C   0  0  0  0  0  0  0  0  0  0  0  0
  152.2416  145.2644  158.5809 C   0  0  0  0  0  0  0  0  0  0  0  0
  151.5709  145.6079  159.7706 C   0  0  0  0  0  0  0  0  0  0  0  0
  150.5006  144.7954  160.1948 C   0  0  0  0  0  0  0  0  0  0  0  0
  150.0861  143.7027  159.5180 N   0  0  0  0  0  0  0  0  0  0  0  0
  148.6076  131.6614  153.2102 H   0  0  0  0  0  0  0  0  0  0  0  0
  148.9750  130.5176  154.5110 H   0  0  0  0  0  0  0  0  0  0  0  0
  150.2735  131.1185  153.4675 H   0  0  0  0  0  0  0  0  0  0  0  0
  150.3086  132.2989  155.7007 H   0  0  0  0  0  0  0  0  0  0  0  0
  147.4709  133.2857  154.9004 H   0  0  0  0  0  0  0  0  0  0  0  0
  148.4371  133.7788  156.3796 H   0  0  0  0  0  0  0  0  0  0  0  0
  149.2619  134.1268  153.3886 H   0  0  0  0  0  0  0  0  0  0  0  0
  149.7809  136.3174  153.7278 H   0  0  0  0  0  0  0  0  0  0  0  0
  151.3775  137.3065  155.9599 H   0  0  0  0  0  0  0  0  0  0  0  0
  152.2484  137.2014  154.4528 H   0  0  0  0  0  0  0  0  0  0  0  0
  150.7815  138.7981  153.3567 H   0  0  0  0  0  0  0  0  0  0  0  0
  149.5723  138.6644  154.6038 H   0  0  0  0  0  0  0  0  0  0  0  0
  149.3985  140.6747  155.3751 H   0  0  0  0  0  0  0  0  0  0  0  0
  151.8364  142.1563  156.1901 H   0  0  0  0  0  0  0  0  0  0  0  0
  150.3721  142.9203  155.6142 H   0  0  0  0  0  0  0  0  0  0  0  0
  149.1409  142.1557  157.6589 H   0  0  0  0  0  0  0  0  0  0  0  0
  150.5366  141.2549  158.1931 H   0  0  0  0  0  0  0  0  0  0  0  0
  152.3108  143.8389  156.9506 H   0  0  0  0  0  0  0  0  0  0  0  0
  153.0660  145.8628  158.2220 H   0  0  0  0  0  0  0  0  0  0  0  0
  151.8686  146.4735  160.3437 H   0  0  0  0  0  0  0  0  0  0  0  0
  149.9628  145.0295  161.1016 H   0  0  0  0  0  0  0  0  0  0  0  0
  1  2  1  0  0  0  0
  1 21  1  0  0  0  0
  1 22  1  0  0  0  0
  1 23  1  0  0  0  0
  2  4  1  0  0  0  0
  2  3  1  0  0  0  0
  2 24  1  0  0  0  0
  3  4  1  0  0  0  0
  3 25  1  0  0  0  0
  3 26  1  0  0  0  0
  4  5  1  0  0  0  0
  4 27  1  0  0  0  0
  5  6  2  0  0  0  0
  5  7  1  0  0  0  0
  7  8  1  0  0  0  0
  7 28  1  0  0  0  0
  8  9  1  0  0  0  0
  8 29  1  0  0  0  0
  8 30  1  0  0  0  0
  9 10  1  0  0  0  0
  9 31  1  0  0  0  0
  9 32  1  0  0  0  0
 10 11  2  0  0  0  0
 10 12  1  0  0  0  0
 12 13  1  0  0  0  0
 12 33  1  0  0  0  0
 13 14  1  0  0  0  0
 13 34  1  0  0  0  0
 13 35  1  0  0  0  0
 14 15  1  0  0  0  0
 14 36  1  0  0  0  0
 14 37  1  0  0  0  0
 15 20  1  0  0  0  0
 15 16  2  0  0  0  0
 16 17  1  0  0  0  0
 16 38  1  0  0  0  0
 17 18  2  0  0  0  0
 17 39  1  0  0  0  0
 18 19  1  0  0  0  0
 18 40  1  0  0  0  0
 19 20  2  0  0  0  0
 19 41  1  0  0  0  0
M  END
> <s_m_source_file>
AV-unprocessed.smi

> <i_m_source_file_index>
1356

> <i_lp_mmshare_version>
43012

> <i_f3d_flags>
0

> <s_epik_input>
W0NIM11bQ0BASF0xW0NIMl1bQ0BIXTFDKD1PKVtOSF1bQ0gyXVtDSDJdQyg9TylbTkhdW0NIMl1bQ0gyXWMyW2NIXVtjSF1bY0hdW2NIXW4y

> <s_epik_cmdline>
J2VwaWtfcHl0aG9uJywgJy1waCcsICc3LjAnLCAnLXRuJywgJzgnLCAnLW1hJywgJzIwMCcsICctbWV0YWxfYmluZGluZycsICctaW1hZScsICc8aW5maWxlLm1hZT4nLCAnLW9tYWUnLCAnPG91dGZpbGUubWFlPic=

> <r_epik_Ionization_Penalty>
0.0258005

> <r_epik_Ionization_Penalty_Charging>
0

> <r_epik_Ionization_Penalty_Neutral>
0.0258005

> <r_epik_State_Penalty>
0.0210245

> <r_epik_Charging_Adjusted_Penalty>
0.0210245

> <i_epik_Tot_Q>
0

> <i_epik_Tot_abs_Q>
0

> <r_epik_Metal_State_Penalty>
0.0201445

> <b_epik_Metal_Only>
0

> <s_lp_Force_Field>
OPLS_2005

> <r_lp_Energy>
2.94754

> <b_lp_Chiralities_Consistent>
1

> <s_lp_Variant>
AV-unprocessed.smi:1356-1

> <Gold.Version>
5.8.1

> <Gold.Id.Protein>
6NUR|6NUR_protein|mol2

> <Gold.PLP.Fitness>
51.5341

> <Gold.PLP.PLP>
-45.4308

> <Gold.PLP.part.hbond>
-5.5903

> <Gold.PLP.part.metal>
0.0000

> <Gold.PLP.part.buried>
-2.7176

> <Gold.PLP.part.nonpolar>
-36.9060

> <Gold.PLP.part.repulsive>
0.3437

> <Gold.PLP.ligand.clash>
0.0000

> <Gold.PLP.ligand.torsion>
0.6918

> <Gold.PLP.Chemscore.Hbond>
2.4472

> <Gold.PLP.Chemscore.CHOScore>
0.0000

> <Gold.PLP.Chemscore.Metal>
0.0000

> <Gold.Chemscore.Hbonds>
donor molecule, donor type, donor heavy atom, donor atom, acceptor molecule, acceptor atom, score
      L1  H     7    28       P1  7948  1.00
      P1  H  7997  8008       L1    11  0.93
      P1  H 10752 10765       L1     6  0.42

> <Gold.PLP.Chemscore.Internal.Correction>
0.1452

> <Gold.Rescore>
     Score         DG    S(hbond)    S(metal)    S(lipo)     H(rot)  DE(clash)    DE(int)     intcor
     16.80     -17.69       1.67        0.00     104.26       2.18       0.06       0.83       ----

> <Gold.Chemscore.Fitness>
16.8020

> <Gold.Chemscore.DG>
-17.6927

> <Gold.Chemscore.ZeroCoef>
-5.4800

> <Gold.Chemscore.Hbond>
1.6717

> <Gold.Chemscore.Metal>
0.0000

> <Gold.Chemscore.Lipo>
104.2555

> <Gold.Chemscore.Internal_Hbond>
0.0000

> <Gold.Chemscore.DEClash>
0.0562

> <Gold.Chemscore.DEInternal>
0.8346

> <Gold.Chemscore.Rot>
2.1753

> <Gold.Chemscore.Internal.Correction>
   9.000000E+99

> <Gold.Chemscore.Hbonds>
donor molecule, donor type, donor heavy atom, donor atom, acceptor molecule, acceptor atom, score
      L1  H     7    28       P1  7948  0.33
      P1  H  7997  8008       L1    11  0.89
      P1  H 10752 10765       L1     6  0.13

> <Gold.Chemscore.Hbond.Weighted>
-5.5835

> <Gold.Chemscore.Metal.Weighted>
-0.0000

> <Gold.Chemscore.Lipo.Weighted>
-12.1979

> <Gold.Chemscore.Internal_Hbond.Weighted>
0.0000

> <Gold.Chemscore.DEClash.Weighted>
0.0562

> <Gold.Chemscore.DEInternal.Weighted>
0.8346

> <Gold.Chemscore.Rot.Weighted>
5.5687

> <Gold.Chemscore.Internal.Correction.Weighted>
   9.000000E+99

> <Gold.Protein.RotatedTorsions>
[ 6907 6896 6895 6894 ] final   39.51 input  -60.11 | X-H torsion
[ 7974 7965 7964 7962 ] final -162.56 input  175.53 | X-H torsion
[ 8008 7997 7996 7995 ] final  -21.64 input   59.86 | X-H torsion
[ 10167 10162 10161 10158 ] final  -95.06 input  -65.29 | X-H torsion
[ 10718 10713 10712 10709 ] final   56.25 input   66.30 | X-H torsion
[ 10763 10752 10751 10750 ] final -145.11 input  -60.55 | X-H torsion
[ 11005 11000 10999 10996 ] final  -74.23 input  -57.11 | X-H torsion

> <Gold.Protein.ActiveResidues>
 VAL166  LYS551  ARG553  GLY616  TRP617  ASP618  TYR619  PRO620  LYS621  CYS622 
 ASP623  PHE694  ASN695  SER759  ASP760  ASP761  ALA762  ILE779  LEU786  VAL792 
 PHE793  MET794  SER795  GLU796  ALA797  LYS798  CYS799  TRP800  GLU811  SER814 

> <Gold.Protein.RotatedAtoms>
  152.1705  134.8838  160.0534 H   0  0  0  0  0  0  0  0  0  0  0  0  # atno 6907 bound_to 6896
  151.9800  133.3749  159.4112 H   0  0  0  0  0  0  0  0  0  0  0  0  # atno 6908 bound_to 6896
  150.6901  134.3972  159.5146 H   0  0  0  0  0  0  0  0  0  0  0  0  # atno 6909 bound_to 6896
  144.7353  140.3234  143.6166 H   0  0  0  0  0  0  0  0  0  0  0  0  # atno 7974 bound_to 7965
  154.4693  140.2029  156.0036 H   0  0  0  0  0  0  0  0  0  0  0  0  # atno 8008 bound_to 7997
  156.0983  140.3248  155.7878 H   0  0  0  0  0  0  0  0  0  0  0  0  # atno 8009 bound_to 7997
  155.4841  140.0541  157.2954 H   0  0  0  0  0  0  0  0  0  0  0  0  # atno 8010 bound_to 7997
  140.3080  143.3122  152.0178 H   0  0  0  0  0  0  0  0  0  0  0  0  # atno 10167 bound_to 10162
  157.5414  130.8700  149.8828 H   0  0  0  0  0  0  0  0  0  0  0  0  # atno 10718 bound_to 10713
  154.8398  135.3422  154.6453 H   0  0  0  0  0  0  0  0  0  0  0  0  # atno 10763 bound_to 10752
  153.7065  135.6966  153.5053 H   0  0  0  0  0  0  0  0  0  0  0  0  # atno 10764 bound_to 10752
  153.2484  135.4361  155.0725 H   0  0  0  0  0  0  0  0  0  0  0  0  # atno 10765 bound_to 10752
  141.1632  133.6904  156.7333 H   0  0  0  0  0  0  0  0  0  0  0  0  # atno 11005 bound_to 11000
  145.7545  139.1804  143.2302 LP  0  0  0  0  0  0  0  0  0  0  0  0  # atno 17320 bound_to 7965
  146.1035  140.7515  142.9538 LP  0  0  0  0  0  0  0  0  0  0  0  0  # atno 17321 bound_to 7965
  139.4900  144.6406  151.6885 LP  0  0  0  0  0  0  0  0  0  0  0  0  # atno 17342 bound_to 10162
  140.5593  144.0295  150.6162 LP  0  0  0  0  0  0  0  0  0  0  0  0  # atno 17343 bound_to 10162
  156.0500  130.3719  150.1224 LP  0  0  0  0  0  0  0  0  0  0  0  0  # atno 17370 bound_to 10713
  156.9403  130.9742  151.3517 LP  0  0  0  0  0  0  0  0  0  0  0  0  # atno 17371 bound_to 10713
  140.2729  134.8378  157.3863 LP  0  0  0  0  0  0  0  0  0  0  0  0  # atno 17394 bound_to 11000
  140.1505  134.4856  155.7965 LP  0  0  0  0  0  0  0  0  0  0  0  0  # atno 17395 bound_to 11000

$$$$
