AV-unprocessed.smi:1937|AV-procd|sdf|7833|dock4
  -GOLD-   22720 9583D 1   1.00000     0.00000
 Structure written by MMmdl.
 40 41  0  0  0  0  0  0  0  0  1 V2000
  144.4233  136.7249  152.6137 O   0  0  0  0  0  0  0  0  0  0  0  0
  145.6213  136.4960  152.4484 C   0  0  0  0  0  0  0  0  0  0  0  0
  146.5933  137.3240  152.8563 N   0  0  0  0  0  0  0  0  0  0  0  0
  146.3760  138.6005  153.5258 C   0  0  0  0  0  0  0  0  0  0  0  0
  147.0900  139.7510  152.7917 C   0  0  0  0  0  0  0  0  0  0  0  0
  147.7778  140.6387  153.7375 N   0  0  0  0  0  0  0  0  0  0  0  0
  147.2500  142.0090  153.8490 C   0  0  0  0  0  0  0  0  0  0  0  0
  146.5478  142.2997  155.1962 C   0  0  0  0  0  0  0  0  0  0  0  0
  147.0625  141.5154  156.4191 C   0  0  0  0  0  0  0  0  0  0  0  0
  148.5863  141.5918  156.6491 C   0  0  0  0  0  0  0  0  0  0  0  0
  149.4857  141.1967  155.4537 C   0  0  0  0  0  0  0  0  0  0  0  0
  148.8360  140.2106  154.4692 C   0  0  0  0  0  0  0  0  0  0  0  0
  149.2950  139.0712  154.3827 O   0  0  0  0  0  0  0  0  0  0  0  0
  146.1326  135.4008  151.8603 N   0  0  0  0  0  0  0  0  0  0  0  0
  145.4468  134.2995  151.2796 C   0  0  0  0  0  0  0  0  0  0  0  0
  146.0571  133.3137  150.4662 C   0  0  0  0  0  0  0  0  0  0  0  0
  145.2662  132.2626  149.9633 C   0  0  0  0  0  0  0  0  0  0  0  0
  143.8983  132.2303  150.2969 C   0  0  0  0  0  0  0  0  0  0  0  0
  143.3064  133.1546  151.0821 N   0  0  0  0  0  0  0  0  0  0  0  0
  144.0708  134.1595  151.5604 C   0  0  0  0  0  0  0  0  0  0  0  0
  147.5519  137.0560  152.6873 H   0  0  0  0  0  0  0  0  0  0  0  0
  145.3064  138.8028  153.6057 H   0  0  0  0  0  0  0  0  0  0  0  0
  146.7500  138.5122  154.5461 H   0  0  0  0  0  0  0  0  0  0  0  0
  147.8034  139.3469  152.0712 H   0  0  0  0  0  0  0  0  0  0  0  0
  146.3734  140.3129  152.1921 H   0  0  0  0  0  0  0  0  0  0  0  0
  148.0643  142.7178  153.6975 H   0  0  0  0  0  0  0  0  0  0  0  0
  146.5528  142.2335  153.0414 H   0  0  0  0  0  0  0  0  0  0  0  0
  146.6037  143.3699  155.3978 H   0  0  0  0  0  0  0  0  0  0  0  0
  145.4855  142.0784  155.0866 H   0  0  0  0  0  0  0  0  0  0  0  0
  146.5535  141.8830  157.3107 H   0  0  0  0  0  0  0  0  0  0  0  0
  146.7590  140.4709  156.3327 H   0  0  0  0  0  0  0  0  0  0  0  0
  148.8471  142.6046  156.9581 H   0  0  0  0  0  0  0  0  0  0  0  0
  148.8342  140.9553  157.4991 H   0  0  0  0  0  0  0  0  0  0  0  0
  149.7971  142.0872  154.9081 H   0  0  0  0  0  0  0  0  0  0  0  0
  150.4132  140.7649  155.8321 H   0  0  0  0  0  0  0  0  0  0  0  0
  147.1393  135.3249  151.8678 H   0  0  0  0  0  0  0  0  0  0  0  0
  147.1091  133.3317  150.2288 H   0  0  0  0  0  0  0  0  0  0  0  0
  145.7003  131.4960  149.3386 H   0  0  0  0  0  0  0  0  0  0  0  0
  143.2641  131.4377  149.9278 H   0  0  0  0  0  0  0  0  0  0  0  0
  143.5637  134.8789  152.1867 H   0  0  0  0  0  0  0  0  0  0  0  0
  1  2  2  0  0  0  0
  2  3  1  0  0  0  0
  2 14  1  0  0  0  0
  3  4  1  0  0  0  0
  3 21  1  0  0  0  0
  4  5  1  0  0  0  0
  4 22  1  0  0  0  0
  4 23  1  0  0  0  0
  5  6  1  0  0  0  0
  5 24  1  0  0  0  0
  5 25  1  0  0  0  0
  6 12  1  0  0  0  0
  6  7  1  0  0  0  0
  7  8  1  0  0  0  0
  7 26  1  0  0  0  0
  7 27  1  0  0  0  0
  8  9  1  0  0  0  0
  8 28  1  0  0  0  0
  8 29  1  0  0  0  0
  9 10  1  0  0  0  0
  9 30  1  0  0  0  0
  9 31  1  0  0  0  0
 10 11  1  0  0  0  0
 10 32  1  0  0  0  0
 10 33  1  0  0  0  0
 11 12  1  0  0  0  0
 11 34  1  0  0  0  0
 11 35  1  0  0  0  0
 12 13  2  0  0  0  0
 14 15  1  0  0  0  0
 14 36  1  0  0  0  0
 15 20  1  0  0  0  0
 15 16  2  0  0  0  0
 16 17  1  0  0  0  0
 16 37  1  0  0  0  0
 17 18  2  0  0  0  0
 17 38  1  0  0  0  0
 18 19  1  0  0  0  0
 18 39  1  0  0  0  0
 19 20  2  0  0  0  0
 20 40  1  0  0  0  0
M  END
> <s_m_source_file>
AV-unprocessed.smi

> <i_m_source_file_index>
1937

> <i_lp_mmshare_version>
43012

> <i_f3d_flags>
0

> <s_epik_input>
W2NIXTFuW2NIXVtjSF1bY0hdYzFbTkhdQyg9TylbTkhdW0NIMl1bQ0gyXU4yW0NIMl1bQ0gyXVtDSDJdW0NIMl1bQ0gyXUMyPU8=

> <s_epik_cmdline>
J2VwaWtfcHl0aG9uJywgJy1waCcsICc3LjAnLCAnLXRuJywgJzgnLCAnLW1hJywgJzIwMCcsICctbWV0YWxfYmluZGluZycsICctaW1hZScsICc8aW5maWxlLm1hZT4nLCAnLW9tYWUnLCAnPG91dGZpbGUubWFlPic=

> <r_epik_Ionization_Penalty>
0.00465308

> <r_epik_Ionization_Penalty_Charging>
0

> <r_epik_Ionization_Penalty_Neutral>
0.00465308

> <r_epik_State_Penalty>
0.00334133

> <r_epik_Charging_Adjusted_Penalty>
0.00334133

> <i_epik_Tot_Q>
0

> <i_epik_Tot_abs_Q>
0

> <r_epik_Metal_State_Penalty>
-0

> <b_epik_Metal_Only>
0

> <s_lp_Force_Field>
OPLS_2005

> <r_lp_Energy>
23.2929

> <b_lp_Chiralities_Consistent>
1

> <s_lp_Variant>
AV-unprocessed.smi:1937-1

> <Gold.Version>
5.8.1

> <Gold.Id.Protein>
6NUR|6NUR_protein|mol2

> <Gold.PLP.Fitness>
42.2757

> <Gold.PLP.PLP>
-34.7236

> <Gold.PLP.part.hbond>
-2.0000

> <Gold.PLP.part.metal>
0.0000

> <Gold.PLP.part.buried>
-3.9518

> <Gold.PLP.part.nonpolar>
-29.4550

> <Gold.PLP.part.repulsive>
0.6467

> <Gold.PLP.ligand.clash>
0.0000

> <Gold.PLP.ligand.torsion>
0.4090

> <Gold.PLP.Chemscore.Hbond>
2.0000

> <Gold.PLP.Chemscore.CHOScore>
0.7830

> <Gold.PLP.Chemscore.Metal>
0.0000

> <Gold.Chemscore.Hbonds>
donor molecule, donor type, donor heavy atom, donor atom, acceptor molecule, acceptor atom, score
      L1  H     3    21       P1  7948  1.00
      L1  H    14    36       P1  7948  0.99
      L1  C    18    39       P1 10952  0.57

> <Gold.PLP.Chemscore.Internal.Correction>
0.0210

> <Gold.Rescore>
     Score         DG    S(hbond)    S(metal)    S(lipo)     H(rot)  DE(clash)    DE(int)     intcor
     15.14     -17.00       1.94        0.00      76.44       1.52       0.03       1.84       ----

> <Gold.Chemscore.Fitness>
15.1372

> <Gold.Chemscore.DG>
-17.0048

> <Gold.Chemscore.ZeroCoef>
-5.4800

> <Gold.Chemscore.Hbond>
1.9376

> <Gold.Chemscore.Metal>
0.0000

> <Gold.Chemscore.Lipo>
76.4374

> <Gold.Chemscore.Internal_Hbond>
0.0000

> <Gold.Chemscore.DEClash>
0.0257

> <Gold.Chemscore.DEInternal>
1.8419

> <Gold.Chemscore.Rot>
1.5195

> <Gold.Chemscore.Internal.Correction>
   9.000000E+99

> <Gold.Chemscore.Hbonds>
donor molecule, donor type, donor heavy atom, donor atom, acceptor molecule, acceptor atom, score
      L1  H     3    21       P1  7948  0.99
      L1  H    14    36       P1  7948  0.91

> <Gold.Chemscore.Hbond.Weighted>
-6.4716

> <Gold.Chemscore.Metal.Weighted>
-0.0000

> <Gold.Chemscore.Lipo.Weighted>
-8.9432

> <Gold.Chemscore.Internal_Hbond.Weighted>
0.0000

> <Gold.Chemscore.DEClash.Weighted>
0.0257

> <Gold.Chemscore.DEInternal.Weighted>
1.8419

> <Gold.Chemscore.Rot.Weighted>
3.8900

> <Gold.Chemscore.Internal.Correction.Weighted>
   9.000000E+99

> <Gold.Protein.RotatedTorsions>
[ 6907 6896 6895 6894 ] final -173.77 input  -60.11 | X-H torsion
[ 7974 7965 7964 7962 ] final  103.31 input  175.53 | X-H torsion
[ 8008 7997 7996 7995 ] final  -52.84 input   59.86 | X-H torsion
[ 10167 10162 10161 10158 ] final -140.45 input  -65.29 | X-H torsion
[ 10718 10713 10712 10709 ] final   24.02 input   66.30 | X-H torsion
[ 10763 10752 10751 10750 ] final -150.90 input  -60.55 | X-H torsion
[ 11005 11000 10999 10996 ] final -133.40 input  -57.11 | X-H torsion

> <Gold.Protein.ActiveResidues>
 VAL166  LYS551  ARG553  GLY616  TRP617  ASP618  TYR619  PRO620  LYS621  CYS622 
 ASP623  PHE694  ASN695  SER759  ASP760  ASP761  ALA762  ILE779  LEU786  VAL792 
 PHE793  MET794  SER795  GLU796  ALA797  LYS798  CYS799  TRP800  GLU811  SER814 

> <Gold.Protein.RotatedAtoms>
  151.5615  133.3402  159.2971 H   0  0  0  0  0  0  0  0  0  0  0  0  # atno 6907 bound_to 6896
  150.8420  134.7718  159.6951 H   0  0  0  0  0  0  0  0  0  0  0  0  # atno 6908 bound_to 6896
  152.4485  134.5450  159.9902 H   0  0  0  0  0  0  0  0  0  0  0  0  # atno 6909 bound_to 6896
  145.3476  139.2447  143.3575 H   0  0  0  0  0  0  0  0  0  0  0  0  # atno 7974 bound_to 7965
  154.4117  140.1214  156.5057 H   0  0  0  0  0  0  0  0  0  0  0  0  # atno 8008 bound_to 7997
  155.6850  140.3496  155.4851 H   0  0  0  0  0  0  0  0  0  0  0  0  # atno 8009 bound_to 7997
  155.9519  140.1106  157.0960 H   0  0  0  0  0  0  0  0  0  0  0  0  # atno 8010 bound_to 7997
  139.8280  143.7485  152.2666 H   0  0  0  0  0  0  0  0  0  0  0  0  # atno 10167 bound_to 10162
  157.1741  130.6773  149.6088 H   0  0  0  0  0  0  0  0  0  0  0  0  # atno 10718 bound_to 10713
  154.8091  135.3273  154.7353 H   0  0  0  0  0  0  0  0  0  0  0  0  # atno 10763 bound_to 10752
  153.8006  135.6904  153.4861 H   0  0  0  0  0  0  0  0  0  0  0  0  # atno 10764 bound_to 10752
  153.1857  135.4570  155.0030 H   0  0  0  0  0  0  0  0  0  0  0  0  # atno 10765 bound_to 10752
  140.9084  134.1600  157.4408 H   0  0  0  0  0  0  0  0  0  0  0  0  # atno 11005 bound_to 11000
  146.2981  140.4086  142.8714 LP  0  0  0  0  0  0  0  0  0  0  0  0  # atno 17320 bound_to 7965
  144.8742  140.7313  143.6027 LP  0  0  0  0  0  0  0  0  0  0  0  0  # atno 17321 bound_to 7965
  139.7683  144.7485  151.0261 LP  0  0  0  0  0  0  0  0  0  0  0  0  # atno 17342 bound_to 10162
  140.7809  143.4673  151.0195 LP  0  0  0  0  0  0  0  0  0  0  0  0  # atno 17343 bound_to 10162
  155.9734  130.4669  150.6306 LP  0  0  0  0  0  0  0  0  0  0  0  0  # atno 17370 bound_to 10713
  157.4015  131.0810  151.1304 LP  0  0  0  0  0  0  0  0  0  0  0  0  # atno 17371 bound_to 10713
  139.8753  134.9926  156.5603 LP  0  0  0  0  0  0  0  0  0  0  0  0  # atno 17394 bound_to 11000
  140.8142  133.8405  155.8837 LP  0  0  0  0  0  0  0  0  0  0  0  0  # atno 17395 bound_to 11000

$$$$
