#       Name:                AV-unprocessed.smi:2642
#       Creating user name   scv26
#       Creation time:       Fri Mar 27 14:28:44 2020


#       File generated by GOLD software.
#

@<TRIPOS>MOLECULE
AV-unprocessed.smi:2642
    39    40     1
SMALL
NO_CHARGES


@<TRIPOS>ATOM
      1 ****        -0.3855   1.2636   0.4877 O.2            1 S1                 0.0000
      2 ****        -0.8774   0.1372   0.5519 C.2            1 S1                 0.0000
      3 ****        -0.1494  -0.9874   0.5912 N.am           1 S1                 0.0000
      4 ****         1.3066  -1.0456   0.5588 C.3            1 S1                 0.0000
      5 ****         1.8398  -0.9444  -0.8815 C.3            1 S1                 0.0000
      6 ****         3.2945  -1.1184  -0.9249 N.am           1 S1                 0.0000
      7 ****         4.1750  -0.1150  -0.8628 C.2            1 S1                 0.0000
      8 ****         3.9437   1.0906  -0.7686 O.2            1 S1                 0.0000
      9 ****         5.5585  -0.7199  -0.9223 C.3            1 S1                 0.0000
     10 ****         5.2744  -2.1345  -1.0100 N.pl3          1 S1                -1.0000
     11 ****         3.9313  -2.3028  -1.0020 C.2            1 S1                 0.0000
     12 ****         3.3240  -3.3722  -1.0511 O.2            1 S1                 0.0000
     13 ****        -2.1931  -0.1374   0.5707 N.am           1 S1                 0.0000
     14 ****        -3.2888   0.7678   0.5552 C.ar           1 S1                 0.0000
     15 ****        -3.2082   2.1263   0.9470 C.ar           1 S1                 0.0000
     16 ****        -4.3736   2.9159   0.9044 C.ar           1 S1                 0.0000
     17 ****        -5.5759   2.3191   0.4783 C.ar           1 S1                 0.0000
     18 ****        -5.6700   1.0227   0.1149 N.ar           1 S1                 0.0000
     19 ****        -4.5491   0.2715   0.1600 C.ar           1 S1                 0.0000
     20 ****        -0.6368  -1.8702   0.6358 H              1 S1                 0.0000
     21 ****         1.7328  -0.2592   1.1843 H              1 S1                 0.0000
     22 ****         1.6103  -1.9936   1.0037 H              1 S1                 0.0000
     23 ****         1.3616  -1.6967  -1.5111 H              1 S1                 0.0000
     24 ****         1.5658   0.0185  -1.3162 H              1 S1                 0.0000
     25 ****         6.0954  -0.3338  -1.7894 H              1 S1                 0.0000
     26 ****         6.1211  -0.4487  -0.0286 H              1 S1                 0.0000
     27 ****        -2.4406  -1.1157   0.5397 H              1 S1                 0.0000
     28 ****        -2.2883   2.5731   1.2905 H              1 S1                 0.0000
     29 ****        -4.3467   3.9554   1.1961 H              1 S1                 0.0000
     30 ****        -6.4873   2.8969   0.4339 H              1 S1                 0.0000
     31 ****        -4.6626  -0.7617  -0.1347 H              1 S1                 0.0000
     32 ****         0.6079   1.3746   0.4621 LP             1 S1                 0.0000
     33 ****        -0.9794   2.0677   0.4611 LP             1 S1                 0.0000
     34 ****         2.9992   1.4169  -0.7297 LP             1 S1                 0.0000
     35 ****         4.7002   1.7434  -0.7310 LP             1 S1                 0.0000
     36 ****         5.9548  -2.8651  -1.0670 LP             1 S1                 0.0000
     37 ****         2.3241  -3.3807  -1.0343 LP             1 S1                 0.0000
     38 ****         3.8304  -4.2327  -1.1079 LP             1 S1                 0.0000
     39 ****        -6.5422   0.6310  -0.1784 LP             1 S1                 0.0000
@<TRIPOS>BOND
    1    1    2 2     
    2    2    3 am    
    3    2   13 am    
    4    3    4 1     
    5    3   20 1     
    6    4    5 1     
    7    4   21 1     
    8    4   22 1     
    9    5    6 1     
   10    5   23 1     
   11    5   24 1     
   12    6   11 am    
   13    6    7 am    
   14    7    8 2     
   15    7    9 1     
   16    9   10 1     
   17    9   25 1     
   18    9   26 1     
   19   10   11 1     
   20   11   12 2     
   21   13   14 1     
   22   13   27 1     
   23   14   19 ar    
   24   14   15 ar    
   25   15   16 ar    
   26   15   28 1     
   27   16   17 ar    
   28   16   29 1     
   29   17   18 ar    
   30   17   30 1     
   31   18   19 ar    
   32   19   31 1     
   33    1   32 1     
   34    1   33 1     
   35    8   34 1     
   36    8   35 1     
   37   10   36 1     
   38   12   37 1     
   39   12   38 1     
   40   18   39 1     
@<TRIPOS>SUBSTRUCTURE
      1 S1             1
@<TRIPOS>SET
LONE_PAIRS      STATIC     ATOMS    <user>   **** ""
8 32 33 34 35 36 37 38 39
DONOR_HYDROGENS      STATIC     ATOMS    <user>   **** ""
2 20 27
ATOM$BLUE        STATIC     ATOMS    COLORGROUP SYSTEM
8 32 33 34 35 36 37 38 39
ATOM$RED        STATIC     ATOMS    COLORGROUP SYSTEM
2 20 27
