AV-unprocessed.smi:2023|AV-procd|sdf|8190|dock2
  -GOLD-   2272010443D 1   1.00000     0.00000
 Structure written by MMmdl.
 34 35  0  0  0  0  0  0  0  0  2 V2000
  154.2350  136.1095  157.5006 O   0  0  0  0  0  0  0  0  0  0  0  0
  153.2691  137.0055  158.1571 S   0  0  0  0  0  0  0  0  0  0  0  0
  152.6051  136.5222  159.3790 O   0  0  0  0  0  0  0  0  0  0  0  0
  153.7796  138.5374  158.2844 N   0  5  0  0  0  0  0  0  0  0  0  0
  153.1532  139.4160  159.2560 C   0  0  0  0  0  0  0  0  0  0  0  0
  154.1267  140.5444  159.6602 C   0  0  0  0  0  0  0  0  0  0  0  0
  153.4734  141.7294  160.3645 C   0  0  0  0  0  0  0  0  0  0  0  0
  153.8187  142.0678  161.6910 C   0  0  0  0  0  0  0  0  0  0  0  0
  153.1970  143.1773  162.2951 C   0  0  0  0  0  0  0  0  0  0  0  0
  152.2545  143.9079  161.5449 C   0  0  0  0  0  0  0  0  0  0  0  0
  151.9194  143.6016  160.2735 N   0  0  0  0  0  0  0  0  0  0  0  0
  152.5189  142.5345  159.7021 C   0  0  0  0  0  0  0  0  0  0  0  0
  152.0112  137.2854  156.9921 N   0  0  0  0  0  0  0  0  0  0  0  0
  151.0447  136.1941  156.7825 C   0  0  0  0  0  0  0  0  0  0  0  0
  149.8559  136.6608  155.9269 C   0  0  0  0  0  0  0  0  0  0  0  0
  150.3174  137.2192  154.7069 O   0  0  0  0  0  0  0  0  0  0  0  0
  151.1190  138.3670  154.9384 C   0  0  0  0  0  0  0  0  0  0  0  0
  152.3719  137.9841  155.7413 C   0  0  0  0  0  0  0  0  0  0  0  0
  152.2314  139.8559  158.8740 H   0  0  0  0  0  0  0  0  0  0  0  0
  152.8703  138.8674  160.1547 H   0  0  0  0  0  0  0  0  0  0  0  0
  154.8882  140.1337  160.3240 H   0  0  0  0  0  0  0  0  0  0  0  0
  154.6641  140.9049  158.7818 H   0  0  0  0  0  0  0  0  0  0  0  0
  154.5466  141.4862  162.2371 H   0  0  0  0  0  0  0  0  0  0  0  0
  153.4368  143.4610  163.3090 H   0  0  0  0  0  0  0  0  0  0  0  0
  151.7591  144.7645  161.9773 H   0  0  0  0  0  0  0  0  0  0  0  0
  152.2275  142.3157  158.6852 H   0  0  0  0  0  0  0  0  0  0  0  0
  151.5551  135.3613  156.2972 H   0  0  0  0  0  0  0  0  0  0  0  0
  150.6796  135.8310  157.7428 H   0  0  0  0  0  0  0  0  0  0  0  0
  149.2033  135.8168  155.7038 H   0  0  0  0  0  0  0  0  0  0  0  0
  149.2531  137.3913  156.4689 H   0  0  0  0  0  0  0  0  0  0  0  0
  151.4086  138.7946  153.9784 H   0  0  0  0  0  0  0  0  0  0  0  0
  150.5417  139.1303  155.4627 H   0  0  0  0  0  0  0  0  0  0  0  0
  152.9490  138.8825  155.9563 H   0  0  0  0  0  0  0  0  0  0  0  0
  153.0117  137.3314  155.1465 H   0  0  0  0  0  0  0  0  0  0  0  0
  1  2  2  0  0  0  0
  2  3  2  0  0  0  0
  2  4  1  0  0  0  0
  2 13  1  0  0  0  0
  4  5  1  0  0  0  0
  5  6  1  0  0  0  0
  5 19  1  0  0  0  0
  5 20  1  0  0  0  0
  6  7  1  0  0  0  0
  6 21  1  0  0  0  0
  6 22  1  0  0  0  0
  7 12  1  0  0  0  0
  7  8  2  0  0  0  0
  8  9  1  0  0  0  0
  8 23  1  0  0  0  0
  9 10  2  0  0  0  0
  9 24  1  0  0  0  0
 10 11  1  0  0  0  0
 10 25  1  0  0  0  0
 11 12  2  0  0  0  0
 12 26  1  0  0  0  0
 13 18  1  0  0  0  0
 13 14  1  0  0  0  0
 14 15  1  0  0  0  0
 14 27  1  0  0  0  0
 14 28  1  0  0  0  0
 15 16  1  0  0  0  0
 15 29  1  0  0  0  0
 15 30  1  0  0  0  0
 16 17  1  0  0  0  0
 17 18  1  0  0  0  0
 17 31  1  0  0  0  0
 17 32  1  0  0  0  0
 18 33  1  0  0  0  0
 18 34  1  0  0  0  0
M  CHG  1   4  -1
M  END
> <s_m_source_file>
AV-unprocessed.smi

> <i_m_source_file_index>
2023

> <i_lp_mmshare_version>
43012

> <i_f3d_flags>
0

> <s_epik_input>
W0NIMl0xW0NIMl1PW0NIMl1bQ0gyXU4xUyg9TykoPU8pW05IXVtDSDJdW0NIMl1jMltjSF1bY0hdW2NIXW5bY0hdMg==

> <s_epik_cmdline>
J2VwaWtfcHl0aG9uJywgJy1waCcsICc3LjAnLCAnLXRuJywgJzgnLCAnLW1hJywgJzIwMCcsICctbWV0YWxfYmluZGluZycsICctaW1hZScsICc8aW5maWxlLm1hZT4nLCAnLW9tYWUnLCAnPG91dGZpbGUubWFlPic=

> <r_epik_Ionization_Penalty>
1.23471

> <r_epik_Ionization_Penalty_Charging>
1.20871

> <r_epik_Ionization_Penalty_Neutral>
0.025996

> <r_epik_State_Penalty>
1.46261

> <r_epik_Charging_Adjusted_Penalty>
2.67132

> <i_epik_Tot_Q>
-1

> <i_epik_Tot_abs_Q>
1

> <r_epik_Metal_State_Penalty>
0.521406

> <b_epik_Metal_Only>
0

> <s_lp_Force_Field>
OPLS_2005

> <r_lp_Energy>
4.19534

> <b_lp_Chiralities_Consistent>
1

> <s_lp_Variant>
AV-unprocessed.smi:2023-2

> <Gold.Version>
5.8.1

> <Gold.Id.Protein>
6NUR|6NUR_protein|mol2

> <Gold.PLP.Fitness>
47.8521

> <Gold.PLP.PLP>
-36.8974

> <Gold.PLP.part.hbond>
-3.0000

> <Gold.PLP.part.metal>
0.0000

> <Gold.PLP.part.buried>
-5.0670

> <Gold.PLP.part.nonpolar>
-29.0852

> <Gold.PLP.part.repulsive>
0.3159

> <Gold.PLP.ligand.clash>
0.0000

> <Gold.PLP.ligand.torsion>
1.0180

> <Gold.PLP.Chemscore.Hbond>
3.8160

> <Gold.PLP.Chemscore.CHOScore>
0.0000

> <Gold.PLP.Chemscore.Metal>
0.0000

> <Gold.Chemscore.Hbonds>
donor molecule, donor type, donor heavy atom, donor atom, acceptor molecule, acceptor atom, score
      P1  H  6896  6909       L1     3  1.00
      P1  H  7997  8009       L1     4  1.52
      P1  H 10752 10763       L1     1  0.44

> <Gold.PLP.Chemscore.Internal.Correction>
1.5428

> <Gold.Rescore>
     Score         DG    S(hbond)    S(metal)    S(lipo)     H(rot)  DE(clash)    DE(int)     intcor
     19.40     -20.42       2.34        0.00      95.08       1.56       0.01       1.00       ----

> <Gold.Chemscore.Fitness>
19.4023

> <Gold.Chemscore.DG>
-20.4173

> <Gold.Chemscore.ZeroCoef>
-5.4800

> <Gold.Chemscore.Hbond>
2.3395

> <Gold.Chemscore.Metal>
0.0000

> <Gold.Chemscore.Lipo>
95.0831

> <Gold.Chemscore.Internal_Hbond>
0.0000

> <Gold.Chemscore.DEClash>
0.0126

> <Gold.Chemscore.DEInternal>
1.0024

> <Gold.Chemscore.Rot>
1.5630

> <Gold.Chemscore.Internal.Correction>
   9.000000E+99

> <Gold.Chemscore.Hbonds>
donor molecule, donor type, donor heavy atom, donor atom, acceptor molecule, acceptor atom, score
      P1  H  6896  6909       L1     3  0.95
      P1  H  7997  8009       L1     4  0.15
      P1  H 10752 10763       L1     1  0.43

> <Gold.Chemscore.Hbond.Weighted>
-7.8139

> <Gold.Chemscore.Metal.Weighted>
-0.0000

> <Gold.Chemscore.Lipo.Weighted>
-11.1247

> <Gold.Chemscore.Internal_Hbond.Weighted>
0.0000

> <Gold.Chemscore.DEClash.Weighted>
0.0126

> <Gold.Chemscore.DEInternal.Weighted>
1.0024

> <Gold.Chemscore.Rot.Weighted>
4.0013

> <Gold.Chemscore.Internal.Correction.Weighted>
   9.000000E+99

> <Gold.Protein.RotatedTorsions>
[ 6907 6896 6895 6894 ] final  135.49 input  -60.11 | X-H torsion
[ 7974 7965 7964 7962 ] final   73.28 input  175.53 | X-H torsion
[ 8008 7997 7996 7995 ] final  148.66 input   59.86 | X-H torsion
[ 10167 10162 10161 10158 ] final  150.35 input  -65.29 | X-H torsion
[ 10718 10713 10712 10709 ] final  133.08 input   66.30 | X-H torsion
[ 10763 10752 10751 10750 ] final  145.98 input  -60.55 | X-H torsion
[ 11005 11000 10999 10996 ] final -110.27 input  -57.11 | X-H torsion

> <Gold.Protein.ActiveResidues>
 VAL166  LYS551  ARG553  GLY616  TRP617  ASP618  TYR619  PRO620  LYS621  CYS622 
 ASP623  PHE694  ASN695  SER759  ASP760  ASP761  ALA762  ILE779  LEU786  VAL792 
 PHE793  MET794  SER795  GLU796  ALA797  LYS798  CYS799  TRP800  GLU811  SER814 

> <Gold.Protein.RotatedAtoms>
  152.2998  133.5644  159.5610 H   0  0  0  0  0  0  0  0  0  0  0  0  # atno 6907 bound_to 6896
  150.7272  134.0308  159.3741 H   0  0  0  0  0  0  0  0  0  0  0  0  # atno 6908 bound_to 6896
  151.8209  135.0652  160.0476 H   0  0  0  0  0  0  0  0  0  0  0  0  # atno 6909 bound_to 6896
  145.7428  139.2728  143.1476 H   0  0  0  0  0  0  0  0  0  0  0  0  # atno 7974 bound_to 7965
  156.2783  140.2122  156.5734 H   0  0  0  0  0  0  0  0  0  0  0  0  # atno 8008 bound_to 7997
  154.7117  140.0511  157.0579 H   0  0  0  0  0  0  0  0  0  0  0  0  # atno 8009 bound_to 7997
  155.0597  140.3165  155.4668 H   0  0  0  0  0  0  0  0  0  0  0  0  # atno 8010 bound_to 7997
  139.4851  144.5529  151.7369 H   0  0  0  0  0  0  0  0  0  0  0  0  # atno 10167 bound_to 10162
  157.4808  131.1085  150.9684 H   0  0  0  0  0  0  0  0  0  0  0  0  # atno 10718 bound_to 10713
  154.0143  135.2911  155.3388 H   0  0  0  0  0  0  0  0  0  0  0  0  # atno 10763 bound_to 10752
  154.7084  135.5159  153.8633 H   0  0  0  0  0  0  0  0  0  0  0  0  # atno 10764 bound_to 10752
  153.0709  135.6647  154.0371 H   0  0  0  0  0  0  0  0  0  0  0  0  # atno 10765 bound_to 10752
  141.0801  133.9235  157.2307 H   0  0  0  0  0  0  0  0  0  0  0  0  # atno 11005 bound_to 11000
  146.0431  140.8145  142.9819 LP  0  0  0  0  0  0  0  0  0  0  0  0  # atno 17320 bound_to 7965
  144.6866  140.2940  143.7273 LP  0  0  0  0  0  0  0  0  0  0  0  0  # atno 17321 bound_to 7965
  140.5086  144.1060  150.5989 LP  0  0  0  0  0  0  0  0  0  0  0  0  # atno 17342 bound_to 10162
  140.3978  143.2719  151.9984 LP  0  0  0  0  0  0  0  0  0  0  0  0  # atno 17343 bound_to 10162
  157.0418  130.5752  149.5357 LP  0  0  0  0  0  0  0  0  0  0  0  0  # atno 17370 bound_to 10713
  156.0120  130.5213  150.8019 LP  0  0  0  0  0  0  0  0  0  0  0  0  # atno 17371 bound_to 10713
  139.9614  135.0153  156.9271 LP  0  0  0  0  0  0  0  0  0  0  0  0  # atno 17394 bound_to 11000
  140.5488  134.0648  155.7363 LP  0  0  0  0  0  0  0  0  0  0  0  0  # atno 17395 bound_to 11000

$$$$
