#       Name:                AV-unprocessed.smi:2424
#       Creating user name   scv26
#       Creation time:       Fri Mar 27 13:20:24 2020


#       File generated by GOLD software.
#

@<TRIPOS>MOLECULE
AV-unprocessed.smi:2424
    56    57     1
SMALL
NO_CHARGES


@<TRIPOS>ATOM
      1 ****        -2.9087   1.1188  -1.3166 C.3            1 S1                 0.0000
      2 ****        -2.1056  -0.1429  -1.6774 C.3            1 S1                 0.0000
      3 ****        -1.6075  -1.0187  -0.5017 C.3            1 S1                 0.0000
      4 ****        -0.5424  -1.9929  -1.0829 C.3            1 S1                 0.0000
      5 ****        -0.9912  -2.8746  -2.2640 C.3            1 S1                 0.0000
      6 ****        -1.1960  -0.2766   0.8069 C.3            1 S1                 0.0000
      7 ****         0.2420  -0.1407   1.0144 N.am           1 S1                 0.0000
      8 ****         0.9918   0.8447   0.5036 C.2            1 S1                 0.0000
      9 ****         0.5311   1.7485  -0.1931 O.2            1 S1                 0.0000
     10 ****         2.2812   0.6936   0.8537 N.am           1 S1                 0.0000
     11 ****         3.3792   1.4983   0.5236 C.2            1 S1                 0.0000
     12 ****         4.6403   1.1756   0.9821 C.2            1 S1                 0.0000
     13 ****         5.8085   1.8208   0.7746 N.pl3          1 S1                -1.0000
     14 ****         5.7910   2.9527   0.0138 C.2            1 S1                 0.0000
     15 ****         6.8156   3.5937  -0.2168 O.2            1 S1                 0.0000
     16 ****         4.5046   3.4152  -0.5453 C.2            1 S1                 0.0000
     17 ****         4.4891   4.6751  -1.3944 C.3            1 S1                 0.0000
     18 ****         3.3720   2.7123  -0.2927 C.2            1 S1                 0.0000
     19 ****        -1.8031  -1.4152   1.6329 C.3            1 S1                 0.0000
     20 ****        -2.4228  -1.0852   2.9849 C.3            1 S1                 0.0000
     21 ****        -2.7032  -1.6454   0.4080 C.3            1 S1                 0.0000
     22 ****        -2.9704  -3.0094   0.1220 O.3            1 S1                 0.0000
     23 ****        -3.9858  -3.5694   0.9357 C.3            1 S1                 0.0000
     24 ****        -3.2815   1.5992  -2.2213 H              1 S1                 0.0000
     25 ****        -2.2935   1.8558  -0.8007 H              1 S1                 0.0000
     26 ****        -3.7727   0.8944  -0.6925 H              1 S1                 0.0000
     27 ****        -2.7372  -0.7443  -2.3315 H              1 S1                 0.0000
     28 ****        -1.2606   0.1736  -2.2905 H              1 S1                 0.0000
     29 ****         0.3330  -1.4302  -1.4087 H              1 S1                 0.0000
     30 ****        -0.1729  -2.6577  -0.3024 H              1 S1                 0.0000
     31 ****        -0.1974  -3.5703  -2.5364 H              1 S1                 0.0000
     32 ****        -1.2108  -2.2837  -3.1528 H              1 S1                 0.0000
     33 ****        -1.8730  -3.4685  -2.0304 H              1 S1                 0.0000
     34 ****        -1.7445   0.6481   0.9916 H              1 S1                 0.0000
     35 ****         0.6954  -0.8462   1.5762 H              1 S1                 0.0000
     36 ****         2.5006  -0.1055   1.4303 H              1 S1                 0.0000
     37 ****         4.7227   0.2629   1.6109 H              1 S1                 0.0000
     38 ****         3.4836   4.9045  -1.7486 H              1 S1                 0.0000
     39 ****         5.1338   4.5553  -2.2657 H              1 S1                 0.0000
     40 ****         4.8456   5.5282  -0.8163 H              1 S1                 0.0000
     41 ****         2.4526   3.0804  -0.7180 H              1 S1                 0.0000
     42 ****        -1.0912  -2.2372   1.7280 H              1 S1                 0.0000
     43 ****        -3.2049  -0.3314   2.8919 H              1 S1                 0.0000
     44 ****        -1.6729  -0.6971   3.6742 H              1 S1                 0.0000
     45 ****        -2.8662  -1.9661   3.4477 H              1 S1                 0.0000
     46 ****        -3.6129  -1.0433   0.4418 H              1 S1                 0.0000
     47 ****        -4.1777  -4.5954   0.6218 H              1 S1                 0.0000
     48 ****        -4.9185  -3.0111   0.8462 H              1 S1                 0.0000
     49 ****        -3.6886  -3.5932   1.9834 H              1 S1                 0.0000
     50 ****        -0.4466   1.7701  -0.4018 LP             1 S1                 0.0000
     51 ****         1.1345   2.4614  -0.5505 LP             1 S1                 0.0000
     52 ****         6.6619   1.4784   1.1676 LP             1 S1                 0.0000
     53 ****         7.6913   3.2882   0.1571 LP             1 S1                 0.0000
     54 ****         6.7726   4.4202  -0.7781 LP             1 S1                 0.0000
     55 ****        -2.1294  -3.5324   0.2606 LP             1 S1                 0.0000
     56 ****        -3.2547  -3.0825  -0.8339 LP             1 S1                 0.0000
@<TRIPOS>BOND
    1    1    2 1     
    2    1   24 1     
    3    1   25 1     
    4    1   26 1     
    5    2    3 1     
    6    2   27 1     
    7    2   28 1     
    8    3   21 1     
    9    3    4 1     
   10    3    6 1     
   11    4    5 1     
   12    4   29 1     
   13    4   30 1     
   14    5   31 1     
   15    5   32 1     
   16    5   33 1     
   17    6    7 1     
   18    6   19 1     
   19    6   34 1     
   20    7    8 am    
   21    7   35 1     
   22    8    9 2     
   23    8   10 am    
   24   10   11 1     
   25   10   36 1     
   26   11   18 1     
   27   11   12 2     
   28   12   13 1     
   29   12   37 1     
   30   13   14 1     
   31   14   15 2     
   32   14   16 1     
   33   16   17 1     
   34   16   18 2     
   35   17   38 1     
   36   17   39 1     
   37   17   40 1     
   38   18   41 1     
   39   19   20 1     
   40   19   21 1     
   41   19   42 1     
   42   20   43 1     
   43   20   44 1     
   44   20   45 1     
   45   21   22 1     
   46   21   46 1     
   47   22   23 1     
   48   23   47 1     
   49   23   48 1     
   50   23   49 1     
   51    9   50 1     
   52    9   51 1     
   53   13   52 1     
   54   15   53 1     
   55   15   54 1     
   56   22   55 1     
   57   22   56 1     
@<TRIPOS>SUBSTRUCTURE
      1 S1             1
@<TRIPOS>SET
LONE_PAIRS      STATIC     ATOMS    <user>   **** ""
7 50 51 52 53 54 55 56
DONOR_HYDROGENS      STATIC     ATOMS    <user>   **** ""
2 35 36
ATOM$BLUE        STATIC     ATOMS    COLORGROUP SYSTEM
7 50 51 52 53 54 55 56
ATOM$RED        STATIC     ATOMS    COLORGROUP SYSTEM
2 35 36
