#       Name:                AV-unprocessed.smi:3311
#       Creating user name   scv26
#       Creation time:       Fri Mar 27 19:06:12 2020


#       File generated by GOLD software.
#

@<TRIPOS>MOLECULE
AV-unprocessed.smi:3311
    47    48     1
SMALL
NO_CHARGES


@<TRIPOS>ATOM
      1 ****        -1.9426  -0.6020  -1.6502 C.3            1 S1                 0.0000
      2 ****        -1.3265  -0.5698  -0.2397 C.3            1 S1                 0.0000
      3 ****         0.1468  -0.5180  -0.3666 N.4            1 S1                 1.0000
      4 ****         0.7956   0.6069   0.3425 C.3            1 S1                 0.0000
      5 ****         2.3375   0.5732   0.2096 C.3            1 S1                 0.0000
      6 ****         2.7728  -0.6391   0.7965 O.3            1 S1                 0.0000
      7 ****         2.8346   0.6106  -1.2566 C.3            1 S1                 0.0000
      8 ****         2.6092   1.9826  -1.9161 C.3            1 S1                 0.0000
      9 ****         3.2704   3.1050  -1.1010 C.3            1 S1                 0.0000
     10 ****         2.7898   3.0970   0.3586 C.3            1 S1                 0.0000
     11 ****         3.0004   1.7183   1.0111 C.3            1 S1                 0.0000
     12 ****        -1.7573  -1.7764   0.6381 C.3            1 S1                 0.0000
     13 ****        -1.2208  -1.6949   2.0801 C.3            1 S1                 0.0000
     14 ****        -3.2046  -1.9489   0.6569 N.pl3          1 S1                 0.0000
     15 ****        -3.9415  -3.0393   0.2418 C.2            1 S1                 0.0000
     16 ****        -5.2584  -2.7477   0.4549 C.2            1 S1                 0.0000
     17 ****        -5.2291  -1.4403   1.0153 C.2            1 S1                 0.0000
     18 ****        -4.0001  -0.9661   1.1370 N.2            1 S1                 0.0000
     19 ****        -3.0305  -0.5370  -1.6204 H              1 S1                 0.0000
     20 ****        -1.6782  -1.5191  -2.1775 H              1 S1                 0.0000
     21 ****        -1.5904   0.2385  -2.2491 H              1 S1                 0.0000
     22 ****        -1.6734   0.3486   0.2376 H              1 S1                 0.0000
     23 ****         0.5327  -1.3829  -0.0146 H              1 S1                 0.0000
     24 ****         0.3935   1.5390  -0.0543 H              1 S1                 0.0000
     25 ****         0.5144   0.5730   1.3961 H              1 S1                 0.0000
     26 ****         3.7179  -0.6626   0.7736 H              1 S1                 0.0000
     27 ****         3.9034   0.3910  -1.2810 H              1 S1                 0.0000
     28 ****         2.3605  -0.1698  -1.8524 H              1 S1                 0.0000
     29 ****         3.0147   1.9759  -2.9283 H              1 S1                 0.0000
     30 ****         1.5417   2.1792  -2.0181 H              1 S1                 0.0000
     31 ****         4.3541   2.9832  -1.1269 H              1 S1                 0.0000
     32 ****         3.0580   4.0719  -1.5579 H              1 S1                 0.0000
     33 ****         3.3267   3.8577   0.9262 H              1 S1                 0.0000
     34 ****         1.7369   3.3765   0.4007 H              1 S1                 0.0000
     35 ****         2.6266   1.7328   2.0359 H              1 S1                 0.0000
     36 ****         4.0739   1.5364   1.0862 H              1 S1                 0.0000
     37 ****        -1.3436  -2.6804   0.1881 H              1 S1                 0.0000
     38 ****        -0.1314  -1.7187   2.1044 H              1 S1                 0.0000
     39 ****        -1.5725  -2.5381   2.6754 H              1 S1                 0.0000
     40 ****        -1.5453  -0.7802   2.5775 H              1 S1                 0.0000
     41 ****        -3.4739  -3.9228  -0.1672 H              1 S1                 0.0000
     42 ****        -6.1129  -3.3735   0.2443 H              1 S1                 0.0000
     43 ****        -6.0582  -0.8264   1.3353 H              1 S1                 0.0000
     44 ****         0.3785  -0.4414  -1.3466 H              1 S1                 0.0000
     45 ****         2.4039  -1.4138   0.2829 LP             1 S1                 0.0000
     46 ****         2.4574  -0.6871   1.7443 LP             1 S1                 0.0000
     47 ****        -3.7212  -0.0782   1.5028 LP             1 S1                 0.0000
@<TRIPOS>BOND
    1    1    2 1     
    2    1   19 1     
    3    1   20 1     
    4    1   21 1     
    5    2    3 1     
    6    2   12 1     
    7    2   22 1     
    8    3    4 1     
    9    3   23 1     
   10    3   44 1     
   11    4    5 1     
   12    4   24 1     
   13    4   25 1     
   14    5   11 1     
   15    5    6 1     
   16    5    7 1     
   17    6   26 1     
   18    7    8 1     
   19    7   27 1     
   20    7   28 1     
   21    8    9 1     
   22    8   29 1     
   23    8   30 1     
   24    9   10 1     
   25    9   31 1     
   26    9   32 1     
   27   10   11 1     
   28   10   33 1     
   29   10   34 1     
   30   11   35 1     
   31   11   36 1     
   32   12   13 1     
   33   12   14 1     
   34   12   37 1     
   35   13   38 1     
   36   13   39 1     
   37   13   40 1     
   38   14   18 1     
   39   14   15 1     
   40   15   16 2     
   41   15   41 1     
   42   16   17 1     
   43   16   42 1     
   44   17   18 2     
   45   17   43 1     
   46    6   45 1     
   47    6   46 1     
   48   18   47 1     
@<TRIPOS>SUBSTRUCTURE
      1 S1             1
@<TRIPOS>SET
LONE_PAIRS      STATIC     ATOMS    <user>   **** ""
3 45 46 47
DONOR_HYDROGENS      STATIC     ATOMS    <user>   **** ""
3 23 44 26
ATOM$BLUE        STATIC     ATOMS    COLORGROUP SYSTEM
3 45 46 47
ATOM$RED        STATIC     ATOMS    COLORGROUP SYSTEM
3 23 44 26
