#       Name:                AV-unprocessed.smi:463
#       Creating user name   scv26
#       Creation time:       Thu Mar 26 23:04:33 2020


#       File generated by GOLD software.
#

@<TRIPOS>MOLECULE
AV-unprocessed.smi:463
    47    49     1
SMALL
NO_CHARGES


@<TRIPOS>ATOM
      1 ****        -4.5651   4.8301  -0.1471 C.3            1 S1                 0.0000
      2 ****        -4.0885   3.3923  -0.1706 C.ar           1 S1                 0.0000
      3 ****        -5.0170   2.3327  -0.1803 C.ar           1 S1                 0.0000
      4 ****        -4.5627   1.0011  -0.2021 C.ar           1 S1                 0.0000
      5 ****        -3.1822   0.7232  -0.2137 C.ar           1 S1                 0.0000
      6 ****        -2.2381   1.7809  -0.2026 C.ar           1 S1                 0.0000
      7 ****        -0.8715   1.6003  -0.2106 O.3            1 S1                 0.0000
      8 ****        -0.3692   0.2724  -0.1755 C.3            1 S1                 0.0000
      9 ****         1.1616   0.3339  -0.1227 C.3            1 S1                 0.0000
     10 ****         1.7598  -1.0026  -0.0063 N.pl3          1 S1                 0.0000
     11 ****         2.1082  -1.7186   1.1015 C.2            1 S1                 0.0000
     12 ****         1.9657  -1.2935   2.5271 C.3            1 S1                 0.0000
     13 ****         3.1857  -0.4924   3.0008 C.3            1 S1                 0.0000
     14 ****         3.0168  -0.1127   4.3493 O.3            1 S1                 0.0000
     15 ****         2.6329  -2.9001   0.6693 N.pl3          1 S1                 1.0000
     16 ****         2.6069  -2.9467  -0.7254 C.ar           1 S1                 0.0000
     17 ****         3.0238  -3.9347  -1.6122 C.ar           1 S1                 0.0000
     18 ****         2.8501  -3.6658  -2.9858 C.ar           1 S1                 0.0000
     19 ****         2.2808  -2.4549  -3.4310 C.ar           1 S1                 0.0000
     20 ****         1.8631  -1.4600  -2.5225 C.ar           1 S1                 0.0000
     21 ****         2.0414  -1.7324  -1.1664 C.ar           1 S1                 0.0000
     22 ****        -2.7073   3.1108  -0.1824 C.ar           1 S1                 0.0000
     23 ****        -5.6540   4.8895  -0.1475 H              1 S1                 0.0000
     24 ****        -4.1947   5.3652  -1.0219 H              1 S1                 0.0000
     25 ****        -4.1973   5.3351   0.7464 H              1 S1                 0.0000
     26 ****        -6.0780   2.5354  -0.1715 H              1 S1                 0.0000
     27 ****        -5.2759   0.1899  -0.2104 H              1 S1                 0.0000
     28 ****        -2.8738  -0.3109  -0.2317 H              1 S1                 0.0000
     29 ****        -0.7449  -0.2489   0.7067 H              1 S1                 0.0000
     30 ****        -0.6911  -0.2775  -1.0613 H              1 S1                 0.0000
     31 ****         1.5679   0.8345  -1.0019 H              1 S1                 0.0000
     32 ****         1.4829   0.9182   0.7400 H              1 S1                 0.0000
     33 ****         1.0565  -0.7006   2.6335 H              1 S1                 0.0000
     34 ****         1.8340  -2.1806   3.1479 H              1 S1                 0.0000
     35 ****         4.0944  -1.0887   2.9128 H              1 S1                 0.0000
     36 ****         3.3230   0.4031   2.3941 H              1 S1                 0.0000
     37 ****         2.2661   0.4584   4.4112 H              1 S1                 0.0000
     38 ****         3.4589  -4.8637  -1.2737 H              1 S1                 0.0000
     39 ****         3.1586  -4.4033  -3.7127 H              1 S1                 0.0000
     40 ****         2.1618  -2.2853  -4.4915 H              1 S1                 0.0000
     41 ****         1.4266  -0.5368  -2.8743 H              1 S1                 0.0000
     42 ****        -1.9966   3.9247  -0.1737 H              1 S1                 0.0000
     43 ****         2.9813  -3.6221   1.2869 H              1 S1                 0.0000
     44 ****        -0.5049   2.0771   0.5884 LP             1 S1                 0.0000
     45 ****        -0.5209   2.0279  -1.0438 LP             1 S1                 0.0000
     46 ****         3.8332   0.3688   4.6683 LP             1 S1                 0.0000
     47 ****         2.8683  -0.9259   4.9120 LP             1 S1                 0.0000
@<TRIPOS>BOND
    1    1    2 1     
    2    1   23 1     
    3    1   24 1     
    4    1   25 1     
    5    2   22 ar    
    6    2    3 ar    
    7    3    4 ar    
    8    3   26 1     
    9    4    5 ar    
   10    4   27 1     
   11    5    6 ar    
   12    5   28 1     
   13    6    7 1     
   14    6   22 ar    
   15    7    8 1     
   16    8    9 1     
   17    8   29 1     
   18    8   30 1     
   19    9   10 1     
   20    9   31 1     
   21    9   32 1     
   22   10   21 1     
   23   10   11 1     
   24   11   12 1     
   25   11   15 2     
   26   12   13 1     
   27   12   33 1     
   28   12   34 1     
   29   13   14 1     
   30   13   35 1     
   31   13   36 1     
   32   14   37 1     
   33   15   16 1     
   34   15   43 1     
   35   16   21 ar    
   36   16   17 ar    
   37   17   18 ar    
   38   17   38 1     
   39   18   19 ar    
   40   18   39 1     
   41   19   20 ar    
   42   19   40 1     
   43   20   21 ar    
   44   20   41 1     
   45   22   42 1     
   46    7   44 1     
   47    7   45 1     
   48   14   46 1     
   49   14   47 1     
@<TRIPOS>SUBSTRUCTURE
      1 S1             1
@<TRIPOS>SET
LONE_PAIRS      STATIC     ATOMS    <user>   **** ""
4 44 45 46 47
DONOR_HYDROGENS      STATIC     ATOMS    <user>   **** ""
2 37 43
ATOM$BLUE        STATIC     ATOMS    COLORGROUP SYSTEM
4 44 45 46 47
ATOM$RED        STATIC     ATOMS    COLORGROUP SYSTEM
2 37 43
