AV-unprocessed.smi:317|AV-procd|sdf|2327|dock8
  -GOLD-   2262022233D 1   1.00000     0.00000
 Structure written by MMmdl.
 39 40  0  0  0  0  0  0  0  0  1 V2000
  151.9061  145.2442  158.5866 C   0  0  0  0  0  0  0  0  0  0  0  0
  151.0816  143.9956  158.9317 C   0  0  1  0  0  0  0  0  0  0  0  0
  149.7554  144.3713  159.6270 C   0  0  0  0  0  0  0  0  0  0  0  0
  148.6533  143.9007  158.8810 O   0  0  0  0  0  0  0  0  0  0  0  0
  150.8152  143.2696  157.6928 N   0  0  0  0  0  0  0  0  0  0  0  0
  151.2765  142.0467  157.3957 C   0  0  0  0  0  0  0  0  0  0  0  0
  151.9980  141.3870  158.1436 O   0  0  0  0  0  0  0  0  0  0  0  0
  150.8304  141.6409  156.1954 N   0  0  0  0  0  0  0  0  0  0  0  0
  151.0659  140.3945  155.5502 C   0  0  0  0  0  0  0  0  0  0  0  0
  152.3187  139.7408  155.6437 C   0  0  0  0  0  0  0  0  0  0  0  0
  152.5301  138.5490  154.9296 C   0  0  0  0  0  0  0  0  0  0  0  0
  151.4836  138.0585  154.1314 C   0  0  0  0  0  0  0  0  0  0  0  0
  150.2898  138.6751  154.0217 N   0  0  0  0  0  0  0  0  0  0  0  0
  150.0652  139.8181  154.7160 C   0  0  0  0  0  0  0  0  0  0  0  0
  148.7886  140.4101  154.5763 N   0  0  0  0  0  0  0  0  0  0  0  0
  148.6599  141.7932  154.1296 C   0  0  0  0  0  0  0  0  0  0  0  0
  147.1946  141.9450  153.7323 C   0  0  0  0  0  0  0  0  0  0  0  0
  146.8734  140.5753  153.1424 C   0  0  0  0  0  0  0  0  0  0  0  0
  147.7249  139.6106  153.9747 C   0  0  0  0  0  0  0  0  0  0  0  0
  152.1611  145.8071  159.4851 H   0  0  0  0  0  0  0  0  0  0  0  0
  151.3590  145.9117  157.9198 H   0  0  0  0  0  0  0  0  0  0  0  0
  152.8414  144.9738  158.0954 H   0  0  0  0  0  0  0  0  0  0  0  0
  151.6939  143.3863  159.6002 H   0  0  0  0  0  0  0  0  0  0  0  0
  149.6928  143.9017  160.6091 H   0  0  0  0  0  0  0  0  0  0  0  0
  149.6705  145.4467  159.7880 H   0  0  0  0  0  0  0  0  0  0  0  0
  148.2516  144.6341  158.4413 H   0  0  0  0  0  0  0  0  0  0  0  0
  150.2275  143.7317  157.0147 H   0  0  0  0  0  0  0  0  0  0  0  0
  150.1631  142.2455  155.7391 H   0  0  0  0  0  0  0  0  0  0  0  0
  153.1276  140.1470  156.2317 H   0  0  0  0  0  0  0  0  0  0  0  0
  153.4767  138.0318  154.9823 H   0  0  0  0  0  0  0  0  0  0  0  0
  151.6092  137.1506  153.5605 H   0  0  0  0  0  0  0  0  0  0  0  0
  148.9414  142.4933  154.9167 H   0  0  0  0  0  0  0  0  0  0  0  0
  149.2921  141.9809  153.2606 H   0  0  0  0  0  0  0  0  0  0  0  0
  146.5831  142.1227  154.6181 H   0  0  0  0  0  0  0  0  0  0  0  0
  147.0264  142.7635  153.0319 H   0  0  0  0  0  0  0  0  0  0  0  0
  145.8101  140.3360  153.1741 H   0  0  0  0  0  0  0  0  0  0  0  0
  147.1944  140.5422  152.1003 H   0  0  0  0  0  0  0  0  0  0  0  0
  148.1177  138.7976  153.3619 H   0  0  0  0  0  0  0  0  0  0  0  0
  147.1198  139.1733  154.7692 H   0  0  0  0  0  0  0  0  0  0  0  0
  1  2  1  0  0  0  0
  1 20  1  0  0  0  0
  1 21  1  0  0  0  0
  1 22  1  0  0  0  0
  2  3  1  0  0  0  0
  2  5  1  0  0  0  0
  2 23  1  0  0  0  0
  3  4  1  0  0  0  0
  3 24  1  0  0  0  0
  3 25  1  0  0  0  0
  4 26  1  0  0  0  0
  5  6  1  0  0  0  0
  5 27  1  0  0  0  0
  6  7  2  0  0  0  0
  6  8  1  0  0  0  0
  8  9  1  0  0  0  0
  8 28  1  0  0  0  0
  9 14  1  0  0  0  0
  9 10  2  0  0  0  0
 10 11  1  0  0  0  0
 10 29  1  0  0  0  0
 11 12  2  0  0  0  0
 11 30  1  0  0  0  0
 12 13  1  0  0  0  0
 12 31  1  0  0  0  0
 13 14  2  0  0  0  0
 14 15  1  0  0  0  0
 15 19  1  0  0  0  0
 15 16  1  0  0  0  0
 16 17  1  0  0  0  0
 16 32  1  0  0  0  0
 16 33  1  0  0  0  0
 17 18  1  0  0  0  0
 17 34  1  0  0  0  0
 17 35  1  0  0  0  0
 18 19  1  0  0  0  0
 18 36  1  0  0  0  0
 18 37  1  0  0  0  0
 19 38  1  0  0  0  0
 19 39  1  0  0  0  0
M  END
> <s_m_source_file>
AV-unprocessed.smi

> <i_m_source_file_index>
317

> <i_lp_mmshare_version>
43012

> <i_f3d_flags>
0

> <s_epik_input>
W09IXVtDSDJdW0NAQEhdKFtDSDNdKVtOSF1DKD1PKVtOSF1jMVtjSF1bY0hdW2NIXW5jMU4yW0NIMl1bQ0gyXVtDSDJdW0NIMl0y

> <s_epik_cmdline>
J2VwaWtfcHl0aG9uJywgJy1waCcsICc3LjAnLCAnLXRuJywgJzgnLCAnLW1hJywgJzIwMCcsICctbWV0YWxfYmluZGluZycsICctaW1hZScsICc8aW5maWxlLm1hZT4nLCAnLW9tYWUnLCAnPG91dGZpbGUubWFlPic=

> <r_lp_tautomer_probability>
1

> <r_epik_Ionization_Penalty>
0.098371

> <r_epik_Ionization_Penalty_Charging>
0

> <r_epik_Ionization_Penalty_Neutral>
0.098371

> <r_epik_State_Penalty>
0.0879016

> <r_epik_Charging_Adjusted_Penalty>
0.0879016

> <i_epik_Tot_Q>
0

> <i_epik_Tot_abs_Q>
0

> <r_epik_Metal_State_Penalty>
0.0753294

> <b_epik_Metal_Only>
0

> <s_lp_Force_Field>
OPLS_2005

> <r_lp_Energy>
32.3253

> <b_lp_Chiralities_Consistent>
1

> <s_lp_Variant>
AV-unprocessed.smi:317-2

> <Gold.Version>
5.8.1

> <Gold.Id.Protein>
6NUR|6NUR_protein|mol2

> <Gold.PLP.Fitness>
43.5689

> <Gold.PLP.PLP>
-37.4171

> <Gold.PLP.part.hbond>
-1.7407

> <Gold.PLP.part.metal>
0.0000

> <Gold.PLP.part.buried>
-3.9469

> <Gold.PLP.part.nonpolar>
-32.0694

> <Gold.PLP.part.repulsive>
0.4601

> <Gold.PLP.ligand.clash>
0.0000

> <Gold.PLP.ligand.torsion>
1.2076

> <Gold.PLP.Chemscore.Hbond>
1.7475

> <Gold.PLP.Chemscore.CHOScore>
1.0000

> <Gold.PLP.Chemscore.Metal>
0.0000

> <Gold.Chemscore.Hbonds>
donor molecule, donor type, donor heavy atom, donor atom, acceptor molecule, acceptor atom, score
      L1  H     4    26       P1  8029  1.00
      L1  H     5    27       P1  8028  0.75
      L1  C    12    31       P1  7949  1.00

> <Gold.PLP.Chemscore.Internal.Correction>
0.3244

> <Gold.Rescore>
     Score         DG    S(hbond)    S(metal)    S(lipo)     H(rot)  DE(clash)    DE(int)     intcor
     13.12     -16.54       1.83        0.00      87.65       2.08       0.30       3.13       ----

> <Gold.Chemscore.Fitness>
13.1171

> <Gold.Chemscore.DG>
-16.5432

> <Gold.Chemscore.ZeroCoef>
-5.4800

> <Gold.Chemscore.Hbond>
1.8343

> <Gold.Chemscore.Metal>
0.0000

> <Gold.Chemscore.Lipo>
87.6453

> <Gold.Chemscore.Internal_Hbond>
0.0000

> <Gold.Chemscore.DEClash>
0.2975

> <Gold.Chemscore.DEInternal>
3.1286

> <Gold.Chemscore.Rot>
2.0773

> <Gold.Chemscore.Internal.Correction>
   9.000000E+99

> <Gold.Chemscore.Hbonds>
donor molecule, donor type, donor heavy atom, donor atom, acceptor molecule, acceptor atom, score
      L1  H     4    26       P1  8029  0.88
      L1  H     5    27       P1  8028  0.74

> <Gold.Chemscore.Hbond.Weighted>
-6.1265

> <Gold.Chemscore.Metal.Weighted>
-0.0000

> <Gold.Chemscore.Lipo.Weighted>
-10.2545

> <Gold.Chemscore.Internal_Hbond.Weighted>
0.0000

> <Gold.Chemscore.DEClash.Weighted>
0.2975

> <Gold.Chemscore.DEInternal.Weighted>
3.1286

> <Gold.Chemscore.Rot.Weighted>
5.3178

> <Gold.Chemscore.Internal.Correction.Weighted>
   9.000000E+99

> <Gold.Protein.RotatedTorsions>
[ 6907 6896 6895 6894 ] final  106.23 input  -60.11 | X-H torsion
[ 7974 7965 7964 7962 ] final -144.29 input  175.53 | X-H torsion
[ 8008 7997 7996 7995 ] final  -53.62 input   59.86 | X-H torsion
[ 10167 10162 10161 10158 ] final    4.24 input  -65.29 | X-H torsion
[ 10718 10713 10712 10709 ] final  143.68 input   66.30 | X-H torsion
[ 10763 10752 10751 10750 ] final  174.27 input  -60.55 | X-H torsion
[ 11005 11000 10999 10996 ] final -114.03 input  -57.11 | X-H torsion

> <Gold.Protein.ActiveResidues>
 VAL166  LYS551  ARG553  GLY616  TRP617  ASP618  TYR619  PRO620  LYS621  CYS622 
 ASP623  PHE694  ASN695  SER759  ASP760  ASP761  ALA762  ILE779  LEU786  VAL792 
 PHE793  MET794  SER795  GLU796  ALA797  LYS798  CYS799  TRP800  GLU811  SER814 

> <Gold.Protein.RotatedAtoms>
  152.5201  133.9412  159.7626 H   0  0  0  0  0  0  0  0  0  0  0  0  # atno 6907 bound_to 6896
  150.9741  133.6304  159.2740 H   0  0  0  0  0  0  0  0  0  0  0  0  # atno 6908 bound_to 6896
  151.3505  135.0889  159.9454 H   0  0  0  0  0  0  0  0  0  0  0  0  # atno 6909 bound_to 6896
  144.8308  140.5729  143.5516 H   0  0  0  0  0  0  0  0  0  0  0  0  # atno 7974 bound_to 7965
  154.4138  140.1195  156.5184 H   0  0  0  0  0  0  0  0  0  0  0  0  # atno 8008 bound_to 7997
  155.6728  140.3496  155.4805 H   0  0  0  0  0  0  0  0  0  0  0  0  # atno 8009 bound_to 7997
  155.9618  140.1124  157.0879 H   0  0  0  0  0  0  0  0  0  0  0  0  # atno 8010 bound_to 7997
  140.6545  143.7462  150.7630 H   0  0  0  0  0  0  0  0  0  0  0  0  # atno 10167 bound_to 10162
  157.3660  131.0972  151.0871 H   0  0  0  0  0  0  0  0  0  0  0  0  # atno 10718 bound_to 10713
  154.4516  135.2765  155.1777 H   0  0  0  0  0  0  0  0  0  0  0  0  # atno 10763 bound_to 10752
  154.3601  135.6131  153.5690 H   0  0  0  0  0  0  0  0  0  0  0  0  # atno 10764 bound_to 10752
  152.9847  135.5832  154.4862 H   0  0  0  0  0  0  0  0  0  0  0  0  # atno 10765 bound_to 10752
  141.0578  133.9585  157.2723 H   0  0  0  0  0  0  0  0  0  0  0  0  # atno 11005 bound_to 11000
  145.4899  139.1489  143.3715 LP  0  0  0  0  0  0  0  0  0  0  0  0  # atno 17320 bound_to 7965
  146.2611  140.5037  142.8853 LP  0  0  0  0  0  0  0  0  0  0  0  0  # atno 17321 bound_to 7965
  140.1119  143.4691  152.2365 LP  0  0  0  0  0  0  0  0  0  0  0  0  # atno 17342 bound_to 10162
  139.5765  144.7490  151.3751 LP  0  0  0  0  0  0  0  0  0  0  0  0  # atno 17343 bound_to 10162
  157.1993  130.6387  149.5733 LP  0  0  0  0  0  0  0  0  0  0  0  0  # atno 17370 bound_to 10713
  155.9746  130.4696  150.6401 LP  0  0  0  0  0  0  0  0  0  0  0  0  # atno 17371 bound_to 10713
  139.9405  135.0191  156.8693 LP  0  0  0  0  0  0  0  0  0  0  0  0  # atno 17394 bound_to 11000
  140.5930  134.0244  155.7507 LP  0  0  0  0  0  0  0  0  0  0  0  0  # atno 17395 bound_to 11000

$$$$
