AV-unprocessed.smi:573|AV-procd|sdf|2973|dock8
  -GOLD-   2262023483D 1   1.00000     0.00000
 Structure written by MMmdl.
 44 46  0  0  0  0  0  0  0  0  1 V2000
  146.4485  140.5524  154.7956 C   0  0  0  0  0  0  0  0  0  0  0  0
  147.4459  141.1232  153.7797 C   0  0  2  0  0  0  0  0  0  0  0  0
  148.3325  140.0836  153.4208 O   0  0  0  0  0  0  0  0  0  0  0  0
  148.2595  142.2878  154.3700 C   0  0  0  0  0  0  0  0  0  0  0  0
  148.9091  141.9288  155.6181 N   0  0  0  0  0  0  0  0  0  0  0  0
  149.9776  141.0869  155.9044 C   0  0  0  0  0  0  0  0  0  0  0  0
  150.6505  140.4008  154.9822 N   0  0  0  0  0  0  0  0  0  0  0  0
  151.5954  139.7370  155.7420 C   0  0  0  0  0  0  0  0  0  0  0  0
  152.6191  138.8422  155.3562 C   0  0  0  0  0  0  0  0  0  0  0  0
  153.4802  138.2824  156.3225 C   0  0  0  0  0  0  0  0  0  0  0  0
  153.3321  138.6092  157.6861 C   0  0  0  0  0  0  0  0  0  0  0  0
  152.3176  139.4970  158.0933 C   0  0  0  0  0  0  0  0  0  0  0  0
  151.4582  140.0512  157.1256 C   0  0  0  0  0  0  0  0  0  0  0  0
  150.3836  140.9341  157.1869 N   0  0  0  0  0  0  0  0  0  0  0  0
  149.8368  141.5532  158.3863 C   0  0  0  0  0  0  0  0  0  0  0  0
  150.8395  142.5119  159.0495 C   0  0  1  0  0  0  0  0  0  0  0  0
  151.2243  143.6778  158.1186 C   0  0  0  0  0  0  0  0  0  0  0  0
  152.1641  144.6544  158.8353 C   0  0  0  0  0  0  0  0  0  0  0  0
  151.5420  145.0876  160.1673 C   0  0  0  0  0  0  0  0  0  0  0  0
  151.1410  143.8564  160.9951 C   0  0  0  0  0  0  0  0  0  0  0  0
  150.2556  143.0341  160.2421 O   0  0  0  0  0  0  0  0  0  0  0  0
  145.7289  141.3114  155.1041 H   0  0  0  0  0  0  0  0  0  0  0  0
  146.9547  140.1908  155.6913 H   0  0  0  0  0  0  0  0  0  0  0  0
  145.8860  139.7203  154.3705 H   0  0  0  0  0  0  0  0  0  0  0  0
  146.8973  141.4473  152.8944 H   0  0  0  0  0  0  0  0  0  0  0  0
  148.9501  140.4236  152.7915 H   0  0  0  0  0  0  0  0  0  0  0  0
  149.0438  142.5779  153.6700 H   0  0  0  0  0  0  0  0  0  0  0  0
  147.6334  143.1682  154.5192 H   0  0  0  0  0  0  0  0  0  0  0  0
  148.4990  142.3728  156.4266 H   0  0  0  0  0  0  0  0  0  0  0  0
  152.7422  138.5871  154.3142 H   0  0  0  0  0  0  0  0  0  0  0  0
  154.2592  137.5999  156.0157 H   0  0  0  0  0  0  0  0  0  0  0  0
  153.9980  138.1782  158.4195 H   0  0  0  0  0  0  0  0  0  0  0  0
  152.2031  139.7515  159.1365 H   0  0  0  0  0  0  0  0  0  0  0  0
  148.9155  142.0774  158.1300 H   0  0  0  0  0  0  0  0  0  0  0  0
  149.5545  140.7641  159.0839 H   0  0  0  0  0  0  0  0  0  0  0  0
  151.7372  141.9497  159.3141 H   0  0  0  0  0  0  0  0  0  0  0  0
  151.7002  143.2993  157.2136 H   0  0  0  0  0  0  0  0  0  0  0  0
  150.3246  144.2066  157.8013 H   0  0  0  0  0  0  0  0  0  0  0  0
  153.1253  144.1723  159.0181 H   0  0  0  0  0  0  0  0  0  0  0  0
  152.3620  145.5232  158.2071 H   0  0  0  0  0  0  0  0  0  0  0  0
  152.2420  145.7084  160.7272 H   0  0  0  0  0  0  0  0  0  0  0  0
  150.6605  145.7013  159.9782 H   0  0  0  0  0  0  0  0  0  0  0  0
  152.0199  143.2837  161.2945 H   0  0  0  0  0  0  0  0  0  0  0  0
  150.6380  144.1681  161.9104 H   0  0  0  0  0  0  0  0  0  0  0  0
  1  2  1  0  0  0  0
  1 22  1  0  0  0  0
  1 23  1  0  0  0  0
  1 24  1  0  0  0  0
  2  3  1  0  0  0  0
  2  4  1  0  0  0  0
  2 25  1  0  0  0  0
  3 26  1  0  0  0  0
  4  5  1  0  0  0  0
  4 27  1  0  0  0  0
  4 28  1  0  0  0  0
  5  6  1  0  0  0  0
  5 29  1  0  0  0  0
  6 14  1  0  0  0  0
  6  7  2  0  0  0  0
  7  8  1  0  0  0  0
  8 13  2  0  0  0  0
  8  9  1  0  0  0  0
  9 10  2  0  0  0  0
  9 30  1  0  0  0  0
 10 11  1  0  0  0  0
 10 31  1  0  0  0  0
 11 12  2  0  0  0  0
 11 32  1  0  0  0  0
 12 13  1  0  0  0  0
 12 33  1  0  0  0  0
 13 14  1  0  0  0  0
 14 15  1  0  0  0  0
 15 16  1  0  0  0  0
 15 34  1  0  0  0  0
 15 35  1  0  0  0  0
 16 21  1  0  0  0  0
 16 17  1  0  0  0  0
 16 36  1  0  0  0  0
 17 18  1  0  0  0  0
 17 37  1  0  0  0  0
 17 38  1  0  0  0  0
 18 19  1  0  0  0  0
 18 39  1  0  0  0  0
 18 40  1  0  0  0  0
 19 20  1  0  0  0  0
 19 41  1  0  0  0  0
 19 42  1  0  0  0  0
 20 21  1  0  0  0  0
 20 43  1  0  0  0  0
 20 44  1  0  0  0  0
M  END
> <s_m_source_file>
AV-unprocessed.smi

> <i_m_source_file_index>
573

> <i_lp_mmshare_version>
43012

> <i_f3d_flags>
0

> <s_epik_input>
W0NIM11bQ0BIXShbT0hdKVtDSDJdW05IXWMobjEpbihjKGMxMilbY0hdW2NIXVtjSF1bY0hdMilbQ0gyXVtDQEBIXTNbQ0gyXVtDSDJdW0NIMl1bQ0gyXU8z

> <s_epik_cmdline>
J2VwaWtfcHl0aG9uJywgJy1waCcsICc3LjAnLCAnLXRuJywgJzgnLCAnLW1hJywgJzIwMCcsICctbWV0YWxfYmluZGluZycsICctaW1hZScsICc8aW5maWxlLm1hZT4nLCAnLW9tYWUnLCAnPG91dGZpbGUubWFlPic=

> <r_epik_Ionization_Penalty>
1.30635

> <r_epik_Ionization_Penalty_Charging>
0

> <r_epik_Ionization_Penalty_Neutral>
1.30635

> <r_epik_State_Penalty>
1.38073

> <r_epik_Charging_Adjusted_Penalty>
1.38073

> <i_epik_Tot_Q>
0

> <i_epik_Tot_abs_Q>
0

> <r_epik_Metal_State_Penalty>
0.00547412

> <b_epik_Metal_Only>
0

> <s_lp_Force_Field>
OPLS_2005

> <r_lp_Energy>
9.89465

> <b_lp_Chiralities_Consistent>
1

> <s_lp_Variant>
AV-unprocessed.smi:573-7

> <Gold.Version>
5.8.1

> <Gold.Id.Protein>
6NUR|6NUR_protein|mol2

> <Gold.PLP.Fitness>
49.0358

> <Gold.PLP.PLP>
-43.0187

> <Gold.PLP.part.hbond>
-4.0000

> <Gold.PLP.part.metal>
0.0000

> <Gold.PLP.part.buried>
-1.8311

> <Gold.PLP.part.nonpolar>
-38.1607

> <Gold.PLP.part.repulsive>
0.2968

> <Gold.PLP.ligand.clash>
0.0000

> <Gold.PLP.ligand.torsion>
0.1011

> <Gold.PLP.Chemscore.Hbond>
2.0707

> <Gold.PLP.Chemscore.CHOScore>
0.0000

> <Gold.PLP.Chemscore.Metal>
0.0000

> <Gold.Chemscore.Hbonds>
donor molecule, donor type, donor heavy atom, donor atom, acceptor molecule, acceptor atom, score
      L1  H     3    26       P1  7957  0.80
      P1  H  7989  7998       L1     7  1.00

> <Gold.PLP.Chemscore.Internal.Correction>
0.0070

> <Gold.Rescore>
     Score         DG    S(hbond)    S(metal)    S(lipo)     H(rot)  DE(clash)    DE(int)     intcor
     18.04     -19.17       1.72        0.00     112.16       2.02       0.31       0.82       ----

> <Gold.Chemscore.Fitness>
18.0413

> <Gold.Chemscore.DG>
-19.1744

> <Gold.Chemscore.ZeroCoef>
-5.4800

> <Gold.Chemscore.Hbond>
1.7213

> <Gold.Chemscore.Metal>
0.0000

> <Gold.Chemscore.Lipo>
112.1596

> <Gold.Chemscore.Internal_Hbond>
0.0000

> <Gold.Chemscore.DEClash>
0.3094

> <Gold.Chemscore.DEInternal>
0.8237

> <Gold.Chemscore.Rot>
2.0224

> <Gold.Chemscore.Internal.Correction>
   9.000000E+99

> <Gold.Chemscore.Hbonds>
donor molecule, donor type, donor heavy atom, donor atom, acceptor molecule, acceptor atom, score
      L1  H     3    26       P1  7957  0.80
      P1  H  7989  7998       L1     7  0.34

> <Gold.Chemscore.Hbond.Weighted>
-5.7491

> <Gold.Chemscore.Metal.Weighted>
-0.0000

> <Gold.Chemscore.Lipo.Weighted>
-13.1227

> <Gold.Chemscore.Internal_Hbond.Weighted>
0.0000

> <Gold.Chemscore.DEClash.Weighted>
0.3094

> <Gold.Chemscore.DEInternal.Weighted>
0.8237

> <Gold.Chemscore.Rot.Weighted>
5.1773

> <Gold.Chemscore.Internal.Correction.Weighted>
   9.000000E+99

> <Gold.Protein.RotatedTorsions>
[ 6907 6896 6895 6894 ] final   72.92 input  -60.11 | X-H torsion
[ 7974 7965 7964 7962 ] final   45.18 input  175.53 | X-H torsion
[ 8008 7997 7996 7995 ] final -141.32 input   59.86 | X-H torsion
[ 10167 10162 10161 10158 ] final -104.05 input  -65.29 | X-H torsion
[ 10718 10713 10712 10709 ] final  -17.25 input   66.30 | X-H torsion
[ 10763 10752 10751 10750 ] final   -2.57 input  -60.55 | X-H torsion
[ 11005 11000 10999 10996 ] final  116.44 input  -57.11 | X-H torsion

> <Gold.Protein.ActiveResidues>
 VAL166  LYS551  ARG553  GLY616  TRP617  ASP618  TYR619  PRO620  LYS621  CYS622 
 ASP623  PHE694  ASN695  SER759  ASP760  ASP761  ALA762  ILE779  LEU786  VAL792 
 PHE793  MET794  SER795  GLU796  ALA797  LYS798  CYS799  TRP800  GLU811  SER814 

> <Gold.Protein.RotatedAtoms>
  152.4895  134.4498  159.9570 H   0  0  0  0  0  0  0  0  0  0  0  0  # atno 6907 bound_to 6896
  151.4488  133.3617  159.2800 H   0  0  0  0  0  0  0  0  0  0  0  0  # atno 6908 bound_to 6896
  150.9036  134.8474  159.7437 H   0  0  0  0  0  0  0  0  0  0  0  0  # atno 6909 bound_to 6896
  146.0503  139.4993  142.9722 H   0  0  0  0  0  0  0  0  0  0  0  0  # atno 7974 bound_to 7965
  155.4759  140.0556  157.2973 H   0  0  0  0  0  0  0  0  0  0  0  0  # atno 8008 bound_to 7997
  154.4680  140.2027  156.0022 H   0  0  0  0  0  0  0  0  0  0  0  0  # atno 8009 bound_to 7997
  156.1007  140.3219  155.7942 H   0  0  0  0  0  0  0  0  0  0  0  0  # atno 8010 bound_to 7997
  140.2134  143.3729  152.1031 H   0  0  0  0  0  0  0  0  0  0  0  0  # atno 10167 bound_to 10162
  156.5762  130.4762  149.6341 H   0  0  0  0  0  0  0  0  0  0  0  0  # atno 10718 bound_to 10713
  153.3597  135.6989  153.6722 H   0  0  0  0  0  0  0  0  0  0  0  0  # atno 10763 bound_to 10752
  153.5415  135.3572  155.2721 H   0  0  0  0  0  0  0  0  0  0  0  0  # atno 10764 bound_to 10752
  154.8666  135.4205  154.2852 H   0  0  0  0  0  0  0  0  0  0  0  0  # atno 10765 bound_to 10752
  139.9041  134.9598  156.7199 H   0  0  0  0  0  0  0  0  0  0  0  0  # atno 11005 bound_to 11000
  145.6736  141.0210  143.1644 LP  0  0  0  0  0  0  0  0  0  0  0  0  # atno 17320 bound_to 7965
  144.7119  139.8339  143.7411 LP  0  0  0  0  0  0  0  0  0  0  0  0  # atno 17321 bound_to 7965
  139.5171  144.6987  151.5556 LP  0  0  0  0  0  0  0  0  0  0  0  0  # atno 17342 bound_to 10162
  140.6307  143.9081  150.6603 LP  0  0  0  0  0  0  0  0  0  0  0  0  # atno 17343 bound_to 10162
  156.2671  130.6996  151.1782 LP  0  0  0  0  0  0  0  0  0  0  0  0  # atno 17370 bound_to 10713
  157.7337  131.0588  150.5563 LP  0  0  0  0  0  0  0  0  0  0  0  0  # atno 17371 bound_to 10713
  140.7009  133.9307  155.8023 LP  0  0  0  0  0  0  0  0  0  0  0  0  # atno 17394 bound_to 11000
  141.0372  134.0672  157.3945 LP  0  0  0  0  0  0  0  0  0  0  0  0  # atno 17395 bound_to 11000

$$$$
