AV-unprocessed.smi:2819|AV-procd|sdf|10851|dock8
  -GOLD-   2272015293D 1   1.00000     0.00000
 Structure written by MMmdl.
 51 52  0  0  0  0  0  0  0  0  3 V2000
  153.7651  141.2298  160.1351 C   0  0  0  0  0  0  0  0  0  0  0  0
  153.0879  142.4604  160.5314 N   0  0  0  0  0  0  0  0  0  0  0  0
  153.1589  142.9209  161.9125 C   0  0  0  0  0  0  0  0  0  0  0  0
  152.3170  143.1747  159.5878 C   0  0  0  0  0  0  0  0  0  0  0  0
  152.0970  144.5645  159.6931 C   0  0  0  0  0  0  0  0  0  0  0  0
  151.3138  145.1709  158.6954 C   0  0  0  0  0  0  0  0  0  0  0  0
  150.7980  144.4331  157.6832 N   0  3  0  0  0  0  0  0  0  0  0  0
  151.0364  143.1135  157.6273 C   0  0  0  0  0  0  0  0  0  0  0  0
  150.4735  142.4282  156.5719 N   0  0  0  0  0  0  0  0  0  0  0  0
  150.7522  141.2061  156.0778 C   0  0  0  0  0  0  0  0  0  0  0  0
  151.6323  140.4526  156.4951 O   0  0  0  0  0  0  0  0  0  0  0  0
  149.9415  140.8949  155.0543 N   0  0  0  0  0  0  0  0  0  0  0  0
  149.9949  139.6583  154.2736 C   0  0  0  0  0  0  0  0  0  0  0  0
  148.8514  138.6533  154.6112 C   0  0  0  0  0  0  0  0  0  0  0  0
  148.3102  138.9066  156.0407 C   0  0  0  0  0  0  0  0  0  0  0  0
  147.6554  138.8837  153.6536 C   0  0  0  0  0  0  0  0  0  0  0  0
  149.3252  137.2258  154.4994 N   0  3  0  0  0  0  0  0  0  0  0  0
  150.6343  136.9236  155.1457 C   0  0  0  0  0  0  0  0  0  0  0  0
  151.0906  135.4947  154.8065 C   0  0  0  0  0  0  0  0  0  0  0  0
  150.1000  134.5657  155.2217 O   0  0  0  0  0  0  0  0  0  0  0  0
  148.8687  134.7765  154.5463 C   0  0  0  0  0  0  0  0  0  0  0  0
  148.3313  136.1796  154.8750 C   0  0  0  0  0  0  0  0  0  0  0  0
  151.7785  142.4879  158.5545 N   0  0  0  0  0  0  0  0  0  0  0  0
  153.0407  140.4772  159.8228 H   0  0  0  0  0  0  0  0  0  0  0  0
  154.3472  140.8135  160.9574 H   0  0  0  0  0  0  0  0  0  0  0  0
  154.4487  141.4176  159.3062 H   0  0  0  0  0  0  0  0  0  0  0  0
  152.1614  142.9796  162.3488 H   0  0  0  0  0  0  0  0  0  0  0  0
  153.6225  143.9063  161.9655 H   0  0  0  0  0  0  0  0  0  0  0  0
  153.7501  142.2420  162.5274 H   0  0  0  0  0  0  0  0  0  0  0  0
  152.5042  145.1607  160.4962 H   0  0  0  0  0  0  0  0  0  0  0  0
  151.0821  146.2257  158.6746 H   0  0  0  0  0  0  0  0  0  0  0  0
  149.7311  142.9224  156.0998 H   0  0  0  0  0  0  0  0  0  0  0  0
  149.2431  141.5702  154.7783 H   0  0  0  0  0  0  0  0  0  0  0  0
  149.9374  139.9603  153.2284 H   0  0  0  0  0  0  0  0  0  0  0  0
  150.9734  139.1926  154.3925 H   0  0  0  0  0  0  0  0  0  0  0  0
  147.7663  139.8492  156.1080 H   0  0  0  0  0  0  0  0  0  0  0  0
  149.1071  138.9640  156.7820 H   0  0  0  0  0  0  0  0  0  0  0  0
  147.6195  138.1208  156.3493 H   0  0  0  0  0  0  0  0  0  0  0  0
  147.1605  139.8359  153.8475 H   0  0  0  0  0  0  0  0  0  0  0  0
  146.9008  138.1041  153.7650 H   0  0  0  0  0  0  0  0  0  0  0  0
  147.9596  138.9095  152.6074 H   0  0  0  0  0  0  0  0  0  0  0  0
  151.4129  137.6075  154.8141 H   0  0  0  0  0  0  0  0  0  0  0  0
  150.5546  137.0254  156.2280 H   0  0  0  0  0  0  0  0  0  0  0  0
  151.2842  135.3889  153.7378 H   0  0  0  0  0  0  0  0  0  0  0  0
  152.0236  135.2672  155.3225 H   0  0  0  0  0  0  0  0  0  0  0  0
  149.0012  134.6510  153.4704 H   0  0  0  0  0  0  0  0  0  0  0  0
  148.1564  134.0170  154.8692 H   0  0  0  0  0  0  0  0  0  0  0  0
  148.1055  136.2363  155.9398 H   0  0  0  0  0  0  0  0  0  0  0  0
  147.3925  136.3062  154.3393 H   0  0  0  0  0  0  0  0  0  0  0  0
  150.2316  144.8946  156.9709 H   0  0  0  0  0  0  0  0  0  0  0  0
  149.4843  137.0904  153.5110 H   0  0  0  0  0  0  0  0  0  0  0  0
  1  2  1  0  0  0  0
  1 24  1  0  0  0  0
  1 25  1  0  0  0  0
  1 26  1  0  0  0  0
  2  3  1  0  0  0  0
  2  4  1  0  0  0  0
  3 27  1  0  0  0  0
  3 28  1  0  0  0  0
  3 29  1  0  0  0  0
  4 23  1  0  0  0  0
  4  5  2  0  0  0  0
  5  6  1  0  0  0  0
  5 30  1  0  0  0  0
  6  7  2  0  0  0  0
  6 31  1  0  0  0  0
  7  8  1  0  0  0  0
  7 50  1  0  0  0  0
  8  9  1  0  0  0  0
  8 23  2  0  0  0  0
  9 10  1  0  0  0  0
  9 32  1  0  0  0  0
 10 11  2  0  0  0  0
 10 12  1  0  0  0  0
 12 13  1  0  0  0  0
 12 33  1  0  0  0  0
 13 14  1  0  0  0  0
 13 34  1  0  0  0  0
 13 35  1  0  0  0  0
 14 15  1  0  0  0  0
 14 16  1  0  0  0  0
 14 17  1  0  0  0  0
 15 36  1  0  0  0  0
 15 37  1  0  0  0  0
 15 38  1  0  0  0  0
 16 39  1  0  0  0  0
 16 40  1  0  0  0  0
 16 41  1  0  0  0  0
 17 22  1  0  0  0  0
 17 18  1  0  0  0  0
 17 51  1  0  0  0  0
 18 19  1  0  0  0  0
 18 42  1  0  0  0  0
 18 43  1  0  0  0  0
 19 20  1  0  0  0  0
 19 44  1  0  0  0  0
 19 45  1  0  0  0  0
 20 21  1  0  0  0  0
 21 22  1  0  0  0  0
 21 46  1  0  0  0  0
 21 47  1  0  0  0  0
 22 48  1  0  0  0  0
 22 49  1  0  0  0  0
M  CHG  1   7   1
M  CHG  1  17   1
M  END
> <s_m_source_file>
AV-unprocessed.smi

> <i_m_source_file_index>
2819

> <i_lp_mmshare_version>
43012

> <i_f3d_flags>
0

> <s_epik_input>
W0NIM11OKFtDSDNdKWMxW2NIXVtjSF1uYyhuMSlbTkhdQyg9TylbTkhdW0NIMl1DKFtDSDNdKShbQ0gzXSlOMltDSDJdW0NIMl1PW0NIMl1bQ0gyXTI=

> <s_epik_cmdline>
J2VwaWtfcHl0aG9uJywgJy1waCcsICc3LjAnLCAnLXRuJywgJzgnLCAnLW1hJywgJzIwMCcsICctbWV0YWxfYmluZGluZycsICctaW1hZScsICc8aW5maWxlLm1hZT4nLCAnLW9tYWUnLCAnPG91dGZpbGUubWFlPic=

> <r_lp_tautomer_probability>
0.999336

> <r_epik_Ionization_Penalty>
0.713728

> <r_epik_Ionization_Penalty_Charging>
0.713701

> <r_epik_Ionization_Penalty_Neutral>
2.70516e-05

> <r_epik_State_Penalty>
0.725459

> <r_epik_Charging_Adjusted_Penalty>
1.43916

> <i_epik_Tot_Q>
2

> <i_epik_Tot_abs_Q>
2

> <r_epik_Metal_State_Penalty>
1.06371

> <b_epik_Metal_Only>
0

> <s_lp_Force_Field>
OPLS_2005

> <r_lp_Energy>
33.0145

> <b_lp_Chiralities_Consistent>
1

> <s_lp_Variant>
AV-unprocessed.smi:2819-2

> <Gold.Version>
5.8.1

> <Gold.Id.Protein>
6NUR|6NUR_protein|mol2

> <Gold.PLP.Fitness>
56.4745

> <Gold.PLP.PLP>
-44.6488

> <Gold.PLP.part.hbond>
-3.0000

> <Gold.PLP.part.metal>
0.0000

> <Gold.PLP.part.buried>
-5.9521

> <Gold.PLP.part.nonpolar>
-35.8780

> <Gold.PLP.part.repulsive>
0.3679

> <Gold.PLP.ligand.clash>
0.0000

> <Gold.PLP.ligand.torsion>
1.3218

> <Gold.PLP.Chemscore.Hbond>
4.7833

> <Gold.PLP.Chemscore.CHOScore>
0.0000

> <Gold.PLP.Chemscore.Metal>
0.0000

> <Gold.Chemscore.Hbonds>
donor molecule, donor type, donor heavy atom, donor atom, acceptor molecule, acceptor atom, score
      L1  H     7    50       P1  8028  1.95
      L1  H     9    32       P1  8028  0.94
      L1  H    17    51       P1  7948  1.98

> <Gold.PLP.Chemscore.Internal.Correction>
0.1196

> <Gold.Rescore>
     Score         DG    S(hbond)    S(metal)    S(lipo)     H(rot)  DE(clash)    DE(int)     intcor
     16.46     -19.38       2.52        0.00      81.27       1.57       0.37       2.56       ----

> <Gold.Chemscore.Fitness>
16.4584

> <Gold.Chemscore.DG>
-19.3796

> <Gold.Chemscore.ZeroCoef>
-5.4800

> <Gold.Chemscore.Hbond>
2.5189

> <Gold.Chemscore.Metal>
0.0000

> <Gold.Chemscore.Lipo>
81.2728

> <Gold.Chemscore.Internal_Hbond>
0.0000

> <Gold.Chemscore.DEClash>
0.3657

> <Gold.Chemscore.DEInternal>
2.5555

> <Gold.Chemscore.Rot>
1.5713

> <Gold.Chemscore.Internal.Correction>
   9.000000E+99

> <Gold.Chemscore.Hbonds>
donor molecule, donor type, donor heavy atom, donor atom, acceptor molecule, acceptor atom, score
      L1  H     7    50       P1  8028  0.32
      L1  H     9    32       P1  8028  0.84
      L1  H    17    51       P1  7948  0.85

> <Gold.Chemscore.Hbond.Weighted>
-8.4132

> <Gold.Chemscore.Metal.Weighted>
-0.0000

> <Gold.Chemscore.Lipo.Weighted>
-9.5089

> <Gold.Chemscore.Internal_Hbond.Weighted>
0.0000

> <Gold.Chemscore.DEClash.Weighted>
0.3657

> <Gold.Chemscore.DEInternal.Weighted>
2.5555

> <Gold.Chemscore.Rot.Weighted>
4.0225

> <Gold.Chemscore.Internal.Correction.Weighted>
   9.000000E+99

> <Gold.Protein.RotatedTorsions>
[ 6907 6896 6895 6894 ] final   35.23 input  -60.11 | X-H torsion
[ 7974 7965 7964 7962 ] final  -46.67 input  175.53 | X-H torsion
[ 8008 7997 7996 7995 ] final   16.69 input   59.86 | X-H torsion
[ 10167 10162 10161 10158 ] final  -88.17 input  -65.29 | X-H torsion
[ 10718 10713 10712 10709 ] final -176.99 input   66.30 | X-H torsion
[ 10763 10752 10751 10750 ] final  -53.40 input  -60.55 | X-H torsion
[ 11005 11000 10999 10996 ] final -126.04 input  -57.11 | X-H torsion

> <Gold.Protein.ActiveResidues>
 VAL166  LYS551  ARG553  GLY616  TRP617  ASP618  TYR619  PRO620  LYS621  CYS622 
 ASP623  PHE694  ASN695  SER759  ASP760  ASP761  ALA762  ILE779  LEU786  VAL792 
 PHE793  MET794  SER795  GLU796  ALA797  LYS798  CYS799  TRP800  GLU811  SER814 

> <Gold.Protein.RotatedAtoms>
  152.1132  134.9259  160.0565 H   0  0  0  0  0  0  0  0  0  0  0  0  # atno 6907 bound_to 6896
  152.0428  133.3980  159.4352 H   0  0  0  0  0  0  0  0  0  0  0  0  # atno 6908 bound_to 6896
  150.6844  134.3316  159.4873 H   0  0  0  0  0  0  0  0  0  0  0  0  # atno 6909 bound_to 6896
  145.9695  140.7397  142.9417 H   0  0  0  0  0  0  0  0  0  0  0  0  # atno 7974 bound_to 7965
  154.8806  140.2972  155.5428 H   0  0  0  0  0  0  0  0  0  0  0  0  # atno 8008 bound_to 7997
  156.3022  140.2443  156.3741 H   0  0  0  0  0  0  0  0  0  0  0  0  # atno 8009 bound_to 7997
  154.8721  140.0401  157.1720 H   0  0  0  0  0  0  0  0  0  0  0  0  # atno 8010 bound_to 7997
  140.3773  143.2765  151.9427 H   0  0  0  0  0  0  0  0  0  0  0  0  # atno 10167 bound_to 10162
  156.8228  130.9626  151.3111 H   0  0  0  0  0  0  0  0  0  0  0  0  # atno 10718 bound_to 10713
  154.1582  135.6479  153.4979 H   0  0  0  0  0  0  0  0  0  0  0  0  # atno 10763 bound_to 10752
  153.0118  135.5354  154.6738 H   0  0  0  0  0  0  0  0  0  0  0  0  # atno 10764 bound_to 10752
  154.6045  135.2947  155.0471 H   0  0  0  0  0  0  0  0  0  0  0  0  # atno 10765 bound_to 10752
  140.9713  134.0801  157.3866 H   0  0  0  0  0  0  0  0  0  0  0  0  # atno 11005 bound_to 11000
  144.6833  140.2725  143.7304 LP  0  0  0  0  0  0  0  0  0  0  0  0  # atno 17320 bound_to 7965
  145.7926  139.1933  143.2094 LP  0  0  0  0  0  0  0  0  0  0  0  0  # atno 17321 bound_to 7965
  139.4798  144.5851  151.7867 LP  0  0  0  0  0  0  0  0  0  0  0  0  # atno 17342 bound_to 10162
  140.4973  144.1222  150.5963 LP  0  0  0  0  0  0  0  0  0  0  0  0  # atno 17343 bound_to 10162
  157.6448  130.8835  149.9517 LP  0  0  0  0  0  0  0  0  0  0  0  0  # atno 17370 bound_to 10713
  156.0979  130.3658  150.0273 LP  0  0  0  0  0  0  0  0  0  0  0  0  # atno 17371 bound_to 10713
  139.8913  135.0118  156.6785 LP  0  0  0  0  0  0  0  0  0  0  0  0  # atno 17394 bound_to 11000
  140.7324  133.9047  155.8221 LP  0  0  0  0  0  0  0  0  0  0  0  0  # atno 17395 bound_to 11000

$$$$
