AV-unprocessed.smi:545|AV-procd|sdf|2881|dock5
  -GOLD-   2262023373D 1   1.00000     0.00000
 Structure written by MMmdl.
 36 37  0  0  0  0  0  0  0  0  1 V2000
  151.2114  138.6394  154.4877 C   0  0  0  0  0  0  0  0  0  0  0  0
  151.3863  139.9350  155.0317 O   0  0  0  0  0  0  0  0  0  0  0  0
  152.1242  139.9234  156.2426 C   0  0  0  0  0  0  0  0  0  0  0  0
  151.3985  140.7625  157.3037 C   0  0  0  0  0  0  0  0  0  0  0  0
  152.2389  141.0113  158.4755 N   0  0  0  0  0  0  0  0  0  0  0  0
  152.5625  142.1881  159.0922 C   0  0  0  0  0  0  0  0  0  0  0  0
  152.1274  143.4482  158.6577 N   0  0  0  0  0  0  0  0  0  0  0  0
  152.4895  144.6861  159.3368 C   0  0  0  0  0  0  0  0  0  0  0  0
  151.4332  143.7836  157.4207 C   0  0  0  0  0  0  0  0  0  0  0  0
  153.3105  142.0394  160.1908 N   0  0  0  0  0  0  0  0  0  0  0  0
  153.4911  140.6704  160.2805 C   0  0  0  0  0  0  0  0  0  0  0  0
  152.8468  140.0347  159.2707 C   0  0  0  0  0  0  0  0  0  0  0  0
  152.8331  138.5682  159.1520 C   0  0  0  0  0  0  0  0  0  0  0  0
  152.2369  137.9617  158.2648 O   0  0  0  0  0  0  0  0  0  0  0  0
  153.5375  137.9473  160.1288 N   0  0  0  0  0  0  0  0  0  0  0  0
  154.2136  138.5293  161.1651 C   0  0  0  0  0  0  0  0  0  0  0  0
  154.8075  137.8276  161.9839 O   0  0  0  0  0  0  0  0  0  0  0  0
  154.1955  139.8977  161.2475 N   0  0  0  0  0  0  0  0  0  0  0  0
  154.8969  140.5744  162.3401 C   0  0  0  0  0  0  0  0  0  0  0  0
  153.5610  136.9387  160.0911 H   0  0  0  0  0  0  0  0  0  0  0  0
  150.6420  138.7061  153.5608 H   0  0  0  0  0  0  0  0  0  0  0  0
  150.6619  137.9942  155.1746 H   0  0  0  0  0  0  0  0  0  0  0  0
  152.1714  138.1738  154.2610 H   0  0  0  0  0  0  0  0  0  0  0  0
  152.2424  138.8981  156.5970 H   0  0  0  0  0  0  0  0  0  0  0  0
  153.1234  140.3270  156.0734 H   0  0  0  0  0  0  0  0  0  0  0  0
  151.0867  141.7144  156.8777 H   0  0  0  0  0  0  0  0  0  0  0  0
  150.4662  140.2890  157.5877 H   0  0  0  0  0  0  0  0  0  0  0  0
  152.7414  144.4972  160.3807 H   0  0  0  0  0  0  0  0  0  0  0  0
  151.6652  145.4004  159.3248 H   0  0  0  0  0  0  0  0  0  0  0  0
  153.3543  145.1450  158.8565 H   0  0  0  0  0  0  0  0  0  0  0  0
  151.7158  143.0924  156.6266 H   0  0  0  0  0  0  0  0  0  0  0  0
  151.6818  144.7860  157.0687 H   0  0  0  0  0  0  0  0  0  0  0  0
  150.3535  143.7384  157.5647 H   0  0  0  0  0  0  0  0  0  0  0  0
  155.9433  140.2682  162.3759 H   0  0  0  0  0  0  0  0  0  0  0  0
  154.4359  140.3271  163.2971 H   0  0  0  0  0  0  0  0  0  0  0  0
  154.8831  141.6594  162.2390 H   0  0  0  0  0  0  0  0  0  0  0  0
  1  2  1  0  0  0  0
  1 21  1  0  0  0  0
  1 22  1  0  0  0  0
  1 23  1  0  0  0  0
  2  3  1  0  0  0  0
  3  4  1  0  0  0  0
  3 24  1  0  0  0  0
  3 25  1  0  0  0  0
  4  5  1  0  0  0  0
  4 26  1  0  0  0  0
  4 27  1  0  0  0  0
  5 12  1  0  0  0  0
  5  6  1  0  0  0  0
  6  7  1  0  0  0  0
  6 10  2  0  0  0  0
  7  8  1  0  0  0  0
  7  9  1  0  0  0  0
  8 28  1  0  0  0  0
  8 29  1  0  0  0  0
  8 30  1  0  0  0  0
  9 31  1  0  0  0  0
  9 32  1  0  0  0  0
  9 33  1  0  0  0  0
 10 11  1  0  0  0  0
 11 18  1  0  0  0  0
 11 12  2  0  0  0  0
 12 13  1  0  0  0  0
 13 14  2  0  0  0  0
 13 15  1  0  0  0  0
 15 20  1  0  0  0  0
 15 16  1  0  0  0  0
 16 17  2  0  0  0  0
 16 18  1  0  0  0  0
 18 19  1  0  0  0  0
 19 34  1  0  0  0  0
 19 35  1  0  0  0  0
 19 36  1  0  0  0  0
M  END
> <s_m_source_file>
AV-unprocessed.smi

> <i_m_source_file_index>
545

> <i_lp_mmshare_version>
43012

> <i_f3d_flags>
0

> <s_epik_input>
W0NIM11PW0NIMl1bQ0gyXW4oYyhuMSlOKFtDSDNdKVtDSDNdKWMoYzEyKWMoPU8pW25IXWMoPU8pbjJbQ0gzXQ==

> <s_epik_cmdline>
J2VwaWtfcHl0aG9uJywgJy1waCcsICc3LjAnLCAnLXRuJywgJzgnLCAnLW1hJywgJzIwMCcsICctbWV0YWxfYmluZGluZycsICctaW1hZScsICc8aW5maWxlLm1hZT4nLCAnLW9tYWUnLCAnPG91dGZpbGUubWFlPic=

> <r_lp_tautomer_probability>
1

> <r_epik_Ionization_Penalty>
6.48997e-05

> <r_epik_Ionization_Penalty_Charging>
1.66474e-05

> <r_epik_Ionization_Penalty_Neutral>
4.82523e-05

> <r_epik_State_Penalty>
-0

> <r_epik_Charging_Adjusted_Penalty>
1.66474e-05

> <i_epik_Tot_Q>
0

> <i_epik_Tot_abs_Q>
0

> <r_epik_Metal_State_Penalty>
0.0159702

> <b_epik_Metal_Only>
0

> <s_lp_Force_Field>
OPLS_2005

> <r_lp_Energy>
27.7728

> <b_lp_Chiralities_Consistent>
1

> <s_lp_Variant>
AV-unprocessed.smi:545-1

> <Gold.Version>
5.8.1

> <Gold.Id.Protein>
6NUR|6NUR_protein|mol2

> <Gold.PLP.Fitness>
39.3358

> <Gold.PLP.PLP>
-37.1432

> <Gold.PLP.part.hbond>
-1.0000

> <Gold.PLP.part.metal>
0.0000

> <Gold.PLP.part.buried>
-3.7110

> <Gold.PLP.part.nonpolar>
-31.9141

> <Gold.PLP.part.repulsive>
0.1034

> <Gold.PLP.ligand.clash>
0.0000

> <Gold.PLP.ligand.torsion>
0.4231

> <Gold.PLP.Chemscore.Hbond>
1.0000

> <Gold.PLP.Chemscore.CHOScore>
0.0000

> <Gold.PLP.Chemscore.Metal>
0.0000

> <Gold.Chemscore.Hbonds>
donor molecule, donor type, donor heavy atom, donor atom, acceptor molecule, acceptor atom, score
      P1  H  7989  7998       L1     2  1.00

> <Gold.PLP.Chemscore.Internal.Correction>
0.0389

> <Gold.Rescore>
     Score         DG    S(hbond)    S(metal)    S(lipo)     H(rot)  DE(clash)    DE(int)     intcor
      8.76     -11.58       0.87        0.00      61.67       1.57       0.07       2.75       ----

> <Gold.Chemscore.Fitness>
8.7637

> <Gold.Chemscore.DG>
-11.5815

> <Gold.Chemscore.ZeroCoef>
-5.4800

> <Gold.Chemscore.Hbond>
0.8702

> <Gold.Chemscore.Metal>
0.0000

> <Gold.Chemscore.Lipo>
61.6700

> <Gold.Chemscore.Internal_Hbond>
0.0000

> <Gold.Chemscore.DEClash>
0.0674

> <Gold.Chemscore.DEInternal>
2.7503

> <Gold.Chemscore.Rot>
1.5705

> <Gold.Chemscore.Internal.Correction>
   9.000000E+99

> <Gold.Chemscore.Hbonds>
donor molecule, donor type, donor heavy atom, donor atom, acceptor molecule, acceptor atom, score
      P1  H  7989  7998       L1     2  0.25

> <Gold.Chemscore.Hbond.Weighted>
-2.9066

> <Gold.Chemscore.Metal.Weighted>
-0.0000

> <Gold.Chemscore.Lipo.Weighted>
-7.2154

> <Gold.Chemscore.Internal_Hbond.Weighted>
0.0000

> <Gold.Chemscore.DEClash.Weighted>
0.0674

> <Gold.Chemscore.DEInternal.Weighted>
2.7503

> <Gold.Chemscore.Rot.Weighted>
4.0205

> <Gold.Chemscore.Internal.Correction.Weighted>
   9.000000E+99

> <Gold.Protein.RotatedTorsions>
[ 6907 6896 6895 6894 ] final -141.91 input  -60.11 | X-H torsion
[ 7974 7965 7964 7962 ] final -149.17 input  175.53 | X-H torsion
[ 8008 7997 7996 7995 ] final   82.09 input   59.86 | X-H torsion
[ 10167 10162 10161 10158 ] final  110.91 input  -65.29 | X-H torsion
[ 10718 10713 10712 10709 ] final    5.94 input   66.30 | X-H torsion
[ 10763 10752 10751 10750 ] final   42.50 input  -60.55 | X-H torsion
[ 11005 11000 10999 10996 ] final  125.09 input  -57.11 | X-H torsion

> <Gold.Protein.ActiveResidues>
 VAL166  LYS551  ARG553  GLY616  TRP617  ASP618  TYR619  PRO620  LYS621  CYS622 
 ASP623  PHE694  ASN695  SER759  ASP760  ASP761  ALA762  ILE779  LEU786  VAL792 
 PHE793  MET794  SER795  GLU796  ALA797  LYS798  CYS799  TRP800  GLU811  SER814 

> <Gold.Protein.RotatedAtoms>
  151.0800  133.5397  159.2621 H   0  0  0  0  0  0  0  0  0  0  0  0  # atno 6907 bound_to 6896
  151.2304  135.0552  159.8995 H   0  0  0  0  0  0  0  0  0  0  0  0  # atno 6908 bound_to 6896
  152.5422  134.0590  159.8197 H   0  0  0  0  0  0  0  0  0  0  0  0  # atno 6909 bound_to 6896
  144.7984  140.5100  143.5724 H   0  0  0  0  0  0  0  0  0  0  0  0  # atno 7974 bound_to 7965
  155.9060  140.3430  155.6062 H   0  0  0  0  0  0  0  0  0  0  0  0  # atno 8008 bound_to 7997
  155.7444  140.0812  157.2249 H   0  0  0  0  0  0  0  0  0  0  0  0  # atno 8009 bound_to 7997
  154.4049  140.1565  156.2640 H   0  0  0  0  0  0  0  0  0  0  0  0  # atno 8010 bound_to 7997
  139.6652  144.7127  151.1791 H   0  0  0  0  0  0  0  0  0  0  0  0  # atno 10167 bound_to 10162
  156.9149  130.5769  149.5647 H   0  0  0  0  0  0  0  0  0  0  0  0  # atno 10718 bound_to 10713
  152.9881  135.6130  154.2960 H   0  0  0  0  0  0  0  0  0  0  0  0  # atno 10763 bound_to 10752
  154.2682  135.2780  155.2751 H   0  0  0  0  0  0  0  0  0  0  0  0  # atno 10764 bound_to 10752
  154.5145  135.5832  153.6688 H   0  0  0  0  0  0  0  0  0  0  0  0  # atno 10765 bound_to 10752
  139.9390  134.9637  156.8507 H   0  0  0  0  0  0  0  0  0  0  0  0  # atno 11005 bound_to 11000
  145.5615  139.1479  143.3339 LP  0  0  0  0  0  0  0  0  0  0  0  0  # atno 17320 bound_to 7965
  146.2259  140.5750  142.8997 LP  0  0  0  0  0  0  0  0  0  0  0  0  # atno 17321 bound_to 7965
  140.7596  143.5931  150.8776 LP  0  0  0  0  0  0  0  0  0  0  0  0  # atno 17342 bound_to 10162
  139.9592  143.6183  152.3007 LP  0  0  0  0  0  0  0  0  0  0  0  0  # atno 17343 bound_to 10162
  156.0518  130.5586  150.9006 LP  0  0  0  0  0  0  0  0  0  0  0  0  # atno 17370 bound_to 10713
  157.5944  131.0943  150.9065 LP  0  0  0  0  0  0  0  0  0  0  0  0  # atno 17371 bound_to 10713
  140.6001  134.0180  155.7534 LP  0  0  0  0  0  0  0  0  0  0  0  0  # atno 17394 bound_to 11000
  141.1016  133.9759  157.3069 LP  0  0  0  0  0  0  0  0  0  0  0  0  # atno 17395 bound_to 11000

$$$$
