AV-unprocessed.smi:1189|AV-procd|sdf|4978|dock4
  -GOLD-   22720 3573D 1   1.00000     0.00000
 Structure written by MMmdl.
 33 34  0  0  0  0  0  0  0  0  1 V2000
  152.7416  139.3239  156.7416 O   0  0  0  0  0  0  0  0  0  0  0  0
  151.8483  140.1077  156.4162 C   0  0  0  0  0  0  0  0  0  0  0  0
  151.0935  139.9498  155.0901 C   0  0  0  0  0  0  0  0  0  0  0  0
  149.7558  140.5188  155.1244 N   0  0  0  0  0  0  0  0  0  0  0  0
  148.9951  140.9840  154.0730 C   0  0  0  0  0  0  0  0  0  0  0  0
  147.8126  141.4258  154.5925 C   0  0  0  0  0  0  0  0  0  0  0  0
  147.9388  141.1902  155.9926 C   0  0  0  0  0  0  0  0  0  0  0  0
  146.9396  141.4794  157.0820 C   0  0  0  0  0  0  0  0  0  0  0  0
  146.5890  140.3511  157.6994 F   0  0  0  0  0  0  0  0  0  0  0  0
  147.4712  142.3113  157.9776 F   0  0  0  0  0  0  0  0  0  0  0  0
  145.8475  142.0398  156.5620 F   0  0  0  0  0  0  0  0  0  0  0  0
  149.1076  140.6446  156.3025 N   0  0  0  0  0  0  0  0  0  0  0  0
  151.4734  141.1475  157.1768 N   0  0  0  0  0  0  0  0  0  0  0  0
  152.0502  141.4932  158.4716 C   0  0  0  0  0  0  0  0  0  0  0  0
  151.4981  142.8252  159.0139 C   0  0  2  0  0  0  0  0  0  0  0  0
  151.8860  144.0499  158.2084 C   0  0  0  0  0  0  0  0  0  0  0  0
  151.6354  145.1700  159.2117 C   0  0  0  0  0  0  0  0  0  0  0  0
  151.9552  144.6189  160.4851 O   0  0  0  0  0  0  0  0  0  0  0  0
  152.0274  143.1977  160.3999 C   0  0  0  0  0  0  0  0  0  0  0  0
  151.6613  140.4202  154.2857 H   0  0  0  0  0  0  0  0  0  0  0  0
  151.0117  138.8895  154.8485 H   0  0  0  0  0  0  0  0  0  0  0  0
  149.3545  140.9606  153.0547 H   0  0  0  0  0  0  0  0  0  0  0  0
  146.9807  141.8537  154.0532 H   0  0  0  0  0  0  0  0  0  0  0  0
  150.7326  141.7424  156.8345 H   0  0  0  0  0  0  0  0  0  0  0  0
  151.8681  140.6900  159.1876 H   0  0  0  0  0  0  0  0  0  0  0  0
  153.1321  141.5568  158.3510 H   0  0  0  0  0  0  0  0  0  0  0  0
  150.4087  142.7758  159.0651 H   0  0  0  0  0  0  0  0  0  0  0  0
  152.9434  144.0141  157.9422 H   0  0  0  0  0  0  0  0  0  0  0  0
  151.3046  144.1643  157.2930 H   0  0  0  0  0  0  0  0  0  0  0  0
  152.2261  146.0619  159.0013 H   0  0  0  0  0  0  0  0  0  0  0  0
  150.5816  145.4515  159.2101 H   0  0  0  0  0  0  0  0  0  0  0  0
  151.4596  142.7235  161.2009 H   0  0  0  0  0  0  0  0  0  0  0  0
  153.0722  142.9039  160.5094 H   0  0  0  0  0  0  0  0  0  0  0  0
  1  2  2  0  0  0  0
  2  3  1  0  0  0  0
  2 13  1  0  0  0  0
  3  4  1  0  0  0  0
  3 20  1  0  0  0  0
  3 21  1  0  0  0  0
  4 12  1  0  0  0  0
  4  5  1  0  0  0  0
  5  6  2  0  0  0  0
  5 22  1  0  0  0  0
  6  7  1  0  0  0  0
  6 23  1  0  0  0  0
  7  8  1  0  0  0  0
  7 12  2  0  0  0  0
  8  9  1  0  0  0  0
  8 10  1  0  0  0  0
  8 11  1  0  0  0  0
 13 14  1  0  0  0  0
 13 24  1  0  0  0  0
 14 15  1  0  0  0  0
 14 25  1  0  0  0  0
 14 26  1  0  0  0  0
 15 19  1  0  0  0  0
 15 16  1  0  0  0  0
 15 27  1  0  0  0  0
 16 17  1  0  0  0  0
 16 28  1  0  0  0  0
 16 29  1  0  0  0  0
 17 18  1  0  0  0  0
 17 30  1  0  0  0  0
 17 31  1  0  0  0  0
 18 19  1  0  0  0  0
 19 32  1  0  0  0  0
 19 33  1  0  0  0  0
M  END
> <s_m_source_file>
AV-unprocessed.smi

> <i_m_source_file_index>
1189

> <i_lp_mmshare_version>
43012

> <i_f3d_flags>
0

> <s_epik_input>
W0NIMl0xT1tDSDJdW0NIMl1bQ0BIXTFbQ0gyXVtOSF1DKD1PKVtDSDJdbjJbY0hdW2NIXWMobjIpQyhGKShGKUY=

> <s_epik_cmdline>
J2VwaWtfcHl0aG9uJywgJy1waCcsICc3LjAnLCAnLXRuJywgJzgnLCAnLW1hJywgJzIwMCcsICctbWV0YWxfYmluZGluZycsICctaW1hZScsICc8aW5maWxlLm1hZT4nLCAnLW9tYWUnLCAnPG91dGZpbGUubWFlPic=

> <r_lp_tautomer_probability>
1

> <r_epik_Ionization_Penalty>
1.26564e-07

> <r_epik_Ionization_Penalty_Charging>
0

> <r_epik_Ionization_Penalty_Neutral>
1.26564e-07

> <r_epik_State_Penalty>
-0

> <r_epik_Charging_Adjusted_Penalty>
0

> <i_epik_Tot_Q>
0

> <i_epik_Tot_abs_Q>
0

> <r_epik_Metal_State_Penalty>
-0

> <b_epik_Metal_Only>
0

> <s_lp_Force_Field>
OPLS_2005

> <r_lp_Energy>
21.601

> <b_lp_Chiralities_Consistent>
1

> <s_lp_Variant>
AV-unprocessed.smi:1189-1

> <Gold.Version>
5.8.1

> <Gold.Id.Protein>
6NUR|6NUR_protein|mol2

> <Gold.PLP.Fitness>
40.4792

> <Gold.PLP.PLP>
-35.9546

> <Gold.PLP.part.hbond>
-1.0000

> <Gold.PLP.part.metal>
0.0000

> <Gold.PLP.part.buried>
-0.0324

> <Gold.PLP.part.nonpolar>
-33.9165

> <Gold.PLP.part.repulsive>
0.2529

> <Gold.PLP.ligand.clash>
0.0000

> <Gold.PLP.ligand.torsion>
0.7455

> <Gold.PLP.Chemscore.Hbond>
1.0000

> <Gold.PLP.Chemscore.CHOScore>
1.0000

> <Gold.PLP.Chemscore.Metal>
0.0000

> <Gold.Chemscore.Hbonds>
donor molecule, donor type, donor heavy atom, donor atom, acceptor molecule, acceptor atom, score
      P1  H  7997  8010       L1     1  1.00
      L1  C     5    22       P1  7957  1.00

> <Gold.PLP.Chemscore.Internal.Correction>
0.0156

> <Gold.Rescore>
     Score         DG    S(hbond)    S(metal)    S(lipo)     H(rot)  DE(clash)    DE(int)     intcor
     12.61     -13.49       0.95        0.00      82.81       1.89       0.27       0.61       ----

> <Gold.Chemscore.Fitness>
12.6143

> <Gold.Chemscore.DG>
-13.4940

> <Gold.Chemscore.ZeroCoef>
-5.4800

> <Gold.Chemscore.Hbond>
0.9493

> <Gold.Chemscore.Metal>
0.0000

> <Gold.Chemscore.Lipo>
82.8109

> <Gold.Chemscore.Internal_Hbond>
0.0000

> <Gold.Chemscore.DEClash>
0.2731

> <Gold.Chemscore.DEInternal>
0.6066

> <Gold.Chemscore.Rot>
1.8928

> <Gold.Chemscore.Internal.Correction>
   9.000000E+99

> <Gold.Chemscore.Hbonds>
donor molecule, donor type, donor heavy atom, donor atom, acceptor molecule, acceptor atom, score
      P1  H  7997  8010       L1     1  0.78

> <Gold.Chemscore.Hbond.Weighted>
-3.1706

> <Gold.Chemscore.Metal.Weighted>
-0.0000

> <Gold.Chemscore.Lipo.Weighted>
-9.6889

> <Gold.Chemscore.Internal_Hbond.Weighted>
0.0000

> <Gold.Chemscore.DEClash.Weighted>
0.2731

> <Gold.Chemscore.DEInternal.Weighted>
0.6066

> <Gold.Chemscore.Rot.Weighted>
4.8455

> <Gold.Chemscore.Internal.Correction.Weighted>
   9.000000E+99

> <Gold.Protein.RotatedTorsions>
[ 6907 6896 6895 6894 ] final  -41.84 input  -60.11 | X-H torsion
[ 7974 7965 7964 7962 ] final    4.65 input  175.53 | X-H torsion
[ 8008 7997 7996 7995 ] final   65.47 input   59.86 | X-H torsion
[ 10167 10162 10161 10158 ] final -134.92 input  -65.29 | X-H torsion
[ 10718 10713 10712 10709 ] final   14.21 input   66.30 | X-H torsion
[ 10763 10752 10751 10750 ] final  -68.29 input  -60.55 | X-H torsion
[ 11005 11000 10999 10996 ] final  166.76 input  -57.11 | X-H torsion

> <Gold.Protein.ActiveResidues>
 VAL166  LYS551  ARG553  GLY616  TRP617  ASP618  TYR619  PRO620  LYS621  CYS622 
 ASP623  PHE694  ASN695  SER759  ASP760  ASP761  ALA762  ILE779  LEU786  VAL792 
 PHE793  MET794  SER795  GLU796  ALA797  LYS798  CYS799  TRP800  GLU811  SER814 

> <Gold.Protein.RotatedAtoms>
  150.9621  134.9007  159.7736 H   0  0  0  0  0  0  0  0  0  0  0  0  # atno 6907 bound_to 6896
  152.5160  134.3658  159.9311 H   0  0  0  0  0  0  0  0  0  0  0  0  # atno 6908 bound_to 6896
  151.3670  133.3828  159.2730 H   0  0  0  0  0  0  0  0  0  0  0  0  # atno 6909 bound_to 6896
  146.2443  140.0503  142.8375 H   0  0  0  0  0  0  0  0  0  0  0  0  # atno 7974 bound_to 7965
  155.6623  140.3497  155.4787 H   0  0  0  0  0  0  0  0  0  0  0  0  # atno 8008 bound_to 7997
  155.9758  140.1165  157.0794 H   0  0  0  0  0  0  0  0  0  0  0  0  # atno 8009 bound_to 7997
  154.4178  140.1148  156.5354 H   0  0  0  0  0  0  0  0  0  0  0  0  # atno 8010 bound_to 7997
  139.8831  143.6814  152.2624 H   0  0  0  0  0  0  0  0  0  0  0  0  # atno 10167 bound_to 10162
  157.0359  130.6211  149.5743 H   0  0  0  0  0  0  0  0  0  0  0  0  # atno 10718 bound_to 10713
  154.3868  135.6061  153.5821 H   0  0  0  0  0  0  0  0  0  0  0  0  # atno 10763 bound_to 10752
  152.9787  135.5874  154.4345 H   0  0  0  0  0  0  0  0  0  0  0  0  # atno 10764 bound_to 10752
  154.4123  135.2844  155.2007 H   0  0  0  0  0  0  0  0  0  0  0  0  # atno 10765 bound_to 10752
  140.2697  134.7836  157.3665 H   0  0  0  0  0  0  0  0  0  0  0  0  # atno 11005 bound_to 11000
  145.0991  140.9334  143.4723 LP  0  0  0  0  0  0  0  0  0  0  0  0  # atno 17320 bound_to 7965
  145.0692  139.3045  143.5841 LP  0  0  0  0  0  0  0  0  0  0  0  0  # atno 17321 bound_to 7965
  139.7177  144.7608  151.1006 LP  0  0  0  0  0  0  0  0  0  0  0  0  # atno 17342 bound_to 10162
  140.7741  143.5247  150.9494 LP  0  0  0  0  0  0  0  0  0  0  0  0  # atno 17343 bound_to 10162
  156.0054  130.5140  150.7811 LP  0  0  0  0  0  0  0  0  0  0  0  0  # atno 17370 bound_to 10713
  157.5142  131.0927  151.0160 LP  0  0  0  0  0  0  0  0  0  0  0  0  # atno 17371 bound_to 10713
  140.1384  134.5003  155.8050 LP  0  0  0  0  0  0  0  0  0  0  0  0  # atno 17394 bound_to 11000
  141.2179  133.6816  156.7167 LP  0  0  0  0  0  0  0  0  0  0  0  0  # atno 17395 bound_to 11000

$$$$
