AV-unprocessed.smi:1492|AV-procd|sdf|6038|dock4
  -GOLD-   22720 6143D 1   1.00000     0.00000
 Structure written by MMmdl.
 53 54  0  0  0  0  0  0  0  0  2 V2000
  148.3894  140.9323  154.1360 C   0  0  0  0  0  0  0  0  0  0  0  0
  149.3713  141.7803  154.9649 C   0  0  0  0  0  0  0  0  0  0  0  0
  149.2819  141.5962  156.5116 C   0  0  1  0  0  0  0  0  0  0  0  0
  147.7766  141.5218  156.8795 C   0  0  0  0  0  0  0  0  0  0  0  0
  149.9827  140.2595  156.9084 C   0  0  0  0  0  0  0  0  0  0  0  0
  149.0856  139.1053  156.9095 N   0  0  0  0  0  0  0  0  0  0  0  0
  148.8703  138.2781  157.9444 C   0  0  0  0  0  0  0  0  0  0  0  0
  149.4080  138.4087  159.0433 O   0  0  0  0  0  0  0  0  0  0  0  0
  147.8835  137.1360  157.7026 C   0  0  0  0  0  0  0  0  0  0  0  0
  147.7182  136.1557  158.8625 C   0  0  0  0  0  0  0  0  0  0  0  0
  148.1226  134.8533  158.7990 C   0  0  0  0  0  0  0  0  0  0  0  0
  148.7761  134.2529  157.5664 C   0  0  0  0  0  0  0  0  0  0  0  0
  147.9630  133.9808  159.8847 N   0  0  0  0  0  0  0  0  0  0  0  0
  147.4181  134.4288  160.9675 C   0  0  0  0  0  0  0  0  0  0  0  0
  147.1936  133.5915  162.2089 C   0  0  0  0  0  0  0  0  0  0  0  0
  146.9780  135.7451  161.0952 N   0  0  0  0  0  0  0  0  0  0  0  0
  147.0865  136.6533  160.1000 C   0  0  0  0  0  0  0  0  0  0  0  0
  146.6641  137.7986  160.2535 O   0  0  0  0  0  0  0  0  0  0  0  0
  149.9271  142.7644  157.2163 N   0  3  0  0  0  0  0  0  0  0  0  0
  149.6302  142.8963  158.6713 C   0  0  0  0  0  0  0  0  0  0  0  0
  150.1849  144.2226  159.2188 C   0  0  0  0  0  0  0  0  0  0  0  0
  151.5825  144.2978  158.9767 O   0  0  0  0  0  0  0  0  0  0  0  0
  151.8769  144.2641  157.5876 C   0  0  0  0  0  0  0  0  0  0  0  0
  151.3911  142.9333  156.9915 C   0  0  0  0  0  0  0  0  0  0  0  0
  146.5535  136.0373  161.9633 H   0  0  0  0  0  0  0  0  0  0  0  0
  148.5201  141.1321  153.0724 H   0  0  0  0  0  0  0  0  0  0  0  0
  147.3508  141.1543  154.3808 H   0  0  0  0  0  0  0  0  0  0  0  0
  148.5503  139.8650  154.2846 H   0  0  0  0  0  0  0  0  0  0  0  0
  150.3789  141.5365  154.6259 H   0  0  0  0  0  0  0  0  0  0  0  0
  149.2458  142.8290  154.6968 H   0  0  0  0  0  0  0  0  0  0  0  0
  147.2311  140.8492  156.2170 H   0  0  0  0  0  0  0  0  0  0  0  0
  147.2937  142.4969  156.8126 H   0  0  0  0  0  0  0  0  0  0  0  0
  147.6200  141.1462  157.8908 H   0  0  0  0  0  0  0  0  0  0  0  0
  150.7751  140.0196  156.2003 H   0  0  0  0  0  0  0  0  0  0  0  0
  150.4708  140.3464  157.8794 H   0  0  0  0  0  0  0  0  0  0  0  0
  148.5908  138.9149  156.0496 H   0  0  0  0  0  0  0  0  0  0  0  0
  146.9123  137.5672  157.4590 H   0  0  0  0  0  0  0  0  0  0  0  0
  148.1793  136.6050  156.7966 H   0  0  0  0  0  0  0  0  0  0  0  0
  148.1342  134.3708  156.6935 H   0  0  0  0  0  0  0  0  0  0  0  0
  148.9657  133.1869  157.6978 H   0  0  0  0  0  0  0  0  0  0  0  0
  149.7309  134.7386  157.3645 H   0  0  0  0  0  0  0  0  0  0  0  0
  148.1469  133.2303  162.5949 H   0  0  0  0  0  0  0  0  0  0  0  0
  146.5705  132.7286  161.9726 H   0  0  0  0  0  0  0  0  0  0  0  0
  146.7009  134.1626  162.9969 H   0  0  0  0  0  0  0  0  0  0  0  0
  148.5598  142.8829  158.8676 H   0  0  0  0  0  0  0  0  0  0  0  0
  150.0697  142.0660  159.2242 H   0  0  0  0  0  0  0  0  0  0  0  0
  149.6778  145.0748  158.7635 H   0  0  0  0  0  0  0  0  0  0  0  0
  150.0103  144.2866  160.2930 H   0  0  0  0  0  0  0  0  0  0  0  0
  151.4132  145.1122  157.0810 H   0  0  0  0  0  0  0  0  0  0  0  0
  152.9544  144.3639  157.4543 H   0  0  0  0  0  0  0  0  0  0  0  0
  151.9433  142.1143  157.4526 H   0  0  0  0  0  0  0  0  0  0  0  0
  151.6382  142.9312  155.9319 H   0  0  0  0  0  0  0  0  0  0  0  0
  149.5014  143.5758  156.7910 H   0  0  0  0  0  0  0  0  0  0  0  0
  1  2  1  0  0  0  0
  1 26  1  0  0  0  0
  1 27  1  0  0  0  0
  1 28  1  0  0  0  0
  2  3  1  0  0  0  0
  2 29  1  0  0  0  0
  2 30  1  0  0  0  0
  3  4  1  0  0  0  0
  3  5  1  0  0  0  0
  3 19  1  0  0  0  0
  4 31  1  0  0  0  0
  4 32  1  0  0  0  0
  4 33  1  0  0  0  0
  5  6  1  0  0  0  0
  5 34  1  0  0  0  0
  5 35  1  0  0  0  0
  6  7  1  0  0  0  0
  6 36  1  0  0  0  0
  7  8  2  0  0  0  0
  7  9  1  0  0  0  0
  9 10  1  0  0  0  0
  9 37  1  0  0  0  0
  9 38  1  0  0  0  0
 10 17  1  0  0  0  0
 10 11  2  0  0  0  0
 11 12  1  0  0  0  0
 11 13  1  0  0  0  0
 12 39  1  0  0  0  0
 12 40  1  0  0  0  0
 12 41  1  0  0  0  0
 13 14  2  0  0  0  0
 14 15  1  0  0  0  0
 14 16  1  0  0  0  0
 15 42  1  0  0  0  0
 15 43  1  0  0  0  0
 15 44  1  0  0  0  0
 16 25  1  0  0  0  0
 16 17  1  0  0  0  0
 17 18  2  0  0  0  0
 19 24  1  0  0  0  0
 19 20  1  0  0  0  0
 19 53  1  0  0  0  0
 20 21  1  0  0  0  0
 20 45  1  0  0  0  0
 20 46  1  0  0  0  0
 21 22  1  0  0  0  0
 21 47  1  0  0  0  0
 21 48  1  0  0  0  0
 22 23  1  0  0  0  0
 23 24  1  0  0  0  0
 23 49  1  0  0  0  0
 23 50  1  0  0  0  0
 24 51  1  0  0  0  0
 24 52  1  0  0  0  0
M  CHG  1  19   1
M  END
> <s_m_source_file>
AV-unprocessed.smi

> <i_m_source_file_index>
1492

> <i_lp_mmshare_version>
43012

> <i_f3d_flags>
0

> <s_epik_input>
W0NIMl0xW0NIMl1PW0NIMl1bQ0gyXU4xW0NAQF0oW0NIM10pKFtDSDJdW0NIM10pW0NIMl1bTkhdQyg9TylbQ0gyXWMyYyhbQ0gzXSluYyhbQ0gzXSlbbkhdYzI9Tw==

> <s_epik_cmdline>
J2VwaWtfcHl0aG9uJywgJy1waCcsICc3LjAnLCAnLXRuJywgJzgnLCAnLW1hJywgJzIwMCcsICctbWV0YWxfYmluZGluZycsICctaW1hZScsICc8aW5maWxlLm1hZT4nLCAnLW9tYWUnLCAnPG91dGZpbGUubWFlPic=

> <r_lp_tautomer_probability>
0.839158

> <r_epik_Ionization_Penalty>
0.506959

> <r_epik_Ionization_Penalty_Charging>
0.506936

> <r_epik_Ionization_Penalty_Neutral>
2.27768e-05

> <r_epik_State_Penalty>
0.6046

> <r_epik_Charging_Adjusted_Penalty>
1.11154

> <i_epik_Tot_Q>
1

> <i_epik_Tot_abs_Q>
1

> <r_epik_Metal_State_Penalty>
0.783136

> <b_epik_Metal_Only>
0

> <s_lp_Force_Field>
OPLS_2005

> <r_lp_Energy>
29.8272

> <b_lp_Chiralities_Consistent>
1

> <s_lp_Variant>
AV-unprocessed.smi:1492-3

> <Gold.Version>
5.8.1

> <Gold.Id.Protein>
6NUR|6NUR_protein|mol2

> <Gold.PLP.Fitness>
39.0900

> <Gold.PLP.PLP>
-32.1111

> <Gold.PLP.part.hbond>
-3.6316

> <Gold.PLP.part.metal>
0.0000

> <Gold.PLP.part.buried>
-4.3292

> <Gold.PLP.part.nonpolar>
-24.9032

> <Gold.PLP.part.repulsive>
0.1813

> <Gold.PLP.ligand.clash>
0.0585

> <Gold.PLP.ligand.torsion>
1.0577

> <Gold.PLP.Chemscore.Hbond>
3.0000

> <Gold.PLP.Chemscore.CHOScore>
0.0000

> <Gold.PLP.Chemscore.Metal>
0.0000

> <Gold.Chemscore.Hbonds>
donor molecule, donor type, donor heavy atom, donor atom, acceptor molecule, acceptor atom, score
      L1  H    19    53       P1  8028  2.00
      P1  H  6934  6947       L1    18  0.88

> <Gold.PLP.Chemscore.Internal.Correction>
0.1527

> <Gold.Rescore>
     Score         DG    S(hbond)    S(metal)    S(lipo)     H(rot)  DE(clash)    DE(int)     intcor
     14.52     -15.81       1.98        0.00      79.75       2.19       0.06       1.22       ----

> <Gold.Chemscore.Fitness>
14.5237

> <Gold.Chemscore.DG>
-15.8067

> <Gold.Chemscore.ZeroCoef>
-5.4800

> <Gold.Chemscore.Hbond>
1.9788

> <Gold.Chemscore.Metal>
0.0000

> <Gold.Chemscore.Lipo>
79.7464

> <Gold.Chemscore.Internal_Hbond>
0.0000

> <Gold.Chemscore.DEClash>
0.0612

> <Gold.Chemscore.DEInternal>
1.2219

> <Gold.Chemscore.Rot>
2.1926

> <Gold.Chemscore.Internal.Correction>
   9.000000E+99

> <Gold.Chemscore.Hbonds>
donor molecule, donor type, donor heavy atom, donor atom, acceptor molecule, acceptor atom, score
      L1  H    19    53       P1  8028  0.98
      P1  H  6934  6947       L1    18  0.85

> <Gold.Chemscore.Hbond.Weighted>
-6.6093

> <Gold.Chemscore.Metal.Weighted>
-0.0000

> <Gold.Chemscore.Lipo.Weighted>
-9.3303

> <Gold.Chemscore.Internal_Hbond.Weighted>
0.0000

> <Gold.Chemscore.DEClash.Weighted>
0.0612

> <Gold.Chemscore.DEInternal.Weighted>
1.2219

> <Gold.Chemscore.Rot.Weighted>
5.6129

> <Gold.Chemscore.Internal.Correction.Weighted>
   9.000000E+99

> <Gold.Protein.RotatedTorsions>
[ 6907 6896 6895 6894 ] final -151.00 input  -60.11 | X-H torsion
[ 7974 7965 7964 7962 ] final  -74.44 input  175.53 | X-H torsion
[ 8008 7997 7996 7995 ] final   90.83 input   59.86 | X-H torsion
[ 10167 10162 10161 10158 ] final -147.02 input  -65.29 | X-H torsion
[ 10718 10713 10712 10709 ] final  163.65 input   66.30 | X-H torsion
[ 10763 10752 10751 10750 ] final  -14.81 input  -60.55 | X-H torsion
[ 11005 11000 10999 10996 ] final   -0.02 input  -57.11 | X-H torsion

> <Gold.Protein.ActiveResidues>
 VAL166  LYS551  ARG553  GLY616  TRP617  ASP618  TYR619  PRO620  LYS621  CYS622 
 ASP623  PHE694  ASN695  SER759  ASP760  ASP761  ALA762  ILE779  LEU786  VAL792 
 PHE793  MET794  SER795  GLU796  ALA797  LYS798  CYS799  TRP800  GLU811  SER814 

> <Gold.Protein.RotatedAtoms>
  151.2067  133.4579  159.2597 H   0  0  0  0  0  0  0  0  0  0  0  0  # atno 6907 bound_to 6896
  151.1016  134.9975  159.8461 H   0  0  0  0  0  0  0  0  0  0  0  0  # atno 6908 bound_to 6896
  152.5444  134.1994  159.8759 H   0  0  0  0  0  0  0  0  0  0  0  0  # atno 6909 bound_to 6896
  145.6390  140.9316  143.1046 H   0  0  0  0  0  0  0  0  0  0  0  0  # atno 7974 bound_to 7965
  156.0166  140.3345  155.6996 H   0  0  0  0  0  0  0  0  0  0  0  0  # atno 8008 bound_to 7997
  155.6082  140.0662  157.2731 H   0  0  0  0  0  0  0  0  0  0  0  0  # atno 8009 bound_to 7997
  154.4300  140.1798  156.1232 H   0  0  0  0  0  0  0  0  0  0  0  0  # atno 8010 bound_to 7997
  139.7660  143.8307  152.2616 H   0  0  0  0  0  0  0  0  0  0  0  0  # atno 10167 bound_to 10162
  157.1055  131.0454  151.2479 H   0  0  0  0  0  0  0  0  0  0  0  0  # atno 10718 bound_to 10713
  153.5339  135.7014  153.5669 H   0  0  0  0  0  0  0  0  0  0  0  0  # atno 10763 bound_to 10752
  153.3665  135.3956  155.1757 H   0  0  0  0  0  0  0  0  0  0  0  0  # atno 10764 bound_to 10752
  154.8681  135.3801  154.4838 H   0  0  0  0  0  0  0  0  0  0  0  0  # atno 10765 bound_to 10752
  140.6316  133.9569  155.8278 H   0  0  0  0  0  0  0  0  0  0  0  0  # atno 11005 bound_to 11000
  144.7164  139.8181  143.7397 LP  0  0  0  0  0  0  0  0  0  0  0  0  # atno 17320 bound_to 7965
  146.1296  139.4329  143.0177 LP  0  0  0  0  0  0  0  0  0  0  0  0  # atno 17321 bound_to 7965
  139.8327  144.7246  150.9430 LP  0  0  0  0  0  0  0  0  0  0  0  0  # atno 17342 bound_to 10162
  140.7811  143.4055  151.1078 LP  0  0  0  0  0  0  0  0  0  0  0  0  # atno 17343 bound_to 10162
  157.4604  130.7650  149.7230 LP  0  0  0  0  0  0  0  0  0  0  0  0  # atno 17370 bound_to 10713
  155.9863  130.3976  150.3220 LP  0  0  0  0  0  0  0  0  0  0  0  0  # atno 17371 bound_to 10713
  141.0671  134.0261  157.3579 LP  0  0  0  0  0  0  0  0  0  0  0  0  # atno 17394 bound_to 11000
  139.9114  135.0190  156.7705 LP  0  0  0  0  0  0  0  0  0  0  0  0  # atno 17395 bound_to 11000

$$$$
