#       Name:                AV-unprocessed.smi:589
#       Creating user name   scv26
#       Creation time:       Thu Mar 26 23:51:29 2020


#       File generated by GOLD software.
#

@<TRIPOS>MOLECULE
AV-unprocessed.smi:589
    46    47     1
SMALL
NO_CHARGES


@<TRIPOS>ATOM
      1 ****        -3.5166   2.5878  -0.1224 C.3            1 S1                 0.0000
      2 ****        -2.7879   1.2628  -0.0447 C.ar           1 S1                 0.0000
      3 ****        -3.4944   0.0508   0.0553 C.ar           1 S1                 0.0000
      4 ****        -2.7697  -1.1564   0.1243 C.ar           1 S1                 0.0000
      5 ****        -3.5489  -2.4623   0.1880 C.3            1 S1                 0.0000
      6 ****        -1.3466  -1.1043   0.1079 C.ar           1 S1                 0.0000
      7 ****        -0.5104  -2.3584   0.1769 C.2            1 S1                 0.0000
      8 ****        -0.7199  -3.1441   1.2371 N.am           1 S1                 0.0000
      9 ****         0.3349  -2.6144  -0.6786 O.2            1 S1                 0.0000
     10 ****        -0.7323   0.1762  -0.0131 C.ar           1 S1                 0.0000
     11 ****         0.6666   0.3095  -0.0363 N.3            1 S1                 0.0000
     12 ****         1.2022   0.9459  -1.2306 C.3            1 S1                 0.0000
     13 ****         2.7347   0.8076  -1.2471 C.3            1 S1                 0.0000
     14 ****         3.3648   1.5501  -2.4297 C.3            1 S1                 0.0000
     15 ****         3.2731   1.3515  -0.0406 O.3            1 S1                 0.0000
     16 ****         2.7682   0.7647   1.1633 C.3            1 S1                 0.0000
     17 ****         3.3032  -0.6621   1.3801 C.3            1 S1                 0.0000
     18 ****         1.2292   0.8516   1.1921 C.3            1 S1                 0.0000
     19 ****        -1.4433   1.3267  -0.0812 N.ar           1 S1                 0.0000
     20 ****        -4.5973   2.4453  -0.1440 H              1 S1                 0.0000
     21 ****        -3.2271   3.1277  -1.0244 H              1 S1                 0.0000
     22 ****        -3.2717   3.2053   0.7421 H              1 S1                 0.0000
     23 ****        -4.5746   0.0476   0.0696 H              1 S1                 0.0000
     24 ****        -3.1510  -3.1908  -0.5190 H              1 S1                 0.0000
     25 ****        -4.5989  -2.3066  -0.0622 H              1 S1                 0.0000
     26 ****        -3.5048  -2.8864   1.1913 H              1 S1                 0.0000
     27 ****        -0.1952  -4.0002   1.3418 H              1 S1                 0.0000
     28 ****        -1.4061  -2.8785   1.9284 H              1 S1                 0.0000
     29 ****         0.7716   0.4822  -2.1189 H              1 S1                 0.0000
     30 ****         0.9201   1.9998  -1.2443 H              1 S1                 0.0000
     31 ****         3.0052  -0.2456  -1.3274 H              1 S1                 0.0000
     32 ****         2.9947   1.1610  -3.3785 H              1 S1                 0.0000
     33 ****         4.4494   1.4391  -2.4257 H              1 S1                 0.0000
     34 ****         3.1384   2.6160  -2.3929 H              1 S1                 0.0000
     35 ****         3.1509   1.3733   1.9829 H              1 S1                 0.0000
     36 ****         3.0065  -1.0400   2.3586 H              1 S1                 0.0000
     37 ****         4.3922  -0.6802   1.3353 H              1 S1                 0.0000
     38 ****         2.9252  -1.3636   0.6367 H              1 S1                 0.0000
     39 ****         0.9232   1.8939   1.2931 H              1 S1                 0.0000
     40 ****         0.8329   0.3172   2.0564 H              1 S1                 0.0000
     41 ****         0.4804  -1.9849  -1.4419 LP             1 S1                 0.0000
     42 ****         0.8769  -3.4521  -0.6111 LP             1 S1                 0.0000
     43 ****         0.9856  -0.6368  -0.0889 LP             1 S1                 0.0000
     44 ****         3.0647   2.3293  -0.0207 LP             1 S1                 0.0000
     45 ****         4.2646   1.2223  -0.0570 LP             1 S1                 0.0000
     46 ****        -0.9778   2.2085  -0.1573 LP             1 S1                 0.0000
@<TRIPOS>BOND
    1    1    2 1     
    2    1   20 1     
    3    1   21 1     
    4    1   22 1     
    5    2   19 ar    
    6    2    3 ar    
    7    3    4 ar    
    8    3   23 1     
    9    4    5 1     
   10    4    6 ar    
   11    5   24 1     
   12    5   25 1     
   13    5   26 1     
   14    6    7 1     
   15    6   10 ar    
   16    7    8 am    
   17    7    9 2     
   18    8   27 1     
   19    8   28 1     
   20   10   11 1     
   21   10   19 ar    
   22   11   18 1     
   23   11   12 1     
   24   12   13 1     
   25   12   29 1     
   26   12   30 1     
   27   13   14 1     
   28   13   15 1     
   29   13   31 1     
   30   14   32 1     
   31   14   33 1     
   32   14   34 1     
   33   15   16 1     
   34   16   17 1     
   35   16   18 1     
   36   16   35 1     
   37   17   36 1     
   38   17   37 1     
   39   17   38 1     
   40   18   39 1     
   41   18   40 1     
   42    9   41 1     
   43    9   42 1     
   44   11   43 1     
   45   15   44 1     
   46   15   45 1     
   47   19   46 1     
@<TRIPOS>SUBSTRUCTURE
      1 S1             1
@<TRIPOS>SET
LONE_PAIRS      STATIC     ATOMS    <user>   **** ""
6 41 42 43 44 45 46
DONOR_HYDROGENS      STATIC     ATOMS    <user>   **** ""
2 27 28
ATOM$BLUE        STATIC     ATOMS    COLORGROUP SYSTEM
6 41 42 43 44 45 46
ATOM$RED        STATIC     ATOMS    COLORGROUP SYSTEM
2 27 28
