AV-unprocessed.smi:1108|AV-procd|sdf|4788|dock1
  -GOLD-   22720 3333D 1   1.00000     0.00000
 Structure written by MMmdl.
 31 32  0  0  0  0  0  0  0  0  1 V2000
  143.5578  136.1106  152.6525 C   0  0  0  0  0  0  0  0  0  0  0  0
  145.0450  136.4819  152.5733 C   0  0  1  0  0  0  0  0  0  0  0  0
  145.6397  136.1220  151.1944 C   0  0  0  0  0  0  0  0  0  0  0  0
  145.5612  134.7020  150.9005 N   0  0  0  0  0  0  0  0  0  0  0  0
  144.4641  133.9699  150.4978 C   0  0  0  0  0  0  0  0  0  0  0  0
  144.8773  132.6799  150.3269 C   0  0  0  0  0  0  0  0  0  0  0  0
  146.2602  132.7215  150.6596 C   0  0  0  0  0  0  0  0  0  0  0  0
  146.6656  133.9320  151.0077 N   0  0  0  0  0  0  0  0  0  0  0  0
  145.1929  137.9112  152.8473 N   0  0  0  0  0  0  0  0  0  0  0  0
  146.1513  138.4669  153.6037 C   0  0  0  0  0  0  0  0  0  0  0  0
  147.0280  137.8300  154.1877 O   0  0  0  0  0  0  0  0  0  0  0  0
  146.0474  139.8020  153.6323 N   0  0  0  0  0  0  0  0  0  0  0  0
  146.9294  140.6831  154.3270 C   0  0  0  0  0  0  0  0  0  0  0  0
  146.7830  142.1679  154.0734 C   0  0  0  0  0  0  0  0  0  0  0  0
  147.9655  141.4270  153.5128 C   0  0  0  0  0  0  0  0  0  0  0  0
  143.4115  135.0428  152.4863 H   0  0  0  0  0  0  0  0  0  0  0  0
  142.9726  136.6466  151.9045 H   0  0  0  0  0  0  0  0  0  0  0  0
  143.1451  136.3490  153.6333 H   0  0  0  0  0  0  0  0  0  0  0  0
  145.5614  135.9021  153.3408 H   0  0  0  0  0  0  0  0  0  0  0  0
  145.1098  136.6576  150.4054 H   0  0  0  0  0  0  0  0  0  0  0  0
  146.6833  136.4343  151.1344 H   0  0  0  0  0  0  0  0  0  0  0  0
  143.4941  134.4246  150.3606 H   0  0  0  0  0  0  0  0  0  0  0  0
  144.2827  131.8357  150.0111 H   0  0  0  0  0  0  0  0  0  0  0  0
  146.9768  131.9134  150.6594 H   0  0  0  0  0  0  0  0  0  0  0  0
  144.5197  138.5253  152.4132 H   0  0  0  0  0  0  0  0  0  0  0  0
  145.2910  140.2298  153.1188 H   0  0  0  0  0  0  0  0  0  0  0  0
  147.2271  140.3993  155.3353 H   0  0  0  0  0  0  0  0  0  0  0  0
  146.0159  142.4925  153.3727 H   0  0  0  0  0  0  0  0  0  0  0  0
  146.9613  142.8388  154.9114 H   0  0  0  0  0  0  0  0  0  0  0  0
  148.9344  141.6020  153.9762 H   0  0  0  0  0  0  0  0  0  0  0  0
  147.9882  141.2551  152.4383 H   0  0  0  0  0  0  0  0  0  0  0  0
  1  2  1  0  0  0  0
  1 16  1  0  0  0  0
  1 17  1  0  0  0  0
  1 18  1  0  0  0  0
  2  3  1  0  0  0  0
  2  9  1  0  0  0  0
  2 19  1  0  0  0  0
  3  4  1  0  0  0  0
  3 20  1  0  0  0  0
  3 21  1  0  0  0  0
  4  8  1  0  0  0  0
  4  5  1  0  0  0  0
  5  6  2  0  0  0  0
  5 22  1  0  0  0  0
  6  7  1  0  0  0  0
  6 23  1  0  0  0  0
  7  8  2  0  0  0  0
  7 24  1  0  0  0  0
  9 10  1  0  0  0  0
  9 25  1  0  0  0  0
 10 11  2  0  0  0  0
 10 12  1  0  0  0  0
 12 13  1  0  0  0  0
 12 26  1  0  0  0  0
 13 15  1  0  0  0  0
 13 14  1  0  0  0  0
 13 27  1  0  0  0  0
 14 15  1  0  0  0  0
 14 28  1  0  0  0  0
 14 29  1  0  0  0  0
 15 30  1  0  0  0  0
 15 31  1  0  0  0  0
M  END
> <s_m_source_file>
AV-unprocessed.smi

> <i_m_source_file_index>
1108

> <i_lp_mmshare_version>
43012

> <i_f3d_flags>
0

> <s_epik_input>
W0NIMl0xW0NIMl1bQ0hdMVtOSF1DKD1PKVtOSF1bQ0BIXShbQ0gzXSlbQ0gyXW4yW2NIXVtjSF1bY0hdbjI=

> <s_epik_cmdline>
J2VwaWtfcHl0aG9uJywgJy1waCcsICc3LjAnLCAnLXRuJywgJzgnLCAnLW1hJywgJzIwMCcsICctbWV0YWxfYmluZGluZycsICctaW1hZScsICc8aW5maWxlLm1hZT4nLCAnLW9tYWUnLCAnPG91dGZpbGUubWFlPic=

> <r_lp_tautomer_probability>
1

> <r_epik_Ionization_Penalty>
7.55353e-05

> <r_epik_Ionization_Penalty_Charging>
0

> <r_epik_Ionization_Penalty_Neutral>
7.55353e-05

> <r_epik_State_Penalty>
-0

> <r_epik_Charging_Adjusted_Penalty>
0

> <i_epik_Tot_Q>
0

> <i_epik_Tot_abs_Q>
0

> <r_epik_Metal_State_Penalty>
-0

> <b_epik_Metal_Only>
0

> <s_lp_Force_Field>
OPLS_2005

> <r_lp_Energy>
13.7301

> <b_lp_Chiralities_Consistent>
1

> <s_lp_Variant>
AV-unprocessed.smi:1108-2

> <Gold.Version>
5.8.1

> <Gold.Id.Protein>
6NUR|6NUR_protein|mol2

> <Gold.PLP.Fitness>
38.4032

> <Gold.PLP.PLP>
-28.1457

> <Gold.PLP.part.hbond>
-2.3127

> <Gold.PLP.part.metal>
0.0000

> <Gold.PLP.part.buried>
-4.5318

> <Gold.PLP.part.nonpolar>
-22.2733

> <Gold.PLP.part.repulsive>
0.3160

> <Gold.PLP.ligand.clash>
0.0000

> <Gold.PLP.ligand.torsion>
0.6576

> <Gold.PLP.Chemscore.Hbond>
1.8320

> <Gold.PLP.Chemscore.CHOScore>
2.0000

> <Gold.PLP.Chemscore.Metal>
0.0000

> <Gold.Chemscore.Hbonds>
donor molecule, donor type, donor heavy atom, donor atom, acceptor molecule, acceptor atom, score
      L1  H     9    25       P1 10175  0.76
      L1  H    12    26       P1 10175  1.00
      L1  C     5    22       P1 10186  0.80
      L1  C     7    24       P1 10747  1.00

> <Gold.PLP.Chemscore.Internal.Correction>
0.0767

> <Gold.Rescore>
     Score         DG    S(hbond)    S(metal)    S(lipo)     H(rot)  DE(clash)    DE(int)     intcor
     14.10     -14.69       1.96        0.00      60.04       1.71       0.08       0.51       ----

> <Gold.Chemscore.Fitness>
14.1003

> <Gold.Chemscore.DG>
-14.6870

> <Gold.Chemscore.ZeroCoef>
-5.4800

> <Gold.Chemscore.Hbond>
1.9622

> <Gold.Chemscore.Metal>
0.0000

> <Gold.Chemscore.Lipo>
60.0383

> <Gold.Chemscore.Internal_Hbond>
0.0000

> <Gold.Chemscore.DEClash>
0.0776

> <Gold.Chemscore.DEInternal>
0.5090

> <Gold.Chemscore.Rot>
1.7075

> <Gold.Chemscore.Internal.Correction>
   9.000000E+99

> <Gold.Chemscore.Hbonds>
donor molecule, donor type, donor heavy atom, donor atom, acceptor molecule, acceptor atom, score
      L1  H     9    25       P1 10175  0.71
      L1  H    12    26       P1 10175  0.99

> <Gold.Chemscore.Hbond.Weighted>
-6.5538

> <Gold.Chemscore.Metal.Weighted>
-0.0000

> <Gold.Chemscore.Lipo.Weighted>
-7.0245

> <Gold.Chemscore.Internal_Hbond.Weighted>
0.0000

> <Gold.Chemscore.DEClash.Weighted>
0.0776

> <Gold.Chemscore.DEInternal.Weighted>
0.5090

> <Gold.Chemscore.Rot.Weighted>
4.3713

> <Gold.Chemscore.Internal.Correction.Weighted>
   9.000000E+99

> <Gold.Protein.RotatedTorsions>
[ 6907 6896 6895 6894 ] final  -78.26 input  -60.11 | X-H torsion
[ 7974 7965 7964 7962 ] final   71.38 input  175.53 | X-H torsion
[ 8008 7997 7996 7995 ] final   -5.86 input   59.86 | X-H torsion
[ 10167 10162 10161 10158 ] final    0.89 input  -65.29 | X-H torsion
[ 10718 10713 10712 10709 ] final -147.34 input   66.30 | X-H torsion
[ 10763 10752 10751 10750 ] final  143.19 input  -60.55 | X-H torsion
[ 11005 11000 10999 10996 ] final  137.18 input  -57.11 | X-H torsion

> <Gold.Protein.ActiveResidues>
 VAL166  LYS551  ARG553  GLY616  TRP617  ASP618  TYR619  PRO620  LYS621  CYS622 
 ASP623  PHE694  ASN695  SER759  ASP760  ASP761  ALA762  ILE779  LEU786  VAL792 
 PHE793  MET794  SER795  GLU796  ALA797  LYS798  CYS799  TRP800  GLU811  SER814 

> <Gold.Protein.RotatedAtoms>
  150.6977  134.4298  159.5242 H   0  0  0  0  0  0  0  0  0  0  0  0  # atno 6907 bound_to 6896
  152.2027  134.8571  160.0515 H   0  0  0  0  0  0  0  0  0  0  0  0  # atno 6908 bound_to 6896
  151.9485  133.3624  159.4028 H   0  0  0  0  0  0  0  0  0  0  0  0  # atno 6909 bound_to 6896
  145.7665  139.2824  143.1346 H   0  0  0  0  0  0  0  0  0  0  0  0  # atno 7974 bound_to 7965
  154.5996  140.2448  155.7810 H   0  0  0  0  0  0  0  0  0  0  0  0  # atno 8008 bound_to 7997
  156.2302  140.2969  156.0122 H   0  0  0  0  0  0  0  0  0  0  0  0  # atno 8009 bound_to 7997
  155.2233  140.0401  157.2942 H   0  0  0  0  0  0  0  0  0  0  0  0  # atno 8010 bound_to 7997
  140.6708  143.7054  150.7919 H   0  0  0  0  0  0  0  0  0  0  0  0  # atno 10167 bound_to 10162
  156.4063  130.7959  151.2173 H   0  0  0  0  0  0  0  0  0  0  0  0  # atno 10718 bound_to 10713
  153.9682  135.2953  155.3429 H   0  0  0  0  0  0  0  0  0  0  0  0  # atno 10763 bound_to 10752
  154.7337  135.5056  153.9009 H   0  0  0  0  0  0  0  0  0  0  0  0  # atno 10764 bound_to 10752
  153.0913  135.6708  153.9960 H   0  0  0  0  0  0  0  0  0  0  0  0  # atno 10765 bound_to 10752
  140.0096  134.9444  157.0250 H   0  0  0  0  0  0  0  0  0  0  0  0  # atno 11005 bound_to 11000
  146.0212  140.8346  142.9922 LP  0  0  0  0  0  0  0  0  0  0  0  0  # atno 17320 bound_to 7965
  144.6820  140.2631  143.7316 LP  0  0  0  0  0  0  0  0  0  0  0  0  # atno 17321 bound_to 7965
  140.0739  143.5034  152.2565 LP  0  0  0  0  0  0  0  0  0  0  0  0  # atno 17342 bound_to 10162
  139.5975  144.7572  151.3250 LP  0  0  0  0  0  0  0  0  0  0  0  0  # atno 17343 bound_to 10162
  157.7505  131.0271  150.3992 LP  0  0  0  0  0  0  0  0  0  0  0  0  # atno 17370 bound_to 10713
  156.4282  130.3966  149.6778 LP  0  0  0  0  0  0  0  0  0  0  0  0  # atno 17371 bound_to 10713
  140.4578  134.1515  155.7188 LP  0  0  0  0  0  0  0  0  0  0  0  0  # atno 17394 bound_to 11000
  141.1702  133.8624  157.1595 LP  0  0  0  0  0  0  0  0  0  0  0  0  # atno 17395 bound_to 11000

$$$$
