AV-unprocessed.smi:3240|AV-procd|sdf|12382|dock5
  -GOLD-   2272018243D 1   1.00000     0.00000
 Structure written by MMmdl.
 44 45  0  0  0  0  0  0  0  0  2 V2000
  144.0619  133.4385  150.3563 C   0  0  0  0  0  0  0  0  0  0  0  0
  144.3783  134.7351  151.0445 C   0  0  0  0  0  0  0  0  0  0  0  0
  143.6667  135.3582  152.1087 C   0  0  0  0  0  0  0  0  0  0  0  0
  144.2106  136.5031  152.4890 N   0  0  0  0  0  0  0  0  0  0  0  0
  145.2833  136.6517  151.6838 N   0  0  0  0  0  0  0  0  0  0  0  0
  146.1372  137.8177  151.8177 C   0  0  0  0  0  0  0  0  0  0  0  0
  146.6012  138.0430  153.2781 C   0  0  1  0  0  0  0  0  0  0  0  0
  146.5844  136.7307  154.0751 C   0  0  0  0  0  0  0  0  0  0  0  0
  147.9592  138.6292  153.3359 N   0  3  0  0  0  0  0  0  0  0  0  0
  148.3479  139.2075  154.6410 C   0  0  0  0  0  0  0  0  0  0  0  0
  149.4109  140.3233  154.4957 C   0  0  0  0  0  0  0  0  0  0  0  0
  149.1801  140.9580  153.2519 O   0  0  0  0  0  0  0  0  0  0  0  0
  149.3356  141.3953  155.6112 C   0  0  0  0  0  0  0  0  0  0  0  0
  149.7974  140.8545  156.9761 C   0  0  0  0  0  0  0  0  0  0  0  0
  151.2156  140.2687  156.8913 C   0  0  0  0  0  0  0  0  0  0  0  0
  151.3161  139.1949  155.7968 C   0  0  0  0  0  0  0  0  0  0  0  0
  150.8409  139.7360  154.4357 C   0  0  0  0  0  0  0  0  0  0  0  0
  145.4090  135.5984  150.8032 C   0  0  0  0  0  0  0  0  0  0  0  0
  143.2073  132.9356  150.8095 H   0  0  0  0  0  0  0  0  0  0  0  0
  144.9020  132.7449  150.3994 H   0  0  0  0  0  0  0  0  0  0  0  0
  143.8228  133.5906  149.3038 H   0  0  0  0  0  0  0  0  0  0  0  0
  142.7756  135.0142  152.6129 H   0  0  0  0  0  0  0  0  0  0  0  0
  146.9939  137.6726  151.1579 H   0  0  0  0  0  0  0  0  0  0  0  0
  145.6101  138.6884  151.4232 H   0  0  0  0  0  0  0  0  0  0  0  0
  145.9205  138.7302  153.7848 H   0  0  0  0  0  0  0  0  0  0  0  0
  145.5839  136.2971  154.0948 H   0  0  0  0  0  0  0  0  0  0  0  0
  146.8904  136.8934  155.1091 H   0  0  0  0  0  0  0  0  0  0  0  0
  147.2589  135.9918  153.6406 H   0  0  0  0  0  0  0  0  0  0  0  0
  148.6230  137.8957  153.1312 H   0  0  0  0  0  0  0  0  0  0  0  0
  147.4597  139.6021  155.1289 H   0  0  0  0  0  0  0  0  0  0  0  0
  148.7277  138.4099  155.2813 H   0  0  0  0  0  0  0  0  0  0  0  0
  149.2152  140.3043  152.5695 H   0  0  0  0  0  0  0  0  0  0  0  0
  149.9730  142.2396  155.3439 H   0  0  0  0  0  0  0  0  0  0  0  0
  148.3279  141.8029  155.6962 H   0  0  0  0  0  0  0  0  0  0  0  0
  149.7749  141.6552  157.7162 H   0  0  0  0  0  0  0  0  0  0  0  0
  149.1035  140.0926  157.3323 H   0  0  0  0  0  0  0  0  0  0  0  0
  151.9270  141.0686  156.6812 H   0  0  0  0  0  0  0  0  0  0  0  0
  151.5026  139.8463  157.8548 H   0  0  0  0  0  0  0  0  0  0  0  0
  152.3470  138.8489  155.7151 H   0  0  0  0  0  0  0  0  0  0  0  0
  150.7278  138.3222  156.0811 H   0  0  0  0  0  0  0  0  0  0  0  0
  150.8984  138.9470  153.6847 H   0  0  0  0  0  0  0  0  0  0  0  0
  151.5397  140.5095  154.1121 H   0  0  0  0  0  0  0  0  0  0  0  0
  146.2134  135.5504  150.0837 H   0  0  0  0  0  0  0  0  0  0  0  0
  148.0398  139.3399  152.6232 H   0  0  0  0  0  0  0  0  0  0  0  0
  1  2  1  0  0  0  0
  1 19  1  0  0  0  0
  1 20  1  0  0  0  0
  1 21  1  0  0  0  0
  2 18  2  0  0  0  0
  2  3  1  0  0  0  0
  3  4  2  0  0  0  0
  3 22  1  0  0  0  0
  4  5  1  0  0  0  0
  5  6  1  0  0  0  0
  5 18  1  0  0  0  0
  6  7  1  0  0  0  0
  6 23  1  0  0  0  0
  6 24  1  0  0  0  0
  7  8  1  0  0  0  0
  7  9  1  0  0  0  0
  7 25  1  0  0  0  0
  8 26  1  0  0  0  0
  8 27  1  0  0  0  0
  8 28  1  0  0  0  0
  9 10  1  0  0  0  0
  9 29  1  0  0  0  0
  9 44  1  0  0  0  0
 10 11  1  0  0  0  0
 10 30  1  0  0  0  0
 10 31  1  0  0  0  0
 11 17  1  0  0  0  0
 11 12  1  0  0  0  0
 11 13  1  0  0  0  0
 12 32  1  0  0  0  0
 13 14  1  0  0  0  0
 13 33  1  0  0  0  0
 13 34  1  0  0  0  0
 14 15  1  0  0  0  0
 14 35  1  0  0  0  0
 14 36  1  0  0  0  0
 15 16  1  0  0  0  0
 15 37  1  0  0  0  0
 15 38  1  0  0  0  0
 16 17  1  0  0  0  0
 16 39  1  0  0  0  0
 16 40  1  0  0  0  0
 17 41  1  0  0  0  0
 17 42  1  0  0  0  0
 18 43  1  0  0  0  0
M  CHG  1   9   1
M  END
> <s_m_source_file>
AV-unprocessed.smi

> <i_m_source_file_index>
3240

> <i_lp_mmshare_version>
43012

> <i_f3d_flags>
0

> <s_epik_input>
W0NIM11jMVtjSF1ubihbY0hdMSlbQ0gyXVtDQEhdKFtDSDNdKVtOSF1bQ0gyXUMyKFtPSF0pW0NIMl1bQ0gyXVtDSDJdW0NIMl1bQ0gyXTI=

> <s_epik_cmdline>
J2VwaWtfcHl0aG9uJywgJy1waCcsICc3LjAnLCAnLXRuJywgJzgnLCAnLW1hJywgJzIwMCcsICctbWV0YWxfYmluZGluZycsICctaW1hZScsICc8aW5maWxlLm1hZT4nLCAnLW9tYWUnLCAnPG91dGZpbGUubWFlPic=

> <r_lp_tautomer_probability>
1

> <r_epik_Ionization_Penalty>
0.0111573

> <r_epik_Ionization_Penalty_Charging>
0.0111472

> <r_epik_Ionization_Penalty_Neutral>
1.01652e-05

> <r_epik_State_Penalty>
0.00856328

> <r_epik_Charging_Adjusted_Penalty>
0.0197104

> <i_epik_Tot_Q>
1

> <i_epik_Tot_abs_Q>
1

> <r_epik_Metal_State_Penalty>
0.00856448

> <b_epik_Metal_Only>
0

> <s_lp_Force_Field>
OPLS_2005

> <r_lp_Energy>
18.8853

> <b_lp_Chiralities_Consistent>
1

> <s_lp_Variant>
AV-unprocessed.smi:3240-2

> <Gold.Version>
5.8.1

> <Gold.Id.Protein>
6NUR|6NUR_protein|mol2

> <Gold.PLP.Fitness>
42.8322

> <Gold.PLP.PLP>
-30.9959

> <Gold.PLP.part.hbond>
-4.2050

> <Gold.PLP.part.metal>
0.0000

> <Gold.PLP.part.buried>
1.9878

> <Gold.PLP.part.nonpolar>
-28.9067

> <Gold.PLP.part.repulsive>
0.1805

> <Gold.PLP.ligand.clash>
0.0000

> <Gold.PLP.ligand.torsion>
1.2566

> <Gold.PLP.Chemscore.Hbond>
3.7893

> <Gold.PLP.Chemscore.CHOScore>
0.9828

> <Gold.PLP.Chemscore.Metal>
0.0000

> <Gold.Chemscore.Hbonds>
donor molecule, donor type, donor heavy atom, donor atom, acceptor molecule, acceptor atom, score
      L1  H     9    29       P1  7948  1.43
      L1  H     9    44       P1  7957  0.35
      L1  H    12    32       P1  7957  0.79
      P1  H  8011  8017       L1    12  1.00
      L1  C    18    43       P1  7921  0.96

> <Gold.PLP.Chemscore.Internal.Correction>
0.0331

> <Gold.Rescore>
     Score         DG    S(hbond)    S(metal)    S(lipo)     H(rot)  DE(clash)    DE(int)     intcor
     14.41     -18.37       2.61        0.00      81.98       2.12       1.70       2.26       ----

> <Gold.Chemscore.Fitness>
14.4091

> <Gold.Chemscore.DG>
-18.3739

> <Gold.Chemscore.ZeroCoef>
-5.4800

> <Gold.Chemscore.Hbond>
2.6132

> <Gold.Chemscore.Metal>
0.0000

> <Gold.Chemscore.Lipo>
81.9751

> <Gold.Chemscore.Internal_Hbond>
0.0000

> <Gold.Chemscore.DEClash>
1.7001

> <Gold.Chemscore.DEInternal>
2.2647

> <Gold.Chemscore.Rot>
2.1193

> <Gold.Chemscore.Internal.Correction>
   9.000000E+99

> <Gold.Chemscore.Hbonds>
donor molecule, donor type, donor heavy atom, donor atom, acceptor molecule, acceptor atom, score
      L1  H     9    29       P1  7948  0.68
      L1  H     9    44       P1  7957  0.35
      L1  H    12    32       P1  7957  0.74
      P1  H  8011  8017       L1    12  0.25

> <Gold.Chemscore.Hbond.Weighted>
-8.7281

> <Gold.Chemscore.Metal.Weighted>
-0.0000

> <Gold.Chemscore.Lipo.Weighted>
-9.5911

> <Gold.Chemscore.Internal_Hbond.Weighted>
0.0000

> <Gold.Chemscore.DEClash.Weighted>
1.7001

> <Gold.Chemscore.DEInternal.Weighted>
2.2647

> <Gold.Chemscore.Rot.Weighted>
5.4254

> <Gold.Chemscore.Internal.Correction.Weighted>
   9.000000E+99

> <Gold.Protein.RotatedTorsions>
[ 6907 6896 6895 6894 ] final  -87.14 input  -60.11 | X-H torsion
[ 7974 7965 7964 7962 ] final   -4.45 input  175.53 | X-H torsion
[ 8008 7997 7996 7995 ] final  165.95 input   59.86 | X-H torsion
[ 10167 10162 10161 10158 ] final  -16.39 input  -65.29 | X-H torsion
[ 10718 10713 10712 10709 ] final -157.36 input   66.30 | X-H torsion
[ 10763 10752 10751 10750 ] final   47.33 input  -60.55 | X-H torsion
[ 11005 11000 10999 10996 ] final    7.99 input  -57.11 | X-H torsion

> <Gold.Protein.ActiveResidues>
 VAL166  LYS551  ARG553  GLY616  TRP617  ASP618  TYR619  PRO620  LYS621  CYS622 
 ASP623  PHE694  ASN695  SER759  ASP760  ASP761  ALA762  ILE779  LEU786  VAL792 
 PHE793  MET794  SER795  GLU796  ALA797  LYS798  CYS799  TRP800  GLU811  SER814 

> <Gold.Protein.RotatedAtoms>
  150.6866  134.2942  159.4678 H   0  0  0  0  0  0  0  0  0  0  0  0  # atno 6907 bound_to 6896
  152.0844  134.9447  160.0582 H   0  0  0  0  0  0  0  0  0  0  0  0  # atno 6908 bound_to 6896
  152.0787  133.4107  159.4528 H   0  0  0  0  0  0  0  0  0  0  0  0  # atno 6909 bound_to 6896
  146.2372  140.1873  142.8332 H   0  0  0  0  0  0  0  0  0  0  0  0  # atno 7974 bound_to 7965
  156.1758  140.1656  156.8364 H   0  0  0  0  0  0  0  0  0  0  0  0  # atno 8008 bound_to 7997
  154.5306  140.0758  156.8371 H   0  0  0  0  0  0  0  0  0  0  0  0  # atno 8009 bound_to 7997
  155.3415  140.3385  155.4241 H   0  0  0  0  0  0  0  0  0  0  0  0  # atno 8010 bound_to 7997
  140.7233  143.5121  150.9737 H   0  0  0  0  0  0  0  0  0  0  0  0  # atno 10167 bound_to 10162
  156.5393  130.8556  151.2743 H   0  0  0  0  0  0  0  0  0  0  0  0  # atno 10718 bound_to 10713
  152.9801  135.5980  154.3745 H   0  0  0  0  0  0  0  0  0  0  0  0  # atno 10763 bound_to 10752
  154.3415  135.2767  155.2422 H   0  0  0  0  0  0  0  0  0  0  0  0  # atno 10764 bound_to 10752
  154.4501  135.5992  153.6241 H   0  0  0  0  0  0  0  0  0  0  0  0  # atno 10765 bound_to 10752
  140.5420  134.0365  155.7907 H   0  0  0  0  0  0  0  0  0  0  0  0  # atno 11005 bound_to 11000
  144.9886  140.8526  143.5353 LP  0  0  0  0  0  0  0  0  0  0  0  0  # atno 17320 bound_to 7965
  145.1876  139.2318  143.5260 LP  0  0  0  0  0  0  0  0  0  0  0  0  # atno 17321 bound_to 7965
  139.8835  143.7042  152.3154 LP  0  0  0  0  0  0  0  0  0  0  0  0  # atno 17342 bound_to 10162
  139.7333  144.7577  151.0768 LP  0  0  0  0  0  0  0  0  0  0  0  0  # atno 17343 bound_to 10162
  157.7408  130.9857  150.2403 LP  0  0  0  0  0  0  0  0  0  0  0  0  # atno 17370 bound_to 10713
  156.2987  130.3755  149.7771 LP  0  0  0  0  0  0  0  0  0  0  0  0  # atno 17371 bound_to 10713
  141.1221  133.9443  157.2708 LP  0  0  0  0  0  0  0  0  0  0  0  0  # atno 17394 bound_to 11000
  139.9499  135.0177  156.8962 LP  0  0  0  0  0  0  0  0  0  0  0  0  # atno 17395 bound_to 11000

$$$$
