AV-unprocessed.smi:835|AV-procd|sdf|3888|dock8
  -GOLD-   22720 1343D 1   1.00000     0.00000
 Structure written by MMmdl.
 41 43  0  0  0  0  0  0  0  0  2 V2000
  150.7483  139.6503  154.5132 C   0  0  0  0  0  0  0  0  0  0  0  0
  149.3105  139.8235  154.1213 C   0  0  0  0  0  0  0  0  0  0  0  0
  148.3904  138.8216  153.6954 C   0  0  0  0  0  0  0  0  0  0  0  0
  147.2462  139.5383  153.4739 C   0  0  0  0  0  0  0  0  0  0  0  0
  146.0309  139.1001  153.0495 N   0  0  0  0  0  0  0  0  0  0  0  0
  145.6367  137.8418  152.7871 C   0  0  0  0  0  0  0  0  0  0  0  0
  146.3393  136.8358  152.8864 O   0  0  0  0  0  0  0  0  0  0  0  0
  144.3560  137.8059  152.3925 N   0  0  0  0  0  0  0  0  0  0  0  0
  143.6343  136.5889  152.0358 C   0  0  2  0  0  0  0  0  0  0  0  0
  143.6493  135.5043  153.1164 C   0  0  0  0  0  0  0  0  0  0  0  0
  143.5653  134.1809  152.3366 C   0  0  0  0  0  0  0  0  0  0  0  0
  143.7086  134.5189  150.9012 N   0  3  2  0  0  0  0  0  0  0  0  0
  144.4605  133.5211  150.1116 C   0  0  0  0  0  0  0  0  0  0  0  0
  144.1489  132.0929  150.4902 C   0  0  0  0  0  0  0  0  0  0  0  0
  145.4512  132.7271  150.9289 C   0  0  0  0  0  0  0  0  0  0  0  0
  144.2683  135.8803  150.8432 C   0  0  0  0  0  0  0  0  0  0  0  0
  147.4906  140.8644  153.7542 N   0  0  0  0  0  0  0  0  0  0  0  0
  146.5973  142.0034  153.6707 C   0  0  0  0  0  0  0  0  0  0  0  0
  148.7695  141.0361  154.1528 N   0  0  0  0  0  0  0  0  0  0  0  0
  151.0126  138.5949  154.5844 H   0  0  0  0  0  0  0  0  0  0  0  0
  150.9512  140.1079  155.4818 H   0  0  0  0  0  0  0  0  0  0  0  0
  151.4118  140.1099  153.7804 H   0  0  0  0  0  0  0  0  0  0  0  0
  148.5635  137.7625  153.5793 H   0  0  0  0  0  0  0  0  0  0  0  0
  145.3374  139.8217  152.9183 H   0  0  0  0  0  0  0  0  0  0  0  0
  143.8479  138.6767  152.3372 H   0  0  0  0  0  0  0  0  0  0  0  0
  142.6002  136.8350  151.7850 H   0  0  0  0  0  0  0  0  0  0  0  0
  144.5845  135.5374  153.6774 H   0  0  0  0  0  0  0  0  0  0  0  0
  142.8322  135.6214  153.8292 H   0  0  0  0  0  0  0  0  0  0  0  0
  144.3539  133.5019  152.6645 H   0  0  0  0  0  0  0  0  0  0  0  0
  142.6098  133.6802  152.4955 H   0  0  0  0  0  0  0  0  0  0  0  0
  144.6818  133.7843  149.0784 H   0  0  0  0  0  0  0  0  0  0  0  0
  143.3941  131.9146  151.2542 H   0  0  0  0  0  0  0  0  0  0  0  0
  144.2005  131.3423  149.7040 H   0  0  0  0  0  0  0  0  0  0  0  0
  146.3598  132.3934  150.4313 H   0  0  0  0  0  0  0  0  0  0  0  0
  145.5621  132.9710  151.9839 H   0  0  0  0  0  0  0  0  0  0  0  0
  144.0403  136.3678  149.8948 H   0  0  0  0  0  0  0  0  0  0  0  0
  145.3537  135.8379  150.9543 H   0  0  0  0  0  0  0  0  0  0  0  0
  146.3387  142.1891  152.6283 H   0  0  0  0  0  0  0  0  0  0  0  0
  147.0718  142.8948  154.0830 H   0  0  0  0  0  0  0  0  0  0  0  0
  145.6866  141.7978  154.2334 H   0  0  0  0  0  0  0  0  0  0  0  0
  142.7737  134.5751  150.5228 H   0  0  0  0  0  0  0  0  0  0  0  0
  1  2  1  0  0  0  0
  1 20  1  0  0  0  0
  1 21  1  0  0  0  0
  1 22  1  0  0  0  0
  2 19  2  0  0  0  0
  2  3  1  0  0  0  0
  3  4  2  0  0  0  0
  3 23  1  0  0  0  0
  4  5  1  0  0  0  0
  4 17  1  0  0  0  0
  5  6  1  0  0  0  0
  5 24  1  0  0  0  0
  6  7  2  0  0  0  0
  6  8  1  0  0  0  0
  8  9  1  0  0  0  0
  8 25  1  0  0  0  0
  9 16  1  0  0  0  0
  9 10  1  0  0  0  0
  9 26  1  0  0  0  0
 10 11  1  0  0  0  0
 10 27  1  0  0  0  0
 10 28  1  0  0  0  0
 11 12  1  0  0  0  0
 11 29  1  0  0  0  0
 11 30  1  0  0  0  0
 12 13  1  0  0  0  0
 12 16  1  0  0  0  0
 12 41  1  0  0  0  0
 13 15  1  0  0  0  0
 13 14  1  0  0  0  0
 13 31  1  0  0  0  0
 14 15  1  0  0  0  0
 14 32  1  0  0  0  0
 14 33  1  0  0  0  0
 15 34  1  0  0  0  0
 15 35  1  0  0  0  0
 16 36  1  0  0  0  0
 16 37  1  0  0  0  0
 17 18  1  0  0  0  0
 17 19  1  0  0  0  0
 18 38  1  0  0  0  0
 18 39  1  0  0  0  0
 18 40  1  0  0  0  0
M  CHG  1  12   1
M  END
> <s_m_source_file>
AV-unprocessed.smi

> <i_m_source_file_index>
835

> <i_lp_mmshare_version>
43012

> <i_f3d_flags>
0

> <s_epik_input>
W0NIM11jMVtjSF1jKG4objEpW0NIM10pW05IXUMoPU8pW05IXVtDQEBIXTJbQ0gyXVtDSDJdTihbQ0gyXTIpW0NIXTNbQ0gyXVtDSDJdMw==

> <s_epik_cmdline>
J2VwaWtfcHl0aG9uJywgJy1waCcsICc3LjAnLCAnLXRuJywgJzgnLCAnLW1hJywgJzIwMCcsICctbWV0YWxfYmluZGluZycsICctaW1hZScsICc8aW5maWxlLm1hZT4nLCAnLW9tYWUnLCAnPG91dGZpbGUubWFlPic=

> <r_lp_tautomer_probability>
1

> <r_epik_Ionization_Penalty>
0.000700689

> <r_epik_Ionization_Penalty_Charging>
0.000627528

> <r_epik_Ionization_Penalty_Neutral>
7.31611e-05

> <r_epik_State_Penalty>
0.00039643

> <r_epik_Charging_Adjusted_Penalty>
0.00102396

> <i_epik_Tot_Q>
1

> <i_epik_Tot_abs_Q>
1

> <r_epik_Metal_State_Penalty>
-0

> <b_epik_Metal_Only>
0

> <s_lp_Force_Field>
OPLS_2005

> <r_lp_Energy>
38.0167

> <b_lp_Chiralities_Consistent>
1

> <s_lp_Variant>
AV-unprocessed.smi:835-3

> <Gold.Version>
5.8.1

> <Gold.Id.Protein>
6NUR|6NUR_protein|mol2

> <Gold.PLP.Fitness>
45.3661

> <Gold.PLP.PLP>
-33.4113

> <Gold.PLP.part.hbond>
-3.9992

> <Gold.PLP.part.metal>
0.0000

> <Gold.PLP.part.buried>
-2.8886

> <Gold.PLP.part.nonpolar>
-27.8176

> <Gold.PLP.part.repulsive>
1.2168

> <Gold.PLP.ligand.clash>
0.0000

> <Gold.PLP.ligand.torsion>
0.6546

> <Gold.PLP.Chemscore.Hbond>
4.0000

> <Gold.PLP.Chemscore.CHOScore>
0.0000

> <Gold.PLP.Chemscore.Metal>
0.0000

> <Gold.Chemscore.Hbonds>
donor molecule, donor type, donor heavy atom, donor atom, acceptor molecule, acceptor atom, score
      L1  H     5    24       P1 10175  1.00
      L1  H     8    25       P1 10175  1.00
      L1  H    12    41       P1 10186  2.00

> <Gold.PLP.Chemscore.Internal.Correction>
1.2641

> <Gold.Rescore>
     Score         DG    S(hbond)    S(metal)    S(lipo)     H(rot)  DE(clash)    DE(int)     intcor
     16.00     -19.28       2.57        0.00      71.25       1.22       0.30       2.98       ----

> <Gold.Chemscore.Fitness>
16.0003

> <Gold.Chemscore.DG>
-19.2769

> <Gold.Chemscore.ZeroCoef>
-5.4800

> <Gold.Chemscore.Hbond>
2.5698

> <Gold.Chemscore.Metal>
0.0000

> <Gold.Chemscore.Lipo>
71.2475

> <Gold.Chemscore.Internal_Hbond>
0.0000

> <Gold.Chemscore.DEClash>
0.2953

> <Gold.Chemscore.DEInternal>
2.9813

> <Gold.Chemscore.Rot>
1.2196

> <Gold.Chemscore.Internal.Correction>
   9.000000E+99

> <Gold.Chemscore.Hbonds>
donor molecule, donor type, donor heavy atom, donor atom, acceptor molecule, acceptor atom, score
      L1  H     5    24       P1 10175  0.98
      L1  H     8    25       P1 10175  0.99
      L1  H    12    41       P1 10186  0.33

> <Gold.Chemscore.Hbond.Weighted>
-8.5833

> <Gold.Chemscore.Metal.Weighted>
-0.0000

> <Gold.Chemscore.Lipo.Weighted>
-8.3360

> <Gold.Chemscore.Internal_Hbond.Weighted>
0.0000

> <Gold.Chemscore.DEClash.Weighted>
0.2953

> <Gold.Chemscore.DEInternal.Weighted>
2.9813

> <Gold.Chemscore.Rot.Weighted>
3.1223

> <Gold.Chemscore.Internal.Correction.Weighted>
   9.000000E+99

> <Gold.Protein.RotatedTorsions>
[ 6907 6896 6895 6894 ] final  -26.24 input  -60.11 | X-H torsion
[ 7974 7965 7964 7962 ] final -119.16 input  175.53 | X-H torsion
[ 8008 7997 7996 7995 ] final   73.60 input   59.86 | X-H torsion
[ 10167 10162 10161 10158 ] final  126.42 input  -65.29 | X-H torsion
[ 10718 10713 10712 10709 ] final  -44.36 input   66.30 | X-H torsion
[ 10763 10752 10751 10750 ] final   38.68 input  -60.55 | X-H torsion
[ 11005 11000 10999 10996 ] final  176.72 input  -57.11 | X-H torsion

> <Gold.Protein.ActiveResidues>
 VAL166  LYS551  ARG553  GLY616  TRP617  ASP618  TYR619  PRO620  LYS621  CYS622 
 ASP623  PHE694  ASN695  SER759  ASP760  ASP761  ALA762  ILE779  LEU786  VAL792 
 PHE793  MET794  SER795  GLU796  ALA797  LYS798  CYS799  TRP800  GLU811  SER814 

> <Gold.Protein.RotatedAtoms>
  151.1638  135.0286  159.8721 H   0  0  0  0  0  0  0  0  0  0  0  0  # atno 6907 bound_to 6896
  152.5451  134.1249  159.8425 H   0  0  0  0  0  0  0  0  0  0  0  0  # atno 6908 bound_to 6896
  151.1347  133.4966  159.2631 H   0  0  0  0  0  0  0  0  0  0  0  0  # atno 6909 bound_to 6896
  145.0656  140.8322  143.4126 H   0  0  0  0  0  0  0  0  0  0  0  0  # atno 7974 bound_to 7965
  155.7861  140.3480  155.5323 H   0  0  0  0  0  0  0  0  0  0  0  0  # atno 8008 bound_to 7997
  155.8680  140.0982  157.1589 H   0  0  0  0  0  0  0  0  0  0  0  0  # atno 8009 bound_to 7997
  154.4016  140.1346  156.4031 H   0  0  0  0  0  0  0  0  0  0  0  0  # atno 8010 bound_to 7997
  139.5632  144.6895  151.3984 H   0  0  0  0  0  0  0  0  0  0  0  0  # atno 10167 bound_to 10162
  156.2393  130.4178  149.8779 H   0  0  0  0  0  0  0  0  0  0  0  0  # atno 10718 bound_to 10713
  152.9993  135.6242  154.2343 H   0  0  0  0  0  0  0  0  0  0  0  0  # atno 10763 bound_to 10752
  154.2084  135.2801  155.2968 H   0  0  0  0  0  0  0  0  0  0  0  0  # atno 10764 bound_to 10752
  154.5626  135.5700  153.7080 H   0  0  0  0  0  0  0  0  0  0  0  0  # atno 10765 bound_to 10752
  140.3762  134.6986  157.4423 H   0  0  0  0  0  0  0  0  0  0  0  0  # atno 11005 bound_to 11000
  145.1355  139.2605  143.5517 LP  0  0  0  0  0  0  0  0  0  0  0  0  # atno 17320 bound_to 7965
  146.3526  140.1017  142.8607 LP  0  0  0  0  0  0  0  0  0  0  0  0  # atno 17321 bound_to 7965
  140.6914  143.7853  150.7260 LP  0  0  0  0  0  0  0  0  0  0  0  0  # atno 17342 bound_to 10162
  140.1336  143.4503  152.2238 LP  0  0  0  0  0  0  0  0  0  0  0  0  # atno 17343 bound_to 10162
  156.6366  130.8688  151.3506 LP  0  0  0  0  0  0  0  0  0  0  0  0  # atno 17370 bound_to 10713
  157.7168  130.9508  150.1287 LP  0  0  0  0  0  0  0  0  0  0  0  0  # atno 17371 bound_to 10713
  140.0513  134.6126  155.8858 LP  0  0  0  0  0  0  0  0  0  0  0  0  # atno 17394 bound_to 11000
  141.1938  133.6580  156.5567 LP  0  0  0  0  0  0  0  0  0  0  0  0  # atno 17395 bound_to 11000

$$$$
