AV-unprocessed.smi:1542|AV-procd|sdf|6203|dock7
  -GOLD-   22720 6373D 1   1.00000     0.00000
 Structure written by MMmdl.
 45 47  0  0  0  0  0  0  0  0  1 V2000
  153.5421  136.3859  160.4687 O   0  0  0  0  0  0  0  0  0  0  0  0
  153.3892  137.1571  159.2967 C   0  0  0  0  0  0  0  0  0  0  0  0
  152.9701  138.5868  159.6628 C   0  0  0  0  0  0  0  0  0  0  0  0
  152.3437  139.3338  158.4767 C   0  0  0  0  0  0  0  0  0  0  0  0
  152.1281  140.7904  158.7645 C   0  0  0  0  0  0  0  0  0  0  0  0
  152.4267  141.3082  159.9563 N   0  0  0  0  0  0  0  0  0  0  0  0
  152.1634  142.6512  159.7806 C   0  0  0  0  0  0  0  0  0  0  0  0
  152.2889  143.7343  160.6799 C   0  0  0  0  0  0  0  0  0  0  0  0
  151.9732  145.0451  160.2673 C   0  0  0  0  0  0  0  0  0  0  0  0
  151.5330  145.2912  158.9510 C   0  0  0  0  0  0  0  0  0  0  0  0
  151.4007  144.2258  158.0399 C   0  0  0  0  0  0  0  0  0  0  0  0
  151.7070  142.9162  158.4586 C   0  0  0  0  0  0  0  0  0  0  0  0
  151.6754  141.6709  157.8332 N   0  0  0  0  0  0  0  0  0  0  0  0
  151.2742  141.4074  156.4527 C   0  0  0  0  0  0  0  0  0  0  0  0
  149.7394  141.3925  156.2077 C   0  0  0  0  0  0  0  0  0  0  0  0
  149.1871  142.5691  156.7689 O   0  0  0  0  0  0  0  0  0  0  0  0
  149.3738  141.3732  154.7025 C   0  0  0  0  0  0  0  0  0  0  0  0
  147.8640  141.2135  154.4477 C   0  0  0  0  0  0  0  0  0  0  0  0
  147.3041  139.9745  155.1590 C   0  0  0  0  0  0  0  0  0  0  0  0
  147.6018  140.0264  156.6634 C   0  0  0  0  0  0  0  0  0  0  0  0
  149.1104  140.1776  156.9305 C   0  0  0  0  0  0  0  0  0  0  0  0
  154.3406  136.6492  160.9004 H   0  0  0  0  0  0  0  0  0  0  0  0
  154.3313  137.1598  158.7477 H   0  0  0  0  0  0  0  0  0  0  0  0
  152.6393  136.6883  158.6588 H   0  0  0  0  0  0  0  0  0  0  0  0
  152.2581  138.5555  160.4889 H   0  0  0  0  0  0  0  0  0  0  0  0
  153.8379  139.1412  160.0225 H   0  0  0  0  0  0  0  0  0  0  0  0
  152.9626  139.2065  157.5912 H   0  0  0  0  0  0  0  0  0  0  0  0
  151.3792  138.8874  158.2311 H   0  0  0  0  0  0  0  0  0  0  0  0
  152.6326  143.5561  161.6880 H   0  0  0  0  0  0  0  0  0  0  0  0
  152.0735  145.8657  160.9625 H   0  0  0  0  0  0  0  0  0  0  0  0
  151.2973  146.2985  158.6407 H   0  0  0  0  0  0  0  0  0  0  0  0
  151.0676  144.4158  157.0311 H   0  0  0  0  0  0  0  0  0  0  0  0
  151.7349  142.1688  155.8223 H   0  0  0  0  0  0  0  0  0  0  0  0
  151.7188  140.4649  156.1325 H   0  0  0  0  0  0  0  0  0  0  0  0
  149.2277  143.2557  156.1208 H   0  0  0  0  0  0  0  0  0  0  0  0
  149.7226  142.2811  154.2096 H   0  0  0  0  0  0  0  0  0  0  0  0
  149.8910  140.5431  154.2210 H   0  0  0  0  0  0  0  0  0  0  0  0
  147.3338  142.1033  154.7893 H   0  0  0  0  0  0  0  0  0  0  0  0
  147.6771  141.1397  153.3761 H   0  0  0  0  0  0  0  0  0  0  0  0
  146.2286  139.9044  154.9939 H   0  0  0  0  0  0  0  0  0  0  0  0
  147.7433  139.0738  154.7282 H   0  0  0  0  0  0  0  0  0  0  0  0
  147.0592  140.8571  157.1159 H   0  0  0  0  0  0  0  0  0  0  0  0
  147.2311  139.1212  157.1450 H   0  0  0  0  0  0  0  0  0  0  0  0
  149.6127  139.2669  156.6013 H   0  0  0  0  0  0  0  0  0  0  0  0
  149.2858  140.2455  158.0052 H   0  0  0  0  0  0  0  0  0  0  0  0
  1  2  1  0  0  0  0
  1 22  1  0  0  0  0
  2  3  1  0  0  0  0
  2 23  1  0  0  0  0
  2 24  1  0  0  0  0
  3  4  1  0  0  0  0
  3 25  1  0  0  0  0
  3 26  1  0  0  0  0
  4  5  1  0  0  0  0
  4 27  1  0  0  0  0
  4 28  1  0  0  0  0
  5 13  1  0  0  0  0
  5  6  2  0  0  0  0
  6  7  1  0  0  0  0
  7 12  2  0  0  0  0
  7  8  1  0  0  0  0
  8  9  2  0  0  0  0
  8 29  1  0  0  0  0
  9 10  1  0  0  0  0
  9 30  1  0  0  0  0
 10 11  2  0  0  0  0
 10 31  1  0  0  0  0
 11 12  1  0  0  0  0
 11 32  1  0  0  0  0
 12 13  1  0  0  0  0
 13 14  1  0  0  0  0
 14 15  1  0  0  0  0
 14 33  1  0  0  0  0
 14 34  1  0  0  0  0
 15 21  1  0  0  0  0
 15 16  1  0  0  0  0
 15 17  1  0  0  0  0
 16 35  1  0  0  0  0
 17 18  1  0  0  0  0
 17 36  1  0  0  0  0
 17 37  1  0  0  0  0
 18 19  1  0  0  0  0
 18 38  1  0  0  0  0
 18 39  1  0  0  0  0
 19 20  1  0  0  0  0
 19 40  1  0  0  0  0
 19 41  1  0  0  0  0
 20 21  1  0  0  0  0
 20 42  1  0  0  0  0
 20 43  1  0  0  0  0
 21 44  1  0  0  0  0
 21 45  1  0  0  0  0
M  END
> <s_m_source_file>
AV-unprocessed.smi

> <i_m_source_file_index>
1542

> <i_lp_mmshare_version>
43012

> <i_f3d_flags>
0

> <s_epik_input>
W09IXVtDSDJdW0NIMl1bQ0gyXWMobjEpbihjKGMxMilbY0hdW2NIXVtjSF1bY0hdMilbQ0gyXUMzKFtPSF0pW0NIMl1bQ0gyXVtDSDJdW0NIMl1bQ0gyXTM=

> <s_epik_cmdline>
J2VwaWtfcHl0aG9uJywgJy1waCcsICc3LjAnLCAnLXRuJywgJzgnLCAnLW1hJywgJzIwMCcsICctbWV0YWxfYmluZGluZycsICctaW1hZScsICc8aW5maWxlLm1hZT4nLCAnLW9tYWUnLCAnPG91dGZpbGUubWFlPic=

> <r_epik_Ionization_Penalty>
0.294093

> <r_epik_Ionization_Penalty_Charging>
0

> <r_epik_Ionization_Penalty_Neutral>
0.294093

> <r_epik_State_Penalty>
0.287281

> <r_epik_Charging_Adjusted_Penalty>
0.287281

> <i_epik_Tot_Q>
0

> <i_epik_Tot_abs_Q>
0

> <r_epik_Metal_State_Penalty>
0.000369578

> <b_epik_Metal_Only>
0

> <s_lp_Force_Field>
OPLS_2005

> <r_lp_Energy>
13.7601

> <b_lp_Chiralities_Consistent>
1

> <s_lp_Variant>
AV-unprocessed.smi:1542-1

> <Gold.Version>
5.8.1

> <Gold.Id.Protein>
6NUR|6NUR_protein|mol2

> <Gold.PLP.Fitness>
48.4472

> <Gold.PLP.PLP>
-42.9931

> <Gold.PLP.part.hbond>
-1.6051

> <Gold.PLP.part.metal>
0.0000

> <Gold.PLP.part.buried>
-5.9959

> <Gold.PLP.part.nonpolar>
-34.8686

> <Gold.PLP.part.repulsive>
0.0000

> <Gold.PLP.ligand.clash>
0.0000

> <Gold.PLP.ligand.torsion>
0.4185

> <Gold.PLP.Chemscore.Hbond>
2.0000

> <Gold.PLP.Chemscore.CHOScore>
0.0000

> <Gold.PLP.Chemscore.Metal>
0.0000

> <Gold.Chemscore.Hbonds>
donor molecule, donor type, donor heavy atom, donor atom, acceptor molecule, acceptor atom, score
      L1  H    16    35       P1  8028  1.00
      P1  H  6896  6909       L1     1  1.00

> <Gold.PLP.Chemscore.Internal.Correction>
0.2910

> <Gold.Rescore>
     Score         DG    S(hbond)    S(metal)    S(lipo)     H(rot)  DE(clash)    DE(int)     intcor
     18.24     -18.81       1.98        0.00     117.50       2.74       0.02       0.54       ----

> <Gold.Chemscore.Fitness>
18.2441

> <Gold.Chemscore.DG>
-18.8086

> <Gold.Chemscore.ZeroCoef>
-5.4800

> <Gold.Chemscore.Hbond>
1.9786

> <Gold.Chemscore.Metal>
0.0000

> <Gold.Chemscore.Lipo>
117.4968

> <Gold.Chemscore.Internal_Hbond>
0.0000

> <Gold.Chemscore.DEClash>
0.0234

> <Gold.Chemscore.DEInternal>
0.5411

> <Gold.Chemscore.Rot>
2.7449

> <Gold.Chemscore.Internal.Correction>
   9.000000E+99

> <Gold.Chemscore.Hbonds>
donor molecule, donor type, donor heavy atom, donor atom, acceptor molecule, acceptor atom, score
      L1  H    16    35       P1  8028  0.92
      P1  H  6896  6909       L1     1  0.24

> <Gold.Chemscore.Hbond.Weighted>
-6.6084

> <Gold.Chemscore.Metal.Weighted>
-0.0000

> <Gold.Chemscore.Lipo.Weighted>
-13.7471

> <Gold.Chemscore.Internal_Hbond.Weighted>
0.0000

> <Gold.Chemscore.DEClash.Weighted>
0.0234

> <Gold.Chemscore.DEInternal.Weighted>
0.5411

> <Gold.Chemscore.Rot.Weighted>
7.0269

> <Gold.Chemscore.Internal.Correction.Weighted>
   9.000000E+99

> <Gold.Protein.RotatedTorsions>
[ 6907 6896 6895 6894 ] final  164.84 input  -60.11 | X-H torsion
[ 7974 7965 7964 7962 ] final -123.84 input  175.53 | X-H torsion
[ 8008 7997 7996 7995 ] final  -44.89 input   59.86 | X-H torsion
[ 10167 10162 10161 10158 ] final  -60.39 input  -65.29 | X-H torsion
[ 10718 10713 10712 10709 ] final   86.75 input   66.30 | X-H torsion
[ 10763 10752 10751 10750 ] final  158.79 input  -60.55 | X-H torsion
[ 11005 11000 10999 10996 ] final -141.29 input  -57.11 | X-H torsion

> <Gold.Protein.ActiveResidues>
 VAL166  LYS551  ARG553  GLY616  TRP617  ASP618  TYR619  PRO620  LYS621  CYS622 
 ASP623  PHE694  ASN695  SER759  ASP760  ASP761  ALA762  ILE779  LEU786  VAL792 
 PHE793  MET794  SER795  GLU796  ALA797  LYS798  CYS799  TRP800  GLU811  SER814 

> <Gold.Protein.RotatedAtoms>
  151.9037  133.3544  159.3839 H   0  0  0  0  0  0  0  0  0  0  0  0  # atno 6907 bound_to 6896
  150.7074  134.4803  159.5476 H   0  0  0  0  0  0  0  0  0  0  0  0  # atno 6908 bound_to 6896
  152.2396  134.8242  160.0513 H   0  0  0  0  0  0  0  0  0  0  0  0  # atno 6909 bound_to 6896
  145.0144  140.7934  143.4419 H   0  0  0  0  0  0  0  0  0  0  0  0  # atno 7974 bound_to 7965
  154.3999  140.1410  156.3757 H   0  0  0  0  0  0  0  0  0  0  0  0  # atno 8008 bound_to 7997
  155.8050  140.3474  155.5404 H   0  0  0  0  0  0  0  0  0  0  0  0  # atno 8009 bound_to 7997
  155.8444  140.0932  157.1704 H   0  0  0  0  0  0  0  0  0  0  0  0  # atno 8010 bound_to 7997
  140.6074  143.2377  151.5788 H   0  0  0  0  0  0  0  0  0  0  0  0  # atno 10167 bound_to 10162
  157.6932  131.0228  150.3019 H   0  0  0  0  0  0  0  0  0  0  0  0  # atno 10718 bound_to 10713
  154.2216  135.2782  155.2922 H   0  0  0  0  0  0  0  0  0  0  0  0  # atno 10763 bound_to 10752
  154.5697  135.5622  153.7086 H   0  0  0  0  0  0  0  0  0  0  0  0  # atno 10764 bound_to 10752
  153.0040  135.6318  154.2357 H   0  0  0  0  0  0  0  0  0  0  0  0  # atno 10765 bound_to 10752
  140.8339  134.2483  157.4843 H   0  0  0  0  0  0  0  0  0  0  0  0  # atno 11005 bound_to 11000
  145.1980  139.2266  143.5208 LP  0  0  0  0  0  0  0  0  0  0  0  0  # atno 17320 bound_to 7965
  146.3475  140.1791  142.8589 LP  0  0  0  0  0  0  0  0  0  0  0  0  # atno 17321 bound_to 7965
  139.5335  144.2846  152.1201 LP  0  0  0  0  0  0  0  0  0  0  0  0  # atno 17342 bound_to 10162
  140.2039  144.4631  150.6418 LP  0  0  0  0  0  0  0  0  0  0  0  0  # atno 17343 bound_to 10162
  156.3534  130.3834  149.7310 LP  0  0  0  0  0  0  0  0  0  0  0  0  # atno 17370 bound_to 10713
  156.4781  130.8028  151.3043 LP  0  0  0  0  0  0  0  0  0  0  0  0  # atno 17371 bound_to 10713
  139.8704  134.9600  156.4352 LP  0  0  0  0  0  0  0  0  0  0  0  0  # atno 17394 bound_to 11000
  140.8968  133.7808  155.9634 LP  0  0  0  0  0  0  0  0  0  0  0  0  # atno 17395 bound_to 11000

$$$$
