#       Name:                AV-unprocessed.smi:278
#       Creating user name   scv26
#       Creation time:       Thu Mar 26 21:37:15 2020


#       File generated by GOLD software.
#

@<TRIPOS>MOLECULE
AV-unprocessed.smi:278
    57    61     1
SMALL
NO_CHARGES


@<TRIPOS>ATOM
      1 ****        -0.0981   5.4974  -1.0526 O.2            1 S1                 0.0000
      2 ****        -0.2539   4.4598  -0.0221 S.o2           1 S1                 0.0000
      3 ****         0.7751   3.4248   0.1636 O.2            1 S1                 0.0000
      4 ****        -0.5873   5.2681   1.5912 C.3            1 S1                 0.0000
      5 ****        -2.0942   5.1224   1.8423 C.3            1 S1                 0.0000
      6 ****        -2.6002   3.8443   1.1492 C.3            1 S1                 0.0000
      7 ****        -2.2193   2.5497   1.8751 C.3            1 S1                 0.0000
      8 ****        -2.1254   1.5407   0.8293 N.pl3          1 S1                 0.0000
      9 ****        -1.6388   0.3000   1.0944 C.ar           1 S1                 0.0000
     10 ****        -1.3244  -0.0229   2.3775 N.ar           1 S1                 0.0000
     11 ****        -0.8353  -1.2300   2.6745 C.ar           1 S1                 0.0000
     12 ****        -0.5909  -2.2550   1.8571 N.ar           1 S1                 0.0000
     13 ****        -0.9182  -1.9467   0.5703 C.ar           1 S1                 0.0000
     14 ****        -1.4460  -0.7082   0.1042 C.ar           1 S1                 0.0000
     15 ****        -1.6649  -0.7816  -1.2678 N.2            1 S1                 0.0000
     16 ****        -1.2747  -1.9830  -1.5944 C.2            1 S1                 0.0000
     17 ****        -0.8030  -2.7467  -0.5520 N.pl3          1 S1                 0.0000
     18 ****        -0.2899  -4.1020  -0.6292 C.3            1 S1                 0.0000
     19 ****         1.2392  -4.1805  -0.4316 C.3            1 S1                 0.0000
     20 ****         1.6143  -5.5331  -0.5977 O.3            1 S1                 0.0000
     21 ****         2.0549  -3.3036  -1.4086 C.3            1 S1                 0.0000
     22 ****         3.5714  -3.4693  -1.3002 C.3            1 S1                 0.0000
     23 ****         4.1059  -2.1832  -1.9067 C.3            1 S1                 0.0000
     24 ****         2.9349  -1.2051  -1.7815 C.3            1 S1                 0.0000
     25 ****         1.9158  -1.9239  -1.1005 O.3            1 S1                 0.0000
     26 ****        -1.8567   2.1723  -0.4565 C.3            1 S1                 0.0000
     27 ****        -1.9170   3.6866  -0.2098 C.3            1 S1                 0.0000
     28 ****        -3.6830   3.8730   1.0205 H              1 S1                 0.0000
     29 ****        -2.4486   4.2164  -1.0008 H              1 S1                 0.0000
     30 ****        -0.0145   4.7416   2.3546 H              1 S1                 0.0000
     31 ****        -0.2585   6.3071   1.5677 H              1 S1                 0.0000
     32 ****        -2.3292   5.1298   2.9071 H              1 S1                 0.0000
     33 ****        -2.6049   5.9791   1.4009 H              1 S1                 0.0000
     34 ****        -1.2529   2.6480   2.3716 H              1 S1                 0.0000
     35 ****        -2.9626   2.2792   2.6258 H              1 S1                 0.0000
     36 ****        -0.6049  -1.3980   3.7162 H              1 S1                 0.0000
     37 ****        -1.3099  -2.3422  -2.6128 H              1 S1                 0.0000
     38 ****        -0.8008  -4.7026   0.1246 H              1 S1                 0.0000
     39 ****        -0.5662  -4.5181  -1.5992 H              1 S1                 0.0000
     40 ****         1.4860  -3.8979   0.5925 H              1 S1                 0.0000
     41 ****         2.5385  -5.6118  -0.4169 H              1 S1                 0.0000
     42 ****         1.7346  -3.4766  -2.4380 H              1 S1                 0.0000
     43 ****         3.8680  -3.5305  -0.2519 H              1 S1                 0.0000
     44 ****         3.9401  -4.3605  -1.8086 H              1 S1                 0.0000
     45 ****         4.9960  -1.8322  -1.3835 H              1 S1                 0.0000
     46 ****         4.3663  -2.3274  -2.9559 H              1 S1                 0.0000
     47 ****         3.2008  -0.3043  -1.2282 H              1 S1                 0.0000
     48 ****         2.5730  -0.9063  -2.7661 H              1 S1                 0.0000
     49 ****        -0.9005   1.8643  -0.8803 H              1 S1                 0.0000
     50 ****        -2.6396   1.8764  -1.1555 H              1 S1                 0.0000
     51 ****        -1.4606   0.6494   3.1052 LP             1 S1                 0.0000
     52 ****        -0.2165  -3.1348   2.1499 LP             1 S1                 0.0000
     53 ****        -2.0372  -0.0736  -1.8680 LP             1 S1                 0.0000
     54 ****         1.4284  -5.8219  -1.5369 LP             1 S1                 0.0000
     55 ****         1.0963  -6.1072   0.0363 LP             1 S1                 0.0000
     56 ****         2.0083  -1.7874  -0.1142 LP             1 S1                 0.0000
     57 ****         1.0178  -1.6004  -1.3990 LP             1 S1                 0.0000
@<TRIPOS>BOND
    1    1    2 2     
    2    2   27 1     
    3    2    3 2     
    4    2    4 1     
    5    4    5 1     
    6    4   30 1     
    7    4   31 1     
    8    5    6 1     
    9    5   32 1     
   10    5   33 1     
   11    6   28 1     
   12    6   27 1     
   13    6    7 1     
   14    7    8 1     
   15    7   34 1     
   16    7   35 1     
   17    8    9 1     
   18    8   26 1     
   19    9   14 ar    
   20    9   10 ar    
   21   10   11 ar    
   22   11   12 ar    
   23   11   36 1     
   24   12   13 ar    
   25   13   17 1     
   26   13   14 ar    
   27   14   15 1     
   28   15   16 2     
   29   16   17 1     
   30   16   37 1     
   31   17   18 1     
   32   18   19 1     
   33   18   38 1     
   34   18   39 1     
   35   19   20 1     
   36   19   21 1     
   37   19   40 1     
   38   20   41 1     
   39   21   25 1     
   40   21   22 1     
   41   21   42 1     
   42   22   23 1     
   43   22   43 1     
   44   22   44 1     
   45   23   24 1     
   46   23   45 1     
   47   23   46 1     
   48   24   25 1     
   49   24   47 1     
   50   24   48 1     
   51   26   27 1     
   52   26   49 1     
   53   26   50 1     
   54   27   29 1     
   55   10   51 1     
   56   12   52 1     
   57   15   53 1     
   58   20   54 1     
   59   20   55 1     
   60   25   56 1     
   61   25   57 1     
@<TRIPOS>SUBSTRUCTURE
      1 S1             1
@<TRIPOS>SET
LONE_PAIRS      STATIC     ATOMS    <user>   **** ""
9 1 3 51 52 53 54 55 56 57
DONOR_HYDROGENS      STATIC     ATOMS    <user>   **** ""
1 41
ATOM$BLUE        STATIC     ATOMS    COLORGROUP SYSTEM
9 1 3 51 52 53 54 55 56 57
ATOM$RED        STATIC     ATOMS    COLORGROUP SYSTEM
1 41
