#       Name:                AV-unprocessed.smi:1
#       Creating user name   scv26
#       Creation time:       Thu Mar 26 15:12:34 2020


#       File generated by GOLD software.
#

@<TRIPOS>MOLECULE
AV-unprocessed.smi:1
    66    71     1
SMALL
NO_CHARGES


@<TRIPOS>ATOM
      1 ****        -4.6164   0.6277  -2.6797 O.2            1 S1                 0.0000
      2 ****        -4.9406   0.4321  -1.5063 C.2            1 S1                 0.0000
      3 ****        -4.1402   0.4332  -0.4101 N.pl3          1 S1                -1.0000
      4 ****        -2.8169   0.6036  -0.5536 C.ar           1 S1                 0.0000
      5 ****        -2.2582   1.8266  -0.3678 N.ar           1 S1                 0.0000
      6 ****        -0.9399   1.9974  -0.5190 C.ar           1 S1                 0.0000
      7 ****        -0.0088   1.0967  -0.8469 N.ar           1 S1                 0.0000
      8 ****        -0.5545  -0.1417  -1.0239 C.ar           1 S1                 0.0000
      9 ****        -1.9371  -0.4622  -0.8889 C.ar           1 S1                 0.0000
     10 ****        -2.1560  -1.8099  -1.1311 N.2            1 S1                 0.0000
     11 ****        -0.9253  -2.2373  -1.4019 C.2            1 S1                 0.0000
     12 ****         0.0707  -1.3293  -1.3727 N.pl3          1 S1                 0.0000
     13 ****         1.5199  -1.5777  -1.6422 C.3            1 S1                 0.0000
     14 ****         2.2705  -1.1791  -0.5333 O.3            1 S1                 0.0000
     15 ****         3.1391  -0.1020  -0.8747 C.3            1 S1                 0.0000
     16 ****         4.4171  -0.1364  -0.0295 C.3            1 S1                 0.0000
     17 ****         4.1112   0.3106   1.2808 O.3            1 S1                 0.0000
     18 ****         5.0699   0.3444   2.2250 C.2            1 S1                 0.0000
     19 ****         6.2376   0.0043   2.0241 O.2            1 S1                 0.0000
     20 ****         4.5697   0.8392   3.5401 C.ar           1 S1                 0.0000
     21 ****         5.4659   0.9363   4.6303 C.ar           1 S1                 0.0000
     22 ****         5.0225   1.3996   5.8844 C.ar           1 S1                 0.0000
     23 ****         3.6776   1.7726   6.0634 C.ar           1 S1                 0.0000
     24 ****         2.7760   1.6805   4.9870 C.ar           1 S1                 0.0000
     25 ****         3.2173   1.2166   3.7323 C.ar           1 S1                 0.0000
     26 ****         3.3650  -0.2671  -2.3761 C.3            1 S1                 0.0000
     27 ****         4.3455  -1.2555  -2.6474 O.3            1 S1                 0.0000
     28 ****         3.7986  -2.2067  -3.9072 S.o2           1 S1                 0.0000
     29 ****         4.4862  -1.7854  -5.1371 O.2            1 S1                 0.0000
     30 ****         3.7736  -3.6048  -3.4510 O.2            1 S1                 0.0000
     31 ****         2.2255  -1.6462  -3.9711 O.3            1 S1                 0.0000
     32 ****         2.0109  -0.7878  -2.8648 C.3            1 S1                 0.0000
     33 ****        -6.3948   0.2196  -1.1818 C.ar           1 S1                 0.0000
     34 ****        -7.3842   0.9179  -1.9108 C.ar           1 S1                 0.0000
     35 ****        -8.7514   0.7113  -1.6421 C.ar           1 S1                 0.0000
     36 ****        -9.1441  -0.2037  -0.6475 C.ar           1 S1                 0.0000
     37 ****        -8.1685  -0.9149   0.0757 C.ar           1 S1                 0.0000
     38 ****        -6.8010  -0.7084  -0.1921 C.ar           1 S1                 0.0000
     39 ****        -0.5790   3.0022  -0.3571 H              1 S1                 0.0000
     40 ****        -0.7381  -3.2736  -1.6423 H              1 S1                 0.0000
     41 ****         1.6021  -2.6589  -1.7626 H              1 S1                 0.0000
     42 ****         2.6186   0.8407  -0.7081 H              1 S1                 0.0000
     43 ****         4.8385  -1.1424  -0.0075 H              1 S1                 0.0000
     44 ****         5.1661   0.5275  -0.4632 H              1 S1                 0.0000
     45 ****         6.5035   0.6567   4.5161 H              1 S1                 0.0000
     46 ****         5.7162   1.4692   6.7094 H              1 S1                 0.0000
     47 ****         3.3379   2.1289   7.0248 H              1 S1                 0.0000
     48 ****         1.7431   1.9660   5.1228 H              1 S1                 0.0000
     49 ****         2.4987   1.1580   2.9277 H              1 S1                 0.0000
     50 ****         3.6537   0.6661  -2.8608 H              1 S1                 0.0000
     51 ****         1.3322   0.0304  -3.1075 H              1 S1                 0.0000
     52 ****        -7.0989   1.6213  -2.6798 H              1 S1                 0.0000
     53 ****        -9.4987   1.2546  -2.2014 H              1 S1                 0.0000
     54 ****       -10.1923  -0.3633  -0.4426 H              1 S1                 0.0000
     55 ****        -8.4681  -1.6227   0.8343 H              1 S1                 0.0000
     56 ****        -6.0682  -1.2729   0.3664 H              1 S1                 0.0000
     57 ****        -3.6614   0.8146  -2.9101 LP             1 S1                 0.0000
     58 ****        -5.3084   0.5994  -3.4010 LP             1 S1                 0.0000
     59 ****        -4.5348   0.3076   0.5001 LP             1 S1                 0.0000
     60 ****        -2.8349   2.6039  -0.1166 LP             1 S1                 0.0000
     61 ****         0.9641   1.3037  -0.9496 LP             1 S1                 0.0000
     62 ****        -3.0129  -2.3249  -1.1083 LP             1 S1                 0.0000
     63 ****         2.8169  -1.9523  -0.2115 LP             1 S1                 0.0000
     64 ****         1.6508  -0.8835   0.1937 LP             1 S1                 0.0000
     65 ****         6.5158  -0.3186   1.1194 LP             1 S1                 0.0000
     66 ****         6.9067   0.0512   2.7658 LP             1 S1                 0.0000
@<TRIPOS>BOND
    1    1    2 2     
    2    2    3 1     
    3    2   33 1     
    4    3    4 1     
    5    4    9 ar    
    6    4    5 ar    
    7    5    6 ar    
    8    6    7 ar    
    9    6   39 1     
   10    7    8 ar    
   11    8   12 1     
   12    8    9 ar    
   13    9   10 1     
   14   10   11 2     
   15   11   12 1     
   16   11   40 1     
   17   12   13 1     
   18   13   32 1     
   19   13   14 1     
   20   13   41 1     
   21   14   15 1     
   22   15   16 1     
   23   15   26 1     
   24   15   42 1     
   25   16   17 1     
   26   16   43 1     
   27   16   44 1     
   28   17   18 1     
   29   18   19 2     
   30   18   20 1     
   31   20   25 ar    
   32   20   21 ar    
   33   21   22 ar    
   34   21   45 1     
   35   22   23 ar    
   36   22   46 1     
   37   23   24 ar    
   38   23   47 1     
   39   24   25 ar    
   40   24   48 1     
   41   25   49 1     
   42   26   32 1     
   43   26   27 1     
   44   26   50 1     
   45   27   28 1     
   46   28   29 2     
   47   28   30 2     
   48   28   31 1     
   49   31   32 1     
   50   32   51 1     
   51   33   38 ar    
   52   33   34 ar    
   53   34   35 ar    
   54   34   52 1     
   55   35   36 ar    
   56   35   53 1     
   57   36   37 ar    
   58   36   54 1     
   59   37   38 ar    
   60   37   55 1     
   61   38   56 1     
   62    1   57 1     
   63    1   58 1     
   64    3   59 1     
   65    5   60 1     
   66    7   61 1     
   67   10   62 1     
   68   14   63 1     
   69   14   64 1     
   70   19   65 1     
   71   19   66 1     
@<TRIPOS>SUBSTRUCTURE
      1 S1             1
@<TRIPOS>SET
LONE_PAIRS      STATIC     ATOMS    <user>   **** ""
12 57 58 59 60 61 62 63 64 65 66 29 30
ATOM$BLUE        STATIC     ATOMS    COLORGROUP SYSTEM
12 57 58 59 60 61 62 63 64 65 66 29 30
