#       Name:                AV-unprocessed.smi:180
#       Creating user name   scv26
#       Creation time:       Thu Mar 26 19:24:56 2020


#       File generated by GOLD software.
#

@<TRIPOS>MOLECULE
AV-unprocessed.smi:180
    66    69     1
SMALL
NO_CHARGES


@<TRIPOS>ATOM
      1 ****        -4.3173   0.4557   6.2639 C.3            1 S1                 0.0000
      2 ****        -4.8392   0.0982   4.8760 C.2            1 S1                 0.0000
      3 ****        -5.8290   0.6753   4.4275 O.2            1 S1                 0.0000
      4 ****        -4.1677  -0.8534   4.2098 N.am           1 S1                 0.0000
      5 ****        -4.4869  -1.3284   2.8661 C.3            1 S1                 0.0000
      6 ****        -3.7924  -0.5100   1.7601 C.3            1 S1                 0.0000
      7 ****        -2.2616  -0.4187   1.9306 C.3            1 S1                 0.0000
      8 ****        -1.6858   0.4162   0.8793 N.3            1 S1                 0.0000
      9 ****        -0.3369   0.4047   0.7230 C.ar           1 S1                 0.0000
     10 ****         0.4589  -0.0454   1.7303 N.ar           1 S1                 0.0000
     11 ****         1.7874  -0.0588   1.5893 C.ar           1 S1                 0.0000
     12 ****         2.5185   0.3210   0.5402 N.ar           1 S1                 0.0000
     13 ****         1.7279   0.7635  -0.4788 C.ar           1 S1                 0.0000
     14 ****         0.3060   0.8417  -0.4704 C.ar           1 S1                 0.0000
     15 ****        -0.1448   1.3357  -1.6891 N.2            1 S1                 0.0000
     16 ****         0.9464   1.5483  -2.3721 C.2            1 S1                 0.0000
     17 ****         2.1167   1.2173  -1.7273 N.pl3          1 S1                 0.0000
     18 ****         3.4678   1.3447  -2.2516 C.3            1 S1                 0.0000
     19 ****         3.9716   0.1081  -3.0392 C.3            1 S1                 0.0000
     20 ****         5.3006   0.4209  -3.4158 O.3            1 S1                 0.0000
     21 ****         3.9975  -1.1816  -2.1901 C.3            1 S1                 0.0000
     22 ****         4.4119  -2.4087  -3.0222 C.3            1 S1                 0.0000
     23 ****         3.5503  -2.5491  -4.1460 O.3            1 S1                 0.0000
     24 ****         3.6172  -1.4424  -5.0379 C.3            1 S1                 0.0000
     25 ****         3.1556  -0.1600  -4.3223 C.3            1 S1                 0.0000
     26 ****        -2.3115   1.7314   0.7870 C.3            1 S1                 0.0000
     27 ****        -3.8353   1.5825   0.6492 C.3            1 S1                 0.0000
     28 ****        -4.3429   0.8048   1.7283 O.3            1 S1                 0.0000
     29 ****        -3.3063   0.0774   6.4206 H              1 S1                 0.0000
     30 ****        -4.9661   0.0302   7.0295 H              1 S1                 0.0000
     31 ****        -4.2981   1.5382   6.3931 H              1 S1                 0.0000
     32 ****        -3.3681  -1.2726   4.6619 H              1 S1                 0.0000
     33 ****        -4.1606  -2.3666   2.8018 H              1 S1                 0.0000
     34 ****        -5.5666  -1.3407   2.7078 H              1 S1                 0.0000
     35 ****        -4.0133  -0.9929   0.8064 H              1 S1                 0.0000
     36 ****        -2.0097   0.0105   2.9013 H              1 S1                 0.0000
     37 ****        -1.8292  -1.4196   1.8928 H              1 S1                 0.0000
     38 ****         2.3437  -0.4277   2.4383 H              1 S1                 0.0000
     39 ****         0.9271   1.9460  -3.3766 H              1 S1                 0.0000
     40 ****         3.4986   2.2313  -2.8867 H              1 S1                 0.0000
     41 ****         4.1350   1.5518  -1.4135 H              1 S1                 0.0000
     42 ****         5.6583  -0.3132  -3.8913 H              1 S1                 0.0000
     43 ****         4.6629  -1.0642  -1.3339 H              1 S1                 0.0000
     44 ****         3.0055  -1.3774  -1.7831 H              1 S1                 0.0000
     45 ****         5.4491  -2.3316  -3.3517 H              1 S1                 0.0000
     46 ****         4.3416  -3.3106  -2.4140 H              1 S1                 0.0000
     47 ****         4.6307  -1.3352  -5.4273 H              1 S1                 0.0000
     48 ****         2.9720  -1.6437  -5.8931 H              1 S1                 0.0000
     49 ****         2.1014  -0.2801  -4.0737 H              1 S1                 0.0000
     50 ****         3.2166   0.6920  -5.0006 H              1 S1                 0.0000
     51 ****        -2.0739   2.2993   1.6875 H              1 S1                 0.0000
     52 ****        -1.9272   2.3025  -0.0568 H              1 S1                 0.0000
     53 ****        -4.3109   2.5632   0.6653 H              1 S1                 0.0000
     54 ****        -4.0959   1.1178  -0.3031 H              1 S1                 0.0000
     55 ****        -6.2888   1.3764   4.9726 LP             1 S1                 0.0000
     56 ****        -6.1737   0.4433   3.5179 LP             1 S1                 0.0000
     57 ****        -1.9471  -0.0763   0.0492 LP             1 S1                 0.0000
     58 ****         0.0467  -0.3684   2.5822 LP             1 S1                 0.0000
     59 ****         3.5173   0.2858   0.5056 LP             1 S1                 0.0000
     60 ****        -1.0897   1.4924  -1.9766 LP             1 S1                 0.0000
     61 ****         5.8508   0.5941  -2.5989 LP             1 S1                 0.0000
     62 ****         5.3037   1.2339  -3.9982 LP             1 S1                 0.0000
     63 ****         2.6099  -2.6377  -3.8177 LP             1 S1                 0.0000
     64 ****         3.8087  -3.3765  -4.6445 LP             1 S1                 0.0000
     65 ****        -4.1218   1.2659   2.5877 LP             1 S1                 0.0000
     66 ****        -5.3359   0.7345   1.6336 LP             1 S1                 0.0000
@<TRIPOS>BOND
    1    1    2 1     
    2    1   29 1     
    3    1   30 1     
    4    1   31 1     
    5    2    3 2     
    6    2    4 am    
    7    4    5 1     
    8    4   32 1     
    9    5    6 1     
   10    5   33 1     
   11    5   34 1     
   12    6   28 1     
   13    6    7 1     
   14    6   35 1     
   15    7    8 1     
   16    7   36 1     
   17    7   37 1     
   18    8    9 1     
   19    8   26 1     
   20    9   14 ar    
   21    9   10 ar    
   22   10   11 ar    
   23   11   12 ar    
   24   11   38 1     
   25   12   13 ar    
   26   13   17 1     
   27   13   14 ar    
   28   14   15 1     
   29   15   16 2     
   30   16   17 1     
   31   16   39 1     
   32   17   18 1     
   33   18   19 1     
   34   18   40 1     
   35   18   41 1     
   36   19   25 1     
   37   19   20 1     
   38   19   21 1     
   39   20   42 1     
   40   21   22 1     
   41   21   43 1     
   42   21   44 1     
   43   22   23 1     
   44   22   45 1     
   45   22   46 1     
   46   23   24 1     
   47   24   25 1     
   48   24   47 1     
   49   24   48 1     
   50   25   49 1     
   51   25   50 1     
   52   26   27 1     
   53   26   51 1     
   54   26   52 1     
   55   27   28 1     
   56   27   53 1     
   57   27   54 1     
   58    3   55 1     
   59    3   56 1     
   60    8   57 1     
   61   10   58 1     
   62   12   59 1     
   63   15   60 1     
   64   20   61 1     
   65   20   62 1     
   66   23   63 1     
   67   23   64 1     
   68   28   65 1     
   69   28   66 1     
@<TRIPOS>SUBSTRUCTURE
      1 S1             1
@<TRIPOS>SET
LONE_PAIRS      STATIC     ATOMS    <user>   **** ""
12 55 56 57 58 59 60 61 62 63 64 65 66
DONOR_HYDROGENS      STATIC     ATOMS    <user>   **** ""
2 32 42
ATOM$BLUE        STATIC     ATOMS    COLORGROUP SYSTEM
12 55 56 57 58 59 60 61 62 63 64 65 66
ATOM$RED        STATIC     ATOMS    COLORGROUP SYSTEM
2 32 42
