AV-unprocessed.smi:2007|AV-procd|sdf|8137|dock7
  -GOLD-   2272010373D 1   1.00000     0.00000
 Structure written by MMmdl.
 35 36  0  0  0  0  0  0  0  0  2 V2000
  147.5061  134.1864  156.1513 C   0  0  0  0  0  0  0  0  0  0  0  0
  147.8351  135.6660  155.9127 C   0  0  2  0  0  0  0  0  0  0  0  0
  149.2283  135.8257  155.2646 C   0  0  0  0  0  0  0  0  0  0  0  0
  149.8272  137.1578  155.3614 N   0  0  0  0  0  0  0  0  0  0  0  0
  151.2136  137.1490  154.9105 C   0  0  0  0  0  0  0  0  0  0  0  0
  151.8611  138.5400  155.0255 C   0  0  0  0  0  0  0  0  0  0  0  0
  151.0959  139.4857  154.2854 O   0  0  0  0  0  0  0  0  0  0  0  0
  149.7418  139.5555  154.7214 C   0  0  0  0  0  0  0  0  0  0  0  0
  149.0894  138.1673  154.6055 C   0  0  0  0  0  0  0  0  0  0  0  0
  147.7856  136.3719  157.1930 N   0  0  0  0  0  0  0  0  0  0  0  0
  148.3765  135.9990  158.3382 C   0  0  0  0  0  0  0  0  0  0  0  0
  149.0618  134.9745  158.3775 O   0  0  0  0  0  0  0  0  0  0  0  0
  148.1312  136.8360  159.3721 N   0  5  0  0  0  0  0  0  0  0  0  0
  147.8175  136.3373  160.5788 C   0  0  0  0  0  0  0  0  0  0  0  0
  147.5977  137.1059  161.6515 N   0  0  0  0  0  0  0  0  0  0  0  0
  147.2810  136.3781  162.7999 C   0  0  0  0  0  0  0  0  0  0  0  0
  147.2497  135.0242  162.5946 C   0  0  0  0  0  0  0  0  0  0  0  0
  147.6202  134.6204  160.9426 S   0  0  0  0  0  0  0  0  0  0  0  0
  147.5094  133.6283  155.2148 H   0  0  0  0  0  0  0  0  0  0  0  0
  146.5182  134.0718  156.5984 H   0  0  0  0  0  0  0  0  0  0  0  0
  148.2305  133.7197  156.8198 H   0  0  0  0  0  0  0  0  0  0  0  0
  147.0667  136.0488  155.2409 H   0  0  0  0  0  0  0  0  0  0  0  0
  149.8961  135.1033  155.7365 H   0  0  0  0  0  0  0  0  0  0  0  0
  149.1736  135.5335  154.2149 H   0  0  0  0  0  0  0  0  0  0  0  0
  151.7902  136.4353  155.5000 H   0  0  0  0  0  0  0  0  0  0  0  0
  151.2637  136.8112  153.8741 H   0  0  0  0  0  0  0  0  0  0  0  0
  151.9254  138.8509  156.0696 H   0  0  0  0  0  0  0  0  0  0  0  0
  152.8780  138.5189  154.6337 H   0  0  0  0  0  0  0  0  0  0  0  0
  149.7007  139.9152  155.7509 H   0  0  0  0  0  0  0  0  0  0  0  0
  149.2056  140.2792  154.1075 H   0  0  0  0  0  0  0  0  0  0  0  0
  149.0372  137.8785  153.5548 H   0  0  0  0  0  0  0  0  0  0  0  0
  148.0625  138.2370  154.9606 H   0  0  0  0  0  0  0  0  0  0  0  0
  147.2365  137.2182  157.2194 H   0  0  0  0  0  0  0  0  0  0  0  0
  147.0906  136.9070  163.7218 H   0  0  0  0  0  0  0  0  0  0  0  0
  147.0319  134.2443  163.3084 H   0  0  0  0  0  0  0  0  0  0  0  0
  1  2  1  0  0  0  0
  1 19  1  0  0  0  0
  1 20  1  0  0  0  0
  1 21  1  0  0  0  0
  2  3  1  0  0  0  0
  2 10  1  0  0  0  0
  2 22  1  0  0  0  0
  3  4  1  0  0  0  0
  3 23  1  0  0  0  0
  3 24  1  0  0  0  0
  4  9  1  0  0  0  0
  4  5  1  0  0  0  0
  5  6  1  0  0  0  0
  5 25  1  0  0  0  0
  5 26  1  0  0  0  0
  6  7  1  0  0  0  0
  6 27  1  0  0  0  0
  6 28  1  0  0  0  0
  7  8  1  0  0  0  0
  8  9  1  0  0  0  0
  8 29  1  0  0  0  0
  8 30  1  0  0  0  0
  9 31  1  0  0  0  0
  9 32  1  0  0  0  0
 10 11  1  0  0  0  0
 10 33  1  0  0  0  0
 11 12  2  0  0  0  0
 11 13  1  0  0  0  0
 13 14  1  0  0  0  0
 14 18  1  0  0  0  0
 14 15  2  0  0  0  0
 15 16  1  0  0  0  0
 16 17  2  0  0  0  0
 16 34  1  0  0  0  0
 17 18  1  0  0  0  0
 17 35  1  0  0  0  0
M  CHG  1  13  -1
M  END
> <s_m_source_file>
AV-unprocessed.smi

> <i_m_source_file_index>
2007

> <i_lp_mmshare_version>
43012

> <i_f3d_flags>
0

> <s_epik_input>
W0NIMl0xW0NIMl1PW0NIMl1bQ0gyXU4xW0NIMl1bQ0BASF0oW0NIM10pW05IXUMoPU8pW05IXWMybltjSF1bY0hdczI=

> <s_epik_cmdline>
J2VwaWtfcHl0aG9uJywgJy1waCcsICc3LjAnLCAnLXRuJywgJzgnLCAnLW1hJywgJzIwMCcsICctbWV0YWxfYmluZGluZycsICctaW1hZScsICc8aW5maWxlLm1hZT4nLCAnLW9tYWUnLCAnPG91dGZpbGUubWFlPic=

> <r_lp_tautomer_probability>
0.999

> <r_epik_Ionization_Penalty>
7.09127

> <r_epik_Ionization_Penalty_Charging>
5.74083

> <r_epik_Ionization_Penalty_Neutral>
1.35044

> <r_epik_State_Penalty>
5.95014

> <r_epik_Charging_Adjusted_Penalty>
11.691

> <i_epik_Tot_Q>
-1

> <i_epik_Tot_abs_Q>
1

> <r_epik_Metal_State_Penalty>
1.93831

> <b_epik_Metal_Only>
1

> <s_lp_Force_Field>
OPLS_2005

> <r_lp_Energy>
21.0216

> <b_lp_Chiralities_Consistent>
1

> <s_lp_Variant>
AV-unprocessed.smi:2007-5

> <Gold.Version>
5.8.1

> <Gold.Id.Protein>
6NUR|6NUR_protein|mol2

> <Gold.PLP.Fitness>
39.3891

> <Gold.PLP.PLP>
-29.6204

> <Gold.PLP.part.hbond>
-4.0000

> <Gold.PLP.part.metal>
0.0000

> <Gold.PLP.part.buried>
-3.9425

> <Gold.PLP.part.nonpolar>
-21.8764

> <Gold.PLP.part.repulsive>
0.2061

> <Gold.PLP.ligand.clash>
0.0000

> <Gold.PLP.ligand.torsion>
0.6894

> <Gold.PLP.Chemscore.Hbond>
3.6933

> <Gold.PLP.Chemscore.CHOScore>
0.0000

> <Gold.PLP.Chemscore.Metal>
0.0000

> <Gold.Chemscore.Hbonds>
donor molecule, donor type, donor heavy atom, donor atom, acceptor molecule, acceptor atom, score
      P1  H  6896  6908       L1    12  1.00
      P1  H  6931  6943       L1    15  1.00
      P1  H  6934  6947       L1    15  0.69
      P1  H  7989  7998       L1     7  1.00

> <Gold.PLP.Chemscore.Internal.Correction>
0.0677

> <Gold.Rescore>
     Score         DG    S(hbond)    S(metal)    S(lipo)     H(rot)  DE(clash)    DE(int)     intcor
     17.17     -19.15       3.22        0.00      58.86       1.55       0.00       1.98       ----

> <Gold.Chemscore.Fitness>
17.1661

> <Gold.Chemscore.DG>
-19.1505

> <Gold.Chemscore.ZeroCoef>
-5.4800

> <Gold.Chemscore.Hbond>
3.2200

> <Gold.Chemscore.Metal>
0.0000

> <Gold.Chemscore.Lipo>
58.8574

> <Gold.Chemscore.Internal_Hbond>
0.0000

> <Gold.Chemscore.DEClash>
0.0000

> <Gold.Chemscore.DEInternal>
1.9843

> <Gold.Chemscore.Rot>
1.5510

> <Gold.Chemscore.Internal.Correction>
   9.000000E+99

> <Gold.Chemscore.Hbonds>
donor molecule, donor type, donor heavy atom, donor atom, acceptor molecule, acceptor atom, score
      P1  H  6896  6908       L1    12  0.94
      P1  H  6931  6943       L1    15  0.58
      P1  H  6934  6947       L1    15  0.39
      P1  H  7989  7998       L1     7  0.90

> <Gold.Chemscore.Hbond.Weighted>
-10.7547

> <Gold.Chemscore.Metal.Weighted>
-0.0000

> <Gold.Chemscore.Lipo.Weighted>
-6.8863

> <Gold.Chemscore.Internal_Hbond.Weighted>
0.0000

> <Gold.Chemscore.DEClash.Weighted>
0.0000

> <Gold.Chemscore.DEInternal.Weighted>
1.9843

> <Gold.Chemscore.Rot.Weighted>
3.9706

> <Gold.Chemscore.Internal.Correction.Weighted>
   9.000000E+99

> <Gold.Protein.RotatedTorsions>
[ 6907 6896 6895 6894 ] final  147.94 input  -60.11 | X-H torsion
[ 7974 7965 7964 7962 ] final  -39.05 input  175.53 | X-H torsion
[ 8008 7997 7996 7995 ] final -141.77 input   59.86 | X-H torsion
[ 10167 10162 10161 10158 ] final  168.31 input  -65.29 | X-H torsion
[ 10718 10713 10712 10709 ] final  150.56 input   66.30 | X-H torsion
[ 10763 10752 10751 10750 ] final -167.95 input  -60.55 | X-H torsion
[ 11005 11000 10999 10996 ] final  144.38 input  -57.11 | X-H torsion

> <Gold.Protein.ActiveResidues>
 VAL166  LYS551  ARG553  GLY616  TRP617  ASP618  TYR619  PRO620  LYS621  CYS622 
 ASP623  PHE694  ASN695  SER759  ASP760  ASP761  ALA762  ILE779  LEU786  VAL792 
 PHE793  MET794  SER795  GLU796  ALA797  LYS798  CYS799  TRP800  GLU811  SER814 

> <Gold.Protein.RotatedAtoms>
  152.1481  133.4505  159.4799 H   0  0  0  0  0  0  0  0  0  0  0  0  # atno 6907 bound_to 6896
  150.6892  134.2223  159.4410 H   0  0  0  0  0  0  0  0  0  0  0  0  # atno 6908 bound_to 6896
  152.0118  134.9871  160.0619 H   0  0  0  0  0  0  0  0  0  0  0  0  # atno 6909 bound_to 6896
  146.0431  140.6582  142.9077 H   0  0  0  0  0  0  0  0  0  0  0  0  # atno 7974 bound_to 7965
  155.4833  140.0562  157.2964 H   0  0  0  0  0  0  0  0  0  0  0  0  # atno 8008 bound_to 7997
  154.4652  140.2015  156.0090 H   0  0  0  0  0  0  0  0  0  0  0  0  # atno 8009 bound_to 7997
  156.0961  140.3226  155.7884 H   0  0  0  0  0  0  0  0  0  0  0  0  # atno 8010 bound_to 7997
  139.4965  144.3828  151.9604 H   0  0  0  0  0  0  0  0  0  0  0  0  # atno 10167 bound_to 10162
  157.2819  131.0837  151.1525 H   0  0  0  0  0  0  0  0  0  0  0  0  # atno 10718 bound_to 10713
  154.6679  135.2935  154.9781 H   0  0  0  0  0  0  0  0  0  0  0  0  # atno 10763 bound_to 10752
  154.0818  135.6603  153.4843 H   0  0  0  0  0  0  0  0  0  0  0  0  # atno 10764 bound_to 10752
  153.0469  135.5199  154.7661 H   0  0  0  0  0  0  0  0  0  0  0  0  # atno 10765 bound_to 10752
  140.0628  134.9195  157.1213 H   0  0  0  0  0  0  0  0  0  0  0  0  # atno 11005 bound_to 11000
  144.7084  140.3944  143.7100 LP  0  0  0  0  0  0  0  0  0  0  0  0  # atno 17320 bound_to 7965
  145.6851  139.1627  143.2678 LP  0  0  0  0  0  0  0  0  0  0  0  0  # atno 17321 bound_to 7965
  140.3264  144.3367  150.5997 LP  0  0  0  0  0  0  0  0  0  0  0  0  # atno 17342 bound_to 10162
  140.5680  143.2184  151.7648 LP  0  0  0  0  0  0  0  0  0  0  0  0  # atno 17343 bound_to 10162
  157.2956  130.6817  149.6137 LP  0  0  0  0  0  0  0  0  0  0  0  0  # atno 17370 bound_to 10713
  155.9664  130.4407  150.5312 LP  0  0  0  0  0  0  0  0  0  0  0  0  # atno 17371 bound_to 10713
  140.3745  134.2354  155.7175 LP  0  0  0  0  0  0  0  0  0  0  0  0  # atno 17394 bound_to 11000
  141.1980  133.8046  157.0602 LP  0  0  0  0  0  0  0  0  0  0  0  0  # atno 17395 bound_to 11000

$$$$
