AV-unprocessed.smi:1381|AV-procd|sdf|5602|dock8
  -GOLD-   22720 5213D 1   1.00000     0.00000
 Structure written by MMmdl.
 42 43  0  0  0  0  0  0  0  0  1 V2000
  147.5872  138.7173  153.4914 C   0  0  0  0  0  0  0  0  0  0  0  0
  148.5466  139.6346  154.1693 C   0  0  0  0  0  0  0  0  0  0  0  0
  148.4025  140.8608  154.7554 C   0  0  0  0  0  0  0  0  0  0  0  0
  149.7182  141.1599  155.1990 C   0  0  0  0  0  0  0  0  0  0  0  0
  149.9996  142.3746  155.8750 N   0  0  0  0  0  0  0  0  0  0  0  0
  150.7074  142.5380  157.0058 C   0  0  0  0  0  0  0  0  0  0  0  0
  151.2349  141.6310  157.6504 O   0  0  0  0  0  0  0  0  0  0  0  0
  150.7731  143.8303  157.3577 N   0  0  0  0  0  0  0  0  0  0  0  0
  151.4664  144.3411  158.5341 C   0  0  0  0  0  0  0  0  0  0  0  0
  152.8269  143.6456  158.7285 C   0  0  0  0  0  0  0  0  0  0  0  0
  152.8793  142.6909  159.8341 N   0  0  0  0  0  0  0  0  0  0  0  0
  153.8849  141.6507  159.6287 C   0  0  0  0  0  0  0  0  0  0  0  0
  153.9485  140.6671  160.8136 C   0  0  1  0  0  0  0  0  0  0  0  0
  155.0598  139.6260  160.6439 C   0  0  0  0  0  0  0  0  0  0  0  0
  154.1962  141.3947  162.0134 O   0  0  0  0  0  0  0  0  0  0  0  0
  153.2128  142.3903  162.2809 C   0  0  1  0  0  0  0  0  0  0  0  0
  153.5800  143.0894  163.5940 C   0  0  0  0  0  0  0  0  0  0  0  0
  153.1565  143.3708  161.0942 C   0  0  0  0  0  0  0  0  0  0  0  0
  150.5871  140.2036  154.9090 N   0  0  0  0  0  0  0  0  0  0  0  0
  149.8409  139.2214  154.2472 O   0  0  0  0  0  0  0  0  0  0  0  0
  147.4620  138.9959  152.4451 H   0  0  0  0  0  0  0  0  0  0  0  0
  146.6092  138.7556  153.9715 H   0  0  0  0  0  0  0  0  0  0  0  0
  147.9393  137.6861  153.5273 H   0  0  0  0  0  0  0  0  0  0  0  0
  147.5002  141.4464  154.8495 H   0  0  0  0  0  0  0  0  0  0  0  0
  149.6202  143.2088  155.4523 H   0  0  0  0  0  0  0  0  0  0  0  0
  150.3082  144.5096  156.7734 H   0  0  0  0  0  0  0  0  0  0  0  0
  151.6141  145.4131  158.4001 H   0  0  0  0  0  0  0  0  0  0  0  0
  150.8265  144.2204  159.4089 H   0  0  0  0  0  0  0  0  0  0  0  0
  153.1232  143.1494  157.8030 H   0  0  0  0  0  0  0  0  0  0  0  0
  153.5724  144.4228  158.9022 H   0  0  0  0  0  0  0  0  0  0  0  0
  153.6657  141.0875  158.7223 H   0  0  0  0  0  0  0  0  0  0  0  0
  154.8645  142.1089  159.4831 H   0  0  0  0  0  0  0  0  0  0  0  0
  152.9935  140.1471  160.9073 H   0  0  0  0  0  0  0  0  0  0  0  0
  154.9074  139.0329  159.7417 H   0  0  0  0  0  0  0  0  0  0  0  0
  155.0841  138.9410  161.4916 H   0  0  0  0  0  0  0  0  0  0  0  0
  156.0383  140.1015  160.5711 H   0  0  0  0  0  0  0  0  0  0  0  0
  152.2422  141.9058  162.4009 H   0  0  0  0  0  0  0  0  0  0  0  0
  152.8480  143.8560  163.8485 H   0  0  0  0  0  0  0  0  0  0  0  0
  154.5572  143.5684  163.5258 H   0  0  0  0  0  0  0  0  0  0  0  0
  153.6156  142.3763  164.4179 H   0  0  0  0  0  0  0  0  0  0  0  0
  154.1039  143.9081  161.0219 H   0  0  0  0  0  0  0  0  0  0  0  0
  152.3875  144.1206  161.2840 H   0  0  0  0  0  0  0  0  0  0  0  0
  1  2  1  0  0  0  0
  1 21  1  0  0  0  0
  1 22  1  0  0  0  0
  1 23  1  0  0  0  0
  2 20  1  0  0  0  0
  2  3  2  0  0  0  0
  3  4  1  0  0  0  0
  3 24  1  0  0  0  0
  4  5  1  0  0  0  0
  4 19  2  0  0  0  0
  5  6  1  0  0  0  0
  5 25  1  0  0  0  0
  6  7  2  0  0  0  0
  6  8  1  0  0  0  0
  8  9  1  0  0  0  0
  8 26  1  0  0  0  0
  9 10  1  0  0  0  0
  9 27  1  0  0  0  0
  9 28  1  0  0  0  0
 10 11  1  0  0  0  0
 10 29  1  0  0  0  0
 10 30  1  0  0  0  0
 11 18  1  0  0  0  0
 11 12  1  0  0  0  0
 12 13  1  0  0  0  0
 12 31  1  0  0  0  0
 12 32  1  0  0  0  0
 13 14  1  0  0  0  0
 13 15  1  0  0  0  0
 13 33  1  0  0  0  0
 14 34  1  0  0  0  0
 14 35  1  0  0  0  0
 14 36  1  0  0  0  0
 15 16  1  0  0  0  0
 16 17  1  0  0  0  0
 16 18  1  0  0  0  0
 16 37  1  0  0  0  0
 17 38  1  0  0  0  0
 17 39  1  0  0  0  0
 17 40  1  0  0  0  0
 18 41  1  0  0  0  0
 18 42  1  0  0  0  0
 19 20  1  0  0  0  0
M  END
> <s_m_source_file>
AV-unprocessed.smi

> <i_m_source_file_index>
1381

> <i_lp_mmshare_version>
43012

> <i_f3d_flags>
0

> <s_epik_input>
W0NIM11jMVtjSF1jKG5vMSlbTkhdQyg9TylbTkhdW0NIMl1bQ0gyXU4yW0NIMl1bQ0BASF0oW0NIM10pT1tDQEBIXShbQ0gzXSlbQ0gyXTI=

> <s_epik_cmdline>
J2VwaWtfcHl0aG9uJywgJy1waCcsICc3LjAnLCAnLXRuJywgJzgnLCAnLW1hJywgJzIwMCcsICctbWV0YWxfYmluZGluZycsICctaW1hZScsICc8aW5maWxlLm1hZT4nLCAnLW9tYWUnLCAnPG91dGZpbGUubWFlPic=

> <r_epik_Ionization_Penalty>
0.214073

> <r_epik_Ionization_Penalty_Charging>
0

> <r_epik_Ionization_Penalty_Neutral>
0.214073

> <r_epik_State_Penalty>
0.204211

> <r_epik_Charging_Adjusted_Penalty>
0.204211

> <i_epik_Tot_Q>
0

> <i_epik_Tot_abs_Q>
0

> <r_epik_Metal_State_Penalty>
0.217067

> <b_epik_Metal_Only>
0

> <s_lp_Force_Field>
OPLS_2005

> <r_lp_Energy>
17.1752

> <b_lp_Chiralities_Consistent>
1

> <s_lp_Variant>
AV-unprocessed.smi:1381-1

> <Gold.Version>
5.8.1

> <Gold.Id.Protein>
6NUR|6NUR_protein|mol2

> <Gold.PLP.Fitness>
48.1802

> <Gold.PLP.PLP>
-41.8365

> <Gold.PLP.part.hbond>
-3.7370

> <Gold.PLP.part.metal>
0.0000

> <Gold.PLP.part.buried>
-5.9697

> <Gold.PLP.part.nonpolar>
-32.4172

> <Gold.PLP.part.repulsive>
0.4317

> <Gold.PLP.ligand.clash>
0.0000

> <Gold.PLP.ligand.torsion>
1.1412

> <Gold.PLP.Chemscore.Hbond>
2.8720

> <Gold.PLP.Chemscore.CHOScore>
0.0000

> <Gold.PLP.Chemscore.Metal>
0.0000

> <Gold.Chemscore.Hbonds>
donor molecule, donor type, donor heavy atom, donor atom, acceptor molecule, acceptor atom, score
      L1  H     5    25       P1  8028  0.98
      L1  H     8    26       P1  8028  0.88
      P1  H  7989  7998       L1    19  1.00

> <Gold.PLP.Chemscore.Internal.Correction>
0.0101

> <Gold.Rescore>
     Score         DG    S(hbond)    S(metal)    S(lipo)     H(rot)  DE(clash)    DE(int)     intcor
     18.28     -22.24       2.73        0.00      99.73       1.57       0.09       3.86       ----

> <Gold.Chemscore.Fitness>
18.2819

> <Gold.Chemscore.DG>
-22.2390

> <Gold.Chemscore.ZeroCoef>
-5.4800

> <Gold.Chemscore.Hbond>
2.7274

> <Gold.Chemscore.Metal>
0.0000

> <Gold.Chemscore.Lipo>
99.7269

> <Gold.Chemscore.Internal_Hbond>
0.0000

> <Gold.Chemscore.DEClash>
0.0928

> <Gold.Chemscore.DEInternal>
3.8643

> <Gold.Chemscore.Rot>
1.5697

> <Gold.Chemscore.Internal.Correction>
   9.000000E+99

> <Gold.Chemscore.Hbonds>
donor molecule, donor type, donor heavy atom, donor atom, acceptor molecule, acceptor atom, score
      L1  H     5    25       P1  8028  0.93
      L1  H     8    26       P1  8028  0.78
      P1  H  7989  7998       L1    19  0.16

> <Gold.Chemscore.Hbond.Weighted>
-9.1095

> <Gold.Chemscore.Metal.Weighted>
-0.0000

> <Gold.Chemscore.Lipo.Weighted>
-11.6680

> <Gold.Chemscore.Internal_Hbond.Weighted>
0.0000

> <Gold.Chemscore.DEClash.Weighted>
0.0928

> <Gold.Chemscore.DEInternal.Weighted>
3.8643

> <Gold.Chemscore.Rot.Weighted>
4.0185

> <Gold.Chemscore.Internal.Correction.Weighted>
   9.000000E+99

> <Gold.Protein.RotatedTorsions>
[ 6907 6896 6895 6894 ] final -144.07 input  -60.11 | X-H torsion
[ 7974 7965 7964 7962 ] final  171.20 input  175.53 | X-H torsion
[ 8008 7997 7996 7995 ] final   71.37 input   59.86 | X-H torsion
[ 10167 10162 10161 10158 ] final   -8.36 input  -65.29 | X-H torsion
[ 10718 10713 10712 10709 ] final  155.91 input   66.30 | X-H torsion
[ 10763 10752 10751 10750 ] final  -79.93 input  -60.55 | X-H torsion
[ 11005 11000 10999 10996 ] final -132.30 input  -57.11 | X-H torsion

> <Gold.Protein.ActiveResidues>
 VAL166  LYS551  ARG553  GLY616  TRP617  ASP618  TYR619  PRO620  LYS621  CYS622 
 ASP623  PHE694  ASN695  SER759  ASP760  ASP761  ALA762  ILE779  LEU786  VAL792 
 PHE793  MET794  SER795  GLU796  ALA797  LYS798  CYS799  TRP800  GLU811  SER814 

> <Gold.Protein.RotatedAtoms>
  151.1090  133.5187  159.2606 H   0  0  0  0  0  0  0  0  0  0  0  0  # atno 6907 bound_to 6896
  151.1988  135.0433  159.8873 H   0  0  0  0  0  0  0  0  0  0  0  0  # atno 6908 bound_to 6896
  152.5449  134.0921  159.8334 H   0  0  0  0  0  0  0  0  0  0  0  0  # atno 6909 bound_to 6896
  144.7301  139.9315  143.6425 H   0  0  0  0  0  0  0  0  0  0  0  0  # atno 7974 bound_to 7965
  155.7528  140.3488  155.5159 H   0  0  0  0  0  0  0  0  0  0  0  0  # atno 8008 bound_to 7997
  155.8988  140.1030  157.1386 H   0  0  0  0  0  0  0  0  0  0  0  0  # atno 8009 bound_to 7997
  154.4041  140.1290  156.4396 H   0  0  0  0  0  0  0  0  0  0  0  0  # atno 8010 bound_to 7997
  140.7057  143.5977  150.8829 H   0  0  0  0  0  0  0  0  0  0  0  0  # atno 10167 bound_to 10162
  157.2121  131.0700  151.1963 H   0  0  0  0  0  0  0  0  0  0  0  0  # atno 10718 bound_to 10713
  154.5448  135.5678  153.6870 H   0  0  0  0  0  0  0  0  0  0  0  0  # atno 10763 bound_to 10752
  152.9973  135.6236  154.2453 H   0  0  0  0  0  0  0  0  0  0  0  0  # atno 10764 bound_to 10752
  154.2386  135.2863  155.2842 H   0  0  0  0  0  0  0  0  0  0  0  0  # atno 10765 bound_to 10752
  140.9182  134.1479  157.4335 H   0  0  0  0  0  0  0  0  0  0  0  0  # atno 11005 bound_to 11000
  146.0854  139.3842  143.0439 LP  0  0  0  0  0  0  0  0  0  0  0  0  # atno 17320 bound_to 7965
  145.7784  140.9867  143.1112 LP  0  0  0  0  0  0  0  0  0  0  0  0  # atno 17321 bound_to 7965
  139.9702  143.6066  152.2976 LP  0  0  0  0  0  0  0  0  0  0  0  0  # atno 17342 bound_to 10162
  139.6649  144.7662  151.1891 LP  0  0  0  0  0  0  0  0  0  0  0  0  # atno 17343 bound_to 10162
  157.3662  130.7157  149.6534 LP  0  0  0  0  0  0  0  0  0  0  0  0  # atno 17370 bound_to 10713
  155.9690  130.4211  150.4456 LP  0  0  0  0  0  0  0  0  0  0  0  0  # atno 17371 bound_to 10713
  139.8770  134.9961  156.5780 LP  0  0  0  0  0  0  0  0  0  0  0  0  # atno 17394 bound_to 11000
  140.8022  133.8496  155.8736 LP  0  0  0  0  0  0  0  0  0  0  0  0  # atno 17395 bound_to 11000

$$$$
