AV-unprocessed.smi:356|AV-procd|sdf|2408|dock3
  -GOLD-   2262022343D 1   1.00000     0.00000
 Structure written by MMmdl.
 41 43  0  0  0  0  0  0  0  0  1 V2000
  150.8162  144.8624  159.7086 C   0  0  0  0  0  0  0  0  0  0  0  0
  151.7701  143.8615  160.2799 C   0  0  0  0  0  0  0  0  0  0  0  0
  152.0828  143.8360  161.5756 N   0  0  0  0  0  0  0  0  0  0  0  0
  152.9737  142.7825  161.6506 C   0  0  0  0  0  0  0  0  0  0  0  0
  153.6684  142.2453  162.7580 C   0  0  0  0  0  0  0  0  0  0  0  0
  154.5395  141.1489  162.5906 C   0  0  0  0  0  0  0  0  0  0  0  0
  154.7287  140.5754  161.3165 C   0  0  0  0  0  0  0  0  0  0  0  0
  154.0473  141.0959  160.1995 C   0  0  0  0  0  0  0  0  0  0  0  0
  153.1783  142.1903  160.3716 C   0  0  0  0  0  0  0  0  0  0  0  0
  152.3722  142.9247  159.5068 N   0  0  0  0  0  0  0  0  0  0  0  0
  152.2193  142.7189  158.0733 C   0  0  0  0  0  0  0  0  0  0  0  0
  150.9663  141.8895  157.7232 C   0  0  2  0  0  0  0  0  0  0  0  0
  151.1050  140.5850  158.2487 O   0  0  0  0  0  0  0  0  0  0  0  0
  150.7407  141.7648  156.2031 C   0  0  0  0  0  0  0  0  0  0  0  0
  149.5179  141.0668  155.8030 N   0  0  0  0  0  0  0  0  0  0  0  0
  149.1620  141.3057  154.4055 C   0  0  0  0  0  0  0  0  0  0  0  0
  147.8589  140.5872  154.0137 C   0  0  0  0  0  0  0  0  0  0  0  0
  146.8069  140.9921  154.8832 O   0  0  0  0  0  0  0  0  0  0  0  0
  147.0963  140.7309  156.2523 C   0  0  0  0  0  0  0  0  0  0  0  0
  148.3948  141.4538  156.6502 C   0  0  0  0  0  0  0  0  0  0  0  0
  150.4201  145.5054  160.4951 H   0  0  0  0  0  0  0  0  0  0  0  0
  149.9794  144.3584  159.2257 H   0  0  0  0  0  0  0  0  0  0  0  0
  151.3215  145.4907  158.9751 H   0  0  0  0  0  0  0  0  0  0  0  0
  153.5299  142.6775  163.7380 H   0  0  0  0  0  0  0  0  0  0  0  0
  155.0643  140.7460  163.4446 H   0  0  0  0  0  0  0  0  0  0  0  0
  155.3967  139.7351  161.1973 H   0  0  0  0  0  0  0  0  0  0  0  0
  154.1889  140.6575  159.2231 H   0  0  0  0  0  0  0  0  0  0  0  0
  152.1793  143.6938  157.5872 H   0  0  0  0  0  0  0  0  0  0  0  0
  153.1174  142.2322  157.6913 H   0  0  0  0  0  0  0  0  0  0  0  0
  150.0878  142.3225  158.1993 H   0  0  0  0  0  0  0  0  0  0  0  0
  150.4306  140.4484  158.8961 H   0  0  0  0  0  0  0  0  0  0  0  0
  150.7265  142.7717  155.7832 H   0  0  0  0  0  0  0  0  0  0  0  0
  151.6004  141.2673  155.7510 H   0  0  0  0  0  0  0  0  0  0  0  0
  149.0513  142.3767  154.2295 H   0  0  0  0  0  0  0  0  0  0  0  0
  149.9563  140.9600  153.7460 H   0  0  0  0  0  0  0  0  0  0  0  0
  147.5858  140.8295  152.9867 H   0  0  0  0  0  0  0  0  0  0  0  0
  147.9857  139.5047  154.0642 H   0  0  0  0  0  0  0  0  0  0  0  0
  146.2649  141.0791  156.8650 H   0  0  0  0  0  0  0  0  0  0  0  0
  147.1867  139.6558  156.4143 H   0  0  0  0  0  0  0  0  0  0  0  0
  148.6239  141.2313  157.6929 H   0  0  0  0  0  0  0  0  0  0  0  0
  148.2390  142.5321  156.5884 H   0  0  0  0  0  0  0  0  0  0  0  0
  1  2  1  0  0  0  0
  1 21  1  0  0  0  0
  1 22  1  0  0  0  0
  1 23  1  0  0  0  0
  2 10  1  0  0  0  0
  2  3  2  0  0  0  0
  3  4  1  0  0  0  0
  4  9  2  0  0  0  0
  4  5  1  0  0  0  0
  5  6  2  0  0  0  0
  5 24  1  0  0  0  0
  6  7  1  0  0  0  0
  6 25  1  0  0  0  0
  7  8  2  0  0  0  0
  7 26  1  0  0  0  0
  8  9  1  0  0  0  0
  8 27  1  0  0  0  0
  9 10  1  0  0  0  0
 10 11  1  0  0  0  0
 11 12  1  0  0  0  0
 11 28  1  0  0  0  0
 11 29  1  0  0  0  0
 12 13  1  0  0  0  0
 12 14  1  0  0  0  0
 12 30  1  0  0  0  0
 13 31  1  0  0  0  0
 14 15  1  0  0  0  0
 14 32  1  0  0  0  0
 14 33  1  0  0  0  0
 15 20  1  0  0  0  0
 15 16  1  0  0  0  0
 16 17  1  0  0  0  0
 16 34  1  0  0  0  0
 16 35  1  0  0  0  0
 17 18  1  0  0  0  0
 17 36  1  0  0  0  0
 17 37  1  0  0  0  0
 18 19  1  0  0  0  0
 19 20  1  0  0  0  0
 19 38  1  0  0  0  0
 19 39  1  0  0  0  0
 20 40  1  0  0  0  0
 20 41  1  0  0  0  0
M  END
> <s_m_source_file>
AV-unprocessed.smi

> <i_m_source_file_index>
356

> <i_lp_mmshare_version>
43012

> <i_f3d_flags>
0

> <s_epik_input>
W2NIXTFbY0hdW2NIXVtjSF1jKGMxMiluKGMobjIpW0NIM10pW0NIMl1bQ0BIXShbT0hdKVtDSDJdTjNbQ0gyXVtDSDJdT1tDSDJdW0NIMl0z

> <s_epik_cmdline>
J2VwaWtfcHl0aG9uJywgJy1waCcsICc3LjAnLCAnLXRuJywgJzgnLCAnLW1hJywgJzIwMCcsICctbWV0YWxfYmluZGluZycsICctaW1hZScsICc8aW5maWxlLm1hZT4nLCAnLW9tYWUnLCAnPG91dGZpbGUubWFlPic=

> <r_epik_Ionization_Penalty>
0.355661

> <r_epik_Ionization_Penalty_Charging>
0

> <r_epik_Ionization_Penalty_Neutral>
0.355661

> <r_epik_State_Penalty>
0.325123

> <r_epik_Charging_Adjusted_Penalty>
0.325123

> <i_epik_Tot_Q>
0

> <i_epik_Tot_abs_Q>
0

> <r_epik_Metal_State_Penalty>
0.239925

> <b_epik_Metal_Only>
0

> <s_lp_Force_Field>
OPLS_2005

> <r_lp_Energy>
27.9323

> <b_lp_Chiralities_Consistent>
1

> <s_lp_Variant>
AV-unprocessed.smi:356-1

> <Gold.Version>
5.8.1

> <Gold.Id.Protein>
6NUR|6NUR_protein|mol2

> <Gold.PLP.Fitness>
44.8514

> <Gold.PLP.PLP>
-45.7760

> <Gold.PLP.part.hbond>
0.0000

> <Gold.PLP.part.metal>
0.0000

> <Gold.PLP.part.buried>
-4.4086

> <Gold.PLP.part.nonpolar>
-40.7874

> <Gold.PLP.part.repulsive>
0.8110

> <Gold.PLP.ligand.clash>
0.0000

> <Gold.PLP.ligand.torsion>
0.4856

> <Gold.PLP.Chemscore.Hbond>
0.0000

> <Gold.PLP.Chemscore.CHOScore>
0.0000

> <Gold.PLP.Chemscore.Metal>
0.0000

> <Gold.PLP.Chemscore.Internal.Correction>
0.0466

> <Gold.Rescore>
     Score         DG    S(hbond)    S(metal)    S(lipo)     H(rot)  DE(clash)    DE(int)     intcor
     13.77     -14.25       0.00        0.00     118.46       1.99       0.07       0.41       ----

> <Gold.Chemscore.Fitness>
13.7735

> <Gold.Chemscore.DG>
-14.2545

> <Gold.Chemscore.ZeroCoef>
-5.4800

> <Gold.Chemscore.Hbond>
0.0000

> <Gold.Chemscore.Metal>
0.0000

> <Gold.Chemscore.Lipo>
118.4571

> <Gold.Chemscore.Internal_Hbond>
0.0000

> <Gold.Chemscore.DEClash>
0.0666

> <Gold.Chemscore.DEInternal>
0.4143

> <Gold.Chemscore.Rot>
1.9863

> <Gold.Chemscore.Internal.Correction>
   9.000000E+99

> <Gold.Chemscore.Hbond.Weighted>
-0.0000

> <Gold.Chemscore.Metal.Weighted>
-0.0000

> <Gold.Chemscore.Lipo.Weighted>
-13.8595

> <Gold.Chemscore.Internal_Hbond.Weighted>
0.0000

> <Gold.Chemscore.DEClash.Weighted>
0.0666

> <Gold.Chemscore.DEInternal.Weighted>
0.4143

> <Gold.Chemscore.Rot.Weighted>
5.0850

> <Gold.Chemscore.Internal.Correction.Weighted>
   9.000000E+99

> <Gold.Protein.RotatedTorsions>
[ 6907 6896 6895 6894 ] final  -49.45 input  -60.11 | X-H torsion
[ 7974 7965 7964 7962 ] final  102.55 input  175.53 | X-H torsion
[ 8008 7997 7996 7995 ] final   96.90 input   59.86 | X-H torsion
[ 10167 10162 10161 10158 ] final  137.27 input  -65.29 | X-H torsion
[ 10718 10713 10712 10709 ] final  124.21 input   66.30 | X-H torsion
[ 10763 10752 10751 10750 ] final    7.93 input  -60.55 | X-H torsion
[ 11005 11000 10999 10996 ] final -114.63 input  -57.11 | X-H torsion

> <Gold.Protein.ActiveResidues>
 VAL166  LYS551  ARG553  GLY616  TRP617  ASP618  TYR619  PRO620  LYS621  CYS622 
 ASP623  PHE694  ASN695  SER759  ASP760  ASP761  ALA762  ILE779  LEU786  VAL792 
 PHE793  MET794  SER795  GLU796  ALA797  LYS798  CYS799  TRP800  GLU811  SER814 

> <Gold.Protein.RotatedAtoms>
  150.8804  134.8194  159.7220 H   0  0  0  0  0  0  0  0  0  0  0  0  # atno 6907 bound_to 6896
  152.4774  134.4804  159.9674 H   0  0  0  0  0  0  0  0  0  0  0  0  # atno 6908 bound_to 6896
  151.4880  133.3492  159.2884 H   0  0  0  0  0  0  0  0  0  0  0  0  # atno 6909 bound_to 6896
  145.3577  139.2425  143.3524 H   0  0  0  0  0  0  0  0  0  0  0  0  # atno 7974 bound_to 7965
  156.0844  140.3266  155.7735 H   0  0  0  0  0  0  0  0  0  0  0  0  # atno 8008 bound_to 7997
  155.5099  140.0576  157.2942 H   0  0  0  0  0  0  0  0  0  0  0  0  # atno 8009 bound_to 7997
  154.4601  140.1962  156.0286 H   0  0  0  0  0  0  0  0  0  0  0  0  # atno 8010 bound_to 7997
  139.5150  144.6419  151.5546 H   0  0  0  0  0  0  0  0  0  0  0  0  # atno 10167 bound_to 10162
  157.5603  131.1090  150.8550 H   0  0  0  0  0  0  0  0  0  0  0  0  # atno 10718 bound_to 10713
  153.2307  135.6892  153.7893 H   0  0  0  0  0  0  0  0  0  0  0  0  # atno 10763 bound_to 10752
  153.7059  135.3290  155.3236 H   0  0  0  0  0  0  0  0  0  0  0  0  # atno 10764 bound_to 10752
  154.8312  135.4579  154.1191 H   0  0  0  0  0  0  0  0  0  0  0  0  # atno 10765 bound_to 10752
  141.0539  133.9643  157.2788 H   0  0  0  0  0  0  0  0  0  0  0  0  # atno 11005 bound_to 11000
  146.2941  140.4205  142.8728 LP  0  0  0  0  0  0  0  0  0  0  0  0  # atno 17320 bound_to 7965
  144.8670  140.7220  143.6071 LP  0  0  0  0  0  0  0  0  0  0  0  0  # atno 17321 bound_to 7965
  140.6189  143.9296  150.6510 LP  0  0  0  0  0  0  0  0  0  0  0  0  # atno 17342 bound_to 10162
  140.2563  143.3556  152.1362 LP  0  0  0  0  0  0  0  0  0  0  0  0  # atno 17343 bound_to 10162
  156.9050  130.5260  149.5281 LP  0  0  0  0  0  0  0  0  0  0  0  0  # atno 17370 bound_to 10713
  156.0656  130.5700  150.9282 LP  0  0  0  0  0  0  0  0  0  0  0  0  # atno 17371 bound_to 10713
  139.9374  135.0195  156.8598 LP  0  0  0  0  0  0  0  0  0  0  0  0  # atno 17394 bound_to 11000
  140.6001  134.0179  155.7534 LP  0  0  0  0  0  0  0  0  0  0  0  0  # atno 17395 bound_to 11000

$$$$
