AV-unprocessed.smi:156|AV-procd|sdf|1287|dock4
  -GOLD-   2262018563D 1   1.00000     0.00000
 Structure written by MMmdl.
 51 53  0  0  0  0  0  0  0  0  1 V2000
  149.2657  136.2137  158.6115 C   0  0  0  0  0  0  0  0  0  0  0  0
  149.2738  135.8470  157.1108 C   0  0  2  0  0  0  0  0  0  0  0  0
  148.5804  134.4969  156.7464 C   0  0  2  0  0  0  0  0  0  0  0  0
  147.0493  134.6653  156.6789 C   0  0  0  0  0  0  0  0  0  0  0  0
  149.0176  133.1482  157.9529 S   0  0  0  0  0  0  0  0  0  0  0  0
  148.1193  131.6772  157.3026 C   0  0  0  0  0  0  0  0  0  0  0  0
  150.4567  132.8661  157.8396 O   0  0  0  0  0  0  0  0  0  0  0  0
  148.4460  133.4887  159.2647 O   0  0  0  0  0  0  0  0  0  0  0  0
  150.6183  135.9819  156.5259 N   0  0  0  0  0  0  0  0  0  0  0  0
  151.2033  134.8152  155.8729 C   0  0  0  0  0  0  0  0  0  0  0  0
  151.0923  137.1719  156.0680 C   0  0  0  0  0  0  0  0  0  0  0  0
  151.9389  137.2090  155.0057 N   0  0  0  0  0  0  0  0  0  0  0  0
  152.4155  138.3733  154.5572 C   0  0  0  0  0  0  0  0  0  0  0  0
  152.1811  139.6025  155.0182 N   0  0  0  0  0  0  0  0  0  0  0  0
  151.3353  139.5770  156.0872 C   0  0  0  0  0  0  0  0  0  0  0  0
  150.7500  138.4169  156.6699 C   0  0  0  0  0  0  0  0  0  0  0  0
  149.9303  138.7860  157.7295 N   0  0  0  0  0  0  0  0  0  0  0  0
  150.0296  140.0862  157.7742 C   0  0  0  0  0  0  0  0  0  0  0  0
  150.8641  140.6451  156.8325 N   0  0  0  0  0  0  0  0  0  0  0  0
  151.1546  142.0607  156.6514 C   0  0  0  0  0  0  0  0  0  0  0  0
  151.5162  142.8083  157.9531 C   0  0  0  0  0  0  0  0  0  0  0  0
  152.5466  142.0090  158.7685 C   0  0  0  0  0  0  0  0  0  0  0  0
  152.8986  142.6914  159.9545 O   0  0  0  0  0  0  0  0  0  0  0  0
  151.8349  144.2988  157.7726 C   0  0  0  0  0  0  0  0  0  0  0  0
  150.5820  144.7093  158.3584 O   0  0  0  0  0  0  0  0  0  0  0  0
  150.3250  143.3476  158.7598 C   0  0  0  0  0  0  0  0  0  0  0  0
  148.2580  136.4315  158.9629 H   0  0  0  0  0  0  0  0  0  0  0  0
  149.8560  137.1090  158.8062 H   0  0  0  0  0  0  0  0  0  0  0  0
  149.6671  135.4135  159.2328 H   0  0  0  0  0  0  0  0  0  0  0  0
  148.6782  136.6201  156.6232 H   0  0  0  0  0  0  0  0  0  0  0  0
  148.9301  134.1430  155.7780 H   0  0  0  0  0  0  0  0  0  0  0  0
  146.7608  135.4633  155.9950 H   0  0  0  0  0  0  0  0  0  0  0  0
  146.6346  134.9052  157.6582 H   0  0  0  0  0  0  0  0  0  0  0  0
  146.5587  133.7637  156.3159 H   0  0  0  0  0  0  0  0  0  0  0  0
  148.4407  130.7920  157.8510 H   0  0  0  0  0  0  0  0  0  0  0  0
  148.3464  131.5459  156.2446 H   0  0  0  0  0  0  0  0  0  0  0  0
  147.0459  131.8026  157.4391 H   0  0  0  0  0  0  0  0  0  0  0  0
  151.4090  135.0125  154.8199 H   0  0  0  0  0  0  0  0  0  0  0  0
  150.5336  133.9563  155.9241 H   0  0  0  0  0  0  0  0  0  0  0  0
  152.1364  134.5346  156.3610 H   0  0  0  0  0  0  0  0  0  0  0  0
  153.0807  138.3103  153.7088 H   0  0  0  0  0  0  0  0  0  0  0  0
  149.4866  140.6740  158.4992 H   0  0  0  0  0  0  0  0  0  0  0  0
  151.9569  142.1557  155.9191 H   0  0  0  0  0  0  0  0  0  0  0  0
  150.2819  142.5176  156.1831 H   0  0  0  0  0  0  0  0  0  0  0  0
  152.1416  141.0378  159.0549 H   0  0  0  0  0  0  0  0  0  0  0  0
  153.4476  141.8009  158.1916 H   0  0  0  0  0  0  0  0  0  0  0  0
  152.1235  142.7913  160.4860 H   0  0  0  0  0  0  0  0  0  0  0  0
  152.6881  144.6443  158.3583 H   0  0  0  0  0  0  0  0  0  0  0  0
  151.9295  144.6084  156.7312 H   0  0  0  0  0  0  0  0  0  0  0  0
  149.3507  142.9998  158.4193 H   0  0  0  0  0  0  0  0  0  0  0  0
  150.4242  143.2188  159.8386 H   0  0  0  0  0  0  0  0  0  0  0  0
  1  2  1  0  0  0  0
  1 27  1  0  0  0  0
  1 28  1  0  0  0  0
  1 29  1  0  0  0  0
  2  3  1  0  0  0  0
  2  9  1  0  0  0  0
  2 30  1  0  0  0  0
  3  4  1  0  0  0  0
  3  5  1  0  0  0  0
  3 31  1  0  0  0  0
  4 32  1  0  0  0  0
  4 33  1  0  0  0  0
  4 34  1  0  0  0  0
  5  6  1  0  0  0  0
  5  7  2  0  0  0  0
  5  8  2  0  0  0  0
  6 35  1  0  0  0  0
  6 36  1  0  0  0  0
  6 37  1  0  0  0  0
  9 10  1  0  0  0  0
  9 11  1  0  0  0  0
 10 38  1  0  0  0  0
 10 39  1  0  0  0  0
 10 40  1  0  0  0  0
 11 16  1  0  0  0  0
 11 12  2  0  0  0  0
 12 13  1  0  0  0  0
 13 14  2  0  0  0  0
 13 41  1  0  0  0  0
 14 15  1  0  0  0  0
 15 19  1  0  0  0  0
 15 16  2  0  0  0  0
 16 17  1  0  0  0  0
 17 18  2  0  0  0  0
 18 19  1  0  0  0  0
 18 42  1  0  0  0  0
 19 20  1  0  0  0  0
 20 21  1  0  0  0  0
 20 43  1  0  0  0  0
 20 44  1  0  0  0  0
 21 26  1  0  0  0  0
 21 22  1  0  0  0  0
 21 24  1  0  0  0  0
 22 23  1  0  0  0  0
 22 45  1  0  0  0  0
 22 46  1  0  0  0  0
 23 47  1  0  0  0  0
 24 25  1  0  0  0  0
 24 48  1  0  0  0  0
 24 49  1  0  0  0  0
 25 26  1  0  0  0  0
 26 50  1  0  0  0  0
 26 51  1  0  0  0  0
M  END
> <s_m_source_file>
AV-unprocessed.smi

> <i_m_source_file_index>
156

> <i_lp_mmshare_version>
43012

> <i_f3d_flags>
0

> <s_epik_input>
W0NIM11TKD1PKSg9TylbQ0BASF0oW0NIM10pW0NAQEhdKFtDSDNdKU4oW0NIM10pYyhuW2NIXW4xKWMoYzEyKW5bY0hdbjJbQ0gyXUMzKFtDSDJdW09IXSlbQ0gyXU9bQ0gyXTM=

> <s_epik_cmdline>
J2VwaWtfcHl0aG9uJywgJy1waCcsICc3LjAnLCAnLXRuJywgJzgnLCAnLW1hJywgJzIwMCcsICctbWV0YWxfYmluZGluZycsICctaW1hZScsICc8aW5maWxlLm1hZT4nLCAnLW9tYWUnLCAnPG91dGZpbGUubWFlPic=

> <r_lp_tautomer_probability>
1

> <r_epik_Ionization_Penalty>
0.00107697

> <r_epik_Ionization_Penalty_Charging>
0

> <r_epik_Ionization_Penalty_Neutral>
0.00107697

> <r_epik_State_Penalty>
0.000614712

> <r_epik_Charging_Adjusted_Penalty>
0.000614712

> <i_epik_Tot_Q>
0

> <i_epik_Tot_abs_Q>
0

> <r_epik_Metal_State_Penalty>
-0

> <b_epik_Metal_Only>
0

> <s_lp_Force_Field>
OPLS_2005

> <r_lp_Energy>
28.4574

> <b_lp_Chiralities_Consistent>
1

> <s_lp_Variant>
AV-unprocessed.smi:156-1

> <Gold.Version>
5.8.1

> <Gold.Id.Protein>
6NUR|6NUR_protein|mol2

> <Gold.PLP.Fitness>
39.5536

> <Gold.PLP.PLP>
-32.6930

> <Gold.PLP.part.hbond>
-3.0000

> <Gold.PLP.part.metal>
0.0000

> <Gold.PLP.part.buried>
-7.7784

> <Gold.PLP.part.nonpolar>
-22.2888

> <Gold.PLP.part.repulsive>
0.3128

> <Gold.PLP.ligand.clash>
0.0000

> <Gold.PLP.ligand.torsion>
1.6339

> <Gold.PLP.Chemscore.Hbond>
2.8313

> <Gold.PLP.Chemscore.CHOScore>
0.0000

> <Gold.PLP.Chemscore.Metal>
0.0000

> <Gold.Chemscore.Hbonds>
donor molecule, donor type, donor heavy atom, donor atom, acceptor molecule, acceptor atom, score
      P1  H  6896  6907       L1     7  1.00
      P1  H  7989  7998       L1    14  0.81
      P1  H 10752 10764       L1    12  0.94

> <Gold.PLP.Chemscore.Internal.Correction>
1.6343

> <Gold.Rescore>
     Score         DG    S(hbond)    S(metal)    S(lipo)     H(rot)  DE(clash)    DE(int)     intcor
      8.55     -13.32       2.51        0.00      65.75       3.21       0.16       4.60       ----

> <Gold.Chemscore.Fitness>
8.5530

> <Gold.Chemscore.DG>
-13.3197

> <Gold.Chemscore.ZeroCoef>
-5.4800

> <Gold.Chemscore.Hbond>
2.5054

> <Gold.Chemscore.Metal>
0.0000

> <Gold.Chemscore.Lipo>
65.7536

> <Gold.Chemscore.Internal_Hbond>
0.0000

> <Gold.Chemscore.DEClash>
0.1620

> <Gold.Chemscore.DEInternal>
4.6047

> <Gold.Chemscore.Rot>
3.2115

> <Gold.Chemscore.Internal.Correction>
   9.000000E+99

> <Gold.Chemscore.Hbonds>
donor molecule, donor type, donor heavy atom, donor atom, acceptor molecule, acceptor atom, score
      P1  H  6896  6907       L1     7  0.50
      P1  H  7989  7998       L1    14  0.55
      P1  H 10752 10764       L1    12  0.82

> <Gold.Chemscore.Hbond.Weighted>
-8.3680

> <Gold.Chemscore.Metal.Weighted>
-0.0000

> <Gold.Chemscore.Lipo.Weighted>
-7.6932

> <Gold.Chemscore.Internal_Hbond.Weighted>
0.0000

> <Gold.Chemscore.DEClash.Weighted>
0.1620

> <Gold.Chemscore.DEInternal.Weighted>
4.6047

> <Gold.Chemscore.Rot.Weighted>
8.2215

> <Gold.Chemscore.Internal.Correction.Weighted>
   9.000000E+99

> <Gold.Protein.RotatedTorsions>
[ 6907 6896 6895 6894 ] final -146.25 input  -60.11 | X-H torsion
[ 7974 7965 7964 7962 ] final  113.62 input  175.53 | X-H torsion
[ 8008 7997 7996 7995 ] final  117.20 input   59.86 | X-H torsion
[ 10167 10162 10161 10158 ] final  127.52 input  -65.29 | X-H torsion
[ 10718 10713 10712 10709 ] final  163.87 input   66.30 | X-H torsion
[ 10763 10752 10751 10750 ] final  -59.59 input  -60.55 | X-H torsion
[ 11005 11000 10999 10996 ] final -165.08 input  -57.11 | X-H torsion

> <Gold.Protein.ActiveResidues>
 VAL166  LYS551  ARG553  GLY616  TRP617  ASP618  TYR619  PRO620  LYS621  CYS622 
 ASP623  PHE694  ASN695  SER759  ASP760  ASP761  ALA762  ILE779  LEU786  VAL792 
 PHE793  MET794  SER795  GLU796  ALA797  LYS798  CYS799  TRP800  GLU811  SER814 

> <Gold.Protein.RotatedAtoms>
  151.1390  133.4984  159.2597 H   0  0  0  0  0  0  0  0  0  0  0  0  # atno 6907 bound_to 6896
  151.1675  135.0302  159.8747 H   0  0  0  0  0  0  0  0  0  0  0  0  # atno 6908 bound_to 6896
  152.5462  134.1257  159.8471 H   0  0  0  0  0  0  0  0  0  0  0  0  # atno 6909 bound_to 6896
  145.2146  139.2890  143.4250 H   0  0  0  0  0  0  0  0  0  0  0  0  # atno 7974 bound_to 7965
  156.2481  140.2901  156.0641 H   0  0  0  0  0  0  0  0  0  0  0  0  # atno 8008 bound_to 7997
  155.1743  140.0402  157.2886 H   0  0  0  0  0  0  0  0  0  0  0  0  # atno 8009 bound_to 7997
  154.6304  140.2498  155.7448 H   0  0  0  0  0  0  0  0  0  0  0  0  # atno 8010 bound_to 7997
  139.5574  144.6858  151.4143 H   0  0  0  0  0  0  0  0  0  0  0  0  # atno 10167 bound_to 10162
  157.1024  131.0446  151.2492 H   0  0  0  0  0  0  0  0  0  0  0  0  # atno 10718 bound_to 10713
  154.2560  135.6317  153.5257 H   0  0  0  0  0  0  0  0  0  0  0  0  # atno 10763 bound_to 10752
  152.9904  135.5576  154.5755 H   0  0  0  0  0  0  0  0  0  0  0  0  # atno 10764 bound_to 10752
  154.5294  135.2887  155.1168 H   0  0  0  0  0  0  0  0  0  0  0  0  # atno 10765 bound_to 10752
  140.5797  134.5154  157.5176 H   0  0  0  0  0  0  0  0  0  0  0  0  # atno 11005 bound_to 11000
  146.3390  140.2433  142.8596 LP  0  0  0  0  0  0  0  0  0  0  0  0  # atno 17320 bound_to 7965
  144.9823  140.8470  143.5390 LP  0  0  0  0  0  0  0  0  0  0  0  0  # atno 17321 bound_to 7965
  140.6849  143.7998  150.7172 LP  0  0  0  0  0  0  0  0  0  0  0  0  # atno 17342 bound_to 10162
  140.1462  143.4397  152.2161 LP  0  0  0  0  0  0  0  0  0  0  0  0  # atno 17343 bound_to 10162
  157.4629  130.7664  149.7253 LP  0  0  0  0  0  0  0  0  0  0  0  0  # atno 17370 bound_to 10713
  155.9870  130.3970  150.3184 LP  0  0  0  0  0  0  0  0  0  0  0  0  # atno 17371 bound_to 10713
  139.9323  134.7941  156.0897 LP  0  0  0  0  0  0  0  0  0  0  0  0  # atno 17394 bound_to 11000
  141.1004  133.6679  156.2741 LP  0  0  0  0  0  0  0  0  0  0  0  0  # atno 17395 bound_to 11000

$$$$
