AV-unprocessed.smi:1962|AV-procd|sdf|7923|dock4
  -GOLD-   2272010 93D 1   1.00000     0.00000
 Structure written by MMmdl.
 36 37  0  0  0  0  0  0  0  0  1 V2000
  153.0135  139.0699  159.0380 C   0  0  0  0  0  0  0  0  0  0  0  0
  152.3287  140.3638  159.4980 C   0  0  1  0  0  0  0  0  0  0  0  0
  153.3281  141.5377  159.5614 C   0  0  0  0  0  0  0  0  0  0  0  0
  152.7549  142.7272  160.1669 N   0  0  0  0  0  0  0  0  0  0  0  0
  152.3021  143.8711  159.5440 C   0  0  0  0  0  0  0  0  0  0  0  0
  151.8656  144.7198  160.5206 C   0  0  0  0  0  0  0  0  0  0  0  0
  152.0930  143.9955  161.7241 C   0  0  0  0  0  0  0  0  0  0  0  0
  152.6226  142.8021  161.5093 N   0  0  0  0  0  0  0  0  0  0  0  0
  151.2278  140.6692  158.5856 N   0  0  0  0  0  0  0  0  0  0  0  0
  151.2743  140.6006  157.2417 C   0  0  0  0  0  0  0  0  0  0  0  0
  152.2907  140.2919  156.6189 O   0  0  0  0  0  0  0  0  0  0  0  0
  150.0045  140.9089  156.5318 C   0  0  0  0  0  0  0  0  0  0  0  0
  148.9445  141.2286  157.2062 N   0  0  0  0  0  0  0  0  0  0  0  0
  147.7475  141.5317  156.5901 N   0  0  0  0  0  0  0  0  0  0  0  0
  146.7383  142.1221  157.4670 C   0  0  0  0  0  0  0  0  0  0  0  0
  147.4678  141.2869  155.2856 C   0  0  0  0  0  0  0  0  0  0  0  0
  146.3980  141.5754  154.7494 O   0  0  0  0  0  0  0  0  0  0  0  0
  148.5581  140.5809  154.4746 C   0  0  0  0  0  0  0  0  0  0  0  0
  149.9713  140.8731  155.0165 C   0  0  0  0  0  0  0  0  0  0  0  0
  153.8230  138.7936  159.7141 H   0  0  0  0  0  0  0  0  0  0  0  0
  153.4365  139.1771  158.0386 H   0  0  0  0  0  0  0  0  0  0  0  0
  152.3078  138.2388  159.0142 H   0  0  0  0  0  0  0  0  0  0  0  0
  151.9407  140.1823  160.5019 H   0  0  0  0  0  0  0  0  0  0  0  0
  154.2001  141.2538  160.1518 H   0  0  0  0  0  0  0  0  0  0  0  0
  153.6960  141.7830  158.5636 H   0  0  0  0  0  0  0  0  0  0  0  0
  152.3340  143.9862  158.4706 H   0  0  0  0  0  0  0  0  0  0  0  0
  151.4491  145.7080  160.3947 H   0  0  0  0  0  0  0  0  0  0  0  0
  151.8901  144.2988  162.7405 H   0  0  0  0  0  0  0  0  0  0  0  0
  150.3483  140.9292  159.0087 H   0  0  0  0  0  0  0  0  0  0  0  0
  145.8617  141.4757  157.5320 H   0  0  0  0  0  0  0  0  0  0  0  0
  146.4189  143.0935  157.0867 H   0  0  0  0  0  0  0  0  0  0  0  0
  147.1133  142.2725  158.4808 H   0  0  0  0  0  0  0  0  0  0  0  0
  148.3605  139.5094  154.5246 H   0  0  0  0  0  0  0  0  0  0  0  0
  148.4883  140.8649  153.4242 H   0  0  0  0  0  0  0  0  0  0  0  0
  150.3297  141.8264  154.6267 H   0  0  0  0  0  0  0  0  0  0  0  0
  150.6505  140.1100  154.6341 H   0  0  0  0  0  0  0  0  0  0  0  0
  1  2  1  0  0  0  0
  1 20  1  0  0  0  0
  1 21  1  0  0  0  0
  1 22  1  0  0  0  0
  2  3  1  0  0  0  0
  2  9  1  0  0  0  0
  2 23  1  0  0  0  0
  3  4  1  0  0  0  0
  3 24  1  0  0  0  0
  3 25  1  0  0  0  0
  4  8  1  0  0  0  0
  4  5  1  0  0  0  0
  5  6  2  0  0  0  0
  5 26  1  0  0  0  0
  6  7  1  0  0  0  0
  6 27  1  0  0  0  0
  7  8  2  0  0  0  0
  7 28  1  0  0  0  0
  9 10  1  0  0  0  0
  9 29  1  0  0  0  0
 10 11  2  0  0  0  0
 10 12  1  0  0  0  0
 12 19  1  0  0  0  0
 12 13  2  0  0  0  0
 13 14  1  0  0  0  0
 14 15  1  0  0  0  0
 14 16  1  0  0  0  0
 15 30  1  0  0  0  0
 15 31  1  0  0  0  0
 15 32  1  0  0  0  0
 16 17  2  0  0  0  0
 16 18  1  0  0  0  0
 18 19  1  0  0  0  0
 18 33  1  0  0  0  0
 18 34  1  0  0  0  0
 19 35  1  0  0  0  0
 19 36  1  0  0  0  0
M  END
> <s_m_source_file>
AV-unprocessed.smi

> <i_m_source_file_index>
1962

> <i_lp_mmshare_version>
43012

> <i_f3d_flags>
0

> <s_epik_input>
bjFbY0hdW2NIXVtjSF1uMVtDSDJdW0NAQEhdKFtDSDNdKVtOSF1DKD1PKUMyPU5OKFtDSDNdKUMoPU8pW0NIMl1bQ0gyXTI=

> <s_epik_cmdline>
J2VwaWtfcHl0aG9uJywgJy1waCcsICc3LjAnLCAnLXRuJywgJzgnLCAnLW1hJywgJzIwMCcsICctbWV0YWxfYmluZGluZycsICctaW1hZScsICc8aW5maWxlLm1hZT4nLCAnLW9tYWUnLCAnPG91dGZpbGUubWFlPic=

> <r_lp_tautomer_probability>
1

> <r_epik_Ionization_Penalty>
9.43868e-05

> <r_epik_Ionization_Penalty_Charging>
0

> <r_epik_Ionization_Penalty_Neutral>
9.43868e-05

> <r_epik_State_Penalty>
-0

> <r_epik_Charging_Adjusted_Penalty>
0

> <i_epik_Tot_Q>
0

> <i_epik_Tot_abs_Q>
0

> <r_epik_Metal_State_Penalty>
0.0732556

> <b_epik_Metal_Only>
0

> <s_epik_Chemistry_Notes>
This compound has an imine and may undergo hydrolysis.

> <s_lp_Force_Field>
OPLS_2005

> <r_lp_Energy>
16.0721

> <b_lp_Chiralities_Consistent>
1

> <s_lp_Variant>
AV-unprocessed.smi:1962-2

> <Gold.Version>
5.8.1

> <Gold.Id.Protein>
6NUR|6NUR_protein|mol2

> <Gold.PLP.Fitness>
38.4560

> <Gold.PLP.PLP>
-36.4116

> <Gold.PLP.part.hbond>
-1.0000

> <Gold.PLP.part.metal>
0.0000

> <Gold.PLP.part.buried>
-3.3706

> <Gold.PLP.part.nonpolar>
-31.7166

> <Gold.PLP.part.repulsive>
0.4502

> <Gold.PLP.ligand.clash>
0.0000

> <Gold.PLP.ligand.torsion>
0.4881

> <Gold.PLP.Chemscore.Hbond>
1.0000

> <Gold.PLP.Chemscore.CHOScore>
0.0000

> <Gold.PLP.Chemscore.Metal>
0.0000

> <Gold.Chemscore.Hbonds>
donor molecule, donor type, donor heavy atom, donor atom, acceptor molecule, acceptor atom, score
      P1  H  7997  8009       L1    11  0.93

> <Gold.PLP.Chemscore.Internal.Correction>
0.0208

> <Gold.Rescore>
     Score         DG    S(hbond)    S(metal)    S(lipo)     H(rot)  DE(clash)    DE(int)     intcor
     12.19     -14.31       0.96        0.00      81.32       1.53       0.08       2.04       ----

> <Gold.Chemscore.Fitness>
12.1904

> <Gold.Chemscore.DG>
-14.3082

> <Gold.Chemscore.ZeroCoef>
-5.4800

> <Gold.Chemscore.Hbond>
0.9638

> <Gold.Chemscore.Metal>
0.0000

> <Gold.Chemscore.Lipo>
81.3179

> <Gold.Chemscore.Internal_Hbond>
0.0000

> <Gold.Chemscore.DEClash>
0.0814

> <Gold.Chemscore.DEInternal>
2.0365

> <Gold.Chemscore.Rot>
1.5254

> <Gold.Chemscore.Internal.Correction>
   9.000000E+99

> <Gold.Chemscore.Hbonds>
donor molecule, donor type, donor heavy atom, donor atom, acceptor molecule, acceptor atom, score
      P1  H  7997  8009       L1    11  0.85

> <Gold.Chemscore.Hbond.Weighted>
-3.2191

> <Gold.Chemscore.Metal.Weighted>
-0.0000

> <Gold.Chemscore.Lipo.Weighted>
-9.5142

> <Gold.Chemscore.Internal_Hbond.Weighted>
0.0000

> <Gold.Chemscore.DEClash.Weighted>
0.0814

> <Gold.Chemscore.DEInternal.Weighted>
2.0365

> <Gold.Chemscore.Rot.Weighted>
3.9051

> <Gold.Chemscore.Internal.Correction.Weighted>
   9.000000E+99

> <Gold.Protein.RotatedTorsions>
[ 6907 6896 6895 6894 ] final   65.00 input  -60.11 | X-H torsion
[ 7974 7965 7964 7962 ] final  -77.54 input  175.53 | X-H torsion
[ 8008 7997 7996 7995 ] final -172.92 input   59.86 | X-H torsion
[ 10167 10162 10161 10158 ] final  112.78 input  -65.29 | X-H torsion
[ 10718 10713 10712 10709 ] final   84.21 input   66.30 | X-H torsion
[ 10763 10752 10751 10750 ] final   -8.69 input  -60.55 | X-H torsion
[ 11005 11000 10999 10996 ] final  156.31 input  -57.11 | X-H torsion

> <Gold.Protein.ActiveResidues>
 VAL166  LYS551  ARG553  GLY616  TRP617  ASP618  TYR619  PRO620  LYS621  CYS622 
 ASP623  PHE694  ASN695  SER759  ASP760  ASP761  ALA762  ILE779  LEU786  VAL792 
 PHE793  MET794  SER795  GLU796  ALA797  LYS798  CYS799  TRP800  GLU811  SER814 

> <Gold.Protein.RotatedAtoms>
  152.4374  134.5659  159.9907 H   0  0  0  0  0  0  0  0  0  0  0  0  # atno 6907 bound_to 6896
  151.5765  133.3377  159.3008 H   0  0  0  0  0  0  0  0  0  0  0  0  # atno 6908 bound_to 6896
  150.8275  134.7547  159.6889 H   0  0  0  0  0  0  0  0  0  0  0  0  # atno 6909 bound_to 6896
  145.5984  140.9414  143.1254 H   0  0  0  0  0  0  0  0  0  0  0  0  # atno 7974 bound_to 7965
  155.9509  140.1126  157.0978 H   0  0  0  0  0  0  0  0  0  0  0  0  # atno 8008 bound_to 7997
  154.4109  140.1201  156.5117 H   0  0  0  0  0  0  0  0  0  0  0  0  # atno 8009 bound_to 7997
  155.6844  140.3473  155.4870 H   0  0  0  0  0  0  0  0  0  0  0  0  # atno 8010 bound_to 7997
  139.6510  144.7128  151.2048 H   0  0  0  0  0  0  0  0  0  0  0  0  # atno 10167 bound_to 10162
  157.6894  131.0123  150.2638 H   0  0  0  0  0  0  0  0  0  0  0  0  # atno 10718 bound_to 10713
  153.4440  135.7014  153.6151 H   0  0  0  0  0  0  0  0  0  0  0  0  # atno 10763 bound_to 10752
  153.4513  135.3757  155.2286 H   0  0  0  0  0  0  0  0  0  0  0  0  # atno 10764 bound_to 10752
  154.8728  135.3997  154.3843 H   0  0  0  0  0  0  0  0  0  0  0  0  # atno 10765 bound_to 10752
  140.1663  134.8574  157.2636 H   0  0  0  0  0  0  0  0  0  0  0  0  # atno 11005 bound_to 11000
  144.7321  139.7695  143.7343 LP  0  0  0  0  0  0  0  0  0  0  0  0  # atno 17320 bound_to 7965
  146.1595  139.4704  142.9997 LP  0  0  0  0  0  0  0  0  0  0  0  0  # atno 17321 bound_to 7965
  140.7537  143.6150  150.8568 LP  0  0  0  0  0  0  0  0  0  0  0  0  # atno 17342 bound_to 10162
  139.9798  143.5963  152.2946 LP  0  0  0  0  0  0  0  0  0  0  0  0  # atno 17343 bound_to 10162
  156.3213  130.3786  149.7572 LP  0  0  0  0  0  0  0  0  0  0  0  0  # atno 17370 bound_to 10713
  156.5142  130.8185  151.3180 LP  0  0  0  0  0  0  0  0  0  0  0  0  # atno 17371 bound_to 10713
  140.2430  134.3773  155.7473 LP  0  0  0  0  0  0  0  0  0  0  0  0  # atno 17394 bound_to 11000
  141.2214  133.7275  156.8818 LP  0  0  0  0  0  0  0  0  0  0  0  0  # atno 17395 bound_to 11000

$$$$
