AV-unprocessed.smi:1745|AV-procd|sdf|7031|dock5
  -GOLD-   22720 8253D 1   1.00000     0.00000
 Structure written by MMmdl.
 47 49  0  0  0  0  0  0  0  0  1 V2000
  144.1630  136.9080  152.5238 C   0  0  0  0  0  0  0  0  0  0  0  0
  145.1761  135.7634  152.6745 C   0  0  2  0  0  0  0  0  0  0  0  0
  146.4893  136.3371  152.9650 N   0  0  0  0  0  0  0  0  0  0  0  0
  146.7854  137.1448  153.9937 C   0  0  0  0  0  0  0  0  0  0  0  0
  145.9687  137.4894  154.8474 O   0  0  0  0  0  0  0  0  0  0  0  0
  148.0729  137.5273  153.9508 N   0  0  0  0  0  0  0  0  0  0  0  0
  148.7604  138.4115  154.8248 C   0  0  0  0  0  0  0  0  0  0  0  0
  148.4837  138.5452  156.2049 C   0  0  0  0  0  0  0  0  0  0  0  0
  149.2448  139.4514  156.9679 C   0  0  0  0  0  0  0  0  0  0  0  0
  150.2697  140.1972  156.3396 C   0  0  0  0  0  0  0  0  0  0  0  0
  151.0371  141.1184  157.0851 N   0  0  0  0  0  0  0  0  0  0  0  0
  150.5518  142.4962  157.0904 C   0  0  0  0  0  0  0  0  0  0  0  0
  151.6278  143.4402  157.6549 C   0  0  0  0  0  0  0  0  0  0  0  0
  152.0382  142.9906  158.9422 O   0  0  0  0  0  0  0  0  0  0  0  0
  152.6119  141.6887  158.8907 C   0  0  0  0  0  0  0  0  0  0  0  0
  151.5681  140.6836  158.3753 C   0  0  0  0  0  0  0  0  0  0  0  0
  150.5389  140.0571  155.0183 N   0  0  0  0  0  0  0  0  0  0  0  0
  149.8096  139.1855  154.2915 C   0  0  0  0  0  0  0  0  0  0  0  0
  145.2366  134.8790  151.4117 C   0  0  1  0  0  0  0  0  0  0  0  0
  146.2120  133.7021  151.4894 C   0  0  0  0  0  0  0  0  0  0  0  0
  145.6308  132.7538  150.4668 C   0  0  0  0  0  0  0  0  0  0  0  0
  144.1329  132.9425  150.6847 C   0  0  0  0  0  0  0  0  0  0  0  0
  143.9685  134.2747  151.1650 O   0  0  0  0  0  0  0  0  0  0  0  0
  143.1591  136.5248  152.3400 H   0  0  0  0  0  0  0  0  0  0  0  0
  144.4254  137.5651  151.6938 H   0  0  0  0  0  0  0  0  0  0  0  0
  144.1196  137.5152  153.4287 H   0  0  0  0  0  0  0  0  0  0  0  0
  144.8486  135.1447  153.5122 H   0  0  0  0  0  0  0  0  0  0  0  0
  147.2292  136.1117  152.3165 H   0  0  0  0  0  0  0  0  0  0  0  0
  148.6014  137.2137  153.1501 H   0  0  0  0  0  0  0  0  0  0  0  0
  147.7140  137.9695  156.6945 H   0  0  0  0  0  0  0  0  0  0  0  0
  149.0245  139.5723  158.0178 H   0  0  0  0  0  0  0  0  0  0  0  0
  150.2749  142.8318  156.0922 H   0  0  0  0  0  0  0  0  0  0  0  0
  149.6511  142.5484  157.7032 H   0  0  0  0  0  0  0  0  0  0  0  0
  152.4881  143.4931  156.9855 H   0  0  0  0  0  0  0  0  0  0  0  0
  151.2309  144.4517  157.7427 H   0  0  0  0  0  0  0  0  0  0  0  0
  153.4958  141.6941  158.2508 H   0  0  0  0  0  0  0  0  0  0  0  0
  152.9436  141.4056  159.8897 H   0  0  0  0  0  0  0  0  0  0  0  0
  150.7497  140.5943  159.0911 H   0  0  0  0  0  0  0  0  0  0  0  0
  152.0302  139.6999  158.2813 H   0  0  0  0  0  0  0  0  0  0  0  0
  150.0688  139.1118  153.2453 H   0  0  0  0  0  0  0  0  0  0  0  0
  145.4869  135.4863  150.5400 H   0  0  0  0  0  0  0  0  0  0  0  0
  147.2420  133.9856  151.2712 H   0  0  0  0  0  0  0  0  0  0  0  0
  146.1845  133.2428  152.4788 H   0  0  0  0  0  0  0  0  0  0  0  0
  145.9089  133.0720  149.4611 H   0  0  0  0  0  0  0  0  0  0  0  0
  145.9551  131.7219  150.6023 H   0  0  0  0  0  0  0  0  0  0  0  0
  143.5574  132.7740  149.7743 H   0  0  0  0  0  0  0  0  0  0  0  0
  143.7686  132.2535  151.4476 H   0  0  0  0  0  0  0  0  0  0  0  0
  1  2  1  0  0  0  0
  1 24  1  0  0  0  0
  1 25  1  0  0  0  0
  1 26  1  0  0  0  0
  2  3  1  0  0  0  0
  2 19  1  0  0  0  0
  2 27  1  0  0  0  0
  3  4  1  0  0  0  0
  3 28  1  0  0  0  0
  4  5  2  0  0  0  0
  4  6  1  0  0  0  0
  6  7  1  0  0  0  0
  6 29  1  0  0  0  0
  7 18  1  0  0  0  0
  7  8  2  0  0  0  0
  8  9  1  0  0  0  0
  8 30  1  0  0  0  0
  9 10  2  0  0  0  0
  9 31  1  0  0  0  0
 10 11  1  0  0  0  0
 10 17  1  0  0  0  0
 11 16  1  0  0  0  0
 11 12  1  0  0  0  0
 12 13  1  0  0  0  0
 12 32  1  0  0  0  0
 12 33  1  0  0  0  0
 13 14  1  0  0  0  0
 13 34  1  0  0  0  0
 13 35  1  0  0  0  0
 14 15  1  0  0  0  0
 15 16  1  0  0  0  0
 15 36  1  0  0  0  0
 15 37  1  0  0  0  0
 16 38  1  0  0  0  0
 16 39  1  0  0  0  0
 17 18  2  0  0  0  0
 18 40  1  0  0  0  0
 19 23  1  0  0  0  0
 19 20  1  0  0  0  0
 19 41  1  0  0  0  0
 20 21  1  0  0  0  0
 20 42  1  0  0  0  0
 20 43  1  0  0  0  0
 21 22  1  0  0  0  0
 21 44  1  0  0  0  0
 21 45  1  0  0  0  0
 22 23  1  0  0  0  0
 22 46  1  0  0  0  0
 22 47  1  0  0  0  0
M  END
> <s_m_source_file>
AV-unprocessed.smi

> <i_m_source_file_index>
1745

> <i_lp_mmshare_version>
43012

> <i_f3d_flags>
0

> <s_epik_input>
TzFbQ0gyXVtDSDJdW0NIMl1bQ0BIXTFbQ0BIXShbQ0gzXSlbTkhdQyg9TylbTkhdYzJbY0hdW2NIXWMobltjSF0yKU4zW0NIMl1bQ0gyXU9bQ0gyXVtDSDJdMw==

> <s_epik_cmdline>
J2VwaWtfcHl0aG9uJywgJy1waCcsICc3LjAnLCAnLXRuJywgJzgnLCAnLW1hJywgJzIwMCcsICctbWV0YWxfYmluZGluZycsICctaW1hZScsICc8aW5maWxlLm1hZT4nLCAnLW9tYWUnLCAnPG91dGZpbGUubWFlPic=

> <r_lp_tautomer_probability>
1

> <r_epik_Ionization_Penalty>
0.00206005

> <r_epik_Ionization_Penalty_Charging>
0

> <r_epik_Ionization_Penalty_Neutral>
0.00206005

> <r_epik_State_Penalty>
0.00138459

> <r_epik_Charging_Adjusted_Penalty>
0.00138459

> <i_epik_Tot_Q>
0

> <i_epik_Tot_abs_Q>
0

> <r_epik_Metal_State_Penalty>
-0

> <b_epik_Metal_Only>
0

> <s_lp_Force_Field>
OPLS_2005

> <r_lp_Energy>
34.4703

> <b_lp_Chiralities_Consistent>
1

> <s_lp_Variant>
AV-unprocessed.smi:1745-3

> <Gold.Version>
5.8.1

> <Gold.Id.Protein>
6NUR|6NUR_protein|mol2

> <Gold.PLP.Fitness>
41.9625

> <Gold.PLP.PLP>
-31.5486

> <Gold.PLP.part.hbond>
-3.0000

> <Gold.PLP.part.metal>
0.0000

> <Gold.PLP.part.buried>
-4.8843

> <Gold.PLP.part.nonpolar>
-24.2609

> <Gold.PLP.part.repulsive>
0.3320

> <Gold.PLP.ligand.clash>
0.0000

> <Gold.PLP.ligand.torsion>
0.7418

> <Gold.PLP.Chemscore.Hbond>
2.8440

> <Gold.PLP.Chemscore.CHOScore>
1.0000

> <Gold.PLP.Chemscore.Metal>
0.0000

> <Gold.Chemscore.Hbonds>
donor molecule, donor type, donor heavy atom, donor atom, acceptor molecule, acceptor atom, score
      L1  H     3    28       P1  7948  1.00
      L1  H     6    29       P1  7948  1.00
      P1  H  7989  7998       L1    17  0.88
      L1  C    18    40       P1  7957  1.00

> <Gold.PLP.Chemscore.Internal.Correction>
0.3656

> <Gold.Rescore>
     Score         DG    S(hbond)    S(metal)    S(lipo)     H(rot)  DE(clash)    DE(int)     intcor
     17.65     -18.53       2.14        0.00      80.97       1.40       0.05       0.82       ----

> <Gold.Chemscore.Fitness>
17.6542

> <Gold.Chemscore.DG>
-18.5302

> <Gold.Chemscore.ZeroCoef>
-5.4800

> <Gold.Chemscore.Hbond>
2.1402

> <Gold.Chemscore.Metal>
0.0000

> <Gold.Chemscore.Lipo>
80.9662

> <Gold.Chemscore.Internal_Hbond>
0.0000

> <Gold.Chemscore.DEClash>
0.0540

> <Gold.Chemscore.DEInternal>
0.8220

> <Gold.Chemscore.Rot>
1.3950

> <Gold.Chemscore.Internal.Correction>
   9.000000E+99

> <Gold.Chemscore.Hbonds>
donor molecule, donor type, donor heavy atom, donor atom, acceptor molecule, acceptor atom, score
      L1  H     3    28       P1  7948  0.94
      L1  H     6    29       P1  7948  0.99
      P1  H  7989  7998       L1    17  0.16

> <Gold.Chemscore.Hbond.Weighted>
-7.1484

> <Gold.Chemscore.Metal.Weighted>
-0.0000

> <Gold.Chemscore.Lipo.Weighted>
-9.4730

> <Gold.Chemscore.Internal_Hbond.Weighted>
0.0000

> <Gold.Chemscore.DEClash.Weighted>
0.0540

> <Gold.Chemscore.DEInternal.Weighted>
0.8220

> <Gold.Chemscore.Rot.Weighted>
3.5712

> <Gold.Chemscore.Internal.Correction.Weighted>
   9.000000E+99

> <Gold.Protein.RotatedTorsions>
[ 6907 6896 6895 6894 ] final -117.02 input  -60.11 | X-H torsion
[ 7974 7965 7964 7962 ] final -146.00 input  175.53 | X-H torsion
[ 8008 7997 7996 7995 ] final  143.65 input   59.86 | X-H torsion
[ 10167 10162 10161 10158 ] final  121.10 input  -65.29 | X-H torsion
[ 10718 10713 10712 10709 ] final    5.92 input   66.30 | X-H torsion
[ 10763 10752 10751 10750 ] final  120.04 input  -60.55 | X-H torsion
[ 11005 11000 10999 10996 ] final    8.00 input  -57.11 | X-H torsion

> <Gold.Protein.ActiveResidues>
 VAL166  LYS551  ARG553  GLY616  TRP617  ASP618  TYR619  PRO620  LYS621  CYS622 
 ASP623  PHE694  ASN695  SER759  ASP760  ASP761  ALA762  ILE779  LEU786  VAL792 
 PHE793  MET794  SER795  GLU796  ALA797  LYS798  CYS799  TRP800  GLU811  SER814 

> <Gold.Protein.RotatedAtoms>
  150.8103  133.8434  159.3185 H   0  0  0  0  0  0  0  0  0  0  0  0  # atno 6907 bound_to 6896
  151.6222  135.1029  160.0113 H   0  0  0  0  0  0  0  0  0  0  0  0  # atno 6908 bound_to 6896
  152.4195  133.7052  159.6504 H   0  0  0  0  0  0  0  0  0  0  0  0  # atno 6909 bound_to 6896
  144.8189  140.5512  143.5592 H   0  0  0  0  0  0  0  0  0  0  0  0  # atno 7974 bound_to 7965
  156.2925  140.2256  156.4926 H   0  0  0  0  0  0  0  0  0  0  0  0  # atno 8008 bound_to 7997
  154.7758  140.0463  157.1109 H   0  0  0  0  0  0  0  0  0  0  0  0  # atno 8009 bound_to 7997
  154.9818  140.3079  155.4946 H   0  0  0  0  0  0  0  0  0  0  0  0  # atno 8010 bound_to 7997
  139.5941  144.7035  151.3219 H   0  0  0  0  0  0  0  0  0  0  0  0  # atno 10167 bound_to 10162
  156.9146  130.5768  149.5647 H   0  0  0  0  0  0  0  0  0  0  0  0  # atno 10718 bound_to 10713
  153.5924  135.3463  155.2915 H   0  0  0  0  0  0  0  0  0  0  0  0  # atno 10763 bound_to 10752
  154.8650  135.4208  154.2501 H   0  0  0  0  0  0  0  0  0  0  0  0  # atno 10764 bound_to 10752
  153.3312  135.7044  153.7017 H   0  0  0  0  0  0  0  0  0  0  0  0  # atno 10765 bound_to 10752
  140.5419  134.0366  155.7907 H   0  0  0  0  0  0  0  0  0  0  0  0  # atno 11005 bound_to 11000
  145.5150  139.1478  143.3584 LP  0  0  0  0  0  0  0  0  0  0  0  0  # atno 17320 bound_to 7965
  146.2494  140.5291  142.8900 LP  0  0  0  0  0  0  0  0  0  0  0  0  # atno 17321 bound_to 7965
  140.7197  143.7169  150.7726 LP  0  0  0  0  0  0  0  0  0  0  0  0  # atno 17342 bound_to 10162
  140.0731  143.5041  152.2569 LP  0  0  0  0  0  0  0  0  0  0  0  0  # atno 17343 bound_to 10162
  156.0520  130.5587  150.9009 LP  0  0  0  0  0  0  0  0  0  0  0  0  # atno 17370 bound_to 10713
  157.5946  131.0943  150.9062 LP  0  0  0  0  0  0  0  0  0  0  0  0  # atno 17371 bound_to 10713
  141.1222  133.9442  157.2707 LP  0  0  0  0  0  0  0  0  0  0  0  0  # atno 17394 bound_to 11000
  139.9499  135.0177  156.8964 LP  0  0  0  0  0  0  0  0  0  0  0  0  # atno 17395 bound_to 11000

$$$$
