#       Name:                AV-unprocessed.smi:632
#       Creating user name   scv26
#       Creation time:       Fri Mar 27 00:04:55 2020


#       File generated by GOLD software.
#

@<TRIPOS>MOLECULE
AV-unprocessed.smi:632
    48    49     1
SMALL
NO_CHARGES


@<TRIPOS>ATOM
      1 ****        -6.3240   0.5651  -0.6601 C.3            1 S1                 0.0000
      2 ****        -5.3361   1.6922  -0.3008 C.3            1 S1                 0.0000
      3 ****        -5.4059   2.7480  -1.4259 C.3            1 S1                 0.0000
      4 ****        -5.7568   2.3846   1.0101 C.3            1 S1                 0.0000
      5 ****        -3.9418   1.1267  -0.1577 C.2            1 S1                 0.0000
      6 ****        -3.6463   0.1952   0.7617 N.2            1 S1                 0.0000
      7 ****        -2.3151  -0.1921   0.7279 N.2            1 S1                 0.0000
      8 ****        -1.6287   0.4586  -0.2195 C.2            1 S1                 0.0000
      9 ****        -0.2465   0.2537  -0.4741 N.am           1 S1                 0.0000
     10 ****         0.6033  -0.5720   0.1622 C.2            1 S1                 0.0000
     11 ****         0.3121  -1.2980   1.1130 O.2            1 S1                 0.0000
     12 ****         1.8333  -0.5078  -0.3688 N.am           1 S1                 0.0000
     13 ****         2.9879  -1.2749   0.0901 C.3            1 S1                 0.0000
     14 ****         3.6612  -0.5800   1.2924 C.3            1 S1                 0.0000
     15 ****         4.9209  -1.3365   1.7447 C.3            1 S1                 0.0000
     16 ****         5.9118  -1.5112   0.5811 C.3            1 S1                 0.0000
     17 ****         7.0190  -2.2721   1.0154 O.3            1 S1                 0.0000
     18 ****         5.2428  -2.2126  -0.6135 C.3            1 S1                 0.0000
     19 ****         3.9870  -1.4520  -1.0686 C.3            1 S1                 0.0000
     20 ****        -2.5645   1.6074  -1.1572 S.3            1 S1                 0.0000
     21 ****        -7.3376   0.9480  -0.7831 H              1 S1                 0.0000
     22 ****        -6.3598  -0.1988   0.1175 H              1 S1                 0.0000
     23 ****        -6.0426   0.0721  -1.5915 H              1 S1                 0.0000
     24 ****        -5.1341   2.3249  -2.3937 H              1 S1                 0.0000
     25 ****        -4.7403   3.5896  -1.2305 H              1 S1                 0.0000
     26 ****        -6.4134   3.1536  -1.5259 H              1 S1                 0.0000
     27 ****        -6.7549   2.8168   0.9294 H              1 S1                 0.0000
     28 ****        -5.0691   3.1895   1.2720 H              1 S1                 0.0000
     29 ****        -5.7747   1.6836   1.8454 H              1 S1                 0.0000
     30 ****         0.1395   0.7982  -1.2310 H              1 S1                 0.0000
     31 ****         1.9832   0.1145  -1.1493 H              1 S1                 0.0000
     32 ****         2.6540  -2.2674   0.3994 H              1 S1                 0.0000
     33 ****         3.9300   0.4431   1.0254 H              1 S1                 0.0000
     34 ****         2.9623  -0.5071   2.1266 H              1 S1                 0.0000
     35 ****         5.3976  -0.8010   2.5665 H              1 S1                 0.0000
     36 ****         4.6333  -2.3132   2.1368 H              1 S1                 0.0000
     37 ****         6.2781  -0.5324   0.2689 H              1 S1                 0.0000
     38 ****         7.6317  -2.3471   0.2999 H              1 S1                 0.0000
     39 ****         5.9453  -2.2933  -1.4438 H              1 S1                 0.0000
     40 ****         4.9678  -3.2324  -0.3394 H              1 S1                 0.0000
     41 ****         3.5137  -1.9871  -1.8928 H              1 S1                 0.0000
     42 ****         4.2783  -0.4760  -1.4598 H              1 S1                 0.0000
     43 ****        -4.3152  -0.1801   1.4034 LP             1 S1                 0.0000
     44 ****        -1.9156  -0.8759   1.3385 LP             1 S1                 0.0000
     45 ****        -0.6218  -1.3030   1.4707 LP             1 S1                 0.0000
     46 ****         1.0094  -1.8827   1.5276 LP             1 S1                 0.0000
     47 ****         6.7136  -3.1825   1.2946 LP             1 S1                 0.0000
     48 ****         7.4586  -1.8162   1.7893 LP             1 S1                 0.0000
@<TRIPOS>BOND
    1    1    2 1     
    2    1   21 1     
    3    1   22 1     
    4    1   23 1     
    5    2    3 1     
    6    2    4 1     
    7    2    5 1     
    8    3   24 1     
    9    3   25 1     
   10    3   26 1     
   11    4   27 1     
   12    4   28 1     
   13    4   29 1     
   14    5   20 1     
   15    5    6 2     
   16    6    7 1     
   17    7    8 2     
   18    8    9 1     
   19    8   20 1     
   20    9   10 am    
   21    9   30 1     
   22   10   11 2     
   23   10   12 am    
   24   12   13 1     
   25   12   31 1     
   26   13   19 1     
   27   13   14 1     
   28   13   32 1     
   29   14   15 1     
   30   14   33 1     
   31   14   34 1     
   32   15   16 1     
   33   15   35 1     
   34   15   36 1     
   35   16   17 1     
   36   16   18 1     
   37   16   37 1     
   38   17   38 1     
   39   18   19 1     
   40   18   39 1     
   41   18   40 1     
   42   19   41 1     
   43   19   42 1     
   44    6   43 1     
   45    7   44 1     
   46   11   45 1     
   47   11   46 1     
   48   17   47 1     
   49   17   48 1     
@<TRIPOS>SUBSTRUCTURE
      1 S1             1
@<TRIPOS>SET
LONE_PAIRS      STATIC     ATOMS    <user>   **** ""
6 43 44 45 46 47 48
DONOR_HYDROGENS      STATIC     ATOMS    <user>   **** ""
3 30 31 38
ATOM$BLUE        STATIC     ATOMS    COLORGROUP SYSTEM
6 43 44 45 46 47 48
ATOM$RED        STATIC     ATOMS    COLORGROUP SYSTEM
3 30 31 38
