#       Name:                AV-unprocessed.smi:2489
#       Creating user name   scv26
#       Creation time:       Fri Mar 27 13:43:46 2020


#       File generated by GOLD software.
#

@<TRIPOS>MOLECULE
AV-unprocessed.smi:2489
    40    41     1
SMALL
NO_CHARGES


@<TRIPOS>ATOM
      1 ****        -5.0161   3.9183   0.1459 C.3            1 S1                 0.0000
      2 ****        -4.4436   2.6182   0.1416 O.3            1 S1                 0.0000
      3 ****        -3.0705   2.5289   0.1409 C.2            1 S1                 0.0000
      4 ****        -2.1885   3.6936   0.1464 C.2            1 S1                 0.0000
      5 ****        -0.8632   3.4867   0.1499 C.2            1 S1                 0.0000
      6 ****        -0.3124   2.2134   0.1473 N.pl3          1 S1                 0.0000
      7 ****        -1.1015   1.0493   0.1379 C.2            1 S1                 0.0000
      8 ****        -0.6482  -0.1706   0.1323 N.2            1 S1                 0.0000
      9 ****         0.7117  -0.4682   0.1447 C.2            1 S1                 0.0000
     10 ****         1.6802   0.2971   0.1606 O.2            1 S1                 0.0000
     11 ****         0.9633  -1.9827   0.1333 C.3            1 S1                 0.0000
     12 ****         1.3025  -2.5218  -1.2670 C.3            1 S1                 0.0000
     13 ****         2.5116  -3.4014  -1.0220 C.3            1 S1                 0.0000
     14 ****         3.1878  -2.6903   0.1437 C.3            1 S1                 0.0000
     15 ****         4.1490  -3.5732   0.9461 C.3            1 S1                 0.0000
     16 ****         2.0944  -2.2808   0.9540 O.3            1 S1                 0.0000
     17 ****        -2.5389   1.2840   0.1356 C.2            1 S1                 0.0000
     18 ****        -6.1025   3.8312   0.1467 H              1 S1                 0.0000
     19 ****        -4.7336   4.4826  -0.7439 H              1 S1                 0.0000
     20 ****        -4.7321   4.4788   1.0376 H              1 S1                 0.0000
     21 ****        -2.5627   4.7061   0.1471 H              1 S1                 0.0000
     22 ****        -0.1395   4.2884   0.1539 H              1 S1                 0.0000
     23 ****         0.1079  -2.5172   0.5502 H              1 S1                 0.0000
     24 ****         0.4753  -3.0769  -1.7098 H              1 S1                 0.0000
     25 ****         1.5668  -1.7175  -1.9558 H              1 S1                 0.0000
     26 ****         2.1891  -4.3998  -0.7233 H              1 S1                 0.0000
     27 ****         3.1559  -3.4970  -1.8965 H              1 S1                 0.0000
     28 ****         3.7059  -1.8005  -0.2177 H              1 S1                 0.0000
     29 ****         4.9778  -3.9150   0.3259 H              1 S1                 0.0000
     30 ****         3.6401  -4.4529   1.3412 H              1 S1                 0.0000
     31 ****         4.5679  -3.0242   1.7897 H              1 S1                 0.0000
     32 ****        -3.2294   0.4528   0.1321 H              1 S1                 0.0000
     33 ****         0.6964   2.1591   0.1512 H              1 S1                 0.0000
     34 ****        -4.7748   2.1478  -0.6763 LP             1 S1                 0.0000
     35 ****        -4.7744   2.1426   0.9567 LP             1 S1                 0.0000
     36 ****        -1.3039  -0.9254   0.1185 LP             1 S1                 0.0000
     37 ****         1.5355   1.2866   0.1662 LP             1 S1                 0.0000
     38 ****         2.6094  -0.0724   0.1679 LP             1 S1                 0.0000
     39 ****         1.8584  -3.0167   1.5886 LP             1 S1                 0.0000
     40 ****         2.3527  -1.4648   1.4712 LP             1 S1                 0.0000
@<TRIPOS>BOND
    1    1    2 1     
    2    1   18 1     
    3    1   19 1     
    4    1   20 1     
    5    2    3 1     
    6    3   17 2     
    7    3    4 1     
    8    4    5 2     
    9    4   21 1     
   10    5    6 1     
   11    5   22 1     
   12    6    7 1     
   13    6   33 1     
   14    7    8 2     
   15    7   17 1     
   16    8    9 1     
   17    9   10 2     
   18    9   11 1     
   19   11   16 1     
   20   11   12 1     
   21   11   23 1     
   22   12   13 1     
   23   12   24 1     
   24   12   25 1     
   25   13   14 1     
   26   13   26 1     
   27   13   27 1     
   28   14   15 1     
   29   14   16 1     
   30   14   28 1     
   31   15   29 1     
   32   15   30 1     
   33   15   31 1     
   34   17   32 1     
   35    2   34 1     
   36    2   35 1     
   37    8   36 1     
   38   10   37 1     
   39   10   38 1     
   40   16   39 1     
   41   16   40 1     
@<TRIPOS>SUBSTRUCTURE
      1 S1             1
@<TRIPOS>SET
LONE_PAIRS      STATIC     ATOMS    <user>   **** ""
7 34 35 36 37 38 39 40
DONOR_HYDROGENS      STATIC     ATOMS    <user>   **** ""
1 33
ATOM$BLUE        STATIC     ATOMS    COLORGROUP SYSTEM
7 34 35 36 37 38 39 40
ATOM$RED        STATIC     ATOMS    COLORGROUP SYSTEM
1 33
