#       Name:                AV-unprocessed.smi:3068
#       Creating user name   scv26
#       Creation time:       Fri Mar 27 17:10:03 2020


#       File generated by GOLD software.
#

@<TRIPOS>MOLECULE
AV-unprocessed.smi:3068
    45    47     1
SMALL
NO_CHARGES


@<TRIPOS>ATOM
      1 ****        -1.9330  -5.5082  -2.3116 N.1            1 S1                 0.0000
      2 ****        -2.4224  -4.4615  -2.2459 C.1            1 S1                 0.0000
      3 ****        -3.0371  -3.1428  -2.1625 C.ar           1 S1                 0.0000
      4 ****        -4.3848  -3.1067  -2.0464 N.ar           1 S1                 0.0000
      5 ****        -4.9663  -1.8913  -1.9648 C.ar           1 S1                 0.0000
      6 ****        -4.2058  -0.7064  -1.9969 C.ar           1 S1                 0.0000
      7 ****        -2.8609  -0.7328  -2.1113 N.ar           1 S1                 0.0000
      8 ****        -2.2634  -1.9480  -2.1955 C.ar           1 S1                 0.0000
      9 ****        -0.8620  -1.9927  -2.3186 N.pl3          1 S1                 0.0000
     10 ****        -0.0386  -0.7930  -2.2255 C.3            1 S1                 0.0000
     11 ****         0.1516  -0.3223  -0.7736 C.3            1 S1                 0.0000
     12 ****         0.8661   1.0396  -0.7084 C.3            1 S1                 0.0000
     13 ****         1.1024   1.4369   0.6985 N.4            1 S1                 1.0000
     14 ****         1.7521   2.7674   0.8094 C.3            1 S1                 0.0000
     15 ****         1.8964   3.1913   2.2795 C.3            1 S1                 0.0000
     16 ****         2.6661   2.1323   3.0794 C.3            1 S1                 0.0000
     17 ****         1.9900   0.7631   2.9258 C.3            1 S1                 0.0000
     18 ****         1.8382   0.3775   1.4410 C.3            1 S1                 0.0000
     19 ****         1.1130  -0.9736   1.2841 C.3            1 S1                 0.0000
     20 ****         0.9562  -1.2810  -0.0951 O.3            1 S1                 0.0000
     21 ****        -6.0420  -1.8640  -1.8726 H              1 S1                 0.0000
     22 ****        -4.6767   0.2632  -1.9306 H              1 S1                 0.0000
     23 ****        -0.3985  -2.8889  -2.3729 H              1 S1                 0.0000
     24 ****         0.9313  -1.0053  -2.6758 H              1 S1                 0.0000
     25 ****        -0.4840  -0.0001  -2.8275 H              1 S1                 0.0000
     26 ****        -0.8196  -0.2422  -0.2818 H              1 S1                 0.0000
     27 ****         1.8181   0.9918  -1.2396 H              1 S1                 0.0000
     28 ****         0.2602   1.7997  -1.2033 H              1 S1                 0.0000
     29 ****         2.7319   2.7377   0.3298 H              1 S1                 0.0000
     30 ****         1.1583   3.5089   0.2733 H              1 S1                 0.0000
     31 ****         2.4084   4.1520   2.3426 H              1 S1                 0.0000
     32 ****         0.9082   3.3372   2.7178 H              1 S1                 0.0000
     33 ****         3.6963   2.0778   2.7251 H              1 S1                 0.0000
     34 ****         2.7116   2.4144   4.1317 H              1 S1                 0.0000
     35 ****         2.5712   0.0053   3.4526 H              1 S1                 0.0000
     36 ****         1.0096   0.7873   3.4041 H              1 S1                 0.0000
     37 ****         2.8330   0.2852   1.0009 H              1 S1                 0.0000
     38 ****         1.6927  -1.7689   1.7534 H              1 S1                 0.0000
     39 ****         0.1389  -0.9589   1.7761 H              1 S1                 0.0000
     40 ****         0.1947   1.5192   1.1337 H              1 S1                 0.0000
     41 ****        -1.5102  -6.4126  -2.3683 LP             1 S1                 0.0000
     42 ****        -4.9278  -3.9461  -2.0220 LP             1 S1                 0.0000
     43 ****        -2.3254   0.1114  -2.1331 LP             1 S1                 0.0000
     44 ****         1.8591  -1.3045  -0.5241 LP             1 S1                 0.0000
     45 ****         0.5245  -2.1793  -0.1774 LP             1 S1                 0.0000
@<TRIPOS>BOND
    1    1    2 3     
    2    2    3 1     
    3    3    8 ar    
    4    3    4 ar    
    5    4    5 ar    
    6    5    6 ar    
    7    5   21 1     
    8    6    7 ar    
    9    6   22 1     
   10    7    8 ar    
   11    8    9 1     
   12    9   10 1     
   13    9   23 1     
   14   10   11 1     
   15   10   24 1     
   16   10   25 1     
   17   11   20 1     
   18   11   12 1     
   19   11   26 1     
   20   12   13 1     
   21   12   27 1     
   22   12   28 1     
   23   13   18 1     
   24   13   14 1     
   25   13   40 1     
   26   14   15 1     
   27   14   29 1     
   28   14   30 1     
   29   15   16 1     
   30   15   31 1     
   31   15   32 1     
   32   16   17 1     
   33   16   33 1     
   34   16   34 1     
   35   17   18 1     
   36   17   35 1     
   37   17   36 1     
   38   18   19 1     
   39   18   37 1     
   40   19   20 1     
   41   19   38 1     
   42   19   39 1     
   43    1   41 1     
   44    4   42 1     
   45    7   43 1     
   46   20   44 1     
   47   20   45 1     
@<TRIPOS>SUBSTRUCTURE
      1 S1             1
@<TRIPOS>SET
LONE_PAIRS      STATIC     ATOMS    <user>   **** ""
5 41 42 43 44 45
DONOR_HYDROGENS      STATIC     ATOMS    <user>   **** ""
2 23 40
ATOM$BLUE        STATIC     ATOMS    COLORGROUP SYSTEM
5 41 42 43 44 45
ATOM$RED        STATIC     ATOMS    COLORGROUP SYSTEM
2 23 40
