AV-unprocessed.smi:1209|AV-procd|sdf|5076|dock8
  -GOLD-   22720 4123D 1   1.00000     0.00000
 Structure written by MMmdl.
 49 51  0  0  0  0  0  0  0  0  2 V2000
  156.6768  131.3698  166.1969 C   0  0  0  0  0  0  0  0  0  0  0  0
  156.2643  132.5959  165.4569 C   0  0  0  0  0  0  0  0  0  0  0  0
  155.1028  133.3136  165.4156 C   0  0  0  0  0  0  0  0  0  0  0  0
  155.3903  134.3651  164.5024 C   0  0  0  0  0  0  0  0  0  0  0  0
  154.4954  135.4876  164.0536 C   0  0  0  0  0  0  0  0  0  0  0  0
  155.1749  136.3883  163.0872 N   0  3  2  0  0  0  0  0  0  0  0  0
  156.0598  137.3772  163.7529 C   0  0  0  0  0  0  0  0  0  0  0  0
  154.2176  137.0204  162.1426 C   0  0  0  0  0  0  0  0  0  0  0  0
  154.9051  137.9902  161.1553 C   0  0  1  0  0  0  0  0  0  0  0  0
  155.7225  137.2431  160.2773 O   0  0  0  0  0  0  0  0  0  0  0  0
  153.9152  138.8017  160.2963 C   0  0  0  0  0  0  0  0  0  0  0  0
  153.7782  140.1728  160.7520 N   0  0  0  0  0  0  0  0  0  0  0  0
  154.3616  140.7303  161.8304 C   0  0  0  0  0  0  0  0  0  0  0  0
  154.0869  142.0075  162.0780 N   0  0  0  0  0  0  0  0  0  0  0  0
  153.2303  142.3174  161.0355 C   0  0  0  0  0  0  0  0  0  0  0  0
  152.5692  143.5239  160.7179 C   0  0  0  0  0  0  0  0  0  0  0  0
  151.7212  143.6109  159.5907 C   0  0  0  0  0  0  0  0  0  0  0  0
  151.0310  144.9287  159.2855 C   0  0  0  0  0  0  0  0  0  0  0  0
  151.5244  142.4785  158.7606 C   0  0  0  0  0  0  0  0  0  0  0  0
  150.6143  142.5462  157.5470 C   0  0  0  0  0  0  0  0  0  0  0  0
  152.1796  141.2666  159.0614 C   0  0  0  0  0  0  0  0  0  0  0  0
  153.0197  141.1921  160.1862 C   0  0  0  0  0  0  0  0  0  0  0  0
  156.6265  134.2879  164.0380 N   0  0  0  0  0  0  0  0  0  0  0  0
  157.1922  133.1593  164.6415 O   0  0  0  0  0  0  0  0  0  0  0  0
  155.8631  130.9978  166.8198 H   0  0  0  0  0  0  0  0  0  0  0  0
  157.5300  131.5766  166.8431 H   0  0  0  0  0  0  0  0  0  0  0  0
  156.9606  130.5776  165.5040 H   0  0  0  0  0  0  0  0  0  0  0  0
  154.1884  133.1159  165.9552 H   0  0  0  0  0  0  0  0  0  0  0  0
  153.6043  135.0580  163.5932 H   0  0  0  0  0  0  0  0  0  0  0  0
  154.1463  136.0673  164.9093 H   0  0  0  0  0  0  0  0  0  0  0  0
  155.4843  138.0430  164.3975 H   0  0  0  0  0  0  0  0  0  0  0  0
  156.5944  137.9892  163.0282 H   0  0  0  0  0  0  0  0  0  0  0  0
  156.8158  136.8849  164.3646 H   0  0  0  0  0  0  0  0  0  0  0  0
  153.7001  136.2569  161.5602 H   0  0  0  0  0  0  0  0  0  0  0  0
  153.4479  137.5277  162.7250 H   0  0  0  0  0  0  0  0  0  0  0  0
  155.5433  138.6909  161.6925 H   0  0  0  0  0  0  0  0  0  0  0  0
  155.8733  137.7513  159.4945 H   0  0  0  0  0  0  0  0  0  0  0  0
  154.2430  138.8192  159.2558 H   0  0  0  0  0  0  0  0  0  0  0  0
  152.9293  138.3348  160.3028 H   0  0  0  0  0  0  0  0  0  0  0  0
  155.0198  140.1642  162.4736 H   0  0  0  0  0  0  0  0  0  0  0  0
  152.7187  144.3864  161.3508 H   0  0  0  0  0  0  0  0  0  0  0  0
  151.3553  145.3130  158.3182 H   0  0  0  0  0  0  0  0  0  0  0  0
  151.2597  145.6830  160.0391 H   0  0  0  0  0  0  0  0  0  0  0  0
  149.9489  144.7988  159.2618 H   0  0  0  0  0  0  0  0  0  0  0  0
  150.5802  141.5913  157.0216 H   0  0  0  0  0  0  0  0  0  0  0  0
  150.9680  143.3018  156.8453 H   0  0  0  0  0  0  0  0  0  0  0  0
  149.5969  142.7990  157.8461 H   0  0  0  0  0  0  0  0  0  0  0  0
  152.0377  140.3973  158.4366 H   0  0  0  0  0  0  0  0  0  0  0  0
  155.7660  135.7914  162.5255 H   0  0  0  0  0  0  0  0  0  0  0  0
  1  2  1  0  0  0  0
  1 25  1  0  0  0  0
  1 26  1  0  0  0  0
  1 27  1  0  0  0  0
  2 24  1  0  0  0  0
  2  3  2  0  0  0  0
  3  4  1  0  0  0  0
  3 28  1  0  0  0  0
  4  5  1  0  0  0  0
  4 23  2  0  0  0  0
  5  6  1  0  0  0  0
  5 29  1  0  0  0  0
  5 30  1  0  0  0  0
  6  7  1  0  0  0  0
  6  8  1  0  0  0  0
  6 49  1  0  0  0  0
  7 31  1  0  0  0  0
  7 32  1  0  0  0  0
  7 33  1  0  0  0  0
  8  9  1  0  0  0  0
  8 34  1  0  0  0  0
  8 35  1  0  0  0  0
  9 10  1  0  0  0  0
  9 11  1  0  0  0  0
  9 36  1  0  0  0  0
 10 37  1  0  0  0  0
 11 12  1  0  0  0  0
 11 38  1  0  0  0  0
 11 39  1  0  0  0  0
 12 22  1  0  0  0  0
 12 13  1  0  0  0  0
 13 14  2  0  0  0  0
 13 40  1  0  0  0  0
 14 15  1  0  0  0  0
 15 22  2  0  0  0  0
 15 16  1  0  0  0  0
 16 17  2  0  0  0  0
 16 41  1  0  0  0  0
 17 18  1  0  0  0  0
 17 19  1  0  0  0  0
 18 42  1  0  0  0  0
 18 43  1  0  0  0  0
 18 44  1  0  0  0  0
 19 20  1  0  0  0  0
 19 21  2  0  0  0  0
 20 45  1  0  0  0  0
 20 46  1  0  0  0  0
 20 47  1  0  0  0  0
 21 22  1  0  0  0  0
 21 48  1  0  0  0  0
 23 24  1  0  0  0  0
M  CHG  1   6   1
M  END
> <s_m_source_file>
AV-unprocessed.smi

> <i_m_source_file_index>
1209

> <i_lp_mmshare_version>
43012

> <i_f3d_flags>
0

> <s_epik_input>
W0NIM11jMVtjSF1jKG5vMSlbQ0gyXU4oW0NIM10pW0NIMl1bQ0BIXShbT0hdKVtDSDJdbihbY0hdbjIpYyhjMjMpW2NIXWMoW0NIM10pYyhbY0hdMylbQ0gzXQ==

> <s_epik_cmdline>
J2VwaWtfcHl0aG9uJywgJy1waCcsICc3LjAnLCAnLXRuJywgJzgnLCAnLW1hJywgJzIwMCcsICctbWV0YWxfYmluZGluZycsICctaW1hZScsICc8aW5maWxlLm1hZT4nLCAnLW9tYWUnLCAnPG91dGZpbGUubWFlPic=

> <r_epik_Ionization_Penalty>
2.05249

> <r_epik_Ionization_Penalty_Charging>
1.96618

> <r_epik_Ionization_Penalty_Neutral>
0.0863156

> <r_epik_State_Penalty>
2.19215

> <r_epik_Charging_Adjusted_Penalty>
4.15833

> <i_epik_Tot_Q>
1

> <i_epik_Tot_abs_Q>
1

> <r_epik_Metal_State_Penalty>
2.17654

> <b_epik_Metal_Only>
0

> <s_lp_Force_Field>
OPLS_2005

> <r_lp_Energy>
8.03996

> <b_lp_Chiralities_Consistent>
1

> <s_lp_Variant>
AV-unprocessed.smi:1209-8

> <Gold.Version>
5.8.1

> <Gold.Id.Protein>
6NUR|6NUR_protein|mol2

> <Gold.PLP.Fitness>
47.6727

> <Gold.PLP.PLP>
-49.5197

> <Gold.PLP.part.hbond>
-1.0000

> <Gold.PLP.part.metal>
0.0000

> <Gold.PLP.part.buried>
-4.6290

> <Gold.PLP.part.nonpolar>
-44.2282

> <Gold.PLP.part.repulsive>
0.0841

> <Gold.PLP.ligand.clash>
0.0000

> <Gold.PLP.ligand.torsion>
0.9688

> <Gold.PLP.Chemscore.Hbond>
0.0000

> <Gold.PLP.Chemscore.CHOScore>
0.0000

> <Gold.PLP.Chemscore.Metal>
0.0000

> <Gold.PLP.Chemscore.Internal.Correction>
0.0906

> <Gold.Rescore>
     Score         DG    S(hbond)    S(metal)    S(lipo)     H(rot)  DE(clash)    DE(int)     intcor
     15.94     -16.83       0.00        0.00     152.46       2.53       0.02       0.87       ----

> <Gold.Chemscore.Fitness>
15.9416

> <Gold.Chemscore.DG>
-16.8326

> <Gold.Chemscore.ZeroCoef>
-5.4800

> <Gold.Chemscore.Hbond>
0.0000

> <Gold.Chemscore.Metal>
0.0000

> <Gold.Chemscore.Lipo>
152.4590

> <Gold.Chemscore.Internal_Hbond>
0.0000

> <Gold.Chemscore.DEClash>
0.0209

> <Gold.Chemscore.DEInternal>
0.8702

> <Gold.Chemscore.Rot>
2.5332

> <Gold.Chemscore.Internal.Correction>
   9.000000E+99

> <Gold.Chemscore.Hbond.Weighted>
-0.0000

> <Gold.Chemscore.Metal.Weighted>
-0.0000

> <Gold.Chemscore.Lipo.Weighted>
-17.8377

> <Gold.Chemscore.Internal_Hbond.Weighted>
0.0000

> <Gold.Chemscore.DEClash.Weighted>
0.0209

> <Gold.Chemscore.DEInternal.Weighted>
0.8702

> <Gold.Chemscore.Rot.Weighted>
6.4851

> <Gold.Chemscore.Internal.Correction.Weighted>
   9.000000E+99

> <Gold.Protein.RotatedTorsions>
[ 6907 6896 6895 6894 ] final  -41.42 input  -60.11 | X-H torsion
[ 7974 7965 7964 7962 ] final  179.75 input  175.53 | X-H torsion
[ 8008 7997 7996 7995 ] final   17.13 input   59.86 | X-H torsion
[ 10167 10162 10161 10158 ] final  -51.24 input  -65.29 | X-H torsion
[ 10718 10713 10712 10709 ] final  -16.26 input   66.30 | X-H torsion
[ 10763 10752 10751 10750 ] final   81.52 input  -60.55 | X-H torsion
[ 11005 11000 10999 10996 ] final  -25.10 input  -57.11 | X-H torsion

> <Gold.Protein.ActiveResidues>
 VAL166  LYS551  ARG553  GLY616  TRP617  ASP618  TYR619  PRO620  LYS621  CYS622 
 ASP623  PHE694  ASN695  SER759  ASP760  ASP761  ALA762  ILE779  LEU786  VAL792 
 PHE793  MET794  SER795  GLU796  ALA797  LYS798  CYS799  TRP800  GLU811  SER814 

> <Gold.Protein.RotatedAtoms>
  150.9669  134.9049  159.7764 H   0  0  0  0  0  0  0  0  0  0  0  0  # atno 6907 bound_to 6896
  152.5176  134.3594  159.9289 H   0  0  0  0  0  0  0  0  0  0  0  0  # atno 6908 bound_to 6896
  151.3604  133.3851  159.2724 H   0  0  0  0  0  0  0  0  0  0  0  0  # atno 6909 bound_to 6896
  144.7143  140.0596  143.6433 H   0  0  0  0  0  0  0  0  0  0  0  0  # atno 7974 bound_to 7965
  154.8870  140.2981  155.5392 H   0  0  0  0  0  0  0  0  0  0  0  0  # atno 8008 bound_to 7997
  156.3021  140.2431  156.3815 H   0  0  0  0  0  0  0  0  0  0  0  0  # atno 8009 bound_to 7997
  154.8658  140.0403  157.1682 H   0  0  0  0  0  0  0  0  0  0  0  0  # atno 8010 bound_to 7997
  140.6598  143.2627  151.4475 H   0  0  0  0  0  0  0  0  0  0  0  0  # atno 10167 bound_to 10162
  156.5901  130.4797  149.6283 H   0  0  0  0  0  0  0  0  0  0  0  0  # atno 10718 bound_to 10713
  153.1124  135.4762  154.9057 H   0  0  0  0  0  0  0  0  0  0  0  0  # atno 10763 bound_to 10752
  154.7494  135.3102  154.8588 H   0  0  0  0  0  0  0  0  0  0  0  0  # atno 10764 bound_to 10752
  153.9174  135.6858  153.4802 H   0  0  0  0  0  0  0  0  0  0  0  0  # atno 10765 bound_to 10752
  140.8907  133.7590  156.0417 H   0  0  0  0  0  0  0  0  0  0  0  0  # atno 11005 bound_to 11000
  145.9875  139.2989  143.1004 LP  0  0  0  0  0  0  0  0  0  0  0  0  # atno 17320 bound_to 7965
  145.8940  140.9285  143.0537 LP  0  0  0  0  0  0  0  0  0  0  0  0  # atno 17321 bound_to 7965
  139.5829  144.1669  152.1991 LP  0  0  0  0  0  0  0  0  0  0  0  0  # atno 17342 bound_to 10162
  140.1000  144.5547  150.6995 LP  0  0  0  0  0  0  0  0  0  0  0  0  # atno 17343 bound_to 10162
  156.2557  130.6933  151.1685 LP  0  0  0  0  0  0  0  0  0  0  0  0  # atno 17370 bound_to 10713
  157.7305  131.0615  150.5721 LP  0  0  0  0  0  0  0  0  0  0  0  0  # atno 17371 bound_to 10713
  140.8350  134.3133  157.5335 LP  0  0  0  0  0  0  0  0  0  0  0  0  # atno 17394 bound_to 11000
  139.8729  134.9384  156.3715 LP  0  0  0  0  0  0  0  0  0  0  0  0  # atno 17395 bound_to 11000

$$$$
