AV-unprocessed.smi:977|AV-procd|sdf|4307|dock4
  -GOLD-   22720 2213D 1   1.00000     0.00000
 Structure written by MMmdl.
 37 38  0  0  0  0  0  0  0  0  1 V2000
  149.4966  131.0079  154.0566 C   0  0  0  0  0  0  0  0  0  0  0  0
  149.9828  132.2253  154.7931 C   0  0  0  0  0  0  0  0  0  0  0  0
  150.9061  132.0826  155.7326 N   0  0  0  0  0  0  0  0  0  0  0  0
  151.2154  133.3714  156.1941 O   0  0  0  0  0  0  0  0  0  0  0  0
  150.4612  134.2744  155.5147 C   0  0  0  0  0  0  0  0  0  0  0  0
  150.6588  135.7137  155.8513 C   0  0  0  0  0  0  0  0  0  0  0  0
  149.6517  133.6047  154.6455 C   0  0  0  0  0  0  0  0  0  0  0  0
  148.7457  134.2234  153.7485 N   0  0  0  0  0  0  0  0  0  0  0  0
  147.4641  133.8868  153.5405 C   0  0  0  0  0  0  0  0  0  0  0  0
  146.8628  133.0019  154.1484 O   0  0  0  0  0  0  0  0  0  0  0  0
  146.9070  134.6525  152.5914 N   0  0  0  0  0  0  0  0  0  0  0  0
  145.5261  134.5618  152.1192 C   0  0  1  0  0  0  0  0  0  0  0  0
  145.2755  135.6942  151.1127 C   0  0  0  0  0  0  0  0  0  0  0  0
  145.2537  133.1743  151.5004 C   0  0  1  0  0  0  0  0  0  0  0  0
  143.8916  133.0202  150.8205 C   0  0  0  0  0  0  0  0  0  0  0  0
  144.1476  131.8621  149.8845 C   0  0  0  0  0  0  0  0  0  0  0  0
  145.5759  132.1390  149.4231 C   0  0  0  0  0  0  0  0  0  0  0  0
  146.1920  132.8933  150.4648 O   0  0  0  0  0  0  0  0  0  0  0  0
  149.2630  131.2418  153.0179 H   0  0  0  0  0  0  0  0  0  0  0  0
  148.5979  130.6021  154.5210 H   0  0  0  0  0  0  0  0  0  0  0  0
  150.2488  130.2185  154.0497 H   0  0  0  0  0  0  0  0  0  0  0  0
  150.1720  136.3582  155.1194 H   0  0  0  0  0  0  0  0  0  0  0  0
  151.7195  135.9648  155.8683 H   0  0  0  0  0  0  0  0  0  0  0  0
  150.2412  135.9405  156.8323 H   0  0  0  0  0  0  0  0  0  0  0  0
  149.0819  135.0513  153.2788 H   0  0  0  0  0  0  0  0  0  0  0  0
  147.4850  135.3556  152.1548 H   0  0  0  0  0  0  0  0  0  0  0  0
  144.8403  134.7091  152.9556 H   0  0  0  0  0  0  0  0  0  0  0  0
  144.2426  135.6906  150.7639 H   0  0  0  0  0  0  0  0  0  0  0  0
  145.9214  135.6003  150.2390 H   0  0  0  0  0  0  0  0  0  0  0  0
  145.4637  136.6692  151.5635 H   0  0  0  0  0  0  0  0  0  0  0  0
  145.3579  132.3982  152.2611 H   0  0  0  0  0  0  0  0  0  0  0  0
  143.0809  132.8284  151.5241 H   0  0  0  0  0  0  0  0  0  0  0  0
  143.6441  133.9146  150.2467 H   0  0  0  0  0  0  0  0  0  0  0  0
  144.1054  130.9216  150.4357 H   0  0  0  0  0  0  0  0  0  0  0  0
  143.4353  131.8085  149.0608 H   0  0  0  0  0  0  0  0  0  0  0  0
  146.1269  131.2205  149.2191 H   0  0  0  0  0  0  0  0  0  0  0  0
  145.5755  132.7423  148.5146 H   0  0  0  0  0  0  0  0  0  0  0  0
  1  2  1  0  0  0  0
  1 19  1  0  0  0  0
  1 20  1  0  0  0  0
  1 21  1  0  0  0  0
  2  7  1  0  0  0  0
  2  3  2  0  0  0  0
  3  4  1  0  0  0  0
  4  5  1  0  0  0  0
  5  6  1  0  0  0  0
  5  7  2  0  0  0  0
  6 22  1  0  0  0  0
  6 23  1  0  0  0  0
  6 24  1  0  0  0  0
  7  8  1  0  0  0  0
  8  9  1  0  0  0  0
  8 25  1  0  0  0  0
  9 10  2  0  0  0  0
  9 11  1  0  0  0  0
 11 12  1  0  0  0  0
 11 26  1  0  0  0  0
 12 13  1  0  0  0  0
 12 14  1  0  0  0  0
 12 27  1  0  0  0  0
 13 28  1  0  0  0  0
 13 29  1  0  0  0  0
 13 30  1  0  0  0  0
 14 18  1  0  0  0  0
 14 15  1  0  0  0  0
 14 31  1  0  0  0  0
 15 16  1  0  0  0  0
 15 32  1  0  0  0  0
 15 33  1  0  0  0  0
 16 17  1  0  0  0  0
 16 34  1  0  0  0  0
 16 35  1  0  0  0  0
 17 18  1  0  0  0  0
 17 36  1  0  0  0  0
 17 37  1  0  0  0  0
M  END
> <s_m_source_file>
AV-unprocessed.smi

> <i_m_source_file_index>
977

> <i_lp_mmshare_version>
43012

> <i_f3d_flags>
0

> <s_epik_input>
W0NIM11jMW5vYyhbQ0gzXSljMVtOSF1DKD1PKVtOSF1bQ0BIXShbQ0gzXSlbQ0BASF0yW0NIMl1bQ0gyXVtDSDJdTzI=

> <s_epik_cmdline>
J2VwaWtfcHl0aG9uJywgJy1waCcsICc3LjAnLCAnLXRuJywgJzgnLCAnLW1hJywgJzIwMCcsICctbWV0YWxfYmluZGluZycsICctaW1hZScsICc8aW5maWxlLm1hZT4nLCAnLW9tYWUnLCAnPG91dGZpbGUubWFlPic=

> <r_lp_tautomer_probability>
1

> <r_epik_Ionization_Penalty>
3.41601e-05

> <r_epik_Ionization_Penalty_Charging>
0

> <r_epik_Ionization_Penalty_Neutral>
3.41601e-05

> <r_epik_State_Penalty>
-0

> <r_epik_Charging_Adjusted_Penalty>
0

> <i_epik_Tot_Q>
0

> <i_epik_Tot_abs_Q>
0

> <r_epik_Metal_State_Penalty>
-0

> <b_epik_Metal_Only>
0

> <s_lp_Force_Field>
OPLS_2005

> <r_lp_Energy>
19.4669

> <b_lp_Chiralities_Consistent>
1

> <s_lp_Variant>
AV-unprocessed.smi:977-4

> <Gold.Version>
5.8.1

> <Gold.Id.Protein>
6NUR|6NUR_protein|mol2

> <Gold.PLP.Fitness>
36.6891

> <Gold.PLP.PLP>
-31.4184

> <Gold.PLP.part.hbond>
-2.0000

> <Gold.PLP.part.metal>
0.0000

> <Gold.PLP.part.buried>
-4.2025

> <Gold.PLP.part.nonpolar>
-25.8268

> <Gold.PLP.part.repulsive>
0.2449

> <Gold.PLP.ligand.clash>
0.0000

> <Gold.PLP.ligand.torsion>
0.4861

> <Gold.PLP.Chemscore.Hbond>
1.9920

> <Gold.PLP.Chemscore.CHOScore>
0.0000

> <Gold.PLP.Chemscore.Metal>
0.0000

> <Gold.Chemscore.Hbonds>
donor molecule, donor type, donor heavy atom, donor atom, acceptor molecule, acceptor atom, score
      L1  H     8    25       P1  7948  0.88
      L1  H    11    26       P1  7948  1.00

> <Gold.PLP.Chemscore.Internal.Correction>
0.2668

> <Gold.Rescore>
     Score         DG    S(hbond)    S(metal)    S(lipo)     H(rot)  DE(clash)    DE(int)     intcor
     15.41     -16.18       1.71        0.00      69.33       1.22       0.10       0.67       ----

> <Gold.Chemscore.Fitness>
15.4108

> <Gold.Chemscore.DG>
-16.1812

> <Gold.Chemscore.ZeroCoef>
-5.4800

> <Gold.Chemscore.Hbond>
1.7103

> <Gold.Chemscore.Metal>
0.0000

> <Gold.Chemscore.Lipo>
69.3337

> <Gold.Chemscore.Internal_Hbond>
0.0000

> <Gold.Chemscore.DEClash>
0.1004

> <Gold.Chemscore.DEInternal>
0.6700

> <Gold.Chemscore.Rot>
1.2200

> <Gold.Chemscore.Internal.Correction>
   9.000000E+99

> <Gold.Chemscore.Hbonds>
donor molecule, donor type, donor heavy atom, donor atom, acceptor molecule, acceptor atom, score
      L1  H     8    25       P1  7948  0.17
      L1  H    11    26       P1  7948  0.98

> <Gold.Chemscore.Hbond.Weighted>
-5.7123

> <Gold.Chemscore.Metal.Weighted>
-0.0000

> <Gold.Chemscore.Lipo.Weighted>
-8.1120

> <Gold.Chemscore.Internal_Hbond.Weighted>
0.0000

> <Gold.Chemscore.DEClash.Weighted>
0.1004

> <Gold.Chemscore.DEInternal.Weighted>
0.6700

> <Gold.Chemscore.Rot.Weighted>
3.1232

> <Gold.Chemscore.Internal.Correction.Weighted>
   9.000000E+99

> <Gold.Protein.RotatedTorsions>
[ 6907 6896 6895 6894 ] final   74.08 input  -60.11 | X-H torsion
[ 7974 7965 7964 7962 ] final   89.38 input  175.53 | X-H torsion
[ 8008 7997 7996 7995 ] final -102.12 input   59.86 | X-H torsion
[ 10167 10162 10161 10158 ] final  -59.43 input  -65.29 | X-H torsion
[ 10718 10713 10712 10709 ] final -172.21 input   66.30 | X-H torsion
[ 10763 10752 10751 10750 ] final  142.89 input  -60.55 | X-H torsion
[ 11005 11000 10999 10996 ] final   69.49 input  -57.11 | X-H torsion

> <Gold.Protein.ActiveResidues>
 VAL166  LYS551  ARG553  GLY616  TRP617  ASP618  TYR619  PRO620  LYS621  CYS622 
 ASP623  PHE694  ASN695  SER759  ASP760  ASP761  ALA762  ILE779  LEU786  VAL792 
 PHE793  MET794  SER795  GLU796  ALA797  LYS798  CYS799  TRP800  GLU811  SER814 

> <Gold.Protein.RotatedAtoms>
  152.4957  134.4326  159.9516 H   0  0  0  0  0  0  0  0  0  0  0  0  # atno 6907 bound_to 6896
  151.4305  133.3665  159.2776 H   0  0  0  0  0  0  0  0  0  0  0  0  # atno 6908 bound_to 6896
  150.9158  134.8599  159.7516 H   0  0  0  0  0  0  0  0  0  0  0  0  # atno 6909 bound_to 6896
  145.5331  139.2284  143.2607 H   0  0  0  0  0  0  0  0  0  0  0  0  # atno 7974 bound_to 7965
  154.8521  140.0430  157.1611 H   0  0  0  0  0  0  0  0  0  0  0  0  # atno 8008 bound_to 7997
  154.8931  140.2989  155.5339 H   0  0  0  0  0  0  0  0  0  0  0  0  # atno 8009 bound_to 7997
  156.2996  140.2390  156.3949 H   0  0  0  0  0  0  0  0  0  0  0  0  # atno 8010 bound_to 7997
  140.6136  143.2395  151.5652 H   0  0  0  0  0  0  0  0  0  0  0  0  # atno 10167 bound_to 10162
  156.7522  130.9382  151.3115 H   0  0  0  0  0  0  0  0  0  0  0  0  # atno 10718 bound_to 10713
  153.9633  135.2958  155.3432 H   0  0  0  0  0  0  0  0  0  0  0  0  # atno 10763 bound_to 10752
  154.7363  135.5045  153.9050 H   0  0  0  0  0  0  0  0  0  0  0  0  # atno 10764 bound_to 10752
  153.0936  135.6715  153.9917 H   0  0  0  0  0  0  0  0  0  0  0  0  # atno 10765 bound_to 10752
  139.9650  134.6995  156.0564 H   0  0  0  0  0  0  0  0  0  0  0  0  # atno 11005 bound_to 11000
  146.2031  140.6148  142.9093 LP  0  0  0  0  0  0  0  0  0  0  0  0  # atno 17320 bound_to 7965
  144.7615  140.5434  143.6732 LP  0  0  0  0  0  0  0  0  0  0  0  0  # atno 17321 bound_to 7965
  139.5380  144.2726  152.1292 LP  0  0  0  0  0  0  0  0  0  0  0  0  # atno 17342 bound_to 10162
  140.1930  144.4733  150.6469 LP  0  0  0  0  0  0  0  0  0  0  0  0  # atno 17343 bound_to 10162
  157.6772  130.9105  150.0178 LP  0  0  0  0  0  0  0  0  0  0  0  0  # atno 17370 bound_to 10713
  156.1394  130.3642  149.9607 LP  0  0  0  0  0  0  0  0  0  0  0  0  # atno 17371 bound_to 10713
  141.1330  133.6582  156.3515 LP  0  0  0  0  0  0  0  0  0  0  0  0  # atno 17394 bound_to 11000
  140.5415  134.6115  157.5381 LP  0  0  0  0  0  0  0  0  0  0  0  0  # atno 17395 bound_to 11000

$$$$
