AV-unprocessed.smi:1046|AV-procd|sdf|4559|dock5
  -GOLD-   22720 3 03D 1   1.00000     0.00000
 Structure written by MMmdl.
 54 56  0  0  0  0  0  0  0  0  3 V2000
  151.6039  145.8552  160.5416 C   0  0  0  0  0  0  0  0  0  0  0  0
  151.6507  144.5090  159.8388 C   0  0  0  0  0  0  0  0  0  0  0  0
  151.1134  144.4097  158.5356 C   0  0  0  0  0  0  0  0  0  0  0  0
  151.1742  143.1665  157.9172 C   0  0  0  0  0  0  0  0  0  0  0  0
  150.7426  142.7506  156.6558 N   0  3  0  0  0  0  0  0  0  0  0  0
  151.0225  141.4281  156.4925 C   0  0  0  0  0  0  0  0  0  0  0  0
  151.6251  140.9918  157.6318 N   0  0  0  0  0  0  0  0  0  0  0  0
  152.1243  139.6528  157.9768 C   0  0  0  0  0  0  0  0  0  0  0  0
  151.7490  138.5891  156.9255 C   0  0  1  0  0  0  0  0  0  0  0  0
  152.1924  137.3068  157.3230 O   0  0  0  0  0  0  0  0  0  0  0  0
  150.2538  138.5043  156.5439 C   0  0  0  0  0  0  0  0  0  0  0  0
  149.9565  138.3078  155.1172 N   0  0  0  0  0  0  0  0  0  0  0  0
  150.9084  137.4451  154.4057 C   0  0  0  0  0  0  0  0  0  0  0  0
  150.7989  135.9517  154.7835 C   0  0  0  0  0  0  0  0  0  0  0  0
  149.4131  135.4596  154.5769 N   0  3  0  0  0  0  0  0  0  0  0  0
  149.2741  134.0114  154.8732 C   0  0  0  0  0  0  0  0  0  0  0  0
  148.2538  133.3155  153.9561 C   0  0  0  0  0  0  0  0  0  0  0  0
  147.6428  134.2636  153.1072 O   0  0  0  0  0  0  0  0  0  0  0  0
  148.4436  136.3144  155.3100 C   0  0  0  0  0  0  0  0  0  0  0  0
  148.6098  137.7856  154.8837 C   0  0  0  0  0  0  0  0  0  0  0  0
  151.7413  142.0431  158.5498 C   0  0  0  0  0  0  0  0  0  0  0  0
  152.2748  142.1244  159.8340 C   0  0  0  0  0  0  0  0  0  0  0  0
  152.2262  143.3809  160.4788 C   0  0  0  0  0  0  0  0  0  0  0  0
  152.8079  143.4996  161.8772 C   0  0  0  0  0  0  0  0  0  0  0  0
  151.0598  146.5937  159.9525 H   0  0  0  0  0  0  0  0  0  0  0  0
  152.6127  146.2347  160.7048 H   0  0  0  0  0  0  0  0  0  0  0  0
  151.1047  145.7698  161.5071 H   0  0  0  0  0  0  0  0  0  0  0  0
  150.6766  145.2648  158.0410 H   0  0  0  0  0  0  0  0  0  0  0  0
  150.8049  140.8336  155.6169 H   0  0  0  0  0  0  0  0  0  0  0  0
  153.2028  139.7124  158.1197 H   0  0  0  0  0  0  0  0  0  0  0  0
  151.6912  139.3904  158.9426 H   0  0  0  0  0  0  0  0  0  0  0  0
  152.2937  138.8252  156.0104 H   0  0  0  0  0  0  0  0  0  0  0  0
  152.4969  136.8426  156.5582 H   0  0  0  0  0  0  0  0  0  0  0  0
  149.7741  137.7302  157.1414 H   0  0  0  0  0  0  0  0  0  0  0  0
  149.7965  139.4365  156.8791 H   0  0  0  0  0  0  0  0  0  0  0  0
  150.7356  137.5450  153.3331 H   0  0  0  0  0  0  0  0  0  0  0  0
  151.9310  137.7771  154.5641 H   0  0  0  0  0  0  0  0  0  0  0  0
  151.4837  135.3755  154.1601 H   0  0  0  0  0  0  0  0  0  0  0  0
  151.1027  135.7816  155.8168 H   0  0  0  0  0  0  0  0  0  0  0  0
  150.2389  133.5159  154.7522 H   0  0  0  0  0  0  0  0  0  0  0  0
  148.9946  133.8803  155.9195 H   0  0  0  0  0  0  0  0  0  0  0  0
  148.7622  132.5792  153.3331 H   0  0  0  0  0  0  0  0  0  0  0  0
  147.4913  132.7778  154.5183 H   0  0  0  0  0  0  0  0  0  0  0  0
  148.2780  134.9306  152.8923 H   0  0  0  0  0  0  0  0  0  0  0  0
  147.4237  135.9978  155.0950 H   0  0  0  0  0  0  0  0  0  0  0  0
  148.5877  136.2057  156.3860 H   0  0  0  0  0  0  0  0  0  0  0  0
  147.8767  138.4069  155.3996 H   0  0  0  0  0  0  0  0  0  0  0  0
  148.3730  137.8742  153.8224 H   0  0  0  0  0  0  0  0  0  0  0  0
  152.7189  141.2682  160.3199 H   0  0  0  0  0  0  0  0  0  0  0  0
  153.2532  142.5600  162.2054 H   0  0  0  0  0  0  0  0  0  0  0  0
  152.0305  143.7685  162.5926 H   0  0  0  0  0  0  0  0  0  0  0  0
  153.5855  144.2631  161.9061 H   0  0  0  0  0  0  0  0  0  0  0  0
  149.2197  135.5688  153.5914 H   0  0  0  0  0  0  0  0  0  0  0  0
  150.2906  143.3252  155.9560 H   0  0  0  0  0  0  0  0  0  0  0  0
  1  2  1  0  0  0  0
  1 25  1  0  0  0  0
  1 26  1  0  0  0  0
  1 27  1  0  0  0  0
  2 23  1  0  0  0  0
  2  3  2  0  0  0  0
  3  4  1  0  0  0  0
  3 28  1  0  0  0  0
  4 21  2  0  0  0  0
  4  5  1  0  0  0  0
  5  6  2  0  0  0  0
  5 54  1  0  0  0  0
  6  7  1  0  0  0  0
  6 29  1  0  0  0  0
  7  8  1  0  0  0  0
  7 21  1  0  0  0  0
  8  9  1  0  0  0  0
  8 30  1  0  0  0  0
  8 31  1  0  0  0  0
  9 10  1  0  0  0  0
  9 11  1  0  0  0  0
  9 32  1  0  0  0  0
 10 33  1  0  0  0  0
 11 12  1  0  0  0  0
 11 34  1  0  0  0  0
 11 35  1  0  0  0  0
 12 20  1  0  0  0  0
 12 13  1  0  0  0  0
 13 14  1  0  0  0  0
 13 36  1  0  0  0  0
 13 37  1  0  0  0  0
 14 15  1  0  0  0  0
 14 38  1  0  0  0  0
 14 39  1  0  0  0  0
 15 16  1  0  0  0  0
 15 19  1  0  0  0  0
 15 53  1  0  0  0  0
 16 17  1  0  0  0  0
 16 40  1  0  0  0  0
 16 41  1  0  0  0  0
 17 18  1  0  0  0  0
 17 42  1  0  0  0  0
 17 43  1  0  0  0  0
 18 44  1  0  0  0  0
 19 20  1  0  0  0  0
 19 45  1  0  0  0  0
 19 46  1  0  0  0  0
 20 47  1  0  0  0  0
 20 48  1  0  0  0  0
 21 22  1  0  0  0  0
 22 23  2  0  0  0  0
 22 49  1  0  0  0  0
 23 24  1  0  0  0  0
 24 50  1  0  0  0  0
 24 51  1  0  0  0  0
 24 52  1  0  0  0  0
M  CHG  1   5   1
M  CHG  1  15   1
M  END
> <s_m_source_file>
AV-unprocessed.smi

> <i_m_source_file_index>
1046

> <i_lp_mmshare_version>
43012

> <i_f3d_flags>
0

> <s_epik_input>
W0NIM11jKFtjSF0xKWMoW0NIM10pW2NIXWMoYzEyKW4oW2NIXW4yKVtDSDJdW0NASF0oW09IXSlbQ0gyXU4zW0NIMl1bQ0gyXU4oW0NIMl1bQ0gyXTMpW0NIMl1bQ0gyXVtPSF0=

> <s_epik_cmdline>
J2VwaWtfcHl0aG9uJywgJy1waCcsICc3LjAnLCAnLXRuJywgJzgnLCAnLW1hJywgJzIwMCcsICctbWV0YWxfYmluZGluZycsICctaW1hZScsICc8aW5maWxlLm1hZT4nLCAnLW9tYWUnLCAnPG91dGZpbGUubWFlPic=

> <r_epik_Ionization_Penalty>
1.37806

> <r_epik_Ionization_Penalty_Charging>
1.32954

> <r_epik_Ionization_Penalty_Neutral>
0.0485178

> <r_epik_State_Penalty>
2.26587

> <r_epik_Charging_Adjusted_Penalty>
3.59541

> <i_epik_Tot_Q>
2

> <i_epik_Tot_abs_Q>
2

> <r_epik_Metal_State_Penalty>
6.27317

> <b_epik_Metal_Only>
0

> <s_lp_Force_Field>
OPLS_2005

> <r_lp_Energy>
47.9713

> <b_lp_Chiralities_Consistent>
1

> <s_lp_Variant>
AV-unprocessed.smi:1046-12

> <Gold.Version>
5.8.1

> <Gold.Id.Protein>
6NUR|6NUR_protein|mol2

> <Gold.PLP.Fitness>
55.5519

> <Gold.PLP.PLP>
-44.1668

> <Gold.PLP.part.hbond>
-3.0000

> <Gold.PLP.part.metal>
0.0000

> <Gold.PLP.part.buried>
-4.3929

> <Gold.PLP.part.nonpolar>
-38.2799

> <Gold.PLP.part.repulsive>
0.1941

> <Gold.PLP.ligand.clash>
0.0000

> <Gold.PLP.ligand.torsion>
1.5844

> <Gold.PLP.Chemscore.Hbond>
4.8240

> <Gold.PLP.Chemscore.CHOScore>
0.0000

> <Gold.PLP.Chemscore.Metal>
0.0000

> <Gold.Chemscore.Hbonds>
donor molecule, donor type, donor heavy atom, donor atom, acceptor molecule, acceptor atom, score
      L1  H     5    54       P1  8028  1.79
      L1  H    15    53       P1  7948  2.00
      L1  H    18    44       P1  7948  1.00

> <Gold.PLP.Chemscore.Internal.Correction>
0.0819

> <Gold.Rescore>
     Score         DG    S(hbond)    S(metal)    S(lipo)     H(rot)  DE(clash)    DE(int)     intcor
     17.78     -21.22       2.80        0.00     126.50       3.29       0.21       3.23       ----

> <Gold.Chemscore.Fitness>
17.7824

> <Gold.Chemscore.DG>
-21.2235

> <Gold.Chemscore.ZeroCoef>
-5.4800

> <Gold.Chemscore.Hbond>
2.8037

> <Gold.Chemscore.Metal>
0.0000

> <Gold.Chemscore.Lipo>
126.5013

> <Gold.Chemscore.Internal_Hbond>
0.0000

> <Gold.Chemscore.DEClash>
0.2140

> <Gold.Chemscore.DEInternal>
3.2270

> <Gold.Chemscore.Rot>
3.2896

> <Gold.Chemscore.Internal.Correction>
   9.000000E+99

> <Gold.Chemscore.Hbonds>
donor molecule, donor type, donor heavy atom, donor atom, acceptor molecule, acceptor atom, score
      L1  H     5    54       P1  8028  0.85
      L1  H    15    53       P1  7948  0.55
      L1  H    18    44       P1  7948  0.76

> <Gold.Chemscore.Hbond.Weighted>
-9.3643

> <Gold.Chemscore.Metal.Weighted>
-0.0000

> <Gold.Chemscore.Lipo.Weighted>
-14.8007

> <Gold.Chemscore.Internal_Hbond.Weighted>
0.0000

> <Gold.Chemscore.DEClash.Weighted>
0.2140

> <Gold.Chemscore.DEInternal.Weighted>
3.2270

> <Gold.Chemscore.Rot.Weighted>
8.4215

> <Gold.Chemscore.Internal.Correction.Weighted>
   9.000000E+99

> <Gold.Protein.RotatedTorsions>
[ 6907 6896 6895 6894 ] final   36.09 input  -60.11 | X-H torsion
[ 7974 7965 7964 7962 ] final   38.65 input  175.53 | X-H torsion
[ 8008 7997 7996 7995 ] final  -58.54 input   59.86 | X-H torsion
[ 10167 10162 10161 10158 ] final   97.15 input  -65.29 | X-H torsion
[ 10718 10713 10712 10709 ] final   90.50 input   66.30 | X-H torsion
[ 10763 10752 10751 10750 ] final    2.99 input  -60.55 | X-H torsion
[ 11005 11000 10999 10996 ] final  -37.79 input  -57.11 | X-H torsion

> <Gold.Protein.ActiveResidues>
 VAL166  LYS551  ARG553  GLY616  TRP617  ASP618  TYR619  PRO620  LYS621  CYS622 
 ASP623  PHE694  ASN695  SER759  ASP760  ASP761  ALA762  ILE779  LEU786  VAL792 
 PHE793  MET794  SER795  GLU796  ALA797  LYS798  CYS799  TRP800  GLU811  SER814 

> <Gold.Protein.RotatedAtoms>
  152.1250  134.9177  160.0561 H   0  0  0  0  0  0  0  0  0  0  0  0  # atno 6907 bound_to 6896
  152.0303  133.3930  159.4303 H   0  0  0  0  0  0  0  0  0  0  0  0  # atno 6908 bound_to 6896
  150.6852  134.3449  159.4927 H   0  0  0  0  0  0  0  0  0  0  0  0  # atno 6909 bound_to 6896
  146.1045  139.5747  142.9392 H   0  0  0  0  0  0  0  0  0  0  0  0  # atno 7974 bound_to 7965
  154.4313  140.1082  156.5974 H   0  0  0  0  0  0  0  0  0  0  0  0  # atno 8008 bound_to 7997
  155.5948  140.3492  155.4558 H   0  0  0  0  0  0  0  0  0  0  0  0  # atno 8009 bound_to 7997
  156.0219  140.1241  157.0338 H   0  0  0  0  0  0  0  0  0  0  0  0  # atno 8010 bound_to 7997
  139.7828  144.6882  150.9999 H   0  0  0  0  0  0  0  0  0  0  0  0  # atno 10167 bound_to 10162
  157.6959  131.0373  150.3586 H   0  0  0  0  0  0  0  0  0  0  0  0  # atno 10718 bound_to 10713
  153.2888  135.6947  153.7313 H   0  0  0  0  0  0  0  0  0  0  0  0  # atno 10763 bound_to 10752
  153.6272  135.3416  155.3031 H   0  0  0  0  0  0  0  0  0  0  0  0  # atno 10764 bound_to 10752
  154.8518  135.4400  154.1964 H   0  0  0  0  0  0  0  0  0  0  0  0  # atno 10765 bound_to 10752
  140.9978  133.6971  156.1967 H   0  0  0  0  0  0  0  0  0  0  0  0  # atno 11005 bound_to 11000
  145.5787  141.0385  143.2134 LP  0  0  0  0  0  0  0  0  0  0  0  0  # atno 17320 bound_to 7965
  144.7460  139.7319  143.7292 LP  0  0  0  0  0  0  0  0  0  0  0  0  # atno 17321 bound_to 7965
  140.7819  143.4465  151.0475 LP  0  0  0  0  0  0  0  0  0  0  0  0  # atno 17342 bound_to 10162
  139.8145  143.7905  152.3173 LP  0  0  0  0  0  0  0  0  0  0  0  0  # atno 17343 bound_to 10162
  156.4025  130.3918  149.6949 LP  0  0  0  0  0  0  0  0  0  0  0  0  # atno 17370 bound_to 10713
  156.4261  130.7792  151.2811 LP  0  0  0  0  0  0  0  0  0  0  0  0  # atno 17371 bound_to 10713
  140.6937  134.4638  157.5588 LP  0  0  0  0  0  0  0  0  0  0  0  0  # atno 17394 bound_to 11000
  139.9023  134.8527  156.1843 LP  0  0  0  0  0  0  0  0  0  0  0  0  # atno 17395 bound_to 11000

$$$$
