AV-unprocessed.smi:679|AV-procd|sdf|3321|dock5
  -GOLD-   22720 0293D 1   1.00000     0.00000
 Structure written by MMmdl.
 41 43  0  0  0  0  0  0  0  0  1 V2000
  151.1062  144.2270  159.6968 C   0  0  0  0  0  0  0  0  0  0  0  0
  152.1601  143.3409  159.0295 C   0  0  0  0  0  0  0  0  0  0  0  0
  151.5040  142.3977  158.2001 O   0  0  0  0  0  0  0  0  0  0  0  0
  151.2866  141.1517  158.8430 C   0  0  2  0  0  0  0  0  0  0  0  0
  152.5635  140.4248  159.2764 C   0  0  0  0  0  0  0  0  0  0  0  0
  151.8434  139.1405  158.8609 C   0  0  2  0  0  0  0  0  0  0  0  0
  152.7389  138.1736  158.2398 N   0  0  0  0  0  0  0  0  0  0  0  0
  152.5541  136.8458  158.2606 C   0  0  0  0  0  0  0  0  0  0  0  0
  151.6580  136.2930  158.8978 O   0  0  0  0  0  0  0  0  0  0  0  0
  153.5062  136.0168  157.4006 C   0  0  0  0  0  0  0  0  0  0  0  0
  154.3696  135.2086  158.2413 N   0  0  0  0  0  0  0  0  0  0  0  0
  155.6788  135.2903  158.4879 C   0  0  0  0  0  0  0  0  0  0  0  0
  156.0715  134.3672  159.3524 N   0  0  0  0  0  0  0  0  0  0  0  0
  154.9005  133.6850  159.6386 N   0  0  0  0  0  0  0  0  0  0  0  0
  153.8871  134.1798  158.9824 N   0  0  0  0  0  0  0  0  0  0  0  0
  151.0179  139.9873  157.8572 C   0  0  0  0  0  0  0  0  0  0  0  0
  149.5598  139.6081  157.6185 C   0  0  0  0  0  0  0  0  0  0  0  0
  149.0976  140.3362  156.3504 C   0  0  0  0  0  0  0  0  0  0  0  0
  150.3733  140.7681  155.6203 C   0  0  0  0  0  0  0  0  0  0  0  0
  151.5245  140.1548  156.4174 C   0  0  0  0  0  0  0  0  0  0  0  0
  151.5736  144.9661  160.3476 H   0  0  0  0  0  0  0  0  0  0  0  0
  150.4224  143.6320  160.3025 H   0  0  0  0  0  0  0  0  0  0  0  0
  150.5163  144.7615  158.9518 H   0  0  0  0  0  0  0  0  0  0  0  0
  152.8429  143.9548  158.4406 H   0  0  0  0  0  0  0  0  0  0  0  0
  152.7495  142.8262  159.7898 H   0  0  0  0  0  0  0  0  0  0  0  0
  150.5395  141.2023  159.6390 H   0  0  0  0  0  0  0  0  0  0  0  0
  153.4282  140.6687  158.6559 H   0  0  0  0  0  0  0  0  0  0  0  0
  152.7921  140.4987  160.3398 H   0  0  0  0  0  0  0  0  0  0  0  0
  151.2344  138.7352  159.6728 H   0  0  0  0  0  0  0  0  0  0  0  0
  153.5031  138.5418  157.6918 H   0  0  0  0  0  0  0  0  0  0  0  0
  152.9428  135.3714  156.7248 H   0  0  0  0  0  0  0  0  0  0  0  0
  154.1257  136.6712  156.7861 H   0  0  0  0  0  0  0  0  0  0  0  0
  156.3353  136.0257  158.0461 H   0  0  0  0  0  0  0  0  0  0  0  0
  149.4783  138.5313  157.4660 H   0  0  0  0  0  0  0  0  0  0  0  0
  148.9222  139.8516  158.4687 H   0  0  0  0  0  0  0  0  0  0  0  0
  148.4788  139.6863  155.7306 H   0  0  0  0  0  0  0  0  0  0  0  0
  148.4997  141.2119  156.6059 H   0  0  0  0  0  0  0  0  0  0  0  0
  150.3843  140.4480  154.5780 H   0  0  0  0  0  0  0  0  0  0  0  0
  150.4521  141.8559  155.6316 H   0  0  0  0  0  0  0  0  0  0  0  0
  152.4279  140.7619  156.3490 H   0  0  0  0  0  0  0  0  0  0  0  0
  151.7647  139.1857  155.9792 H   0  0  0  0  0  0  0  0  0  0  0  0
  1  2  1  0  0  0  0
  1 21  1  0  0  0  0
  1 22  1  0  0  0  0
  1 23  1  0  0  0  0
  2  3  1  0  0  0  0
  2 24  1  0  0  0  0
  2 25  1  0  0  0  0
  3  4  1  0  0  0  0
  4 16  1  0  0  0  0
  4  5  1  0  0  0  0
  4 26  1  0  0  0  0
  5  6  1  0  0  0  0
  5 27  1  0  0  0  0
  5 28  1  0  0  0  0
  6  7  1  0  0  0  0
  6 16  1  0  0  0  0
  6 29  1  0  0  0  0
  7  8  1  0  0  0  0
  7 30  1  0  0  0  0
  8  9  2  0  0  0  0
  8 10  1  0  0  0  0
 10 11  1  0  0  0  0
 10 31  1  0  0  0  0
 10 32  1  0  0  0  0
 11 15  1  0  0  0  0
 11 12  1  0  0  0  0
 12 13  2  0  0  0  0
 12 33  1  0  0  0  0
 13 14  1  0  0  0  0
 14 15  2  0  0  0  0
 16 20  1  0  0  0  0
 16 17  1  0  0  0  0
 17 18  1  0  0  0  0
 17 34  1  0  0  0  0
 17 35  1  0  0  0  0
 18 19  1  0  0  0  0
 18 36  1  0  0  0  0
 18 37  1  0  0  0  0
 19 20  1  0  0  0  0
 19 38  1  0  0  0  0
 19 39  1  0  0  0  0
 20 40  1  0  0  0  0
 20 41  1  0  0  0  0
M  END
> <s_m_source_file>
AV-unprocessed.smi

> <i_m_source_file_index>
679

> <i_lp_mmshare_version>
43012

> <i_f3d_flags>
0

> <s_epik_input>
W0NIMl0xW0NIMl1bQ0gyXVtDSDJdQzEyW0NASF0oT1tDSDJdW0NIM10pW0NIMl1bQ0BIXTJbTkhdQyg9TylbQ0gyXW4zW2NIXW5ubjM=

> <s_epik_cmdline>
J2VwaWtfcHl0aG9uJywgJy1waCcsICc3LjAnLCAnLXRuJywgJzgnLCAnLW1hJywgJzIwMCcsICctbWV0YWxfYmluZGluZycsICctaW1hZScsICc8aW5maWxlLm1hZT4nLCAnLW9tYWUnLCAnPG91dGZpbGUubWFlPic=

> <r_lp_tautomer_probability>
1

> <r_epik_Ionization_Penalty>
7.96741e-07

> <r_epik_Ionization_Penalty_Charging>
0

> <r_epik_Ionization_Penalty_Neutral>
7.96741e-07

> <r_epik_State_Penalty>
-0

> <r_epik_Charging_Adjusted_Penalty>
0

> <i_epik_Tot_Q>
0

> <i_epik_Tot_abs_Q>
0

> <r_epik_Metal_State_Penalty>
-0

> <b_epik_Metal_Only>
0

> <s_lp_Force_Field>
OPLS_2005

> <r_lp_Energy>
37

> <b_lp_Chiralities_Consistent>
1

> <s_lp_Variant>
AV-unprocessed.smi:679-3

> <Gold.Version>
5.8.1

> <Gold.Id.Protein>
6NUR|6NUR_protein|mol2

> <Gold.PLP.Fitness>
33.9286

> <Gold.PLP.PLP>
-29.5092

> <Gold.PLP.part.hbond>
-2.0000

> <Gold.PLP.part.metal>
0.0000

> <Gold.PLP.part.buried>
-5.4653

> <Gold.PLP.part.nonpolar>
-22.3590

> <Gold.PLP.part.repulsive>
0.1154

> <Gold.PLP.ligand.clash>
0.0000

> <Gold.PLP.ligand.torsion>
0.7047

> <Gold.PLP.Chemscore.Hbond>
1.8240

> <Gold.PLP.Chemscore.CHOScore>
0.0000

> <Gold.PLP.Chemscore.Metal>
0.0000

> <Gold.Chemscore.Hbonds>
donor molecule, donor type, donor heavy atom, donor atom, acceptor molecule, acceptor atom, score
      P1  H  6896  6908       L1     9  0.69
      P1  H  6896  6909       L1    15  0.98

> <Gold.PLP.Chemscore.Internal.Correction>
0.3567

> <Gold.Rescore>
     Score         DG    S(hbond)    S(metal)    S(lipo)     H(rot)  DE(clash)    DE(int)     intcor
     13.65     -14.48       1.81        0.00      78.03       2.41       0.00       0.83       ----

> <Gold.Chemscore.Fitness>
13.6545

> <Gold.Chemscore.DG>
-14.4836

> <Gold.Chemscore.ZeroCoef>
-5.4800

> <Gold.Chemscore.Hbond>
1.8086

> <Gold.Chemscore.Metal>
0.0000

> <Gold.Chemscore.Lipo>
78.0321

> <Gold.Chemscore.Internal_Hbond>
0.0000

> <Gold.Chemscore.DEClash>
0.0000

> <Gold.Chemscore.DEInternal>
0.8292

> <Gold.Chemscore.Rot>
2.4089

> <Gold.Chemscore.Internal.Correction>
   9.000000E+99

> <Gold.Chemscore.Hbonds>
donor molecule, donor type, donor heavy atom, donor atom, acceptor molecule, acceptor atom, score
      P1  H  6896  6908       L1     9  0.65
      P1  H  6896  6909       L1    15  0.70

> <Gold.Chemscore.Hbond.Weighted>
-6.0407

> <Gold.Chemscore.Metal.Weighted>
-0.0000

> <Gold.Chemscore.Lipo.Weighted>
-9.1298

> <Gold.Chemscore.Internal_Hbond.Weighted>
0.0000

> <Gold.Chemscore.DEClash.Weighted>
0.0000

> <Gold.Chemscore.DEInternal.Weighted>
0.8292

> <Gold.Chemscore.Rot.Weighted>
6.1668

> <Gold.Chemscore.Internal.Correction.Weighted>
   9.000000E+99

> <Gold.Protein.RotatedTorsions>
[ 6907 6896 6895 6894 ] final -137.47 input  -60.11 | X-H torsion
[ 7974 7965 7964 7962 ] final -171.10 input  175.53 | X-H torsion
[ 8008 7997 7996 7995 ] final  -70.01 input   59.86 | X-H torsion
[ 10167 10162 10161 10158 ] final  -69.24 input  -65.29 | X-H torsion
[ 10718 10713 10712 10709 ] final   13.05 input   66.30 | X-H torsion
[ 10763 10752 10751 10750 ] final -109.34 input  -60.55 | X-H torsion
[ 11005 11000 10999 10996 ] final  170.34 input  -57.11 | X-H torsion

> <Gold.Protein.ActiveResidues>
 VAL166  LYS551  ARG553  GLY616  TRP617  ASP618  TYR619  PRO620  LYS621  CYS622 
 ASP623  PHE694  ASN695  SER759  ASP760  ASP761  ALA762  ILE779  LEU786  VAL792 
 PHE793  MET794  SER795  GLU796  ALA797  LYS798  CYS799  TRP800  GLU811  SER814 

> <Gold.Protein.RotatedAtoms>
  151.0228  133.5861  159.2669 H   0  0  0  0  0  0  0  0  0  0  0  0  # atno 6907 bound_to 6896
  151.2971  135.0757  159.9235 H   0  0  0  0  0  0  0  0  0  0  0  0  # atno 6908 bound_to 6896
  152.5327  133.9916  159.7907 H   0  0  0  0  0  0  0  0  0  0  0  0  # atno 6909 bound_to 6896
  144.7161  140.1973  143.6342 H   0  0  0  0  0  0  0  0  0  0  0  0  # atno 7974 bound_to 7965
  154.4981  140.0842  156.7739 H   0  0  0  0  0  0  0  0  0  0  0  0  # atno 8008 bound_to 7997
  155.4069  140.3439  155.4242 H   0  0  0  0  0  0  0  0  0  0  0  0  # atno 8009 bound_to 7997
  156.1420  140.1532  156.8894 H   0  0  0  0  0  0  0  0  0  0  0  0  # atno 8010 bound_to 7997
  140.5446  143.2313  151.7026 H   0  0  0  0  0  0  0  0  0  0  0  0  # atno 10167 bound_to 10162
  157.0191  130.6147  149.5718 H   0  0  0  0  0  0  0  0  0  0  0  0  # atno 10718 bound_to 10713
  154.8188  135.4604  154.0718 H   0  0  0  0  0  0  0  0  0  0  0  0  # atno 10763 bound_to 10752
  153.2089  135.6879  153.8145 H   0  0  0  0  0  0  0  0  0  0  0  0  # atno 10764 bound_to 10752
  153.7603  135.3285  155.3313 H   0  0  0  0  0  0  0  0  0  0  0  0  # atno 10765 bound_to 10752
  140.3073  134.7545  157.3964 H   0  0  0  0  0  0  0  0  0  0  0  0  # atno 11005 bound_to 11000
  145.8713  139.2273  143.1659 LP  0  0  0  0  0  0  0  0  0  0  0  0  # atno 17320 bound_to 7965
  146.0082  140.8459  142.9984 LP  0  0  0  0  0  0  0  0  0  0  0  0  # atno 17321 bound_to 7965
  139.5002  144.3915  152.0275 LP  0  0  0  0  0  0  0  0  0  0  0  0  # atno 17342 bound_to 10162
  140.3027  144.3628  150.6056 LP  0  0  0  0  0  0  0  0  0  0  0  0  # atno 17343 bound_to 10162
  156.0109  130.5200  150.7983 LP  0  0  0  0  0  0  0  0  0  0  0  0  # atno 17370 bound_to 10713
  157.5263  131.0934  151.0013 LP  0  0  0  0  0  0  0  0  0  0  0  0  # atno 17371 bound_to 10713
  140.1055  134.5415  155.8313 LP  0  0  0  0  0  0  0  0  0  0  0  0  # atno 17394 bound_to 11000
  141.2115  133.6708  156.6591 LP  0  0  0  0  0  0  0  0  0  0  0  0  # atno 17395 bound_to 11000

$$$$
