AV-unprocessed.smi:2152|AV-procd|sdf|8765|dock9
  -GOLD-   2272011543D 1   1.00000     0.00000
 Structure written by MMmdl.
 41 42  0  0  0  0  0  0  0  0  1 V2000
  152.0511  140.4254  159.2633 C   0  0  0  0  0  0  0  0  0  0  0  0
  151.7514  141.9199  159.0461 C   0  0  1  0  0  0  0  0  0  0  0  0
  152.6613  142.7879  159.9390 C   0  0  0  0  0  0  0  0  0  0  0  0
  152.3792  144.2874  159.7600 C   0  0  0  0  0  0  0  0  0  0  0  0
  152.5194  144.7031  158.2894 C   0  0  0  0  0  0  0  0  0  0  0  0
  151.6067  143.8571  157.3902 C   0  0  0  0  0  0  0  0  0  0  0  0
  151.8775  142.3494  157.5613 C   0  0  2  0  0  0  0  0  0  0  0  0
  150.9400  141.6042  156.7227 N   0  0  0  0  0  0  0  0  0  0  0  0
  151.2337  140.5287  155.9755 C   0  0  0  0  0  0  0  0  0  0  0  0
  152.3652  140.0503  155.8865 O   0  0  0  0  0  0  0  0  0  0  0  0
  150.0629  139.9082  155.2023 C   0  0  0  0  0  0  0  0  0  0  0  0
  148.8618  140.7527  155.2165 N   0  0  0  0  0  0  0  0  0  0  0  0
  148.4995  141.4495  154.0783 C   0  0  0  0  0  0  0  0  0  0  0  0
  147.4007  142.2317  154.0018 C   0  0  0  0  0  0  0  0  0  0  0  0
  146.5146  142.3912  155.1484 C   0  0  0  0  0  0  0  0  0  0  0  0
  145.4908  143.0749  155.1170 O   0  0  0  0  0  0  0  0  0  0  0  0
  146.9173  141.6826  156.3052 N   0  0  0  0  0  0  0  0  0  0  0  0
  146.0786  141.7719  157.4827 C   0  0  0  0  0  0  0  0  0  0  0  0
  148.0574  140.8500  156.3729 C   0  0  0  0  0  0  0  0  0  0  0  0
  148.3482  140.2195  157.3925 O   0  0  0  0  0  0  0  0  0  0  0  0
  153.0539  140.1697  158.9197 H   0  0  0  0  0  0  0  0  0  0  0  0
  151.3444  139.7899  158.7296 H   0  0  0  0  0  0  0  0  0  0  0  0
  151.9844  140.1616  160.3189 H   0  0  0  0  0  0  0  0  0  0  0  0
  150.7212  142.0935  159.3615 H   0  0  0  0  0  0  0  0  0  0  0  0
  152.5242  142.5168  160.9864 H   0  0  0  0  0  0  0  0  0  0  0  0
  153.7073  142.5859  159.7040 H   0  0  0  0  0  0  0  0  0  0  0  0
  151.3725  144.5159  160.1122 H   0  0  0  0  0  0  0  0  0  0  0  0
  153.0630  144.8704  160.3776 H   0  0  0  0  0  0  0  0  0  0  0  0
  152.2774  145.7601  158.1765 H   0  0  0  0  0  0  0  0  0  0  0  0
  153.5566  144.5866  157.9721 H   0  0  0  0  0  0  0  0  0  0  0  0
  150.5645  144.0755  157.6286 H   0  0  0  0  0  0  0  0  0  0  0  0
  151.7516  144.1464  156.3485 H   0  0  0  0  0  0  0  0  0  0  0  0
  152.9028  142.1602  157.2373 H   0  0  0  0  0  0  0  0  0  0  0  0
  149.9820  141.9232  156.7272 H   0  0  0  0  0  0  0  0  0  0  0  0
  150.3608  139.7044  154.1719 H   0  0  0  0  0  0  0  0  0  0  0  0
  149.8423  138.9353  155.6437 H   0  0  0  0  0  0  0  0  0  0  0  0
  149.1217  141.3603  153.1996 H   0  0  0  0  0  0  0  0  0  0  0  0
  147.1721  142.7433  153.0785 H   0  0  0  0  0  0  0  0  0  0  0  0
  146.7008  141.7030  158.3763 H   0  0  0  0  0  0  0  0  0  0  0  0
  145.3666  140.9476  157.4267 H   0  0  0  0  0  0  0  0  0  0  0  0
  145.5712  142.7373  157.5021 H   0  0  0  0  0  0  0  0  0  0  0  0
  1  2  1  0  0  0  0
  1 21  1  0  0  0  0
  1 22  1  0  0  0  0
  1 23  1  0  0  0  0
  2  7  1  0  0  0  0
  2  3  1  0  0  0  0
  2 24  1  0  0  0  0
  3  4  1  0  0  0  0
  3 25  1  0  0  0  0
  3 26  1  0  0  0  0
  4  5  1  0  0  0  0
  4 27  1  0  0  0  0
  4 28  1  0  0  0  0
  5  6  1  0  0  0  0
  5 29  1  0  0  0  0
  5 30  1  0  0  0  0
  6  7  1  0  0  0  0
  6 31  1  0  0  0  0
  6 32  1  0  0  0  0
  7  8  1  0  0  0  0
  7 33  1  0  0  0  0
  8  9  1  0  0  0  0
  8 34  1  0  0  0  0
  9 10  2  0  0  0  0
  9 11  1  0  0  0  0
 11 12  1  0  0  0  0
 11 35  1  0  0  0  0
 11 36  1  0  0  0  0
 12 19  1  0  0  0  0
 12 13  1  0  0  0  0
 13 14  2  0  0  0  0
 13 37  1  0  0  0  0
 14 15  1  0  0  0  0
 14 38  1  0  0  0  0
 15 16  2  0  0  0  0
 15 17  1  0  0  0  0
 17 18  1  0  0  0  0
 17 19  1  0  0  0  0
 18 39  1  0  0  0  0
 18 40  1  0  0  0  0
 18 41  1  0  0  0  0
 19 20  2  0  0  0  0
M  END
> <s_m_source_file>
AV-unprocessed.smi

> <i_m_source_file_index>
2152

> <i_lp_mmshare_version>
43012

> <i_f3d_flags>
0

> <s_epik_input>
W0NIM11bQ0BASF0xW0NIMl1bQ0gyXVtDSDJdW0NIMl1bQ0BIXTFbTkhdQyg9TylbQ0gyXW4yW2NIXVtjSF1jKD1PKW4oW0NIM10pYzI9Tw==

> <s_epik_cmdline>
J2VwaWtfcHl0aG9uJywgJy1waCcsICc3LjAnLCAnLXRuJywgJzgnLCAnLW1hJywgJzIwMCcsICctbWV0YWxfYmluZGluZycsICctaW1hZScsICc8aW5maWxlLm1hZT4nLCAnLW9tYWUnLCAnPG91dGZpbGUubWFlPic=

> <r_lp_tautomer_probability>
1

> <r_epik_Ionization_Penalty>
3.20555e-08

> <r_epik_Ionization_Penalty_Charging>
1.30086e-08

> <r_epik_Ionization_Penalty_Neutral>
1.90469e-08

> <r_epik_State_Penalty>
-0

> <r_epik_Charging_Adjusted_Penalty>
1.30086e-08

> <i_epik_Tot_Q>
0

> <i_epik_Tot_abs_Q>
0

> <r_epik_Metal_State_Penalty>
-0

> <b_epik_Metal_Only>
0

> <s_lp_Force_Field>
OPLS_2005

> <r_lp_Energy>
17.8687

> <b_lp_Chiralities_Consistent>
1

> <s_lp_Variant>
AV-unprocessed.smi:2152-4

> <Gold.Version>
5.8.1

> <Gold.Id.Protein>
6NUR|6NUR_protein|mol2

> <Gold.PLP.Fitness>
44.8145

> <Gold.PLP.PLP>
-39.9356

> <Gold.PLP.part.hbond>
-1.0000

> <Gold.PLP.part.metal>
0.0000

> <Gold.PLP.part.buried>
-4.5721

> <Gold.PLP.part.nonpolar>
-33.9595

> <Gold.PLP.part.repulsive>
0.2747

> <Gold.PLP.ligand.clash>
0.0000

> <Gold.PLP.ligand.torsion>
0.5638

> <Gold.PLP.Chemscore.Hbond>
1.0000

> <Gold.PLP.Chemscore.CHOScore>
1.0000

> <Gold.PLP.Chemscore.Metal>
0.0000

> <Gold.Chemscore.Hbonds>
donor molecule, donor type, donor heavy atom, donor atom, acceptor molecule, acceptor atom, score
      P1  H  7997  8008       L1    10  1.00
      L1  C    13    37       P1  7957  1.00

> <Gold.PLP.Chemscore.Internal.Correction>
0.0064

> <Gold.Rescore>
     Score         DG    S(hbond)    S(metal)    S(lipo)     H(rot)  DE(clash)    DE(int)     intcor
     15.59     -16.28       1.00        0.00      97.25       1.52       0.22       0.47       ----

> <Gold.Chemscore.Fitness>
15.5913

> <Gold.Chemscore.DG>
-16.2838

> <Gold.Chemscore.ZeroCoef>
-5.4800

> <Gold.Chemscore.Hbond>
0.9963

> <Gold.Chemscore.Metal>
0.0000

> <Gold.Chemscore.Lipo>
97.2471

> <Gold.Chemscore.Internal_Hbond>
0.0000

> <Gold.Chemscore.DEClash>
0.2243

> <Gold.Chemscore.DEInternal>
0.4682

> <Gold.Chemscore.Rot>
1.5242

> <Gold.Chemscore.Internal.Correction>
   9.000000E+99

> <Gold.Chemscore.Hbonds>
donor molecule, donor type, donor heavy atom, donor atom, acceptor molecule, acceptor atom, score
      P1  H  7997  8008       L1    10  0.93

> <Gold.Chemscore.Hbond.Weighted>
-3.3278

> <Gold.Chemscore.Metal.Weighted>
-0.0000

> <Gold.Chemscore.Lipo.Weighted>
-11.3779

> <Gold.Chemscore.Internal_Hbond.Weighted>
0.0000

> <Gold.Chemscore.DEClash.Weighted>
0.2243

> <Gold.Chemscore.DEInternal.Weighted>
0.4682

> <Gold.Chemscore.Rot.Weighted>
3.9019

> <Gold.Chemscore.Internal.Correction.Weighted>
   9.000000E+99

> <Gold.Protein.RotatedTorsions>
[ 6907 6896 6895 6894 ] final -105.01 input  -60.11 | X-H torsion
[ 7974 7965 7964 7962 ] final   74.37 input  175.53 | X-H torsion
[ 8008 7997 7996 7995 ] final  -25.85 input   59.86 | X-H torsion
[ 10167 10162 10161 10158 ] final  176.34 input  -65.29 | X-H torsion
[ 10718 10713 10712 10709 ] final  -18.21 input   66.30 | X-H torsion
[ 10763 10752 10751 10750 ] final -175.70 input  -60.55 | X-H torsion
[ 11005 11000 10999 10996 ] final   50.44 input  -57.11 | X-H torsion

> <Gold.Protein.ActiveResidues>
 VAL166  LYS551  ARG553  GLY616  TRP617  ASP618  TYR619  PRO620  LYS621  CYS622 
 ASP623  PHE694  ASN695  SER759  ASP760  ASP761  ALA762  ILE779  LEU786  VAL792 
 PHE793  MET794  SER795  GLU796  ALA797  LYS798  CYS799  TRP800  GLU811  SER814 

> <Gold.Protein.RotatedAtoms>
  150.7315  134.0191  159.3695 H   0  0  0  0  0  0  0  0  0  0  0  0  # atno 6907 bound_to 6896
  151.8155  135.0666  160.0428 H   0  0  0  0  0  0  0  0  0  0  0  0  # atno 6908 bound_to 6896
  152.3042  133.5650  159.5674 H   0  0  0  0  0  0  0  0  0  0  0  0  # atno 6909 bound_to 6896
  145.7292  139.2677  143.1551 H   0  0  0  0  0  0  0  0  0  0  0  0  # atno 7974 bound_to 7965
  154.4454  140.1915  156.0684 H   0  0  0  0  0  0  0  0  0  0  0  0  # atno 8008 bound_to 7997
  156.0530  140.3306  155.7346 H   0  0  0  0  0  0  0  0  0  0  0  0  # atno 8009 bound_to 7997
  155.5528  140.0596  157.2837 H   0  0  0  0  0  0  0  0  0  0  0  0  # atno 8010 bound_to 7997
  139.5211  144.2926  152.0450 H   0  0  0  0  0  0  0  0  0  0  0  0  # atno 10167 bound_to 10162
  156.5627  130.4729  149.6399 H   0  0  0  0  0  0  0  0  0  0  0  0  # atno 10718 bound_to 10713
  154.5813  135.2836  155.0730 H   0  0  0  0  0  0  0  0  0  0  0  0  # atno 10763 bound_to 10752
  154.2065  135.6415  153.5106 H   0  0  0  0  0  0  0  0  0  0  0  0  # atno 10764 bound_to 10752
  153.0089  135.5481  154.6467 H   0  0  0  0  0  0  0  0  0  0  0  0  # atno 10765 bound_to 10752
  140.1017  134.5072  155.8757 H   0  0  0  0  0  0  0  0  0  0  0  0  # atno 11005 bound_to 11000
  146.0554  140.8026  142.9761 LP  0  0  0  0  0  0  0  0  0  0  0  0  # atno 17320 bound_to 7965
  144.6897  140.3115  143.7247 LP  0  0  0  0  0  0  0  0  0  0  0  0  # atno 17321 bound_to 7965
  140.2377  144.4302  150.6273 LP  0  0  0  0  0  0  0  0  0  0  0  0  # atno 17342 bound_to 10162
  140.6312  143.2188  151.6491 LP  0  0  0  0  0  0  0  0  0  0  0  0  # atno 17343 bound_to 10162
  156.2784  130.7057  151.1874 LP  0  0  0  0  0  0  0  0  0  0  0  0  # atno 17370 bound_to 10713
  157.7365  131.0561  150.5410 LP  0  0  0  0  0  0  0  0  0  0  0  0  # atno 17371 bound_to 10713
  141.2107  133.6698  156.6531 LP  0  0  0  0  0  0  0  0  0  0  0  0  # atno 17394 bound_to 11000
  140.3211  134.8007  157.4253 LP  0  0  0  0  0  0  0  0  0  0  0  0  # atno 17395 bound_to 11000

$$$$
