AV-unprocessed.smi:1830|AV-procd|sdf|7443|dock7
  -GOLD-   22720 9133D 1   1.00000     0.00000
 Structure written by MMmdl.
 52 55  0  0  0  0  0  0  0  0  1 V2000
  149.7006  133.3125  155.4164 O   0  0  0  0  0  0  0  0  0  0  0  0
  149.4166  134.0708  154.4894 C   0  0  0  0  0  0  0  0  0  0  0  0
  149.8698  135.3287  154.3962 N   0  0  0  0  0  0  0  0  0  0  0  0
  150.7475  135.9907  155.3580 C   0  0  0  0  0  0  0  0  0  0  0  0
  150.3454  137.4550  155.6114 C   0  0  1  0  0  0  0  0  0  0  0  0
  151.1339  138.1397  156.7546 C   0  0  0  0  0  0  0  0  0  0  0  0
  150.7298  139.5280  156.8617 N   0  0  0  0  0  0  0  0  0  0  0  0
  151.4232  140.3386  157.8355 C   0  0  0  0  0  0  0  0  0  0  0  0
  151.0834  141.7847  157.4335 C   0  0  0  0  0  0  0  0  0  0  0  0
  150.6544  141.6823  155.9527 C   0  0  0  0  0  0  0  0  0  0  0  0
  150.9402  140.2172  155.6170 C   0  0  2  0  0  0  0  0  0  0  0  0
  150.1173  139.5720  154.4919 C   0  0  0  0  0  0  0  0  0  0  0  0
  150.4947  138.1958  154.3931 O   0  0  0  0  0  0  0  0  0  0  0  0
  148.6163  133.7691  153.4533 N   0  0  0  0  0  0  0  0  0  0  0  0
  147.9117  132.5584  153.1899 C   0  0  0  0  0  0  0  0  0  0  0  0
  148.2530  131.3247  153.7970 C   0  0  0  0  0  0  0  0  0  0  0  0
  147.5130  130.1726  153.4769 C   0  0  0  0  0  0  0  0  0  0  0  0
  146.4616  130.2903  152.5517 C   0  0  0  0  0  0  0  0  0  0  0  0
  146.1352  131.4523  151.9513 N   0  0  0  0  0  0  0  0  0  0  0  0
  146.8392  132.5697  152.2569 C   0  0  0  0  0  0  0  0  0  0  0  0
  146.4981  133.7613  151.5833 N   0  0  0  0  0  0  0  0  0  0  0  0
  145.5973  133.5496  150.4531 C   0  0  0  0  0  0  0  0  0  0  0  0
  144.6229  134.7293  150.4462 C   0  0  0  0  0  0  0  0  0  0  0  0
  144.5857  135.1549  151.9088 C   0  0  0  0  0  0  0  0  0  0  0  0
  146.0238  134.9064  152.3590 C   0  0  0  0  0  0  0  0  0  0  0  0
  149.5862  135.8760  153.5967 H   0  0  0  0  0  0  0  0  0  0  0  0
  150.6944  135.4341  156.2939 H   0  0  0  0  0  0  0  0  0  0  0  0
  151.7891  135.9395  155.0373 H   0  0  0  0  0  0  0  0  0  0  0  0
  149.2859  137.4643  155.8731 H   0  0  0  0  0  0  0  0  0  0  0  0
  150.9539  137.6246  157.6986 H   0  0  0  0  0  0  0  0  0  0  0  0
  152.2057  138.0850  156.5619 H   0  0  0  0  0  0  0  0  0  0  0  0
  151.1124  140.1005  158.8531 H   0  0  0  0  0  0  0  0  0  0  0  0
  152.4999  140.1766  157.7631 H   0  0  0  0  0  0  0  0  0  0  0  0
  150.2636  142.1748  158.0377 H   0  0  0  0  0  0  0  0  0  0  0  0
  151.9421  142.4430  157.5681 H   0  0  0  0  0  0  0  0  0  0  0  0
  149.5904  141.9016  155.8538 H   0  0  0  0  0  0  0  0  0  0  0  0
  151.2040  142.3675  155.3068 H   0  0  0  0  0  0  0  0  0  0  0  0
  151.9958  140.1410  155.3464 H   0  0  0  0  0  0  0  0  0  0  0  0
  149.0475  139.6502  154.6924 H   0  0  0  0  0  0  0  0  0  0  0  0
  150.3085  140.0684  153.5405 H   0  0  0  0  0  0  0  0  0  0  0  0
  148.4163  134.5268  152.8169 H   0  0  0  0  0  0  0  0  0  0  0  0
  149.0748  131.2347  154.4901 H   0  0  0  0  0  0  0  0  0  0  0  0
  147.7494  129.2199  153.9270 H   0  0  0  0  0  0  0  0  0  0  0  0
  145.8722  129.4275  152.2793 H   0  0  0  0  0  0  0  0  0  0  0  0
  146.1517  133.4874  149.5166 H   0  0  0  0  0  0  0  0  0  0  0  0
  145.0475  132.6148  150.5775 H   0  0  0  0  0  0  0  0  0  0  0  0
  145.0256  135.5398  149.8368 H   0  0  0  0  0  0  0  0  0  0  0  0
  143.6409  134.4654  150.0527 H   0  0  0  0  0  0  0  0  0  0  0  0
  144.2694  136.1892  152.0470 H   0  0  0  0  0  0  0  0  0  0  0  0
  143.9041  134.5115  152.4672 H   0  0  0  0  0  0  0  0  0  0  0  0
  146.0961  134.7807  153.4395 H   0  0  0  0  0  0  0  0  0  0  0  0
  146.6470  135.7625  152.0985 H   0  0  0  0  0  0  0  0  0  0  0  0
  1  2  2  0  0  0  0
  2  3  1  0  0  0  0
  2 14  1  0  0  0  0
  3  4  1  0  0  0  0
  3 26  1  0  0  0  0
  4  5  1  0  0  0  0
  4 27  1  0  0  0  0
  4 28  1  0  0  0  0
  5 13  1  0  0  0  0
  5  6  1  0  0  0  0
  5 29  1  0  0  0  0
  6  7  1  0  0  0  0
  6 30  1  0  0  0  0
  6 31  1  0  0  0  0
  7 11  1  0  0  0  0
  7  8  1  0  0  0  0
  8  9  1  0  0  0  0
  8 32  1  0  0  0  0
  8 33  1  0  0  0  0
  9 10  1  0  0  0  0
  9 34  1  0  0  0  0
  9 35  1  0  0  0  0
 10 11  1  0  0  0  0
 10 36  1  0  0  0  0
 10 37  1  0  0  0  0
 11 12  1  0  0  0  0
 11 38  1  0  0  0  0
 12 13  1  0  0  0  0
 12 39  1  0  0  0  0
 12 40  1  0  0  0  0
 14 15  1  0  0  0  0
 14 41  1  0  0  0  0
 15 20  1  0  0  0  0
 15 16  2  0  0  0  0
 16 17  1  0  0  0  0
 16 42  1  0  0  0  0
 17 18  2  0  0  0  0
 17 43  1  0  0  0  0
 18 19  1  0  0  0  0
 18 44  1  0  0  0  0
 19 20  2  0  0  0  0
 20 21  1  0  0  0  0
 21 25  1  0  0  0  0
 21 22  1  0  0  0  0
 22 23  1  0  0  0  0
 22 45  1  0  0  0  0
 22 46  1  0  0  0  0
 23 24  1  0  0  0  0
 23 47  1  0  0  0  0
 23 48  1  0  0  0  0
 24 25  1  0  0  0  0
 24 49  1  0  0  0  0
 24 50  1  0  0  0  0
 25 51  1  0  0  0  0
 25 52  1  0  0  0  0
M  END
> <s_m_source_file>
AV-unprocessed.smi

> <i_m_source_file_index>
1830

> <i_lp_mmshare_version>
43012

> <i_f3d_flags>
0

> <s_epik_input>
W0NIMl0xW0NIMl1bQ0gyXVtDQEhdKE4xMilbQ0gyXU9bQ0BASF0oW0NIMl0yKVtDSDJdW05IXUMoPU8pW05IXWMzW2NIXVtjSF1bY0hdbmMzTjRbQ0gyXVtDSDJdW0NIMl1bQ0gyXTQ=

> <s_epik_cmdline>
J2VwaWtfcHl0aG9uJywgJy1waCcsICc3LjAnLCAnLXRuJywgJzgnLCAnLW1hJywgJzIwMCcsICctbWV0YWxfYmluZGluZycsICctaW1hZScsICc8aW5maWxlLm1hZT4nLCAnLW9tYWUnLCAnPG91dGZpbGUubWFlPic=

> <r_lp_tautomer_probability>
1

> <r_epik_Ionization_Penalty>
1.16487

> <r_epik_Ionization_Penalty_Charging>
0

> <r_epik_Ionization_Penalty_Neutral>
1.16487

> <r_epik_State_Penalty>
1.21807

> <r_epik_Charging_Adjusted_Penalty>
1.21807

> <i_epik_Tot_Q>
0

> <i_epik_Tot_abs_Q>
0

> <r_epik_Metal_State_Penalty>
1.19922

> <b_epik_Metal_Only>
0

> <s_lp_Force_Field>
OPLS_2005

> <r_lp_Energy>
78.4181

> <b_lp_Chiralities_Consistent>
1

> <s_lp_Variant>
AV-unprocessed.smi:1830-12

> <Gold.Version>
5.8.1

> <Gold.Id.Protein>
6NUR|6NUR_protein|mol2

> <Gold.PLP.Fitness>
44.7220

> <Gold.PLP.PLP>
-39.3714

> <Gold.PLP.part.hbond>
-2.3810

> <Gold.PLP.part.metal>
0.0000

> <Gold.PLP.part.buried>
-4.0464

> <Gold.PLP.part.nonpolar>
-32.3005

> <Gold.PLP.part.repulsive>
0.6029

> <Gold.PLP.ligand.clash>
0.0000

> <Gold.PLP.ligand.torsion>
0.3711

> <Gold.PLP.Chemscore.Hbond>
1.9920

> <Gold.PLP.Chemscore.CHOScore>
0.0000

> <Gold.PLP.Chemscore.Metal>
0.0000

> <Gold.Chemscore.Hbonds>
donor molecule, donor type, donor heavy atom, donor atom, acceptor molecule, acceptor atom, score
      L1  H     3    26       P1  7948  1.00
      L1  H    14    41       P1  7948  1.00

> <Gold.PLP.Chemscore.Internal.Correction>
0.1168

> <Gold.Rescore>
     Score         DG    S(hbond)    S(metal)    S(lipo)     H(rot)  DE(clash)    DE(int)     intcor
     13.91     -16.38       1.25        0.00      87.42       1.37       0.00       2.47       ----

> <Gold.Chemscore.Fitness>
13.9062

> <Gold.Chemscore.DG>
-16.3778

> <Gold.Chemscore.ZeroCoef>
-5.4800

> <Gold.Chemscore.Hbond>
1.2542

> <Gold.Chemscore.Metal>
0.0000

> <Gold.Chemscore.Lipo>
87.4156

> <Gold.Chemscore.Internal_Hbond>
0.0000

> <Gold.Chemscore.DEClash>
0.0044

> <Gold.Chemscore.DEInternal>
2.4672

> <Gold.Chemscore.Rot>
1.3746

> <Gold.Chemscore.Internal.Correction>
   9.000000E+99

> <Gold.Chemscore.Hbonds>
donor molecule, donor type, donor heavy atom, donor atom, acceptor molecule, acceptor atom, score
      L1  H     3    26       P1  7948  0.25
      L1  H    14    41       P1  7948  0.24

> <Gold.Chemscore.Hbond.Weighted>
-4.1890

> <Gold.Chemscore.Metal.Weighted>
-0.0000

> <Gold.Chemscore.Lipo.Weighted>
-10.2276

> <Gold.Chemscore.Internal_Hbond.Weighted>
0.0000

> <Gold.Chemscore.DEClash.Weighted>
0.0044

> <Gold.Chemscore.DEInternal.Weighted>
2.4672

> <Gold.Chemscore.Rot.Weighted>
3.5189

> <Gold.Chemscore.Internal.Correction.Weighted>
   9.000000E+99

> <Gold.Protein.RotatedTorsions>
[ 6907 6896 6895 6894 ] final  -20.92 input  -60.11 | X-H torsion
[ 7974 7965 7964 7962 ] final  118.43 input  175.53 | X-H torsion
[ 8008 7997 7996 7995 ] final  -61.78 input   59.86 | X-H torsion
[ 10167 10162 10161 10158 ] final    7.30 input  -65.29 | X-H torsion
[ 10718 10713 10712 10709 ] final  139.34 input   66.30 | X-H torsion
[ 10763 10752 10751 10750 ] final  155.38 input  -60.55 | X-H torsion
[ 11005 11000 10999 10996 ] final  -28.85 input  -57.11 | X-H torsion

> <Gold.Protein.ActiveResidues>
 VAL166  LYS551  ARG553  GLY616  TRP617  ASP618  TYR619  PRO620  LYS621  CYS622 
 ASP623  PHE694  ASN695  SER759  ASP760  ASP761  ALA762  ILE779  LEU786  VAL792 
 PHE793  MET794  SER795  GLU796  ALA797  LYS798  CYS799  TRP800  GLU811  SER814 

> <Gold.Protein.RotatedAtoms>
  151.2410  135.0589  159.9024 H   0  0  0  0  0  0  0  0  0  0  0  0  # atno 6907 bound_to 6896
  152.5393  134.0434  159.8088 H   0  0  0  0  0  0  0  0  0  0  0  0  # atno 6908 bound_to 6896
  151.0628  133.5481  159.2664 H   0  0  0  0  0  0  0  0  0  0  0  0  # atno 6909 bound_to 6896
  145.1553  139.3186  143.4545 H   0  0  0  0  0  0  0  0  0  0  0  0  # atno 7974 bound_to 7965
  154.4465  140.1010  156.6484 H   0  0  0  0  0  0  0  0  0  0  0  0  # atno 8008 bound_to 7997
  155.5424  140.3484  155.4431 H   0  0  0  0  0  0  0  0  0  0  0  0  # atno 8009 bound_to 7997
  156.0587  140.1321  156.9955 H   0  0  0  0  0  0  0  0  0  0  0  0  # atno 8010 bound_to 7997
  140.6380  143.7842  150.7386 H   0  0  0  0  0  0  0  0  0  0  0  0  # atno 10167 bound_to 10162
  157.4154  131.1033  151.0410 H   0  0  0  0  0  0  0  0  0  0  0  0  # atno 10718 bound_to 10713
  154.1675  135.2806  155.3091 H   0  0  0  0  0  0  0  0  0  0  0  0  # atno 10763 bound_to 10752
  154.6100  135.5502  153.7467 H   0  0  0  0  0  0  0  0  0  0  0  0  # atno 10764 bound_to 10752
  153.0174  135.6413  154.1816 H   0  0  0  0  0  0  0  0  0  0  0  0  # atno 10765 bound_to 10752
  140.9244  133.7378  156.0847 H   0  0  0  0  0  0  0  0  0  0  0  0  # atno 11005 bound_to 11000
  146.3489  140.1642  142.8590 LP  0  0  0  0  0  0  0  0  0  0  0  0  # atno 17320 bound_to 7965
  145.0388  140.8929  143.5065 LP  0  0  0  0  0  0  0  0  0  0  0  0  # atno 17321 bound_to 7965
  140.1467  143.4393  152.2158 LP  0  0  0  0  0  0  0  0  0  0  0  0  # atno 17342 bound_to 10162
  139.5589  144.7392  151.4212 LP  0  0  0  0  0  0  0  0  0  0  0  0  # atno 17343 bound_to 10162
  157.1359  130.6122  149.5542 LP  0  0  0  0  0  0  0  0  0  0  0  0  # atno 17370 bound_to 10713
  155.9863  130.4898  150.7075 LP  0  0  0  0  0  0  0  0  0  0  0  0  # atno 17371 bound_to 10713
  140.7945  134.3579  157.5456 LP  0  0  0  0  0  0  0  0  0  0  0  0  # atno 17394 bound_to 11000
  139.8782  134.9160  156.3145 LP  0  0  0  0  0  0  0  0  0  0  0  0  # atno 17395 bound_to 11000

$$$$
