AV-unprocessed.smi:688|AV-procd|sdf|3355|dock3
  -GOLD-   22720 0333D 1   1.00000     0.00000
 Structure written by MMmdl.
 36 37  0  0  0  0  0  0  0  0  1 V2000
  143.7699  143.5905  155.4780 O   0  0  0  0  0  0  0  0  0  0  0  0
  144.6899  142.9169  155.0184 C   0  0  0  0  0  0  0  0  0  0  0  0
  145.3015  141.9411  155.8112 N   0  0  0  0  0  0  0  0  0  0  0  0
  146.3511  141.1122  155.4138 C   0  0  0  0  0  0  0  0  0  0  0  0
  146.8134  140.2869  156.2015 O   0  0  0  0  0  0  0  0  0  0  0  0
  146.8303  141.2791  154.0943 N   0  0  0  0  0  0  0  0  0  0  0  0
  147.9243  140.4404  153.6638 C   0  0  0  0  0  0  0  0  0  0  0  0
  149.1036  140.3757  154.6606 C   0  0  1  0  0  0  0  0  0  0  0  0
  150.1692  139.7228  154.0022 O   0  0  0  0  0  0  0  0  0  0  0  0
  149.5996  141.7591  155.1181 C   0  0  0  0  0  0  0  0  0  0  0  0
  149.9200  141.6969  156.4979 O   0  0  0  0  0  0  0  0  0  0  0  0
  150.2839  142.9567  157.0367 C   0  0  0  0  0  0  0  0  0  0  0  0
  150.8885  142.8113  158.4186 C   0  0  0  0  0  0  0  0  0  0  0  0
  151.1812  141.5276  158.9243 C   0  0  0  0  0  0  0  0  0  0  0  0
  151.7383  141.3830  160.2098 C   0  0  0  0  0  0  0  0  0  0  0  0
  152.0039  142.5219  160.9948 C   0  0  0  0  0  0  0  0  0  0  0  0
  152.6875  142.3451  162.5691 Cl  0  0  0  0  0  0  0  0  0  0  0  0
  151.7098  143.8054  160.4941 C   0  0  0  0  0  0  0  0  0  0  0  0
  151.1510  143.9500  159.2092 C   0  0  0  0  0  0  0  0  0  0  0  0
  146.2538  142.2361  153.2725 C   0  0  0  0  0  0  0  0  0  0  0  0
  145.2353  143.0379  153.6670 C   0  0  0  0  0  0  0  0  0  0  0  0
  144.5736  144.2107  152.5851 Cl  0  0  0  0  0  0  0  0  0  0  0  0
  144.9536  141.8258  156.7520 H   0  0  0  0  0  0  0  0  0  0  0  0
  147.5014  139.4540  153.4582 H   0  0  0  0  0  0  0  0  0  0  0  0
  148.2512  140.8333  152.6995 H   0  0  0  0  0  0  0  0  0  0  0  0
  148.8214  139.7800  155.5292 H   0  0  0  0  0  0  0  0  0  0  0  0
  149.9085  139.5543  153.1094 H   0  0  0  0  0  0  0  0  0  0  0  0
  150.4533  142.0875  154.5226 H   0  0  0  0  0  0  0  0  0  0  0  0
  148.8134  142.5038  154.9924 H   0  0  0  0  0  0  0  0  0  0  0  0
  150.9929  143.4530  156.3719 H   0  0  0  0  0  0  0  0  0  0  0  0
  149.4057  143.5999  157.1111 H   0  0  0  0  0  0  0  0  0  0  0  0
  150.9797  140.6513  158.3257 H   0  0  0  0  0  0  0  0  0  0  0  0
  151.9612  140.3977  160.5918 H   0  0  0  0  0  0  0  0  0  0  0  0
  151.9118  144.6804  161.0946 H   0  0  0  0  0  0  0  0  0  0  0  0
  150.9274  144.9379  158.8339 H   0  0  0  0  0  0  0  0  0  0  0  0
  146.6351  142.3564  152.2684 H   0  0  0  0  0  0  0  0  0  0  0  0
  1  2  2  0  0  0  0
  2 21  1  0  0  0  0
  2  3  1  0  0  0  0
  3 23  1  0  0  0  0
  3  4  1  0  0  0  0
  4  5  2  0  0  0  0
  4  6  1  0  0  0  0
  6  7  1  0  0  0  0
  6 20  1  0  0  0  0
  7  8  1  0  0  0  0
  7 24  1  0  0  0  0
  7 25  1  0  0  0  0
  8  9  1  0  0  0  0
  8 10  1  0  0  0  0
  8 26  1  0  0  0  0
  9 27  1  0  0  0  0
 10 11  1  0  0  0  0
 10 28  1  0  0  0  0
 10 29  1  0  0  0  0
 11 12  1  0  0  0  0
 12 13  1  0  0  0  0
 12 30  1  0  0  0  0
 12 31  1  0  0  0  0
 13 19  1  0  0  0  0
 13 14  2  0  0  0  0
 14 15  1  0  0  0  0
 14 32  1  0  0  0  0
 15 16  2  0  0  0  0
 15 33  1  0  0  0  0
 16 17  1  0  0  0  0
 16 18  1  0  0  0  0
 18 19  2  0  0  0  0
 18 34  1  0  0  0  0
 19 35  1  0  0  0  0
 20 21  2  0  0  0  0
 20 36  1  0  0  0  0
 21 22  1  0  0  0  0
M  END
> <s_m_source_file>
AV-unprocessed.smi

> <i_m_source_file_index>
688

> <i_lp_mmshare_version>
43012

> <i_f3d_flags>
0

> <s_epik_input>
Tz1jMVtuSF1jKD1PKW4oW2NIXWMxQ2wpW0NIMl1bQ0BIXShbT0hdKVtDSDJdT1tDSDJdYzJbY0hdW2NIXWMoQ2wpW2NIXVtjSF0y

> <s_epik_cmdline>
J2VwaWtfcHl0aG9uJywgJy1waCcsICc3LjAnLCAnLXRuJywgJzgnLCAnLW1hJywgJzIwMCcsICctbWV0YWxfYmluZGluZycsICctaW1hZScsICc8aW5maWxlLm1hZT4nLCAnLW9tYWUnLCAnPG91dGZpbGUubWFlPic=

> <r_lp_tautomer_probability>
0.999537

> <r_epik_Ionization_Penalty>
0.0280571

> <r_epik_Ionization_Penalty_Charging>
0.028057

> <r_epik_Ionization_Penalty_Neutral>
6.25502e-08

> <r_epik_State_Penalty>
0.0230008

> <r_epik_Charging_Adjusted_Penalty>
0.0510579

> <i_epik_Tot_Q>
0

> <i_epik_Tot_abs_Q>
0

> <r_epik_Metal_State_Penalty>
2.1942

> <b_epik_Metal_Only>
0

> <s_lp_Force_Field>
OPLS_2005

> <r_lp_Energy>
13.9943

> <b_lp_Chiralities_Consistent>
1

> <s_lp_Variant>
AV-unprocessed.smi:688-2

> <Gold.Version>
5.8.1

> <Gold.Id.Protein>
6NUR|6NUR_protein|mol2

> <Gold.PLP.Fitness>
52.5141

> <Gold.PLP.PLP>
-48.0396

> <Gold.PLP.part.hbond>
-2.0000

> <Gold.PLP.part.metal>
0.0000

> <Gold.PLP.part.buried>
-3.3817

> <Gold.PLP.part.nonpolar>
-43.0411

> <Gold.PLP.part.repulsive>
0.2058

> <Gold.PLP.ligand.clash>
0.0000

> <Gold.PLP.ligand.torsion>
0.8383

> <Gold.PLP.Chemscore.Hbond>
1.9840

> <Gold.PLP.Chemscore.CHOScore>
0.0000

> <Gold.PLP.Chemscore.Metal>
0.0000

> <Gold.Chemscore.Hbonds>
donor molecule, donor type, donor heavy atom, donor atom, acceptor molecule, acceptor atom, score
      L1  H     9    27       P1  7957  1.00
      P1  H  7989  7998       L1     9  0.65

> <Gold.PLP.Chemscore.Internal.Correction>
0.1989

> <Gold.Rescore>
     Score         DG    S(hbond)    S(metal)    S(lipo)     H(rot)  DE(clash)    DE(int)     intcor
     13.54     -16.75       1.26        0.00     124.61       2.94       0.91       2.30       ----

> <Gold.Chemscore.Fitness>
13.5372

> <Gold.Chemscore.DG>
-16.7478

> <Gold.Chemscore.ZeroCoef>
-5.4800

> <Gold.Chemscore.Hbond>
1.2642

> <Gold.Chemscore.Metal>
0.0000

> <Gold.Chemscore.Lipo>
124.6089

> <Gold.Chemscore.Internal_Hbond>
0.0000

> <Gold.Chemscore.DEClash>
0.9086

> <Gold.Chemscore.DEInternal>
2.3020

> <Gold.Chemscore.Rot>
2.9429

> <Gold.Chemscore.Internal.Correction>
   9.000000E+99

> <Gold.Chemscore.Hbonds>
donor molecule, donor type, donor heavy atom, donor atom, acceptor molecule, acceptor atom, score
      L1  H     9    27       P1  7957  0.92
      P1  H  7989  7998       L1     9  0.05

> <Gold.Chemscore.Hbond.Weighted>
-4.2223

> <Gold.Chemscore.Metal.Weighted>
-0.0000

> <Gold.Chemscore.Lipo.Weighted>
-14.5792

> <Gold.Chemscore.Internal_Hbond.Weighted>
0.0000

> <Gold.Chemscore.DEClash.Weighted>
0.9086

> <Gold.Chemscore.DEInternal.Weighted>
2.3020

> <Gold.Chemscore.Rot.Weighted>
7.5337

> <Gold.Chemscore.Internal.Correction.Weighted>
   9.000000E+99

> <Gold.Protein.RotatedTorsions>
[ 6907 6896 6895 6894 ] final -154.11 input  -60.11 | X-H torsion
[ 7974 7965 7964 7962 ] final -118.71 input  175.53 | X-H torsion
[ 8008 7997 7996 7995 ] final -146.92 input   59.86 | X-H torsion
[ 10167 10162 10161 10158 ] final  137.01 input  -65.29 | X-H torsion
[ 10718 10713 10712 10709 ] final  -59.28 input   66.30 | X-H torsion
[ 10763 10752 10751 10750 ] final -167.74 input  -60.55 | X-H torsion
[ 11005 11000 10999 10996 ] final  -26.45 input  -57.11 | X-H torsion

> <Gold.Protein.ActiveResidues>
 VAL166  LYS551  ARG553  GLY616  TRP617  ASP618  TYR619  PRO620  LYS621  CYS622 
 ASP623  PHE694  ASN695  SER759  ASP760  ASP761  ALA762  ILE779  LEU786  VAL792 
 PHE793  MET794  SER795  GLU796  ALA797  LYS798  CYS799  TRP800  GLU811  SER814 

> <Gold.Protein.RotatedAtoms>
  151.2526  133.4342  159.2611 H   0  0  0  0  0  0  0  0  0  0  0  0  # atno 6907 bound_to 6896
  151.0604  134.9733  159.8267 H   0  0  0  0  0  0  0  0  0  0  0  0  # atno 6908 bound_to 6896
  152.5397  134.2476  159.8939 H   0  0  0  0  0  0  0  0  0  0  0  0  # atno 6909 bound_to 6896
  145.0708  140.8357  143.4097 H   0  0  0  0  0  0  0  0  0  0  0  0  # atno 7974 bound_to 7965
  155.5672  140.0631  157.2815 H   0  0  0  0  0  0  0  0  0  0  0  0  # atno 8008 bound_to 7997
  154.4372  140.1875  156.0888 H   0  0  0  0  0  0  0  0  0  0  0  0  # atno 8009 bound_to 7997
  156.0403  140.3296  155.7240 H   0  0  0  0  0  0  0  0  0  0  0  0  # atno 8010 bound_to 7997
  139.5159  144.6433  151.5509 H   0  0  0  0  0  0  0  0  0  0  0  0  # atno 10167 bound_to 10162
  156.1073  130.4179  150.0694 H   0  0  0  0  0  0  0  0  0  0  0  0  # atno 10718 bound_to 10713
  154.6700  135.2938  154.9754 H   0  0  0  0  0  0  0  0  0  0  0  0  # atno 10763 bound_to 10752
  154.0784  135.6608  153.4838 H   0  0  0  0  0  0  0  0  0  0  0  0  # atno 10764 bound_to 10752
  153.0481  135.5191  154.7692 H   0  0  0  0  0  0  0  0  0  0  0  0  # atno 10765 bound_to 10752
  140.9030  133.7511  156.0569 H   0  0  0  0  0  0  0  0  0  0  0  0  # atno 11005 bound_to 11000
  145.1295  139.2641  143.5546 LP  0  0  0  0  0  0  0  0  0  0  0  0  # atno 17320 bound_to 7965
  146.3528  140.0942  142.8611 LP  0  0  0  0  0  0  0  0  0  0  0  0  # atno 17321 bound_to 7965
  140.6208  143.9261  150.6525 LP  0  0  0  0  0  0  0  0  0  0  0  0  # atno 17342 bound_to 10162
  140.2534  143.3576  152.1386 LP  0  0  0  0  0  0  0  0  0  0  0  0  # atno 17343 bound_to 10162
  156.8666  130.9510  151.3613 LP  0  0  0  0  0  0  0  0  0  0  0  0  # atno 17370 bound_to 10713
  157.6251  130.8685  149.9175 LP  0  0  0  0  0  0  0  0  0  0  0  0  # atno 17371 bound_to 10713
  140.8206  134.3294  157.5383 LP  0  0  0  0  0  0  0  0  0  0  0  0  # atno 17394 bound_to 11000
  139.8745  134.9307  156.3508 LP  0  0  0  0  0  0  0  0  0  0  0  0  # atno 17395 bound_to 11000

$$$$
