AV-unprocessed.smi:3028|AV-procd|sdf|11517|dock7
  -GOLD-   2272016453D 1   1.00000     0.00000
 Structure written by MMmdl.
 48 49  0  0  0  0  0  0  0  0  2 V2000
  151.2176  142.1030  158.3421 C   0  0  0  0  0  0  0  0  0  0  0  0
  150.8114  141.4517  157.0517 C   0  0  0  0  0  0  0  0  0  0  0  0
  151.5952  140.6136  156.2092 C   0  0  0  0  0  0  0  0  0  0  0  0
  150.9355  140.1984  155.1405 N   0  0  0  0  0  0  0  0  0  0  0  0
  149.7117  140.7566  155.2571 N   0  0  0  0  0  0  0  0  0  0  0  0
  148.7026  140.5058  154.2358 C   0  0  2  0  0  0  0  0  0  0  0  0
  147.5681  141.5385  154.3646 C   0  0  0  0  0  0  0  0  0  0  0  0
  148.2003  139.0373  154.2697 C   0  0  2  0  0  0  0  0  0  0  0  0
  149.2679  138.0448  154.7654 C   0  0  0  0  0  0  0  0  0  0  0  0
  147.7467  138.6140  152.9259 N   0  3  0  0  0  0  0  0  0  0  0  0
  146.2929  138.3711  152.8035 C   0  0  0  0  0  0  0  0  0  0  0  0
  145.9626  136.8832  152.6273 C   0  0  0  0  0  0  0  0  0  0  0  0
  146.2815  136.0756  153.4985 O   0  0  0  0  0  0  0  0  0  0  0  0
  145.3271  136.4766  151.5153 N   0  0  0  0  0  0  0  0  0  0  0  0
  144.9209  135.1199  151.1498 C   0  0  0  0  0  0  0  0  0  0  0  0
  143.8949  134.5905  152.1634 C   0  0  0  0  0  0  0  0  0  0  0  0
  143.5924  133.1052  151.9070 C   0  0  0  0  0  0  0  0  0  0  0  0
  144.7978  132.3490  151.9403 O   0  0  0  0  0  0  0  0  0  0  0  0
  145.7221  132.7319  150.9276 C   0  0  0  0  0  0  0  0  0  0  0  0
  146.1475  134.1951  151.1315 C   0  0  0  0  0  0  0  0  0  0  0  0
  149.6106  141.5185  156.4040 C   0  0  0  0  0  0  0  0  0  0  0  0
  152.2201  141.8041  158.6489 H   0  0  0  0  0  0  0  0  0  0  0  0
  150.5414  141.8403  159.1559 H   0  0  0  0  0  0  0  0  0  0  0  0
  151.2174  143.1901  158.2610 H   0  0  0  0  0  0  0  0  0  0  0  0
  152.6188  140.2952  156.3430 H   0  0  0  0  0  0  0  0  0  0  0  0
  149.1780  140.6697  153.2665 H   0  0  0  0  0  0  0  0  0  0  0  0
  146.8723  141.4753  153.5283 H   0  0  0  0  0  0  0  0  0  0  0  0
  147.9652  142.5543  154.3729 H   0  0  0  0  0  0  0  0  0  0  0  0
  146.9994  141.3974  155.2842 H   0  0  0  0  0  0  0  0  0  0  0  0
  147.3616  138.9726  154.9651 H   0  0  0  0  0  0  0  0  0  0  0  0
  149.5597  138.2425  155.7971 H   0  0  0  0  0  0  0  0  0  0  0  0
  150.1677  138.0909  154.1510 H   0  0  0  0  0  0  0  0  0  0  0  0
  148.8949  137.0207  154.7319 H   0  0  0  0  0  0  0  0  0  0  0  0
  148.0164  139.3206  152.2565 H   0  0  0  0  0  0  0  0  0  0  0  0
  145.7965  138.7466  153.6993 H   0  0  0  0  0  0  0  0  0  0  0  0
  145.9042  138.9247  151.9484 H   0  0  0  0  0  0  0  0  0  0  0  0
  145.1025  137.1933  150.8396 H   0  0  0  0  0  0  0  0  0  0  0  0
  144.4655  135.0868  150.1604 H   0  0  0  0  0  0  0  0  0  0  0  0
  144.2805  134.7053  153.1776 H   0  0  0  0  0  0  0  0  0  0  0  0
  142.9749  135.1740  152.1114 H   0  0  0  0  0  0  0  0  0  0  0  0
  142.9165  132.7236  152.6726 H   0  0  0  0  0  0  0  0  0  0  0  0
  143.0929  132.9704  150.9464 H   0  0  0  0  0  0  0  0  0  0  0  0
  146.5928  132.0779  150.9800 H   0  0  0  0  0  0  0  0  0  0  0  0
  145.2771  132.5895  149.9416 H   0  0  0  0  0  0  0  0  0  0  0  0
  146.8380  134.4971  150.3432 H   0  0  0  0  0  0  0  0  0  0  0  0
  146.6922  134.2791  152.0733 H   0  0  0  0  0  0  0  0  0  0  0  0
  148.7009  142.0398  156.6636 H   0  0  0  0  0  0  0  0  0  0  0  0
  148.2214  137.7552  152.6857 H   0  0  0  0  0  0  0  0  0  0  0  0
  1  2  1  0  0  0  0
  1 22  1  0  0  0  0
  1 23  1  0  0  0  0
  1 24  1  0  0  0  0
  2 21  2  0  0  0  0
  2  3  1  0  0  0  0
  3  4  2  0  0  0  0
  3 25  1  0  0  0  0
  4  5  1  0  0  0  0
  5  6  1  0  0  0  0
  5 21  1  0  0  0  0
  6  7  1  0  0  0  0
  6  8  1  0  0  0  0
  6 26  1  0  0  0  0
  7 27  1  0  0  0  0
  7 28  1  0  0  0  0
  7 29  1  0  0  0  0
  8  9  1  0  0  0  0
  8 10  1  0  0  0  0
  8 30  1  0  0  0  0
  9 31  1  0  0  0  0
  9 32  1  0  0  0  0
  9 33  1  0  0  0  0
 10 11  1  0  0  0  0
 10 34  1  0  0  0  0
 10 48  1  0  0  0  0
 11 12  1  0  0  0  0
 11 35  1  0  0  0  0
 11 36  1  0  0  0  0
 12 13  2  0  0  0  0
 12 14  1  0  0  0  0
 14 15  1  0  0  0  0
 14 37  1  0  0  0  0
 15 20  1  0  0  0  0
 15 16  1  0  0  0  0
 15 38  1  0  0  0  0
 16 17  1  0  0  0  0
 16 39  1  0  0  0  0
 16 40  1  0  0  0  0
 17 18  1  0  0  0  0
 17 41  1  0  0  0  0
 17 42  1  0  0  0  0
 18 19  1  0  0  0  0
 19 20  1  0  0  0  0
 19 43  1  0  0  0  0
 19 44  1  0  0  0  0
 20 45  1  0  0  0  0
 20 46  1  0  0  0  0
 21 47  1  0  0  0  0
M  CHG  1  10   1
M  END
> <s_m_source_file>
AV-unprocessed.smi

> <i_m_source_file_index>
3028

> <i_lp_mmshare_version>
43012

> <i_f3d_flags>
0

> <s_epik_input>
W0NIM11jMVtjSF1ubihbY0hdMSlbQ0BIXShbQ0gzXSlbQ0BIXShbQ0gzXSlbTkhdW0NIMl1DKD1PKVtOSF1bQ0hdMltDSDJdW0NIMl1PW0NIMl1bQ0gyXTI=

> <s_epik_cmdline>
J2VwaWtfcHl0aG9uJywgJy1waCcsICc3LjAnLCAnLXRuJywgJzgnLCAnLW1hJywgJzIwMCcsICctbWV0YWxfYmluZGluZycsICctaW1hZScsICc8aW5maWxlLm1hZT4nLCAnLW9tYWUnLCAnPG91dGZpbGUubWFlPic=

> <r_lp_tautomer_probability>
1

> <r_epik_Ionization_Penalty>
0.151514

> <r_epik_Ionization_Penalty_Charging>
0.151494

> <r_epik_Ionization_Penalty_Neutral>
1.95502e-05

> <r_epik_State_Penalty>
0.141395

> <r_epik_Charging_Adjusted_Penalty>
0.292889

> <i_epik_Tot_Q>
1

> <i_epik_Tot_abs_Q>
1

> <r_epik_Metal_State_Penalty>
0.141632

> <b_epik_Metal_Only>
0

> <s_lp_Force_Field>
OPLS_2005

> <r_lp_Energy>
18.1204

> <b_lp_Chiralities_Consistent>
1

> <s_lp_Variant>
AV-unprocessed.smi:3028-1

> <Gold.Version>
5.8.1

> <Gold.Id.Protein>
6NUR|6NUR_protein|mol2

> <Gold.PLP.Fitness>
53.7305

> <Gold.PLP.PLP>
-41.0354

> <Gold.PLP.part.hbond>
-4.0000

> <Gold.PLP.part.metal>
0.0000

> <Gold.PLP.part.buried>
-3.7041

> <Gold.PLP.part.nonpolar>
-34.1815

> <Gold.PLP.part.repulsive>
0.5891

> <Gold.PLP.ligand.clash>
0.0204

> <Gold.PLP.ligand.torsion>
2.0267

> <Gold.PLP.Chemscore.Hbond>
4.8080

> <Gold.PLP.Chemscore.CHOScore>
0.7429

> <Gold.PLP.Chemscore.Metal>
0.0000

> <Gold.Chemscore.Hbonds>
donor molecule, donor type, donor heavy atom, donor atom, acceptor molecule, acceptor atom, score
      L1  H    10    34       P1  7957  0.86
      L1  H    10    48       P1  7948  2.00
      L1  H    14    37       P1 10171  0.76
      P1  H  7989  7998       L1     4  1.00
      L1  C    21    47       P1  8028  0.10

> <Gold.PLP.Chemscore.Internal.Correction>
0.1164

> <Gold.Rescore>
     Score         DG    S(hbond)    S(metal)    S(lipo)     H(rot)  DE(clash)    DE(int)     intcor
     19.13     -22.36       3.64        0.00      83.88       1.99       0.26       2.97       ----

> <Gold.Chemscore.Fitness>
19.1333

> <Gold.Chemscore.DG>
-22.3569

> <Gold.Chemscore.ZeroCoef>
-5.4800

> <Gold.Chemscore.Hbond>
3.6396

> <Gold.Chemscore.Metal>
0.0000

> <Gold.Chemscore.Lipo>
83.8824

> <Gold.Chemscore.Internal_Hbond>
0.0000

> <Gold.Chemscore.DEClash>
0.2554

> <Gold.Chemscore.DEInternal>
2.9683

> <Gold.Chemscore.Rot>
1.9897

> <Gold.Chemscore.Internal.Correction>
   9.000000E+99

> <Gold.Chemscore.Hbonds>
donor molecule, donor type, donor heavy atom, donor atom, acceptor molecule, acceptor atom, score
      L1  H    10    34       P1  7957  0.79
      L1  H    10    48       P1  7948  1.00
      L1  H    14    37       P1 10171  0.76
      P1  H  7989  7998       L1     4  0.42

> <Gold.Chemscore.Hbond.Weighted>
-12.1563

> <Gold.Chemscore.Metal.Weighted>
-0.0000

> <Gold.Chemscore.Lipo.Weighted>
-9.8142

> <Gold.Chemscore.Internal_Hbond.Weighted>
0.0000

> <Gold.Chemscore.DEClash.Weighted>
0.2554

> <Gold.Chemscore.DEInternal.Weighted>
2.9683

> <Gold.Chemscore.Rot.Weighted>
5.0936

> <Gold.Chemscore.Internal.Correction.Weighted>
   9.000000E+99

> <Gold.Protein.RotatedTorsions>
[ 6907 6896 6895 6894 ] final  -88.96 input  -60.11 | X-H torsion
[ 7974 7965 7964 7962 ] final   84.92 input  175.53 | X-H torsion
[ 8008 7997 7996 7995 ] final -126.41 input   59.86 | X-H torsion
[ 10167 10162 10161 10158 ] final  -37.48 input  -65.29 | X-H torsion
[ 10718 10713 10712 10709 ] final  -34.76 input   66.30 | X-H torsion
[ 10763 10752 10751 10750 ] final  -55.57 input  -60.55 | X-H torsion
[ 11005 11000 10999 10996 ] final  107.45 input  -57.11 | X-H torsion

> <Gold.Protein.ActiveResidues>
 VAL166  LYS551  ARG553  GLY616  TRP617  ASP618  TYR619  PRO620  LYS621  CYS622 
 ASP623  PHE694  ASN695  SER759  ASP760  ASP761  ALA762  ILE779  LEU786  VAL792 
 PHE793  MET794  SER795  GLU796  ALA797  LYS798  CYS799  TRP800  GLU811  SER814 

> <Gold.Protein.RotatedAtoms>
  150.6871  134.2661  159.4568 H   0  0  0  0  0  0  0  0  0  0  0  0  # atno 6907 bound_to 6896
  152.0588  134.9605  160.0584 H   0  0  0  0  0  0  0  0  0  0  0  0  # atno 6908 bound_to 6896
  152.1040  133.4230  159.4637 H   0  0  0  0  0  0  0  0  0  0  0  0  # atno 6909 bound_to 6896
  145.5923  139.2340  143.2292 H   0  0  0  0  0  0  0  0  0  0  0  0  # atno 7974 bound_to 7965
  155.2292  140.0424  157.2960 H   0  0  0  0  0  0  0  0  0  0  0  0  # atno 8008 bound_to 7997
  154.5899  140.2424  155.7906 H   0  0  0  0  0  0  0  0  0  0  0  0  # atno 8009 bound_to 7997
  156.2252  140.2957  156.0058 H   0  0  0  0  0  0  0  0  0  0  0  0  # atno 8010 bound_to 7997
  140.7117  143.3339  151.2507 H   0  0  0  0  0  0  0  0  0  0  0  0  # atno 10167 bound_to 10162
  156.3467  130.4302  149.7740 H   0  0  0  0  0  0  0  0  0  0  0  0  # atno 10718 bound_to 10713
  154.1929  135.6424  153.5065 H   0  0  0  0  0  0  0  0  0  0  0  0  # atno 10763 bound_to 10752
  153.0030  135.5433  154.6396 H   0  0  0  0  0  0  0  0  0  0  0  0  # atno 10764 bound_to 10752
  154.5789  135.2923  155.0725 H   0  0  0  0  0  0  0  0  0  0  0  0  # atno 10765 bound_to 10752
  139.8828  134.9401  156.5822 H   0  0  0  0  0  0  0  0  0  0  0  0  # atno 11005 bound_to 11000
  146.1638  140.6749  142.9265 LP  0  0  0  0  0  0  0  0  0  0  0  0  # atno 17320 bound_to 7965
  144.7346  140.4771  143.6913 LP  0  0  0  0  0  0  0  0  0  0  0  0  # atno 17321 bound_to 7965
  139.6828  143.9824  152.2818 LP  0  0  0  0  0  0  0  0  0  0  0  0  # atno 17342 bound_to 10162
  139.9460  144.6651  150.8219 LP  0  0  0  0  0  0  0  0  0  0  0  0  # atno 17343 bound_to 10162
  156.4956  130.8105  151.3112 LP  0  0  0  0  0  0  0  0  0  0  0  0  # atno 17370 bound_to 10713
  157.7455  130.9961  150.2768 LP  0  0  0  0  0  0  0  0  0  0  0  0  # atno 17371 bound_to 10713
  140.8018  133.8499  155.8733 LP  0  0  0  0  0  0  0  0  0  0  0  0  # atno 17394 bound_to 11000
  140.9585  134.1686  157.4672 LP  0  0  0  0  0  0  0  0  0  0  0  0  # atno 17395 bound_to 11000

$$$$
