AV-unprocessed.smi:1673|AV-procd|sdf|6711|dock1
  -GOLD-   22720 7453D 1   1.00000     0.00000
 Structure written by MMmdl.
 39 40  0  0  0  0  0  0  0  0  1 V2000
  152.2386  138.2767  155.4218 C   0  0  0  0  0  0  0  0  0  0  0  0
  151.1379  139.2213  155.0256 C   0  0  0  0  0  0  0  0  0  0  0  0
  151.2983  140.5196  155.2366 N   0  0  0  0  0  0  0  0  0  0  0  0
  150.1050  141.1434  154.8411 O   0  0  0  0  0  0  0  0  0  0  0  0
  149.2409  140.1956  154.3931 C   0  0  0  0  0  0  0  0  0  0  0  0
  147.8985  140.6610  153.9398 C   0  0  0  0  0  0  0  0  0  0  0  0
  149.8507  138.9780  154.4620 C   0  0  0  0  0  0  0  0  0  0  0  0
  149.2391  137.7504  154.1052 N   0  0  0  0  0  0  0  0  0  0  0  0
  148.7177  136.8380  154.9388 C   0  0  0  0  0  0  0  0  0  0  0  0
  148.7525  136.9070  156.1670 O   0  0  0  0  0  0  0  0  0  0  0  0
  148.1622  135.8232  154.2614 N   0  0  0  0  0  0  0  0  0  0  0  0
  147.4940  134.6587  154.8460 C   0  0  2  0  0  0  0  0  0  0  0  0
  148.4735  133.9046  155.7674 C   0  0  0  0  0  0  0  0  0  0  0  0
  149.5902  133.1993  154.9780 C   0  0  0  0  0  0  0  0  0  0  0  0
  149.0093  132.2658  153.9054 C   0  0  0  0  0  0  0  0  0  0  0  0
  148.0475  133.0160  152.9700 C   0  0  0  0  0  0  0  0  0  0  0  0
  146.9197  133.7146  153.7576 C   0  0  2  0  0  0  0  0  0  0  0  0
  145.9196  134.4089  152.8172 C   0  0  0  0  0  0  0  0  0  0  0  0
  151.8381  137.3185  155.7528 H   0  0  0  0  0  0  0  0  0  0  0  0
  152.8338  138.6790  156.2422 H   0  0  0  0  0  0  0  0  0  0  0  0
  152.9130  138.0895  154.5861 H   0  0  0  0  0  0  0  0  0  0  0  0
  147.2435  139.8175  153.7219 H   0  0  0  0  0  0  0  0  0  0  0  0
  147.9851  141.2632  153.0358 H   0  0  0  0  0  0  0  0  0  0  0  0
  147.4207  141.2692  154.7078 H   0  0  0  0  0  0  0  0  0  0  0  0
  149.2627  137.5119  153.1246 H   0  0  0  0  0  0  0  0  0  0  0  0
  148.1910  135.8612  153.2532 H   0  0  0  0  0  0  0  0  0  0  0  0
  146.6658  134.9991  155.4702 H   0  0  0  0  0  0  0  0  0  0  0  0
  148.9069  134.5882  156.4985 H   0  0  0  0  0  0  0  0  0  0  0  0
  147.9213  133.1597  156.3420 H   0  0  0  0  0  0  0  0  0  0  0  0
  150.2365  133.9408  154.5069 H   0  0  0  0  0  0  0  0  0  0  0  0
  150.2232  132.6310  155.6601 H   0  0  0  0  0  0  0  0  0  0  0  0
  149.8172  131.8177  153.3266 H   0  0  0  0  0  0  0  0  0  0  0  0
  148.4809  131.4416  154.3862 H   0  0  0  0  0  0  0  0  0  0  0  0
  148.6039  133.7499  152.3855 H   0  0  0  0  0  0  0  0  0  0  0  0
  147.6204  132.3148  152.2525 H   0  0  0  0  0  0  0  0  0  0  0  0
  146.3626  132.9342  154.2786 H   0  0  0  0  0  0  0  0  0  0  0  0
  146.4034  135.1624  152.1955 H   0  0  0  0  0  0  0  0  0  0  0  0
  145.1270  134.9008  153.3818 H   0  0  0  0  0  0  0  0  0  0  0  0
  145.4480  133.6879  152.1492 H   0  0  0  0  0  0  0  0  0  0  0  0
  1  2  1  0  0  0  0
  1 19  1  0  0  0  0
  1 20  1  0  0  0  0
  1 21  1  0  0  0  0
  2  7  1  0  0  0  0
  2  3  2  0  0  0  0
  3  4  1  0  0  0  0
  4  5  1  0  0  0  0
  5  6  1  0  0  0  0
  5  7  2  0  0  0  0
  6 22  1  0  0  0  0
  6 23  1  0  0  0  0
  6 24  1  0  0  0  0
  7  8  1  0  0  0  0
  8  9  1  0  0  0  0
  8 25  1  0  0  0  0
  9 10  2  0  0  0  0
  9 11  1  0  0  0  0
 11 12  1  0  0  0  0
 11 26  1  0  0  0  0
 12 17  1  0  0  0  0
 12 13  1  0  0  0  0
 12 27  1  0  0  0  0
 13 14  1  0  0  0  0
 13 28  1  0  0  0  0
 13 29  1  0  0  0  0
 14 15  1  0  0  0  0
 14 30  1  0  0  0  0
 14 31  1  0  0  0  0
 15 16  1  0  0  0  0
 15 32  1  0  0  0  0
 15 33  1  0  0  0  0
 16 17  1  0  0  0  0
 16 34  1  0  0  0  0
 16 35  1  0  0  0  0
 17 18  1  0  0  0  0
 17 36  1  0  0  0  0
 18 37  1  0  0  0  0
 18 38  1  0  0  0  0
 18 39  1  0  0  0  0
M  END
> <s_m_source_file>
AV-unprocessed.smi

> <i_m_source_file_index>
1673

> <i_lp_mmshare_version>
43012

> <i_f3d_flags>
0

> <s_epik_input>
W0NIM11jMW5vYyhbQ0gzXSljMVtOSF1DKD1PKVtOSF1bQ0BASF0yW0NIMl1bQ0gyXVtDSDJdW0NIMl1bQ0BIXTJbQ0gzXQ==

> <s_epik_cmdline>
J2VwaWtfcHl0aG9uJywgJy1waCcsICc3LjAnLCAnLXRuJywgJzgnLCAnLW1hJywgJzIwMCcsICctbWV0YWxfYmluZGluZycsICctaW1hZScsICc8aW5maWxlLm1hZT4nLCAnLW9tYWUnLCAnPG91dGZpbGUubWFlPic=

> <r_lp_tautomer_probability>
1

> <r_epik_Ionization_Penalty>
4.01865e-05

> <r_epik_Ionization_Penalty_Charging>
0

> <r_epik_Ionization_Penalty_Neutral>
4.01865e-05

> <r_epik_State_Penalty>
-0

> <r_epik_Charging_Adjusted_Penalty>
0

> <i_epik_Tot_Q>
0

> <i_epik_Tot_abs_Q>
0

> <r_epik_Metal_State_Penalty>
-0

> <b_epik_Metal_Only>
0

> <s_lp_Force_Field>
OPLS_2005

> <r_lp_Energy>
11.4641

> <b_lp_Chiralities_Consistent>
1

> <s_lp_Variant>
AV-unprocessed.smi:1673-3

> <Gold.Version>
5.8.1

> <Gold.Id.Protein>
6NUR|6NUR_protein|mol2

> <Gold.PLP.Fitness>
34.3393

> <Gold.PLP.PLP>
-29.4905

> <Gold.PLP.part.hbond>
-4.0000

> <Gold.PLP.part.metal>
0.0000

> <Gold.PLP.part.buried>
-1.9292

> <Gold.PLP.part.nonpolar>
-23.6854

> <Gold.PLP.part.repulsive>
0.1930

> <Gold.PLP.ligand.clash>
0.0000

> <Gold.PLP.ligand.torsion>
0.7150

> <Gold.PLP.Chemscore.Hbond>
2.0022

> <Gold.PLP.Chemscore.CHOScore>
0.0000

> <Gold.PLP.Chemscore.Metal>
0.0000

> <Gold.Chemscore.Hbonds>
donor molecule, donor type, donor heavy atom, donor atom, acceptor molecule, acceptor atom, score
      L1  H     8    25       P1  7948  0.96
      L1  H    11    26       P1  7948  1.00

> <Gold.PLP.Chemscore.Internal.Correction>
0.2721

> <Gold.Rescore>
     Score         DG    S(hbond)    S(metal)    S(lipo)     H(rot)  DE(clash)    DE(int)     intcor
     16.15     -16.93       1.86        0.00      66.58       1.00       0.04       0.73       ----

> <Gold.Chemscore.Fitness>
16.1525

> <Gold.Chemscore.DG>
-16.9288

> <Gold.Chemscore.ZeroCoef>
-5.4800

> <Gold.Chemscore.Hbond>
1.8620

> <Gold.Chemscore.Metal>
0.0000

> <Gold.Chemscore.Lipo>
66.5779

> <Gold.Chemscore.Internal_Hbond>
0.0000

> <Gold.Chemscore.DEClash>
0.0431

> <Gold.Chemscore.DEInternal>
0.7332

> <Gold.Chemscore.Rot>
1.0000

> <Gold.Chemscore.Internal.Correction>
   9.000000E+99

> <Gold.Chemscore.Hbonds>
donor molecule, donor type, donor heavy atom, donor atom, acceptor molecule, acceptor atom, score
      L1  H     8    25       P1  7948  0.91
      L1  H    11    26       P1  7948  0.95

> <Gold.Chemscore.Hbond.Weighted>
-6.2192

> <Gold.Chemscore.Metal.Weighted>
-0.0000

> <Gold.Chemscore.Lipo.Weighted>
-7.7896

> <Gold.Chemscore.Internal_Hbond.Weighted>
0.0000

> <Gold.Chemscore.DEClash.Weighted>
0.0431

> <Gold.Chemscore.DEInternal.Weighted>
0.7332

> <Gold.Chemscore.Rot.Weighted>
2.5600

> <Gold.Chemscore.Internal.Correction.Weighted>
   9.000000E+99

> <Gold.Protein.RotatedTorsions>
[ 6907 6896 6895 6894 ] final  131.62 input  -60.11 | X-H torsion
[ 7974 7965 7964 7962 ] final  113.93 input  175.53 | X-H torsion
[ 8008 7997 7996 7995 ] final  -36.29 input   59.86 | X-H torsion
[ 10167 10162 10161 10158 ] final  160.48 input  -65.29 | X-H torsion
[ 10718 10713 10712 10709 ] final   -7.06 input   66.30 | X-H torsion
[ 10763 10752 10751 10750 ] final -124.40 input  -60.55 | X-H torsion
[ 11005 11000 10999 10996 ] final  101.10 input  -57.11 | X-H torsion

> <Gold.Protein.ActiveResidues>
 VAL166  LYS551  ARG553  GLY616  TRP617  ASP618  TYR619  PRO620  LYS621  CYS622 
 ASP623  PHE694  ASN695  SER759  ASP760  ASP761  ALA762  ILE779  LEU786  VAL792 
 PHE793  MET794  SER795  GLU796  ALA797  LYS798  CYS799  TRP800  GLU811  SER814 

> <Gold.Protein.RotatedAtoms>
  152.3408  133.6065  159.5874 H   0  0  0  0  0  0  0  0  0  0  0  0  # atno 6907 bound_to 6896
  150.7477  133.9725  159.3559 H   0  0  0  0  0  0  0  0  0  0  0  0  # atno 6908 bound_to 6896
  151.7589  135.0815  160.0393 H   0  0  0  0  0  0  0  0  0  0  0  0  # atno 6909 bound_to 6896
  145.2107  139.2907  143.4269 H   0  0  0  0  0  0  0  0  0  0  0  0  # atno 7974 bound_to 7965
  154.4076  140.1634  156.2350 H   0  0  0  0  0  0  0  0  0  0  0  0  # atno 8008 bound_to 7997
  155.9250  140.3418  155.6180 H   0  0  0  0  0  0  0  0  0  0  0  0  # atno 8009 bound_to 7997
  155.7176  140.0764  157.2335 H   0  0  0  0  0  0  0  0  0  0  0  0  # atno 8010 bound_to 7997
  139.4840  144.4630  151.8680 H   0  0  0  0  0  0  0  0  0  0  0  0  # atno 10167 bound_to 10162
  156.7227  130.5156  149.5864 H   0  0  0  0  0  0  0  0  0  0  0  0  # atno 10718 bound_to 10713
  154.8722  135.4065  154.3100 H   0  0  0  0  0  0  0  0  0  0  0  0  # atno 10763 bound_to 10752
  153.3945  135.7016  153.6476 H   0  0  0  0  0  0  0  0  0  0  0  0  # atno 10764 bound_to 10752
  153.5244  135.3680  155.2618 H   0  0  0  0  0  0  0  0  0  0  0  0  # atno 10765 bound_to 10752
  139.8772  134.9168  156.4856 H   0  0  0  0  0  0  0  0  0  0  0  0  # atno 11005 bound_to 11000
  146.3398  140.2382  142.8595 LP  0  0  0  0  0  0  0  0  0  0  0  0  # atno 17320 bound_to 7965
  144.9858  140.8502  143.5369 LP  0  0  0  0  0  0  0  0  0  0  0  0  # atno 17321 bound_to 7965
  140.4093  144.2390  150.5889 LP  0  0  0  0  0  0  0  0  0  0  0  0  # atno 17342 bound_to 10162
  140.4981  143.2326  151.8719 LP  0  0  0  0  0  0  0  0  0  0  0  0  # atno 17343 bound_to 10162
  156.1583  130.6357  151.0686 LP  0  0  0  0  0  0  0  0  0  0  0  0  # atno 17370 bound_to 10713
  157.6891  131.0815  150.7158 LP  0  0  0  0  0  0  0  0  0  0  0  0  # atno 17371 bound_to 10713
  140.8696  133.7998  155.9350 LP  0  0  0  0  0  0  0  0  0  0  0  0  # atno 17394 bound_to 11000
  140.8966  134.2429  157.5065 LP  0  0  0  0  0  0  0  0  0  0  0  0  # atno 17395 bound_to 11000

$$$$
