AV-unprocessed.smi:1672|AV-procd|sdf|6707|dock6
  -GOLD-   22720 7453D 1   1.00000     0.00000
 Structure written by MMmdl.
 49 51  0  0  0  0  0  0  0  0  3 V2000
  147.2217  132.8030  155.4646 C   0  0  0  0  0  0  0  0  0  0  0  0
  147.5346  133.5907  154.1803 C   0  0  2  0  0  0  0  0  0  0  0  0
  149.0429  133.6687  153.8819 C   0  0  0  0  0  0  0  0  0  0  0  0
  149.7734  134.6467  154.8198 C   0  0  0  0  0  0  0  0  0  0  0  0
  149.1594  135.9985  154.7724 N   0  3  2  0  0  0  0  0  0  0  0  0
  149.9302  136.9974  155.5573 C   0  0  0  0  0  0  0  0  0  0  0  0
  149.8742  138.4066  154.9351 C   0  0  2  0  0  0  0  0  0  0  0  0
  149.7444  138.2785  153.5325 O   0  0  0  0  0  0  0  0  0  0  0  0
  151.1351  139.2304  155.2647 C   0  0  0  0  0  0  0  0  0  0  0  0
  150.8269  140.5026  155.9389 N   0  0  0  0  0  0  0  0  0  0  0  0
  149.9544  141.4912  155.5861 C   0  0  0  0  0  0  0  0  0  0  0  0
  149.0634  141.5159  154.3884 C   0  0  0  0  0  0  0  0  0  0  0  0
  148.3533  142.7288  154.2742 O   0  0  0  0  0  0  0  0  0  0  0  0
  150.0324  142.4600  156.5409 N   0  3  0  0  0  0  0  0  0  0  0  0
  150.9630  142.0923  157.5129 C   0  0  0  0  0  0  0  0  0  0  0  0
  151.3817  142.7494  158.6657 C   0  0  0  0  0  0  0  0  0  0  0  0
  152.3539  142.0946  159.4498 C   0  0  0  0  0  0  0  0  0  0  0  0
  152.8716  140.8374  159.0771 C   0  0  0  0  0  0  0  0  0  0  0  0
  152.4393  140.1810  157.9058 C   0  0  0  0  0  0  0  0  0  0  0  0
  151.4769  140.8342  157.1352 C   0  0  0  0  0  0  0  0  0  0  0  0
  147.7163  135.9564  155.1291 C   0  0  0  0  0  0  0  0  0  0  0  0
  146.9413  135.0114  154.1935 C   0  0  0  0  0  0  0  0  0  0  0  0
  147.6593  133.2655  156.3489 H   0  0  0  0  0  0  0  0  0  0  0  0
  147.6073  131.7850  155.4012 H   0  0  0  0  0  0  0  0  0  0  0  0
  146.1459  132.7342  155.6278 H   0  0  0  0  0  0  0  0  0  0  0  0
  147.0639  133.0443  153.3617 H   0  0  0  0  0  0  0  0  0  0  0  0
  149.4933  132.6778  153.9494 H   0  0  0  0  0  0  0  0  0  0  0  0
  149.1862  133.9949  152.8508 H   0  0  0  0  0  0  0  0  0  0  0  0
  149.7668  134.2757  155.8455 H   0  0  0  0  0  0  0  0  0  0  0  0
  150.8191  134.7091  154.5160 H   0  0  0  0  0  0  0  0  0  0  0  0
  149.5550  137.0135  156.5819 H   0  0  0  0  0  0  0  0  0  0  0  0
  150.9759  136.6926  155.6247 H   0  0  0  0  0  0  0  0  0  0  0  0
  149.0034  138.9475  155.3029 H   0  0  0  0  0  0  0  0  0  0  0  0
  149.2474  137.4969  153.3438 H   0  0  0  0  0  0  0  0  0  0  0  0
  151.7824  138.6632  155.9346 H   0  0  0  0  0  0  0  0  0  0  0  0
  151.7279  139.4270  154.3712 H   0  0  0  0  0  0  0  0  0  0  0  0
  149.6621  141.3709  153.4887 H   0  0  0  0  0  0  0  0  0  0  0  0
  148.3555  140.6886  154.4383 H   0  0  0  0  0  0  0  0  0  0  0  0
  148.6670  143.3268  154.9355 H   0  0  0  0  0  0  0  0  0  0  0  0
  150.9867  143.7128  158.9528 H   0  0  0  0  0  0  0  0  0  0  0  0
  152.7095  142.5658  160.3548 H   0  0  0  0  0  0  0  0  0  0  0  0
  153.6161  140.3666  159.7030 H   0  0  0  0  0  0  0  0  0  0  0  0
  152.8467  139.2194  157.6328 H   0  0  0  0  0  0  0  0  0  0  0  0
  147.6034  135.6410  156.1671 H   0  0  0  0  0  0  0  0  0  0  0  0
  147.2796  136.9519  155.0595 H   0  0  0  0  0  0  0  0  0  0  0  0
  146.9652  135.4183  153.1816 H   0  0  0  0  0  0  0  0  0  0  0  0
  145.8896  134.9791  154.4802 H   0  0  0  0  0  0  0  0  0  0  0  0
  149.2155  136.2952  153.8081 H   0  0  0  0  0  0  0  0  0  0  0  0
  149.4826  143.3097  156.5278 H   0  0  0  0  0  0  0  0  0  0  0  0
  1  2  1  0  0  0  0
  1 23  1  0  0  0  0
  1 24  1  0  0  0  0
  1 25  1  0  0  0  0
  2 22  1  0  0  0  0
  2  3  1  0  0  0  0
  2 26  1  0  0  0  0
  3  4  1  0  0  0  0
  3 27  1  0  0  0  0
  3 28  1  0  0  0  0
  4  5  1  0  0  0  0
  4 29  1  0  0  0  0
  4 30  1  0  0  0  0
  5  6  1  0  0  0  0
  5 21  1  0  0  0  0
  5 48  1  0  0  0  0
  6  7  1  0  0  0  0
  6 31  1  0  0  0  0
  6 32  1  0  0  0  0
  7  8  1  0  0  0  0
  7  9  1  0  0  0  0
  7 33  1  0  0  0  0
  8 34  1  0  0  0  0
  9 10  1  0  0  0  0
  9 35  1  0  0  0  0
  9 36  1  0  0  0  0
 10 20  1  0  0  0  0
 10 11  1  0  0  0  0
 11 12  1  0  0  0  0
 11 14  2  0  0  0  0
 12 13  1  0  0  0  0
 12 37  1  0  0  0  0
 12 38  1  0  0  0  0
 13 39  1  0  0  0  0
 14 15  1  0  0  0  0
 14 49  1  0  0  0  0
 15 20  2  0  0  0  0
 15 16  1  0  0  0  0
 16 17  2  0  0  0  0
 16 40  1  0  0  0  0
 17 18  1  0  0  0  0
 17 41  1  0  0  0  0
 18 19  2  0  0  0  0
 18 42  1  0  0  0  0
 19 20  1  0  0  0  0
 19 43  1  0  0  0  0
 21 22  1  0  0  0  0
 21 44  1  0  0  0  0
 21 45  1  0  0  0  0
 22 46  1  0  0  0  0
 22 47  1  0  0  0  0
M  CHG  1   5   1
M  CHG  1  14   1
M  END
> <s_m_source_file>
AV-unprocessed.smi

> <i_m_source_file_index>
1672

> <i_lp_mmshare_version>
43012

> <i_f3d_flags>
0

> <s_epik_input>
W0NIM11bQ0hdMVtDSDJdW0NIMl1OKFtDSDJdW0NIMl0xKVtDSDJdW0NASF0oW09IXSlbQ0gyXW4oYyhuMilbQ0gyXVtPSF0pYyhjMjMpW2NIXVtjSF1bY0hdW2NIXTM=

> <s_epik_cmdline>
J2VwaWtfcHl0aG9uJywgJy1waCcsICc3LjAnLCAnLXRuJywgJzgnLCAnLW1hJywgJzIwMCcsICctbWV0YWxfYmluZGluZycsICctaW1hZScsICc8aW5maWxlLm1hZT4nLCAnLW9tYWUnLCAnPG91dGZpbGUubWFlPic=

> <r_epik_Ionization_Penalty>
1.51642

> <r_epik_Ionization_Penalty_Charging>
1.51557

> <r_epik_Ionization_Penalty_Neutral>
0.000856474

> <r_epik_State_Penalty>
1.6048

> <r_epik_Charging_Adjusted_Penalty>
3.12037

> <i_epik_Tot_Q>
2

> <i_epik_Tot_abs_Q>
2

> <r_epik_Metal_State_Penalty>
5.65673

> <b_epik_Metal_Only>
0

> <s_lp_Force_Field>
OPLS_2005

> <r_lp_Energy>
31.2365

> <b_lp_Chiralities_Consistent>
1

> <s_lp_Variant>
AV-unprocessed.smi:1672-7

> <Gold.Version>
5.8.1

> <Gold.Id.Protein>
6NUR|6NUR_protein|mol2

> <Gold.PLP.Fitness>
56.1850

> <Gold.PLP.PLP>
-41.5527

> <Gold.PLP.part.hbond>
-6.9372

> <Gold.PLP.part.metal>
0.0000

> <Gold.PLP.part.buried>
-1.7365

> <Gold.PLP.part.nonpolar>
-31.7430

> <Gold.PLP.part.repulsive>
0.0885

> <Gold.PLP.ligand.clash>
0.0000

> <Gold.PLP.ligand.torsion>
1.5507

> <Gold.PLP.Chemscore.Hbond>
5.8800

> <Gold.PLP.Chemscore.CHOScore>
0.0000

> <Gold.PLP.Chemscore.Metal>
0.0000

> <Gold.Chemscore.Hbonds>
donor molecule, donor type, donor heavy atom, donor atom, acceptor molecule, acceptor atom, score
      L1  H     5    48       P1  7948  2.00
      L1  H     8    34       P1  7948  0.77
      L1  H    13    39       P1  8028  1.00
      L1  H    14    49       P1  8028  2.00

> <Gold.PLP.Chemscore.Internal.Correction>
0.0937

> <Gold.Rescore>
     Score         DG    S(hbond)    S(metal)    S(lipo)     H(rot)  DE(clash)    DE(int)     intcor
     19.33     -21.14       3.55        0.00      97.02       2.96       0.01       1.80       ----

> <Gold.Chemscore.Fitness>
19.3256

> <Gold.Chemscore.DG>
-21.1369

> <Gold.Chemscore.ZeroCoef>
-5.4800

> <Gold.Chemscore.Hbond>
3.5544

> <Gold.Chemscore.Metal>
0.0000

> <Gold.Chemscore.Lipo>
97.0191

> <Gold.Chemscore.Internal_Hbond>
0.0000

> <Gold.Chemscore.DEClash>
0.0102

> <Gold.Chemscore.DEInternal>
1.8011

> <Gold.Chemscore.Rot>
2.9555

> <Gold.Chemscore.Internal.Correction>
   9.000000E+99

> <Gold.Chemscore.Hbonds>
donor molecule, donor type, donor heavy atom, donor atom, acceptor molecule, acceptor atom, score
      L1  H     5    48       P1  7948  0.91
      L1  H     8    34       P1  7948  0.74
      L1  H    13    39       P1  8028  0.94
      L1  H    14    49       P1  8028  0.94

> <Gold.Chemscore.Hbond.Weighted>
-11.8717

> <Gold.Chemscore.Metal.Weighted>
-0.0000

> <Gold.Chemscore.Lipo.Weighted>
-11.3512

> <Gold.Chemscore.Internal_Hbond.Weighted>
0.0000

> <Gold.Chemscore.DEClash.Weighted>
0.0102

> <Gold.Chemscore.DEInternal.Weighted>
1.8011

> <Gold.Chemscore.Rot.Weighted>
7.5660

> <Gold.Chemscore.Internal.Correction.Weighted>
   9.000000E+99

> <Gold.Protein.RotatedTorsions>
[ 6907 6896 6895 6894 ] final  143.24 input  -60.11 | X-H torsion
[ 7974 7965 7964 7962 ] final   36.13 input  175.53 | X-H torsion
[ 8008 7997 7996 7995 ] final  -68.99 input   59.86 | X-H torsion
[ 10167 10162 10161 10158 ] final   47.61 input  -65.29 | X-H torsion
[ 10718 10713 10712 10709 ] final  148.32 input   66.30 | X-H torsion
[ 10763 10752 10751 10750 ] final -113.70 input  -60.55 | X-H torsion
[ 11005 11000 10999 10996 ] final  117.88 input  -57.11 | X-H torsion

> <Gold.Protein.ActiveResidues>
 VAL166  LYS551  ARG553  GLY616  TRP617  ASP618  TYR619  PRO620  LYS621  CYS622 
 ASP623  PHE694  ASN695  SER759  ASP760  ASP761  ALA762  ILE779  LEU786  VAL792 
 PHE793  MET794  SER795  GLU796  ALA797  LYS798  CYS799  TRP800  GLU811  SER814 

> <Gold.Protein.RotatedAtoms>
  152.2088  133.4895  159.5098 H   0  0  0  0  0  0  0  0  0  0  0  0  # atno 6907 bound_to 6896
  150.6985  134.1494  159.4144 H   0  0  0  0  0  0  0  0  0  0  0  0  # atno 6908 bound_to 6896
  151.9413  135.0212  160.0586 H   0  0  0  0  0  0  0  0  0  0  0  0  # atno 6909 bound_to 6896
  146.1233  139.6055  142.9275 H   0  0  0  0  0  0  0  0  0  0  0  0  # atno 7974 bound_to 7965
  154.4907  140.0862  156.7587 H   0  0  0  0  0  0  0  0  0  0  0  0  # atno 8008 bound_to 7997
  155.4239  140.3447  155.4255 H   0  0  0  0  0  0  0  0  0  0  0  0  # atno 8009 bound_to 7997
  156.1325  140.1505  156.9032 H   0  0  0  0  0  0  0  0  0  0  0  0  # atno 8010 bound_to 7997
  140.3019  144.2924  150.6217 H   0  0  0  0  0  0  0  0  0  0  0  0  # atno 10167 bound_to 10162
  157.3101  131.0886  151.1323 H   0  0  0  0  0  0  0  0  0  0  0  0  # atno 10718 bound_to 10713
  154.8408  135.4445  154.1390 H   0  0  0  0  0  0  0  0  0  0  0  0  # atno 10763 bound_to 10752
  153.2580  135.6933  153.7614 H   0  0  0  0  0  0  0  0  0  0  0  0  # atno 10764 bound_to 10752
  153.6902  135.3388  155.3175 H   0  0  0  0  0  0  0  0  0  0  0  0  # atno 10765 bound_to 10752
  139.9090  134.9615  156.7419 H   0  0  0  0  0  0  0  0  0  0  0  0  # atno 11005 bound_to 11000
  145.5419  141.0420  143.2326 LP  0  0  0  0  0  0  0  0  0  0  0  0  # atno 17320 bound_to 7965
  144.7618  139.6939  143.7231 LP  0  0  0  0  0  0  0  0  0  0  0  0  # atno 17321 bound_to 7965
  140.5644  143.2188  151.7709 LP  0  0  0  0  0  0  0  0  0  0  0  0  # atno 17342 bound_to 10162
  139.4913  144.4304  151.9878 LP  0  0  0  0  0  0  0  0  0  0  0  0  # atno 17343 bound_to 10162
  157.2648  130.6676  149.5991 LP  0  0  0  0  0  0  0  0  0  0  0  0  # atno 17370 bound_to 10713
  155.9677  130.4497  150.5670 LP  0  0  0  0  0  0  0  0  0  0  0  0  # atno 17371 bound_to 10713
  140.6843  133.9447  155.7928 LP  0  0  0  0  0  0  0  0  0  0  0  0  # atno 17394 bound_to 11000
  141.0488  134.0515  157.3810 LP  0  0  0  0  0  0  0  0  0  0  0  0  # atno 17395 bound_to 11000

$$$$
