#       Name:                AV-unprocessed.smi:3314
#       Creating user name   scv26
#       Creation time:       Fri Mar 27 19:08:09 2020


#       File generated by GOLD software.
#

@<TRIPOS>MOLECULE
AV-unprocessed.smi:3314
    43    44     1
SMALL
NO_CHARGES


@<TRIPOS>ATOM
      1 ****        -4.7961   2.3422  -1.3833 C.3            1 S1                 0.0000
      2 ****        -3.3014   2.2153  -1.1712 C.2            1 S1                 0.0000
      3 ****        -2.4679   3.4019  -1.0810 C.2            1 S1                 0.0000
      4 ****        -1.1451   3.2685  -0.8881 C.2            1 S1                 0.0000
      5 ****        -0.1984   4.4462  -0.7849 C.3            1 S1                 0.0000
      6 ****        -0.5645   2.0111  -0.7732 N.pl3          1 S1                 0.0000
      7 ****        -1.3000   0.8160  -0.8591 C.2            1 S1                 0.0000
      8 ****        -0.8052  -0.3846  -0.7724 N.2            1 S1                 0.0000
      9 ****         0.5496  -0.6295  -0.5636 C.2            1 S1                 0.0000
     10 ****         1.4710   0.1775  -0.4097 O.2            1 S1                 0.0000
     11 ****         0.8569  -2.1427  -0.5476 C.3            1 S1                 0.0000
     12 ****         2.3206  -2.5081  -0.2001 C.3            1 S1                 0.0000
     13 ****         2.6118  -2.2624   1.2326 N.4            1 S1                 1.0000
     14 ****         4.0172  -2.5533   1.5870 C.3            1 S1                 0.0000
     15 ****         1.6455  -2.9777   2.0962 C.3            1 S1                 0.0000
     16 ****         0.2063  -2.5833   1.7286 C.3            1 S1                 0.0000
     17 ****        -0.0218  -2.8392   0.3432 O.3            1 S1                 0.0000
     18 ****        -2.7295   0.9927  -1.0646 C.2            1 S1                 0.0000
     19 ****        -5.1005   3.3879  -1.4355 H              1 S1                 0.0000
     20 ****        -5.3371   1.8714  -0.5620 H              1 S1                 0.0000
     21 ****        -5.0900   1.8551  -2.3133 H              1 S1                 0.0000
     22 ****        -2.9067   4.3852  -1.1704 H              1 S1                 0.0000
     23 ****        -0.2264   5.0332  -1.7033 H              1 S1                 0.0000
     24 ****         0.8299   4.1222  -0.6197 H              1 S1                 0.0000
     25 ****        -0.4892   5.0926   0.0436 H              1 S1                 0.0000
     26 ****         0.6489  -2.5083  -1.5540 H              1 S1                 0.0000
     27 ****         2.4941  -3.5618  -0.4245 H              1 S1                 0.0000
     28 ****         3.0161  -1.9434  -0.8229 H              1 S1                 0.0000
     29 ****         4.2503  -3.6083   1.4363 H              1 S1                 0.0000
     30 ****         4.2093  -2.3061   2.6316 H              1 S1                 0.0000
     31 ****         4.6979  -1.9612   0.9746 H              1 S1                 0.0000
     32 ****         1.7783  -4.0547   1.9807 H              1 S1                 0.0000
     33 ****         1.8383  -2.7402   3.1429 H              1 S1                 0.0000
     34 ****        -0.5021  -3.1707   2.3126 H              1 S1                 0.0000
     35 ****         0.0152  -1.5376   1.9718 H              1 S1                 0.0000
     36 ****        -3.3805   0.1331  -1.1379 H              1 S1                 0.0000
     37 ****         0.4356   1.9974  -0.6334 H              1 S1                 0.0000
     38 ****         2.4710  -1.2749   1.3930 H              1 S1                 0.0000
     39 ****        -1.4246  -1.1649  -0.8595 LP             1 S1                 0.0000
     40 ****         1.2836   1.1596  -0.4270 LP             1 S1                 0.0000
     41 ****         2.4048  -0.1509  -0.2677 LP             1 S1                 0.0000
     42 ****         0.0888  -3.8205   0.1856 LP             1 S1                 0.0000
     43 ****        -0.9607  -2.5708   0.1275 LP             1 S1                 0.0000
@<TRIPOS>BOND
    1    1    2 1     
    2    1   19 1     
    3    1   20 1     
    4    1   21 1     
    5    2   18 2     
    6    2    3 1     
    7    3    4 2     
    8    3   22 1     
    9    4    5 1     
   10    4    6 1     
   11    5   23 1     
   12    5   24 1     
   13    5   25 1     
   14    6    7 1     
   15    6   37 1     
   16    7    8 2     
   17    7   18 1     
   18    8    9 1     
   19    9   10 2     
   20    9   11 1     
   21   11   17 1     
   22   11   12 1     
   23   11   26 1     
   24   12   13 1     
   25   12   27 1     
   26   12   28 1     
   27   13   14 1     
   28   13   15 1     
   29   13   38 1     
   30   14   29 1     
   31   14   30 1     
   32   14   31 1     
   33   15   16 1     
   34   15   32 1     
   35   15   33 1     
   36   16   17 1     
   37   16   34 1     
   38   16   35 1     
   39   18   36 1     
   40    8   39 1     
   41   10   40 1     
   42   10   41 1     
   43   17   42 1     
   44   17   43 1     
@<TRIPOS>SUBSTRUCTURE
      1 S1             1
@<TRIPOS>SET
LONE_PAIRS      STATIC     ATOMS    <user>   **** ""
5 39 40 41 42 43
DONOR_HYDROGENS      STATIC     ATOMS    <user>   **** ""
2 37 38
ATOM$BLUE        STATIC     ATOMS    COLORGROUP SYSTEM
5 39 40 41 42 43
ATOM$RED        STATIC     ATOMS    COLORGROUP SYSTEM
2 37 38
