#       Name:                AV-unprocessed.smi:1452
#       Creating user name   scv26
#       Creation time:       Fri Mar 27 05:59:27 2020


#       File generated by GOLD software.
#

@<TRIPOS>MOLECULE
AV-unprocessed.smi:1452
    43    45     1
SMALL
NO_CHARGES


@<TRIPOS>ATOM
      1 ****        -2.1345  -2.0353   0.0899 O.2            1 S1                 0.0000
      2 ****        -0.9550  -1.9847   0.4346 C.2            1 S1                 0.0000
      3 ****        -0.1829  -3.0924   0.4412 N.am           1 S1                 0.0000
      4 ****        -0.4709  -4.4496   0.1091 C.ar           1 S1                 0.0000
      5 ****         0.6023  -5.3438   0.3238 C.ar           1 S1                 0.0000
      6 ****         0.4386  -6.7120   0.0327 C.ar           1 S1                 0.0000
      7 ****        -0.7975  -7.1544  -0.4704 C.ar           1 S1                 0.0000
      8 ****        -1.8150  -6.2017  -0.6578 C.ar           1 S1                 0.0000
      9 ****        -1.6599  -4.8903  -0.3773 N.ar           1 S1                 0.0000
     10 ****        -0.3597  -0.8417   0.8116 N.am           1 S1                 0.0000
     11 ****        -0.9894   0.4737   0.8499 C.3            1 S1                 0.0000
     12 ****        -0.3634   1.4054   1.9027 C.3            1 S1                 0.0000
     13 ****        -0.3435   2.8030   1.2526 C.3            1 S1                 0.0000
     14 ****        -1.0279   2.6406  -0.0443 N.4            1 S1                 1.0000
     15 ****        -0.7015   3.6181  -1.1056 C.3            1 S1                 0.0000
     16 ****        -1.5722   3.3323  -2.3456 C.3            1 S1                 0.0000
     17 ****        -1.4538   1.8639  -2.8017 C.3            1 S1                 0.0000
     18 ****        -1.7135   0.8950  -1.6319 C.3            1 S1                 0.0000
     19 ****        -0.7888   1.2488  -0.4548 C.3            1 S1                 0.0000
     20 ****         0.7634  -2.9360   0.7570 H              1 S1                 0.0000
     21 ****         1.5470  -4.9890   0.7104 H              1 S1                 0.0000
     22 ****         1.2484  -7.4084   0.1921 H              1 S1                 0.0000
     23 ****        -0.9614  -8.1956  -0.7060 H              1 S1                 0.0000
     24 ****        -2.7791  -6.4992  -1.0428 H              1 S1                 0.0000
     25 ****         0.6127  -0.8914   1.0829 H              1 S1                 0.0000
     26 ****        -2.0570   0.3837   1.0619 H              1 S1                 0.0000
     27 ****        -0.9416   1.3964   2.8274 H              1 S1                 0.0000
     28 ****         0.6546   1.1006   2.1512 H              1 S1                 0.0000
     29 ****        -0.8457   3.5537   1.8633 H              1 S1                 0.0000
     30 ****         0.6865   3.1270   1.0959 H              1 S1                 0.0000
     31 ****        -0.8855   4.6295  -0.7415 H              1 S1                 0.0000
     32 ****         0.3580   3.5523  -1.3587 H              1 S1                 0.0000
     33 ****        -2.6149   3.5522  -2.1126 H              1 S1                 0.0000
     34 ****        -1.2921   4.0004  -3.1606 H              1 S1                 0.0000
     35 ****        -2.1515   1.6656  -3.6158 H              1 S1                 0.0000
     36 ****        -0.4543   1.6891  -3.2018 H              1 S1                 0.0000
     37 ****        -2.7577   0.9552  -1.3223 H              1 S1                 0.0000
     38 ****        -1.5416  -0.1316  -1.9563 H              1 S1                 0.0000
     39 ****         0.2529   1.1539  -0.7707 H              1 S1                 0.0000
     40 ****        -2.0177   2.7163   0.1419 H              1 S1                 0.0000
     41 ****        -2.5362  -2.9068  -0.1915 LP             1 S1                 0.0000
     42 ****        -2.6918  -1.2050   0.0911 LP             1 S1                 0.0000
     43 ****        -2.4131  -4.2496  -0.5263 LP             1 S1                 0.0000
@<TRIPOS>BOND
    1    1    2 2     
    2    2    3 am    
    3    2   10 am    
    4    3    4 1     
    5    3   20 1     
    6    4    9 ar    
    7    4    5 ar    
    8    5    6 ar    
    9    5   21 1     
   10    6    7 ar    
   11    6   22 1     
   12    7    8 ar    
   13    7   23 1     
   14    8    9 ar    
   15    8   24 1     
   16   10   11 1     
   17   10   25 1     
   18   11   19 1     
   19   11   12 1     
   20   11   26 1     
   21   12   13 1     
   22   12   27 1     
   23   12   28 1     
   24   13   14 1     
   25   13   29 1     
   26   13   30 1     
   27   14   19 1     
   28   14   15 1     
   29   14   40 1     
   30   15   16 1     
   31   15   31 1     
   32   15   32 1     
   33   16   17 1     
   34   16   33 1     
   35   16   34 1     
   36   17   18 1     
   37   17   35 1     
   38   17   36 1     
   39   18   19 1     
   40   18   37 1     
   41   18   38 1     
   42   19   39 1     
   43    1   41 1     
   44    1   42 1     
   45    9   43 1     
@<TRIPOS>SUBSTRUCTURE
      1 S1             1
@<TRIPOS>SET
LONE_PAIRS      STATIC     ATOMS    <user>   **** ""
3 41 42 43
DONOR_HYDROGENS      STATIC     ATOMS    <user>   **** ""
3 20 25 40
ATOM$BLUE        STATIC     ATOMS    COLORGROUP SYSTEM
3 41 42 43
ATOM$RED        STATIC     ATOMS    COLORGROUP SYSTEM
3 20 25 40
