AV-unprocessed.smi:3033|AV-procd|sdf|11574|dock2
  -GOLD-   2272016543D 1   1.00000     0.00000
 Structure written by MMmdl.
 33 34  0  0  0  0  0  0  0  0  1 V2000
  154.2641  140.3089  161.5539 C   0  0  0  0  0  0  0  0  0  0  0  0
  153.9653  140.3279  160.1656 O   0  0  0  0  0  0  0  0  0  0  0  0
  153.1752  141.3507  159.6863 C   0  0  0  0  0  0  0  0  0  0  0  0
  153.2159  142.5733  160.3862 C   0  0  0  0  0  0  0  0  0  0  0  0
  152.4504  143.6734  159.9578 C   0  0  0  0  0  0  0  0  0  0  0  0
  151.6328  143.5617  158.8188 C   0  0  0  0  0  0  0  0  0  0  0  0
  151.5753  142.3450  158.1046 C   0  0  0  0  0  0  0  0  0  0  0  0
  150.7302  142.2076  156.8409 C   0  0  1  0  0  0  0  0  0  0  0  0
  150.8835  143.2815  155.9339 O   0  0  0  0  0  0  0  0  0  0  0  0
  150.9124  140.8615  156.0890 C   0  0  0  0  0  0  0  0  0  0  0  0
  149.8941  140.5562  155.1091 N   0  0  0  0  0  0  0  0  0  0  0  0
  148.8135  141.3912  154.8637 C   0  0  0  0  0  0  0  0  0  0  0  0
  147.8260  141.0895  153.9868 C   0  0  0  0  0  0  0  0  0  0  0  0
  146.5042  142.1757  153.7487 Cl  0  0  0  0  0  0  0  0  0  0  0  0
  147.8691  139.8327  153.2407 C   0  0  0  0  0  0  0  0  0  0  0  0
  147.0298  139.4608  152.4228 O   0  0  0  0  0  0  0  0  0  0  0  0
  148.9752  139.0240  153.5191 N   0  0  0  0  0  0  0  0  0  0  0  0
  149.9944  139.3245  154.4234 C   0  0  0  0  0  0  0  0  0  0  0  0
  150.9159  138.5276  154.5972 O   0  0  0  0  0  0  0  0  0  0  0  0
  152.3428  141.2450  158.5437 C   0  0  0  0  0  0  0  0  0  0  0  0
  149.0396  138.1447  153.0270 H   0  0  0  0  0  0  0  0  0  0  0  0
  154.8743  139.4343  161.7789 H   0  0  0  0  0  0  0  0  0  0  0  0
  153.3571  140.2414  162.1564 H   0  0  0  0  0  0  0  0  0  0  0  0
  154.8313  141.1923  161.8508 H   0  0  0  0  0  0  0  0  0  0  0  0
  153.8450  142.6704  161.2590 H   0  0  0  0  0  0  0  0  0  0  0  0
  152.4957  144.6063  160.5001 H   0  0  0  0  0  0  0  0  0  0  0  0
  151.0639  144.4195  158.4909 H   0  0  0  0  0  0  0  0  0  0  0  0
  149.6862  142.2686  157.1510 H   0  0  0  0  0  0  0  0  0  0  0  0
  150.1917  143.9061  156.0894 H   0  0  0  0  0  0  0  0  0  0  0  0
  151.8364  140.9086  155.5103 H   0  0  0  0  0  0  0  0  0  0  0  0
  151.0349  139.9963  156.7451 H   0  0  0  0  0  0  0  0  0  0  0  0
  148.7438  142.3240  155.4051 H   0  0  0  0  0  0  0  0  0  0  0  0
  152.2887  140.3291  157.9752 H   0  0  0  0  0  0  0  0  0  0  0  0
  1  2  1  0  0  0  0
  1 22  1  0  0  0  0
  1 23  1  0  0  0  0
  1 24  1  0  0  0  0
  2  3  1  0  0  0  0
  3 20  1  0  0  0  0
  3  4  2  0  0  0  0
  4  5  1  0  0  0  0
  4 25  1  0  0  0  0
  5  6  2  0  0  0  0
  5 26  1  0  0  0  0
  6  7  1  0  0  0  0
  6 27  1  0  0  0  0
  7  8  1  0  0  0  0
  7 20  2  0  0  0  0
  8  9  1  0  0  0  0
  8 10  1  0  0  0  0
  8 28  1  0  0  0  0
  9 29  1  0  0  0  0
 10 11  1  0  0  0  0
 10 30  1  0  0  0  0
 10 31  1  0  0  0  0
 11 18  1  0  0  0  0
 11 12  1  0  0  0  0
 12 13  2  0  0  0  0
 12 32  1  0  0  0  0
 13 14  1  0  0  0  0
 13 15  1  0  0  0  0
 15 16  2  0  0  0  0
 15 17  1  0  0  0  0
 17 21  1  0  0  0  0
 17 18  1  0  0  0  0
 18 19  2  0  0  0  0
 20 33  1  0  0  0  0
M  END
> <s_m_source_file>
AV-unprocessed.smi

> <i_m_source_file_index>
3033

> <i_lp_mmshare_version>
43012

> <i_f3d_flags>
0

> <s_epik_input>
W0NIM11PYzFbY0hdW2NIXVtjSF1jKFtjSF0xKVtDQEhdKFtPSF0pW0NIMl1uMltjSF1jKENsKWMoPU8pW25IXWMyPU8=

> <s_epik_cmdline>
J2VwaWtfcHl0aG9uJywgJy1waCcsICc3LjAnLCAnLXRuJywgJzgnLCAnLW1hJywgJzIwMCcsICctbWV0YWxfYmluZGluZycsICctaW1hZScsICc8aW5maWxlLm1hZT4nLCAnLW9tYWUnLCAnPG91dGZpbGUubWFlPic=

> <r_lp_tautomer_probability>
0.999537

> <r_epik_Ionization_Penalty>
0.0292058

> <r_epik_Ionization_Penalty_Charging>
0.0292057

> <r_epik_Ionization_Penalty_Neutral>
7.1713e-08

> <r_epik_State_Penalty>
0.0240115

> <r_epik_Charging_Adjusted_Penalty>
0.0532172

> <i_epik_Tot_Q>
0

> <i_epik_Tot_abs_Q>
0

> <r_epik_Metal_State_Penalty>
2.21956

> <b_epik_Metal_Only>
0

> <s_lp_Force_Field>
OPLS_2005

> <r_lp_Energy>
15.9701

> <b_lp_Chiralities_Consistent>
1

> <s_lp_Variant>
AV-unprocessed.smi:3033-2

> <Gold.Version>
5.8.1

> <Gold.Id.Protein>
6NUR|6NUR_protein|mol2

> <Gold.PLP.Fitness>
48.8115

> <Gold.PLP.PLP>
-42.2014

> <Gold.PLP.part.hbond>
-2.1712

> <Gold.PLP.part.metal>
0.0000

> <Gold.PLP.part.buried>
-2.5450

> <Gold.PLP.part.nonpolar>
-39.5450

> <Gold.PLP.part.repulsive>
1.6639

> <Gold.PLP.ligand.clash>
0.0000

> <Gold.PLP.ligand.torsion>
0.6267

> <Gold.PLP.Chemscore.Hbond>
1.5850

> <Gold.PLP.Chemscore.CHOScore>
1.0000

> <Gold.PLP.Chemscore.Metal>
0.0000

> <Gold.Chemscore.Hbonds>
donor molecule, donor type, donor heavy atom, donor atom, acceptor molecule, acceptor atom, score
      L1  H     9    29       P1  8028  1.00
      L1  H    17    21       P1  7948  0.55
      L1  C    12    32       P1  8028  1.00

> <Gold.PLP.Chemscore.Internal.Correction>
0.1084

> <Gold.Rescore>
     Score         DG    S(hbond)    S(metal)    S(lipo)     H(rot)  DE(clash)    DE(int)     intcor
     14.88     -17.97       1.91        0.00     107.05       2.51       1.62       1.47       ----

> <Gold.Chemscore.Fitness>
14.8778

> <Gold.Chemscore.DG>
-17.9698

> <Gold.Chemscore.ZeroCoef>
-5.4800

> <Gold.Chemscore.Hbond>
1.9140

> <Gold.Chemscore.Metal>
0.0000

> <Gold.Chemscore.Lipo>
107.0459

> <Gold.Chemscore.Internal_Hbond>
0.0000

> <Gold.Chemscore.DEClash>
1.6189

> <Gold.Chemscore.DEInternal>
1.4731

> <Gold.Chemscore.Rot>
2.5107

> <Gold.Chemscore.Internal.Correction>
   9.000000E+99

> <Gold.Chemscore.Hbonds>
donor molecule, donor type, donor heavy atom, donor atom, acceptor molecule, acceptor atom, score
      L1  H     9    29       P1  8028  0.95
      L1  H    17    21       P1  7948  0.54

> <Gold.Chemscore.Hbond.Weighted>
-6.3929

> <Gold.Chemscore.Metal.Weighted>
-0.0000

> <Gold.Chemscore.Lipo.Weighted>
-12.5244

> <Gold.Chemscore.Internal_Hbond.Weighted>
0.0000

> <Gold.Chemscore.DEClash.Weighted>
1.6189

> <Gold.Chemscore.DEInternal.Weighted>
1.4731

> <Gold.Chemscore.Rot.Weighted>
6.4274

> <Gold.Chemscore.Internal.Correction.Weighted>
   9.000000E+99

> <Gold.Protein.RotatedTorsions>
[ 6907 6896 6895 6894 ] final  -24.95 input  -60.11 | X-H torsion
[ 7974 7965 7964 7962 ] final  154.92 input  175.53 | X-H torsion
[ 8008 7997 7996 7995 ] final   74.26 input   59.86 | X-H torsion
[ 10167 10162 10161 10158 ] final   64.28 input  -65.29 | X-H torsion
[ 10718 10713 10712 10709 ] final  -38.12 input   66.30 | X-H torsion
[ 10763 10752 10751 10750 ] final -133.30 input  -60.55 | X-H torsion
[ 11005 11000 10999 10996 ] final   12.18 input  -57.11 | X-H torsion

> <Gold.Protein.ActiveResidues>
 VAL166  LYS551  ARG553  GLY616  TRP617  ASP618  TYR619  PRO620  LYS621  CYS622 
 ASP623  PHE694  ASN695  SER759  ASP760  ASP761  ALA762  ILE779  LEU786  VAL792 
 PHE793  MET794  SER795  GLU796  ALA797  LYS798  CYS799  TRP800  GLU811  SER814 

> <Gold.Protein.RotatedAtoms>
  151.1822  135.0366  159.8796 H   0  0  0  0  0  0  0  0  0  0  0  0  # atno 6907 bound_to 6896
  152.5444  134.1050  159.8344 H   0  0  0  0  0  0  0  0  0  0  0  0  # atno 6908 bound_to 6896
  151.1168  133.5086  159.2636 H   0  0  0  0  0  0  0  0  0  0  0  0  # atno 6909 bound_to 6896
  144.8058  139.6998  143.6163 H   0  0  0  0  0  0  0  0  0  0  0  0  # atno 7974 bound_to 7965
  155.7957  140.3478  155.5374 H   0  0  0  0  0  0  0  0  0  0  0  0  # atno 8008 bound_to 7997
  155.8589  140.0968  157.1647 H   0  0  0  0  0  0  0  0  0  0  0  0  # atno 8009 bound_to 7997
  154.4011  140.1362  156.3923 H   0  0  0  0  0  0  0  0  0  0  0  0  # atno 8010 bound_to 7997
  140.1238  144.4706  150.6904 H   0  0  0  0  0  0  0  0  0  0  0  0  # atno 10167 bound_to 10162
  156.3073  130.4248  149.8084 H   0  0  0  0  0  0  0  0  0  0  0  0  # atno 10718 bound_to 10713
  154.8734  135.3770  154.4549 H   0  0  0  0  0  0  0  0  0  0  0  0  # atno 10763 bound_to 10752
  153.5222  135.7029  153.5730 H   0  0  0  0  0  0  0  0  0  0  0  0  # atno 10764 bound_to 10752
  153.3972  135.3957  155.1929 H   0  0  0  0  0  0  0  0  0  0  0  0  # atno 10765 bound_to 10752
  140.4949  134.0804  155.7780 H   0  0  0  0  0  0  0  0  0  0  0  0  # atno 11005 bound_to 11000
  146.2348  139.5885  142.9531 LP  0  0  0  0  0  0  0  0  0  0  0  0  # atno 17320 bound_to 7965
  145.5443  141.0418  143.2313 LP  0  0  0  0  0  0  0  0  0  0  0  0  # atno 17321 bound_to 7965
  140.6856  143.2348  151.5268 LP  0  0  0  0  0  0  0  0  0  0  0  0  # atno 17342 bound_to 10162
  139.5555  144.2288  152.1604 LP  0  0  0  0  0  0  0  0  0  0  0  0  # atno 17343 bound_to 10162
  156.5440  130.8312  151.3278 LP  0  0  0  0  0  0  0  0  0  0  0  0  # atno 17370 bound_to 10713
  157.7383  130.9810  150.2242 LP  0  0  0  0  0  0  0  0  0  0  0  0  # atno 17371 bound_to 10713
  141.1465  133.9045  157.2202 LP  0  0  0  0  0  0  0  0  0  0  0  0  # atno 17394 bound_to 11000
  139.9747  135.0117  156.9602 LP  0  0  0  0  0  0  0  0  0  0  0  0  # atno 17395 bound_to 11000

$$$$
