AV-unprocessed.smi:3237|AV-procd|sdf|12367|dock5
  -GOLD-   2272018223D 1   1.00000     0.00000
 Structure written by MMmdl.
 36 38  0  0  0  0  0  0  0  0  3 V2000
  153.7813  135.9239  164.0544 C   0  0  0  0  0  0  0  0  0  0  0  0
  153.6113  136.2095  162.6013 C   0  0  0  0  0  0  0  0  0  0  0  0
  153.3402  137.3540  161.9068 C   0  0  0  0  0  0  0  0  0  0  0  0
  153.3213  136.9166  160.5543 C   0  0  0  0  0  0  0  0  0  0  0  0
  153.0827  137.6866  159.4813 N   0  5  0  0  0  0  0  0  0  0  0  0
  153.6253  138.9223  159.3982 C   0  0  0  0  0  0  0  0  0  0  0  0
  154.5570  139.2661  158.6671 O   0  0  0  0  0  0  0  0  0  0  0  0
  153.0554  139.8173  160.2169 N   0  0  0  0  0  0  0  0  0  0  0  0
  153.4437  141.2179  160.3386 C   0  0  2  0  0  0  0  0  0  0  0  0
  152.7382  141.9749  161.4669 C   0  0  0  0  0  0  0  0  0  0  0  0
  152.6742  143.4291  160.9724 C   0  0  0  0  0  0  0  0  0  0  0  0
  153.1129  143.4212  159.5572 N   0  3  2  0  0  0  0  0  0  0  0  0
  152.3865  144.3721  158.6897 C   0  0  0  0  0  0  0  0  0  0  0  0
  151.9246  145.6161  159.4102 C   0  0  0  0  0  0  0  0  0  0  0  0
  150.9304  144.5311  159.0565 C   0  0  0  0  0  0  0  0  0  0  0  0
  153.0519  142.0212  159.1032 C   0  0  0  0  0  0  0  0  0  0  0  0
  153.5449  135.6181  160.4393 N   0  0  0  0  0  0  0  0  0  0  0  0
  153.7399  135.1584  161.7473 O   0  0  0  0  0  0  0  0  0  0  0  0
  152.9893  136.3965  164.6353 H   0  0  0  0  0  0  0  0  0  0  0  0
  154.7372  136.3061  164.4124 H   0  0  0  0  0  0  0  0  0  0  0  0
  153.7497  134.8522  164.2510 H   0  0  0  0  0  0  0  0  0  0  0  0
  153.1838  138.3467  162.3015 H   0  0  0  0  0  0  0  0  0  0  0  0
  152.2949  139.4953  160.7977 H   0  0  0  0  0  0  0  0  0  0  0  0
  154.5249  141.2883  160.4742 H   0  0  0  0  0  0  0  0  0  0  0  0
  151.7258  141.5924  161.6064 H   0  0  0  0  0  0  0  0  0  0  0  0
  153.2614  141.8793  162.4188 H   0  0  0  0  0  0  0  0  0  0  0  0
  151.6586  143.8150  161.0727 H   0  0  0  0  0  0  0  0  0  0  0  0
  153.3341  144.0779  161.5490 H   0  0  0  0  0  0  0  0  0  0  0  0
  152.7008  144.4187  157.6485 H   0  0  0  0  0  0  0  0  0  0  0  0
  152.1904  145.7323  160.4595 H   0  0  0  0  0  0  0  0  0  0  0  0
  151.8785  146.5401  158.8373 H   0  0  0  0  0  0  0  0  0  0  0  0
  150.2299  144.7397  158.2503 H   0  0  0  0  0  0  0  0  0  0  0  0
  150.5348  143.9262  159.8706 H   0  0  0  0  0  0  0  0  0  0  0  0
  153.7180  141.8432  158.2584 H   0  0  0  0  0  0  0  0  0  0  0  0
  152.0337  141.7768  158.7935 H   0  0  0  0  0  0  0  0  0  0  0  0
  154.0892  143.6798  159.5567 H   0  0  0  0  0  0  0  0  0  0  0  0
  1  2  1  0  0  0  0
  1 19  1  0  0  0  0
  1 20  1  0  0  0  0
  1 21  1  0  0  0  0
  2 18  1  0  0  0  0
  2  3  2  0  0  0  0
  3  4  1  0  0  0  0
  3 22  1  0  0  0  0
  4  5  1  0  0  0  0
  4 17  2  0  0  0  0
  5  6  1  0  0  0  0
  6  7  2  0  0  0  0
  6  8  1  0  0  0  0
  8  9  1  0  0  0  0
  8 23  1  0  0  0  0
  9 16  1  0  0  0  0
  9 10  1  0  0  0  0
  9 24  1  0  0  0  0
 10 11  1  0  0  0  0
 10 25  1  0  0  0  0
 10 26  1  0  0  0  0
 11 12  1  0  0  0  0
 11 27  1  0  0  0  0
 11 28  1  0  0  0  0
 12 13  1  0  0  0  0
 12 16  1  0  0  0  0
 12 36  1  0  0  0  0
 13 15  1  0  0  0  0
 13 14  1  0  0  0  0
 13 29  1  0  0  0  0
 14 15  1  0  0  0  0
 14 30  1  0  0  0  0
 14 31  1  0  0  0  0
 15 32  1  0  0  0  0
 15 33  1  0  0  0  0
 16 34  1  0  0  0  0
 16 35  1  0  0  0  0
 17 18  1  0  0  0  0
M  CHG  1   5  -1
M  CHG  1  12   1
M  END
> <s_m_source_file>
AV-unprocessed.smi

> <i_m_source_file_index>
3237

> <i_lp_mmshare_version>
43012

> <i_f3d_flags>
0

> <s_epik_input>
W0NIM11jMVtjSF1jKG5vMSlbTkhdQyg9TylbTkhdW0NAQEhdMltDSDJdW0NIMl1OKFtDSDJdMilbQ0hdM1tDSDJdW0NIMl0z

> <s_epik_cmdline>
J2VwaWtfcHl0aG9uJywgJy1waCcsICc3LjAnLCAnLXRuJywgJzgnLCAnLW1hJywgJzIwMCcsICctbWV0YWxfYmluZGluZycsICctaW1hZScsICc8aW5maWxlLm1hZT4nLCAnLW9tYWUnLCAnPG91dGZpbGUubWFlPic=

> <r_epik_Ionization_Penalty>
6.08472

> <r_epik_Ionization_Penalty_Charging>
6.08464

> <r_epik_Ionization_Penalty_Neutral>
8.41751e-05

> <r_epik_State_Penalty>
6.08438

> <r_epik_Charging_Adjusted_Penalty>
12.169

> <i_epik_Tot_Q>
0

> <i_epik_Tot_abs_Q>
2

> <r_epik_Metal_State_Penalty>
2.0369

> <b_epik_Metal_Only>
1

> <s_lp_Force_Field>
OPLS_2005

> <r_lp_Energy>
23.7168

> <b_lp_Chiralities_Consistent>
1

> <s_lp_Variant>
AV-unprocessed.smi:3237-5

> <Gold.Version>
5.8.1

> <Gold.Id.Protein>
6NUR|6NUR_protein|mol2

> <Gold.PLP.Fitness>
43.8598

> <Gold.PLP.PLP>
-40.0205

> <Gold.PLP.part.hbond>
-2.0000

> <Gold.PLP.part.metal>
0.0000

> <Gold.PLP.part.buried>
-5.2016

> <Gold.PLP.part.nonpolar>
-33.8069

> <Gold.PLP.part.repulsive>
0.0912

> <Gold.PLP.ligand.clash>
0.0000

> <Gold.PLP.ligand.torsion>
1.7155

> <Gold.PLP.Chemscore.Hbond>
2.0000

> <Gold.PLP.Chemscore.CHOScore>
0.0000

> <Gold.PLP.Chemscore.Metal>
0.0000

> <Gold.Chemscore.Hbonds>
donor molecule, donor type, donor heavy atom, donor atom, acceptor molecule, acceptor atom, score
      P1  H  6896  6908       L1    17  0.90
      P1  H  7997  8008       L1     7  1.00

> <Gold.PLP.Chemscore.Internal.Correction>
1.2703

> <Gold.Rescore>
     Score         DG    S(hbond)    S(metal)    S(lipo)     H(rot)  DE(clash)    DE(int)     intcor
     19.20     -21.28       1.92        0.00     107.39       1.25       0.43       1.65       ----

> <Gold.Chemscore.Fitness>
19.1994

> <Gold.Chemscore.DG>
-21.2797

> <Gold.Chemscore.ZeroCoef>
-5.4800

> <Gold.Chemscore.Hbond>
1.9240

> <Gold.Chemscore.Metal>
0.0000

> <Gold.Chemscore.Lipo>
107.3877

> <Gold.Chemscore.Internal_Hbond>
0.0000

> <Gold.Chemscore.DEClash>
0.4330

> <Gold.Chemscore.DEInternal>
1.6473

> <Gold.Chemscore.Rot>
1.2464

> <Gold.Chemscore.Internal.Correction>
   9.000000E+99

> <Gold.Chemscore.Hbonds>
donor molecule, donor type, donor heavy atom, donor atom, acceptor molecule, acceptor atom, score
      P1  H  6896  6908       L1    17  0.19
      P1  H  7997  8008       L1     7  0.99

> <Gold.Chemscore.Hbond.Weighted>
-6.4262

> <Gold.Chemscore.Metal.Weighted>
-0.0000

> <Gold.Chemscore.Lipo.Weighted>
-12.5644

> <Gold.Chemscore.Internal_Hbond.Weighted>
0.0000

> <Gold.Chemscore.DEClash.Weighted>
0.4330

> <Gold.Chemscore.DEInternal.Weighted>
1.6473

> <Gold.Chemscore.Rot.Weighted>
3.1909

> <Gold.Chemscore.Internal.Correction.Weighted>
   9.000000E+99

> <Gold.Protein.RotatedTorsions>
[ 6907 6896 6895 6894 ] final  -58.45 input  -60.11 | X-H torsion
[ 7974 7965 7964 7962 ] final  153.10 input  175.53 | X-H torsion
[ 8008 7997 7996 7995 ] final -104.54 input   59.86 | X-H torsion
[ 10167 10162 10161 10158 ] final  105.41 input  -65.29 | X-H torsion
[ 10718 10713 10712 10709 ] final  153.91 input   66.30 | X-H torsion
[ 10763 10752 10751 10750 ] final  -84.42 input  -60.55 | X-H torsion
[ 11005 11000 10999 10996 ] final  -11.13 input  -57.11 | X-H torsion

> <Gold.Protein.ActiveResidues>
 VAL166  LYS551  ARG553  GLY616  TRP617  ASP618  TYR619  PRO620  LYS621  CYS622 
 ASP623  PHE694  ASN695  SER759  ASP760  ASP761  ALA762  ILE779  LEU786  VAL792 
 PHE793  MET794  SER795  GLU796  ALA797  LYS798  CYS799  TRP800  GLU811  SER814 

> <Gold.Protein.RotatedAtoms>
  150.8006  134.7097  159.6596 H   0  0  0  0  0  0  0  0  0  0  0  0  # atno 6907 bound_to 6896
  152.4123  134.6100  160.0033 H   0  0  0  0  0  0  0  0  0  0  0  0  # atno 6908 bound_to 6896
  151.6340  133.3293  159.3151 H   0  0  0  0  0  0  0  0  0  0  0  0  # atno 6909 bound_to 6896
  144.8177  139.6755  143.6114 H   0  0  0  0  0  0  0  0  0  0  0  0  # atno 7974 bound_to 7965
  154.8868  140.0417  157.1815 H   0  0  0  0  0  0  0  0  0  0  0  0  # atno 8008 bound_to 7997
  154.8581  140.2940  155.5535 H   0  0  0  0  0  0  0  0  0  0  0  0  # atno 8009 bound_to 7997
  156.2998  140.2452  156.3551 H   0  0  0  0  0  0  0  0  0  0  0  0  # atno 8010 bound_to 7997
  139.7094  144.7080  151.1051 H   0  0  0  0  0  0  0  0  0  0  0  0  # atno 10167 bound_to 10162
  157.2386  131.0754  151.1807 H   0  0  0  0  0  0  0  0  0  0  0  0  # atno 10718 bound_to 10713
  154.5992  135.5521  153.7357 H   0  0  0  0  0  0  0  0  0  0  0  0  # atno 10763 bound_to 10752
  153.0148  135.6362  154.1738 H   0  0  0  0  0  0  0  0  0  0  0  0  # atno 10764 bound_to 10752
  154.1678  135.2893  155.3070 H   0  0  0  0  0  0  0  0  0  0  0  0  # atno 10765 bound_to 10752
  140.7521  133.8584  155.9053 H   0  0  0  0  0  0  0  0  0  0  0  0  # atno 11005 bound_to 11000
  146.2482  139.6142  142.9445 LP  0  0  0  0  0  0  0  0  0  0  0  0  # atno 17320 bound_to 7965
  145.5175  141.0433  143.2453 LP  0  0  0  0  0  0  0  0  0  0  0  0  # atno 17321 bound_to 7965
  140.7729  143.5313  150.9420 LP  0  0  0  0  0  0  0  0  0  0  0  0  # atno 17342 bound_to 10162
  139.8997  143.6851  152.3133 LP  0  0  0  0  0  0  0  0  0  0  0  0  # atno 17343 bound_to 10162
  157.3403  130.7030  149.6377 LP  0  0  0  0  0  0  0  0  0  0  0  0  # atno 17370 bound_to 10713
  155.9671  130.4282  150.4777 LP  0  0  0  0  0  0  0  0  0  0  0  0  # atno 17371 bound_to 10713
  140.9742  134.1492  157.4551 LP  0  0  0  0  0  0  0  0  0  0  0  0  # atno 17394 bound_to 11000
  139.8786  134.9989  156.5923 LP  0  0  0  0  0  0  0  0  0  0  0  0  # atno 17395 bound_to 11000

$$$$
