#       Name:                AV-unprocessed.smi:2849
#       Creating user name   scv26
#       Creation time:       Fri Mar 27 15:41:21 2020


#       File generated by GOLD software.
#

@<TRIPOS>MOLECULE
AV-unprocessed.smi:2849
    58    61     1
SMALL
NO_CHARGES


@<TRIPOS>ATOM
      1 ****        -3.8537  -4.4262   0.2530 C.3            1 S1                 0.0000
      2 ****        -4.6056  -3.1545   0.1305 N.4            1 S1                 1.0000
      3 ****        -4.5537  -2.5263  -1.2121 C.3            1 S1                 0.0000
      4 ****        -5.6977  -1.4911  -1.3245 C.3            1 S1                 0.0000
      5 ****        -5.7165  -0.4553  -0.1817 C.3            1 S1                 0.0000
      6 ****        -5.4346  -1.0915   1.1950 C.3            1 S1                 0.0000
      7 ****        -4.3045  -2.1476   1.1770 C.3            1 S1                 0.0000
      8 ****        -2.8778  -1.5682   1.0072 C.3            1 S1                 0.0000
      9 ****        -2.5554  -1.0553  -0.4178 C.3            1 S1                 0.0000
     10 ****        -1.1091  -0.9518  -0.5997 N.am           1 S1                 0.0000
     11 ****        -0.3456   0.0655  -0.1741 C.2            1 S1                 0.0000
     12 ****        -0.7922   1.0301   0.4454 O.2            1 S1                 0.0000
     13 ****         0.9407  -0.1222  -0.5169 N.am           1 S1                 0.0000
     14 ****         2.0668   0.7233  -0.3133 C.ar           1 S1                 0.0000
     15 ****         2.0556   1.9361   0.4162 C.ar           1 S1                 0.0000
     16 ****         3.2490   2.6747   0.5324 C.ar           1 S1                 0.0000
     17 ****         4.4278   2.1840  -0.0767 C.ar           1 S1                 0.0000
     18 ****         5.6398   2.8972   0.0080 N.pl3          1 S1                 0.0000
     19 ****         6.8947   2.3419  -0.4742 C.3            1 S1                 0.0000
     20 ****         7.9481   3.3785  -0.0871 C.3            1 S1                 0.0000
     21 ****         7.3963   3.9632   1.2132 C.3            1 S1                 0.0000
     22 ****         5.8746   3.9035   1.0343 C.3            1 S1                 0.0000
     23 ****         4.4371   1.0236  -0.7739 N.ar           1 S1                 0.0000
     24 ****         3.2913   0.3200  -0.8825 C.ar           1 S1                 0.0000
     25 ****        -3.1403  -1.9698  -1.5184 C.3            1 S1                 0.0000
     26 ****        -2.7817  -4.2894   0.1138 H              1 S1                 0.0000
     27 ****        -4.2012  -5.1446  -0.4900 H              1 S1                 0.0000
     28 ****        -4.0123  -4.8681   1.2371 H              1 S1                 0.0000
     29 ****        -4.7647  -3.3010  -1.9508 H              1 S1                 0.0000
     30 ****        -5.6603  -0.9833  -2.2890 H              1 S1                 0.0000
     31 ****        -6.6462  -2.0299  -1.3093 H              1 S1                 0.0000
     32 ****        -5.0088   0.3443  -0.3821 H              1 S1                 0.0000
     33 ****        -6.6867   0.0419  -0.1590 H              1 S1                 0.0000
     34 ****        -5.2187  -0.3143   1.9288 H              1 S1                 0.0000
     35 ****        -6.3487  -1.5777   1.5378 H              1 S1                 0.0000
     36 ****        -4.3377  -2.6512   2.1442 H              1 S1                 0.0000
     37 ****        -2.7126  -0.7720   1.7343 H              1 S1                 0.0000
     38 ****        -2.1626  -2.3486   1.2707 H              1 S1                 0.0000
     39 ****        -2.9690  -0.0578  -0.5453 H              1 S1                 0.0000
     40 ****        -0.6577  -1.7041  -1.0995 H              1 S1                 0.0000
     41 ****         1.1369  -0.9714  -1.0262 H              1 S1                 0.0000
     42 ****         1.1681   2.3227   0.8900 H              1 S1                 0.0000
     43 ****         3.2408   3.6060   1.0787 H              1 S1                 0.0000
     44 ****         7.0869   1.3913   0.0250 H              1 S1                 0.0000
     45 ****         6.8742   2.1704  -1.5510 H              1 S1                 0.0000
     46 ****         8.9449   2.9511   0.0240 H              1 S1                 0.0000
     47 ****         7.9970   4.1574  -0.8492 H              1 S1                 0.0000
     48 ****         7.6903   3.3277   2.0498 H              1 S1                 0.0000
     49 ****         7.7601   4.9710   1.4148 H              1 S1                 0.0000
     50 ****         5.4884   4.8611   0.6836 H              1 S1                 0.0000
     51 ****         5.3812   3.6571   1.9752 H              1 S1                 0.0000
     52 ****         3.3561  -0.5976  -1.4491 H              1 S1                 0.0000
     53 ****        -2.4699  -2.8174  -1.6674 H              1 S1                 0.0000
     54 ****        -3.1472  -1.4404  -2.4719 H              1 S1                 0.0000
     55 ****        -5.5714  -3.4137   0.2728 H              1 S1                 0.0000
     56 ****        -1.7688   1.0815   0.6542 LP             1 S1                 0.0000
     57 ****        -0.1786   1.7626   0.7401 LP             1 S1                 0.0000
     58 ****         5.2789   0.6937  -1.2011 LP             1 S1                 0.0000
@<TRIPOS>BOND
    1    1    2 1     
    2    1   26 1     
    3    1   27 1     
    4    1   28 1     
    5    2    7 1     
    6    2    3 1     
    7    2   55 1     
    8    3   25 1     
    9    3    4 1     
   10    3   29 1     
   11    4    5 1     
   12    4   30 1     
   13    4   31 1     
   14    5    6 1     
   15    5   32 1     
   16    5   33 1     
   17    6    7 1     
   18    6   34 1     
   19    6   35 1     
   20    7    8 1     
   21    7   36 1     
   22    8    9 1     
   23    8   37 1     
   24    8   38 1     
   25    9   10 1     
   26    9   25 1     
   27    9   39 1     
   28   10   11 am    
   29   10   40 1     
   30   11   12 2     
   31   11   13 am    
   32   13   14 1     
   33   13   41 1     
   34   14   24 ar    
   35   14   15 ar    
   36   15   16 ar    
   37   15   42 1     
   38   16   17 ar    
   39   16   43 1     
   40   17   18 1     
   41   17   23 ar    
   42   18   22 1     
   43   18   19 1     
   44   19   20 1     
   45   19   44 1     
   46   19   45 1     
   47   20   21 1     
   48   20   46 1     
   49   20   47 1     
   50   21   22 1     
   51   21   48 1     
   52   21   49 1     
   53   22   50 1     
   54   22   51 1     
   55   23   24 ar    
   56   24   52 1     
   57   25   53 1     
   58   25   54 1     
   59   12   56 1     
   60   12   57 1     
   61   23   58 1     
@<TRIPOS>SUBSTRUCTURE
      1 S1             1
@<TRIPOS>SET
LONE_PAIRS      STATIC     ATOMS    <user>   **** ""
3 56 57 58
DONOR_HYDROGENS      STATIC     ATOMS    <user>   **** ""
3 55 40 41
ATOM$BLUE        STATIC     ATOMS    COLORGROUP SYSTEM
3 56 57 58
ATOM$RED        STATIC     ATOMS    COLORGROUP SYSTEM
3 55 40 41
