AV-unprocessed.smi:2471|AV-procd|sdf|9738|dock5
  -GOLD-   2272013373D 1   1.00000     0.00000
 Structure written by MMmdl.
 40 41  0  0  0  0  0  0  0  0  1 V2000
  153.6515  141.3225  160.1322 C   0  0  0  0  0  0  0  0  0  0  0  0
  152.8320  142.4768  159.5942 C   0  0  0  0  0  0  0  0  0  0  0  0
  152.8822  143.7462  160.2026 C   0  0  0  0  0  0  0  0  0  0  0  0
  152.0996  144.7765  159.6512 C   0  0  0  0  0  0  0  0  0  0  0  0
  151.3057  144.4974  158.5219 C   0  0  0  0  0  0  0  0  0  0  0  0
  151.3144  143.1964  157.9703 C   0  0  0  0  0  0  0  0  0  0  0  0
  150.4860  143.0197  156.8297 N   0  0  0  0  0  0  0  0  0  0  0  0
  150.2982  141.9023  156.1051 C   0  0  0  0  0  0  0  0  0  0  0  0
  150.8070  140.8058  156.3408 O   0  0  0  0  0  0  0  0  0  0  0  0
  149.4725  142.1248  155.0722 N   0  0  0  0  0  0  0  0  0  0  0  0
  149.0710  141.1199  154.0920 C   0  0  0  0  0  0  0  0  0  0  0  0
  148.0285  140.1264  154.6536 C   0  0  1  0  0  0  0  0  0  0  0  0
  146.7461  140.8232  155.1626 C   0  0  0  0  0  0  0  0  0  0  0  0
  145.7496  139.8133  155.7538 C   0  0  0  0  0  0  0  0  0  0  0  0
  145.4006  138.7113  154.7427 C   0  0  0  0  0  0  0  0  0  0  0  0
  146.6670  138.0072  154.2259 C   0  0  0  0  0  0  0  0  0  0  0  0
  147.6886  139.0034  153.6435 C   0  0  1  0  0  0  0  0  0  0  0  0
  147.1817  139.5371  152.4342 O   0  0  0  0  0  0  0  0  0  0  0  0
  152.0720  142.2093  158.5104 N   0  0  0  0  0  0  0  0  0  0  0  0
  154.0374  141.5439  161.1276 H   0  0  0  0  0  0  0  0  0  0  0  0
  154.4970  141.1225  159.4738 H   0  0  0  0  0  0  0  0  0  0  0  0
  153.0450  140.4185  160.1976 H   0  0  0  0  0  0  0  0  0  0  0  0
  153.5035  143.9283  161.0672 H   0  0  0  0  0  0  0  0  0  0  0  0
  152.1087  145.7653  160.0856 H   0  0  0  0  0  0  0  0  0  0  0  0
  150.7002  145.2785  158.0854 H   0  0  0  0  0  0  0  0  0  0  0  0
  149.9935  143.8440  156.5197 H   0  0  0  0  0  0  0  0  0  0  0  0
  149.0960  143.0538  154.9522 H   0  0  0  0  0  0  0  0  0  0  0  0
  148.6640  141.6442  153.2272 H   0  0  0  0  0  0  0  0  0  0  0  0
  149.9528  140.5839  153.7366 H   0  0  0  0  0  0  0  0  0  0  0  0
  148.4863  139.6358  155.5143 H   0  0  0  0  0  0  0  0  0  0  0  0
  146.9927  141.5632  155.9243 H   0  0  0  0  0  0  0  0  0  0  0  0
  146.2721  141.3703  154.3467 H   0  0  0  0  0  0  0  0  0  0  0  0
  146.1756  139.3635  156.6515 H   0  0  0  0  0  0  0  0  0  0  0  0
  144.8415  140.3287  156.0679 H   0  0  0  0  0  0  0  0  0  0  0  0
  144.7335  137.9825  155.2036 H   0  0  0  0  0  0  0  0  0  0  0  0
  144.8511  139.1436  153.9056 H   0  0  0  0  0  0  0  0  0  0  0  0
  147.1306  137.4634  155.0499 H   0  0  0  0  0  0  0  0  0  0  0  0
  146.4009  137.2571  153.4801 H   0  0  0  0  0  0  0  0  0  0  0  0
  148.6008  138.4598  153.3944 H   0  0  0  0  0  0  0  0  0  0  0  0
  147.9054  139.6821  151.8442 H   0  0  0  0  0  0  0  0  0  0  0  0
  1  2  1  0  0  0  0
  1 20  1  0  0  0  0
  1 21  1  0  0  0  0
  1 22  1  0  0  0  0
  2 19  1  0  0  0  0
  2  3  2  0  0  0  0
  3  4  1  0  0  0  0
  3 23  1  0  0  0  0
  4  5  2  0  0  0  0
  4 24  1  0  0  0  0
  5  6  1  0  0  0  0
  5 25  1  0  0  0  0
  6  7  1  0  0  0  0
  6 19  2  0  0  0  0
  7  8  1  0  0  0  0
  7 26  1  0  0  0  0
  8  9  2  0  0  0  0
  8 10  1  0  0  0  0
 10 11  1  0  0  0  0
 10 27  1  0  0  0  0
 11 12  1  0  0  0  0
 11 28  1  0  0  0  0
 11 29  1  0  0  0  0
 12 17  1  0  0  0  0
 12 13  1  0  0  0  0
 12 30  1  0  0  0  0
 13 14  1  0  0  0  0
 13 31  1  0  0  0  0
 13 32  1  0  0  0  0
 14 15  1  0  0  0  0
 14 33  1  0  0  0  0
 14 34  1  0  0  0  0
 15 16  1  0  0  0  0
 15 35  1  0  0  0  0
 15 36  1  0  0  0  0
 16 17  1  0  0  0  0
 16 37  1  0  0  0  0
 16 38  1  0  0  0  0
 17 18  1  0  0  0  0
 17 39  1  0  0  0  0
 18 40  1  0  0  0  0
M  END
> <s_m_source_file>
AV-unprocessed.smi

> <i_m_source_file_index>
2471

> <i_lp_mmshare_version>
43012

> <i_f3d_flags>
0

> <s_epik_input>
W0NIM11jMVtjSF1bY0hdW2NIXWMobjEpW05IXUMoPU8pW05IXVtDSDJdW0NAQEhdMltDSDJdW0NIMl1bQ0gyXVtDSDJdW0NASF0yW09IXQ==

> <s_epik_cmdline>
J2VwaWtfcHl0aG9uJywgJy1waCcsICc3LjAnLCAnLXRuJywgJzgnLCAnLW1hJywgJzIwMCcsICctbWV0YWxfYmluZGluZycsICctaW1hZScsICc8aW5maWxlLm1hZT4nLCAnLW9tYWUnLCAnPG91dGZpbGUubWFlPic=

> <r_lp_tautomer_probability>
1

> <r_epik_Ionization_Penalty>
8.52237e-05

> <r_epik_Ionization_Penalty_Charging>
0

> <r_epik_Ionization_Penalty_Neutral>
8.52237e-05

> <r_epik_State_Penalty>
-0

> <r_epik_Charging_Adjusted_Penalty>
0

> <i_epik_Tot_Q>
0

> <i_epik_Tot_abs_Q>
0

> <r_epik_Metal_State_Penalty>
-0

> <b_epik_Metal_Only>
0

> <s_lp_Force_Field>
OPLS_2005

> <r_lp_Energy>
16.6086

> <b_lp_Chiralities_Consistent>
1

> <s_lp_Variant>
AV-unprocessed.smi:2471-2

> <Gold.Version>
5.8.1

> <Gold.Id.Protein>
6NUR|6NUR_protein|mol2

> <Gold.PLP.Fitness>
44.7299

> <Gold.PLP.PLP>
-36.0468

> <Gold.PLP.part.hbond>
-3.0000

> <Gold.PLP.part.metal>
0.0000

> <Gold.PLP.part.buried>
-3.5563

> <Gold.PLP.part.nonpolar>
-28.8872

> <Gold.PLP.part.repulsive>
0.2795

> <Gold.PLP.ligand.clash>
0.0000

> <Gold.PLP.ligand.torsion>
0.1042

> <Gold.PLP.Chemscore.Hbond>
2.9600

> <Gold.PLP.Chemscore.CHOScore>
0.0000

> <Gold.PLP.Chemscore.Metal>
0.0000

> <Gold.Chemscore.Hbonds>
donor molecule, donor type, donor heavy atom, donor atom, acceptor molecule, acceptor atom, score
      L1  H     7    26       P1  8028  1.00
      L1  H    10    27       P1  8028  0.96
      L1  H    18    40       P1  7957  1.00

> <Gold.PLP.Chemscore.Internal.Correction>
0.0115

> <Gold.Rescore>
     Score         DG    S(hbond)    S(metal)    S(lipo)     H(rot)  DE(clash)    DE(int)     intcor
     19.41     -20.84       2.93        0.00      85.57       1.73       0.02       1.41       ----

> <Gold.Chemscore.Fitness>
19.4117

> <Gold.Chemscore.DG>
-20.8428

> <Gold.Chemscore.ZeroCoef>
-5.4800

> <Gold.Chemscore.Hbond>
2.9310

> <Gold.Chemscore.Metal>
0.0000

> <Gold.Chemscore.Lipo>
85.5714

> <Gold.Chemscore.Internal_Hbond>
0.0000

> <Gold.Chemscore.DEClash>
0.0232

> <Gold.Chemscore.DEInternal>
1.4079

> <Gold.Chemscore.Rot>
1.7339

> <Gold.Chemscore.Internal.Correction>
   9.000000E+99

> <Gold.Chemscore.Hbonds>
donor molecule, donor type, donor heavy atom, donor atom, acceptor molecule, acceptor atom, score
      L1  H     7    26       P1  8028  0.99
      L1  H    10    27       P1  8028  0.92
      L1  H    18    40       P1  7957  1.00

> <Gold.Chemscore.Hbond.Weighted>
-9.7896

> <Gold.Chemscore.Metal.Weighted>
-0.0000

> <Gold.Chemscore.Lipo.Weighted>
-10.0119

> <Gold.Chemscore.Internal_Hbond.Weighted>
0.0000

> <Gold.Chemscore.DEClash.Weighted>
0.0232

> <Gold.Chemscore.DEInternal.Weighted>
1.4079

> <Gold.Chemscore.Rot.Weighted>
4.4387

> <Gold.Chemscore.Internal.Correction.Weighted>
   9.000000E+99

> <Gold.Protein.RotatedTorsions>
[ 6907 6896 6895 6894 ] final -165.56 input  -60.11 | X-H torsion
[ 7974 7965 7964 7962 ] final -106.70 input  175.53 | X-H torsion
[ 8008 7997 7996 7995 ] final    5.25 input   59.86 | X-H torsion
[ 10167 10162 10161 10158 ] final  -96.01 input  -65.29 | X-H torsion
[ 10718 10713 10712 10709 ] final  118.54 input   66.30 | X-H torsion
[ 10763 10752 10751 10750 ] final   21.96 input  -60.55 | X-H torsion
[ 11005 11000 10999 10996 ] final   95.67 input  -57.11 | X-H torsion

> <Gold.Protein.ActiveResidues>
 VAL166  LYS551  ARG553  GLY616  TRP617  ASP618  TYR619  PRO620  LYS621  CYS622 
 ASP623  PHE694  ASN695  SER759  ASP760  ASP761  ALA762  ILE779  LEU786  VAL792 
 PHE793  MET794  SER795  GLU796  ALA797  LYS798  CYS799  TRP800  GLU811  SER814 

> <Gold.Protein.RotatedAtoms>
  151.4296  133.3674  159.2766 H   0  0  0  0  0  0  0  0  0  0  0  0  # atno 6907 bound_to 6896
  150.9235  134.8653  159.7515 H   0  0  0  0  0  0  0  0  0  0  0  0  # atno 6908 bound_to 6896
  152.4993  134.4235  159.9540 H   0  0  0  0  0  0  0  0  0  0  0  0  # atno 6909 bound_to 6896
  145.2146  140.9110  143.3295 H   0  0  0  0  0  0  0  0  0  0  0  0  # atno 7974 bound_to 7965
  154.7261  140.2721  155.6498 H   0  0  0  0  0  0  0  0  0  0  0  0  # atno 8008 bound_to 7997
  156.2837  140.2725  156.1872 H   0  0  0  0  0  0  0  0  0  0  0  0  # atno 8009 bound_to 7997
  155.0443  140.0371  157.2511 H   0  0  0  0  0  0  0  0  0  0  0  0  # atno 8010 bound_to 7997
  140.2983  143.3178  152.0275 H   0  0  0  0  0  0  0  0  0  0  0  0  # atno 10167 bound_to 10162
  157.6023  131.1049  150.7770 H   0  0  0  0  0  0  0  0  0  0  0  0  # atno 10718 bound_to 10713
  153.0953  135.6658  153.9775 H   0  0  0  0  0  0  0  0  0  0  0  0  # atno 10763 bound_to 10752
  153.9360  135.2999  155.3445 H   0  0  0  0  0  0  0  0  0  0  0  0  # atno 10764 bound_to 10752
  154.7371  135.5096  153.9134 H   0  0  0  0  0  0  0  0  0  0  0  0  # atno 10765 bound_to 10752
  139.8787  134.8911  156.4045 H   0  0  0  0  0  0  0  0  0  0  0  0  # atno 11005 bound_to 11000
  144.9823  139.3771  143.6256 LP  0  0  0  0  0  0  0  0  0  0  0  0  # atno 17320 bound_to 7965
  146.3390  139.8970  142.8800 LP  0  0  0  0  0  0  0  0  0  0  0  0  # atno 17321 bound_to 7965
  139.4921  144.6475  151.6747 LP  0  0  0  0  0  0  0  0  0  0  0  0  # atno 17342 bound_to 10162
  140.5673  144.0168  150.6199 LP  0  0  0  0  0  0  0  0  0  0  0  0  # atno 17343 bound_to 10162
  156.8166  130.4970  149.5348 LP  0  0  0  0  0  0  0  0  0  0  0  0  # atno 17370 bound_to 10713
  156.1100  130.6033  151.0032 LP  0  0  0  0  0  0  0  0  0  0  0  0  # atno 17371 bound_to 10713
  140.9243  133.7623  155.9946 LP  0  0  0  0  0  0  0  0  0  0  0  0  # atno 17394 bound_to 11000
  140.8403  134.3074  157.5316 LP  0  0  0  0  0  0  0  0  0  0  0  0  # atno 17395 bound_to 11000

$$$$
