AV-unprocessed.smi:2772|AV-procd|sdf|10672|dock4
  -GOLD-   2272015123D 1   1.00000     0.00000
 Structure written by MMmdl.
 56 58  0  0  0  0  0  0  0  0  4 V2000
  152.0099  144.7156  158.5621 C   0  0  0  0  0  0  0  0  0  0  0  0
  151.6020  143.3068  158.1861 C   0  0  0  0  0  0  0  0  0  0  0  0
  152.1980  142.1693  158.7693 C   0  0  0  0  0  0  0  0  0  0  0  0
  151.7708  140.8866  158.3684 C   0  0  0  0  0  0  0  0  0  0  0  0
  150.7522  140.7577  157.3982 C   0  0  0  0  0  0  0  0  0  0  0  0
  150.3652  139.4435  157.0167 N   0  0  0  0  0  0  0  0  0  0  0  0
  149.2122  139.0394  156.4559 C   0  0  0  0  0  0  0  0  0  0  0  0
  148.2542  139.7670  156.1965 O   0  0  0  0  0  0  0  0  0  0  0  0
  149.2187  137.7185  156.2250 N   0  0  0  0  0  0  0  0  0  0  0  0
  148.1169  136.9671  155.6301 C   0  0  2  0  0  0  0  0  0  0  0  0
  148.5924  135.5952  155.1276 C   0  0  0  0  0  0  0  0  0  0  0  0
  147.4495  134.8405  154.4307 C   0  0  0  0  0  0  0  0  0  0  0  0
  146.8849  135.6165  153.2886 N   0  3  1  0  0  0  0  0  0  0  0  0
  145.8939  134.8142  152.4971 C   0  0  2  0  0  0  0  0  0  0  0  0
  146.5774  133.5889  151.8439 C   0  0  0  0  0  0  0  0  0  0  0  0
  145.5893  132.7416  151.0241 C   0  0  0  0  0  0  0  0  0  0  0  0
  144.9278  133.5559  149.9777 N   0  3  1  0  0  0  0  0  0  0  0  0
  144.0547  132.7459  149.1006 C   0  0  0  0  0  0  0  0  0  0  0  0
  144.2196  134.7204  150.5594 C   0  0  0  0  0  0  0  0  0  0  0  0
  145.1787  135.6069  151.3732 C   0  0  0  0  0  0  0  0  0  0  0  0
  146.4069  136.9533  153.7504 C   0  0  0  0  0  0  0  0  0  0  0  0
  147.5216  137.7492  154.4524 C   0  0  0  0  0  0  0  0  0  0  0  0
  150.2011  141.9389  156.8401 C   0  0  0  0  0  0  0  0  0  0  0  0
  150.6393  143.1489  157.2513 N   0  3  0  0  0  0  0  0  0  0  0  0
  152.5261  144.7286  159.5226 H   0  0  0  0  0  0  0  0  0  0  0  0
  151.1357  145.3632  158.6389 H   0  0  0  0  0  0  0  0  0  0  0  0
  152.6794  145.1282  157.8071 H   0  0  0  0  0  0  0  0  0  0  0  0
  152.9738  142.2748  159.5136 H   0  0  0  0  0  0  0  0  0  0  0  0
  152.2222  140.0095  158.8094 H   0  0  0  0  0  0  0  0  0  0  0  0
  151.0296  138.7155  157.2366 H   0  0  0  0  0  0  0  0  0  0  0  0
  150.0467  137.1960  156.4718 H   0  0  0  0  0  0  0  0  0  0  0  0
  147.3353  136.8249  156.3795 H   0  0  0  0  0  0  0  0  0  0  0  0
  149.4258  135.7176  154.4338 H   0  0  0  0  0  0  0  0  0  0  0  0
  148.9682  134.9980  155.9596 H   0  0  0  0  0  0  0  0  0  0  0  0
  147.8347  133.8783  154.0985 H   0  0  0  0  0  0  0  0  0  0  0  0
  146.6570  134.6249  155.1494 H   0  0  0  0  0  0  0  0  0  0  0  0
  145.1225  134.4643  153.1858 H   0  0  0  0  0  0  0  0  0  0  0  0
  147.3895  133.9241  151.1969 H   0  0  0  0  0  0  0  0  0  0  0  0
  147.0335  132.9418  152.5915 H   0  0  0  0  0  0  0  0  0  0  0  0
  146.1225  131.9127  150.5565 H   0  0  0  0  0  0  0  0  0  0  0  0
  144.8352  132.3034  151.6803 H   0  0  0  0  0  0  0  0  0  0  0  0
  143.2306  132.3073  149.6647 H   0  0  0  0  0  0  0  0  0  0  0  0
  144.6193  131.9374  148.6351 H   0  0  0  0  0  0  0  0  0  0  0  0
  143.6350  133.3592  148.3024 H   0  0  0  0  0  0  0  0  0  0  0  0
  143.7712  135.3104  149.7589 H   0  0  0  0  0  0  0  0  0  0  0  0
  143.4013  134.3723  151.1921 H   0  0  0  0  0  0  0  0  0  0  0  0
  144.5907  136.4250  151.7900 H   0  0  0  0  0  0  0  0  0  0  0  0
  145.9148  136.0531  150.7028 H   0  0  0  0  0  0  0  0  0  0  0  0
  146.0739  137.5593  152.9088 H   0  0  0  0  0  0  0  0  0  0  0  0
  145.5534  136.8267  154.4182 H   0  0  0  0  0  0  0  0  0  0  0  0
  147.1258  138.7040  154.8012 H   0  0  0  0  0  0  0  0  0  0  0  0
  148.3050  137.9855  153.7303 H   0  0  0  0  0  0  0  0  0  0  0  0
  149.4394  141.9722  156.0761 H   0  0  0  0  0  0  0  0  0  0  0  0
  147.6524  135.8083  152.6604 H   0  0  0  0  0  0  0  0  0  0  0  0
  145.6602  133.9245  149.3874 H   0  0  0  0  0  0  0  0  0  0  0  0
  150.2249  143.9824  156.8334 H   0  0  0  0  0  0  0  0  0  0  0  0
  1  2  1  0  0  0  0
  1 25  1  0  0  0  0
  1 26  1  0  0  0  0
  1 27  1  0  0  0  0
  2 24  1  0  0  0  0
  2  3  2  0  0  0  0
  3  4  1  0  0  0  0
  3 28  1  0  0  0  0
  4  5  2  0  0  0  0
  4 29  1  0  0  0  0
  5  6  1  0  0  0  0
  5 23  1  0  0  0  0
  6  7  1  0  0  0  0
  6 30  1  0  0  0  0
  7  8  2  0  0  0  0
  7  9  1  0  0  0  0
  9 10  1  0  0  0  0
  9 31  1  0  0  0  0
 10 22  1  0  0  0  0
 10 11  1  0  0  0  0
 10 32  1  0  0  0  0
 11 12  1  0  0  0  0
 11 33  1  0  0  0  0
 11 34  1  0  0  0  0
 12 13  1  0  0  0  0
 12 35  1  0  0  0  0
 12 36  1  0  0  0  0
 13 14  1  0  0  0  0
 13 21  1  0  0  0  0
 13 54  1  0  0  0  0
 14 20  1  0  0  0  0
 14 15  1  0  0  0  0
 14 37  1  0  0  0  0
 15 16  1  0  0  0  0
 15 38  1  0  0  0  0
 15 39  1  0  0  0  0
 16 17  1  0  0  0  0
 16 40  1  0  0  0  0
 16 41  1  0  0  0  0
 17 18  1  0  0  0  0
 17 19  1  0  0  0  0
 17 55  1  0  0  0  0
 18 42  1  0  0  0  0
 18 43  1  0  0  0  0
 18 44  1  0  0  0  0
 19 20  1  0  0  0  0
 19 45  1  0  0  0  0
 19 46  1  0  0  0  0
 20 47  1  0  0  0  0
 20 48  1  0  0  0  0
 21 22  1  0  0  0  0
 21 49  1  0  0  0  0
 21 50  1  0  0  0  0
 22 51  1  0  0  0  0
 22 52  1  0  0  0  0
 23 24  2  0  0  0  0
 23 53  1  0  0  0  0
 24 56  1  0  0  0  0
M  CHG  1  13   1
M  CHG  1  17   1
M  CHG  1  24   1
M  END
> <s_m_source_file>
AV-unprocessed.smi

> <i_m_source_file_index>
2772

> <i_lp_mmshare_version>
43012

> <i_f3d_flags>
0

> <s_epik_input>
W0NIM11jMVtjSF1bY0hdYyhbY0hdbjEpW05IXUMoPU8pW05IXVtDSF0yW0NIMl1bQ0gyXU4oW0NIMl1bQ0gyXTIpW0NIXTNbQ0gyXVtDSDJdTihbQ0gzXSlbQ0gyXVtDSDJdMw==

> <s_epik_cmdline>
J2VwaWtfcHl0aG9uJywgJy1waCcsICc3LjAnLCAnLXRuJywgJzgnLCAnLW1hJywgJzIwMCcsICctbWV0YWxfYmluZGluZycsICctaW1hZScsICc8aW5maWxlLm1hZT4nLCAnLW9tYWUnLCAnPG91dGZpbGUubWFlPic=

> <r_epik_Ionization_Penalty>
2.34117

> <r_epik_Ionization_Penalty_Charging>
2.34115

> <r_epik_Ionization_Penalty_Neutral>
2.22786e-05

> <r_epik_State_Penalty>
2.43944

> <r_epik_Charging_Adjusted_Penalty>
4.78059

> <i_epik_Tot_Q>
3

> <i_epik_Tot_abs_Q>
3

> <r_epik_Metal_State_Penalty>
2.45906

> <b_epik_Metal_Only>
0

> <s_lp_Force_Field>
OPLS_2005

> <r_lp_Energy>
50.0284

> <b_lp_Chiralities_Consistent>
1

> <s_lp_Variant>
AV-unprocessed.smi:2772-9

> <Gold.Version>
5.8.1

> <Gold.Id.Protein>
6NUR|6NUR_protein|mol2

> <Gold.PLP.Fitness>
51.0410

> <Gold.PLP.PLP>
-37.0210

> <Gold.PLP.part.hbond>
-3.0000

> <Gold.PLP.part.metal>
0.0000

> <Gold.PLP.part.buried>
-4.7517

> <Gold.PLP.part.nonpolar>
-30.1719

> <Gold.PLP.part.repulsive>
0.0979

> <Gold.PLP.ligand.clash>
0.0000

> <Gold.PLP.ligand.torsion>
0.4233

> <Gold.PLP.Chemscore.Hbond>
4.9440

> <Gold.PLP.Chemscore.CHOScore>
0.0000

> <Gold.PLP.Chemscore.Metal>
0.0000

> <Gold.Chemscore.Hbonds>
donor molecule, donor type, donor heavy atom, donor atom, acceptor molecule, acceptor atom, score
      L1  H    13    54       P1  7948  2.00
      L1  H    17    55       P1  7921  0.94
      L1  H    24    56       P1  8028  1.95

> <Gold.PLP.Chemscore.Internal.Correction>
0.0346

> <Gold.Rescore>
     Score         DG    S(hbond)    S(metal)    S(lipo)     H(rot)  DE(clash)    DE(int)     intcor
     21.12     -24.23       2.88        0.00     104.82       1.22       0.12       2.99       ----

> <Gold.Chemscore.Fitness>
21.1203

> <Gold.Chemscore.DG>
-24.2270

> <Gold.Chemscore.ZeroCoef>
-5.4800

> <Gold.Chemscore.Hbond>
2.8778

> <Gold.Chemscore.Metal>
0.0000

> <Gold.Chemscore.Lipo>
104.8193

> <Gold.Chemscore.Internal_Hbond>
0.0000

> <Gold.Chemscore.DEClash>
0.1213

> <Gold.Chemscore.DEInternal>
2.9853

> <Gold.Chemscore.Rot>
1.2222

> <Gold.Chemscore.Internal.Correction>
   9.000000E+99

> <Gold.Chemscore.Hbonds>
donor molecule, donor type, donor heavy atom, donor atom, acceptor molecule, acceptor atom, score
      L1  H    13    54       P1  7948  0.97
      L1  H    17    55       P1  7921  0.43
      L1  H    24    56       P1  8028  0.92

> <Gold.Chemscore.Hbond.Weighted>
-9.6120

> <Gold.Chemscore.Metal.Weighted>
-0.0000

> <Gold.Chemscore.Lipo.Weighted>
-12.2639

> <Gold.Chemscore.Internal_Hbond.Weighted>
0.0000

> <Gold.Chemscore.DEClash.Weighted>
0.1213

> <Gold.Chemscore.DEInternal.Weighted>
2.9853

> <Gold.Chemscore.Rot.Weighted>
3.1289

> <Gold.Chemscore.Internal.Correction.Weighted>
   9.000000E+99

> <Gold.Protein.RotatedTorsions>
[ 6907 6896 6895 6894 ] final    3.58 input  -60.11 | X-H torsion
[ 7974 7965 7964 7962 ] final   26.73 input  175.53 | X-H torsion
[ 8008 7997 7996 7995 ] final  -27.72 input   59.86 | X-H torsion
[ 10167 10162 10161 10158 ] final    5.18 input  -65.29 | X-H torsion
[ 10718 10713 10712 10709 ] final   69.66 input   66.30 | X-H torsion
[ 10763 10752 10751 10750 ] final  -91.37 input  -60.55 | X-H torsion
[ 11005 11000 10999 10996 ] final  -93.87 input  -57.11 | X-H torsion

> <Gold.Protein.ActiveResidues>
 VAL166  LYS551  ARG553  GLY616  TRP617  ASP618  TYR619  PRO620  LYS621  CYS622 
 ASP623  PHE694  ASN695  SER759  ASP760  ASP761  ALA762  ILE779  LEU786  VAL792 
 PHE793  MET794  SER795  GLU796  ALA797  LYS798  CYS799  TRP800  GLU811  SER814 

> <Gold.Protein.RotatedAtoms>
  151.6274  135.1026  160.0114 H   0  0  0  0  0  0  0  0  0  0  0  0  # atno 6907 bound_to 6896
  152.4125  133.6981  159.6418 H   0  0  0  0  0  0  0  0  0  0  0  0  # atno 6908 bound_to 6896
  150.8014  133.8516  159.3248 H   0  0  0  0  0  0  0  0  0  0  0  0  # atno 6909 bound_to 6896
  146.1822  139.7288  142.8892 H   0  0  0  0  0  0  0  0  0  0  0  0  # atno 7974 bound_to 7965
  154.4364  140.1865  156.0976 H   0  0  0  0  0  0  0  0  0  0  0  0  # atno 8008 bound_to 7997
  156.0317  140.3330  155.7121 H   0  0  0  0  0  0  0  0  0  0  0  0  # atno 8009 bound_to 7997
  155.5830  140.0623  157.2769 H   0  0  0  0  0  0  0  0  0  0  0  0  # atno 8010 bound_to 7997
  140.6496  143.7578  150.7553 H   0  0  0  0  0  0  0  0  0  0  0  0  # atno 10167 bound_to 10162
  157.6358  130.9437  150.0543 H   0  0  0  0  0  0  0  0  0  0  0  0  # atno 10718 bound_to 10713
  154.6754  135.5270  153.8192 H   0  0  0  0  0  0  0  0  0  0  0  0  # atno 10763 bound_to 10752
  153.0528  135.6539  154.0660 H   0  0  0  0  0  0  0  0  0  0  0  0  # atno 10764 bound_to 10752
  154.0554  135.2966  155.3313 H   0  0  0  0  0  0  0  0  0  0  0  0  # atno 10765 bound_to 10752
  141.1486  133.7917  157.0219 H   0  0  0  0  0  0  0  0  0  0  0  0  # atno 11005 bound_to 11000
  145.4043  141.0389  143.3053 LP  0  0  0  0  0  0  0  0  0  0  0  0  # atno 17320 bound_to 7965
  144.8335  139.5590  143.6933 LP  0  0  0  0  0  0  0  0  0  0  0  0  # atno 17321 bound_to 7965
  140.1226  143.4598  152.2304 LP  0  0  0  0  0  0  0  0  0  0  0  0  # atno 17342 bound_to 10162
  139.5709  144.7462  151.3892 LP  0  0  0  0  0  0  0  0  0  0  0  0  # atno 17343 bound_to 10162
  156.1595  130.3643  149.9319 LP  0  0  0  0  0  0  0  0  0  0  0  0  # atno 17370 bound_to 10713
  156.7320  130.9047  151.3626 LP  0  0  0  0  0  0  0  0  0  0  0  0  # atno 17371 bound_to 10713
  140.0810  134.9648  157.1624 LP  0  0  0  0  0  0  0  0  0  0  0  0  # atno 17394 bound_to 11000
  140.3576  134.2529  155.7191 LP  0  0  0  0  0  0  0  0  0  0  0  0  # atno 17395 bound_to 11000

$$$$
