AV-unprocessed.smi:1771|AV-procd|sdf|7157|dock1
  -GOLD-   22720 8393D 1   1.00000     0.00000
 Structure written by MMmdl.
 31 32  0  0  0  0  0  0  0  0  1 V2000
  145.6026  138.4296  153.6401 O   0  0  0  0  0  0  0  0  0  0  0  0
  146.5481  137.7773  153.1967 C   0  0  0  0  0  0  0  0  0  0  0  0
  147.7796  138.2795  153.0285 N   0  0  0  0  0  0  0  0  0  0  0  0
  148.1765  139.6465  153.3501 C   0  0  0  0  0  0  0  0  0  0  0  0
  149.1298  139.7063  154.5598 C   0  0  2  0  0  0  0  0  0  0  0  0
  149.6468  141.1324  154.8306 C   0  0  0  0  0  0  0  0  0  0  0  0
  150.7803  141.0530  155.8575 C   0  0  0  0  0  0  0  0  0  0  0  0
  151.6563  139.4855  155.4999 S   0  0  0  0  0  0  0  0  0  0  0  0
  152.8466  139.7652  154.6827 O   0  0  0  0  0  0  0  0  0  0  0  0
  151.7551  138.6971  156.7375 O   0  0  0  0  0  0  0  0  0  0  0  0
  150.3508  138.7794  154.4234 C   0  0  0  0  0  0  0  0  0  0  0  0
  146.4910  136.4880  152.8245 N   0  0  0  0  0  0  0  0  0  0  0  0
  145.3630  135.6297  152.8654 C   0  0  0  0  0  0  0  0  0  0  0  0
  144.1656  135.8309  152.1261 C   0  0  0  0  0  0  0  0  0  0  0  0
  143.2842  134.8695  152.3618 N   0  0  0  0  0  0  0  0  0  0  0  0
  143.9077  134.0561  153.2439 N   0  0  0  0  0  0  0  0  0  0  0  0
  145.1750  134.4791  153.5789 C   0  0  0  0  0  0  0  0  0  0  0  0
  143.4605  133.2250  153.6037 H   0  0  0  0  0  0  0  0  0  0  0  0
  148.4958  137.6725  152.6575 H   0  0  0  0  0  0  0  0  0  0  0  0
  148.6616  140.0711  152.4706 H   0  0  0  0  0  0  0  0  0  0  0  0
  147.2899  140.2555  153.5352 H   0  0  0  0  0  0  0  0  0  0  0  0
  148.5829  139.3953  155.4513 H   0  0  0  0  0  0  0  0  0  0  0  0
  150.0399  141.5546  153.9048 H   0  0  0  0  0  0  0  0  0  0  0  0
  148.8490  141.7939  155.1695 H   0  0  0  0  0  0  0  0  0  0  0  0
  151.4705  141.8947  155.8019 H   0  0  0  0  0  0  0  0  0  0  0  0
  150.3806  140.9930  156.8702 H   0  0  0  0  0  0  0  0  0  0  0  0
  150.1370  137.7519  154.7188 H   0  0  0  0  0  0  0  0  0  0  0  0
  150.7300  138.7747  153.4012 H   0  0  0  0  0  0  0  0  0  0  0  0
  147.3444  136.0754  152.4770 H   0  0  0  0  0  0  0  0  0  0  0  0
  143.9122  136.6258  151.4402 H   0  0  0  0  0  0  0  0  0  0  0  0
  145.8010  133.9362  154.2715 H   0  0  0  0  0  0  0  0  0  0  0  0
  1  2  2  0  0  0  0
  2  3  1  0  0  0  0
  2 12  1  0  0  0  0
  3  4  1  0  0  0  0
  3 19  1  0  0  0  0
  4  5  1  0  0  0  0
  4 20  1  0  0  0  0
  4 21  1  0  0  0  0
  5 11  1  0  0  0  0
  5  6  1  0  0  0  0
  5 22  1  0  0  0  0
  6  7  1  0  0  0  0
  6 23  1  0  0  0  0
  6 24  1  0  0  0  0
  7  8  1  0  0  0  0
  7 25  1  0  0  0  0
  7 26  1  0  0  0  0
  8  9  2  0  0  0  0
  8 10  2  0  0  0  0
  8 11  1  0  0  0  0
 11 27  1  0  0  0  0
 11 28  1  0  0  0  0
 12 13  1  0  0  0  0
 12 29  1  0  0  0  0
 13 17  2  0  0  0  0
 13 14  1  0  0  0  0
 14 15  2  0  0  0  0
 14 30  1  0  0  0  0
 15 16  1  0  0  0  0
 16 18  1  0  0  0  0
 16 17  1  0  0  0  0
 17 31  1  0  0  0  0
M  END
> <s_m_source_file>
AV-unprocessed.smi

> <i_m_source_file_index>
1771

> <i_lp_mmshare_version>
43012

> <i_f3d_flags>
0

> <s_epik_input>
W2NIXTFbbkhdbltjSF1jMVtOSF1DKD1PKVtOSF1bQ0gyXVtDQEBIXShbQ0gyXTIpW0NIMl1bQ0gyXVMyKD1PKT1P

> <s_epik_cmdline>
J2VwaWtfcHl0aG9uJywgJy1waCcsICc3LjAnLCAnLXRuJywgJzgnLCAnLW1hJywgJzIwMCcsICctbWV0YWxfYmluZGluZycsICctaW1hZScsICc8aW5maWxlLm1hZT4nLCAnLW9tYWUnLCAnPG91dGZpbGUubWFlPic=

> <r_lp_tautomer_probability>
1

> <r_epik_Ionization_Penalty>
4.89708e-05

> <r_epik_Ionization_Penalty_Charging>
0

> <r_epik_Ionization_Penalty_Neutral>
4.89708e-05

> <r_epik_State_Penalty>
-0

> <r_epik_Charging_Adjusted_Penalty>
0

> <i_epik_Tot_Q>
0

> <i_epik_Tot_abs_Q>
0

> <r_epik_Metal_State_Penalty>
-0

> <b_epik_Metal_Only>
0

> <s_lp_Force_Field>
OPLS_2005

> <r_lp_Energy>
6.8857

> <b_lp_Chiralities_Consistent>
1

> <s_lp_Variant>
AV-unprocessed.smi:1771-1

> <Gold.Version>
5.8.1

> <Gold.Id.Protein>
6NUR|6NUR_protein|mol2

> <Gold.PLP.Fitness>
37.6614

> <Gold.PLP.PLP>
-23.2485

> <Gold.PLP.part.hbond>
-5.5363

> <Gold.PLP.part.metal>
0.0000

> <Gold.PLP.part.buried>
-0.2964

> <Gold.PLP.part.nonpolar>
-19.3996

> <Gold.PLP.part.repulsive>
1.1881

> <Gold.PLP.ligand.clash>
0.0000

> <Gold.PLP.ligand.torsion>
0.6508

> <Gold.PLP.Chemscore.Hbond>
4.2377

> <Gold.PLP.Chemscore.CHOScore>
0.9967

> <Gold.PLP.Chemscore.Metal>
0.0000

> <Gold.Chemscore.Hbonds>
donor molecule, donor type, donor heavy atom, donor atom, acceptor molecule, acceptor atom, score
      L1  H     3    19       P1  7948  1.00
      L1  H    12    29       P1  7948  1.00
      L1  H    16    18       P1 10957  0.99
      P1  H  7989  7998       L1     9  0.17
      P1  H  7997  8010       L1     9  0.96
      L1  C    14    30       P1 10171  0.97

> <Gold.PLP.Chemscore.Internal.Correction>
0.0113

> <Gold.Rescore>
     Score         DG    S(hbond)    S(metal)    S(lipo)     H(rot)  DE(clash)    DE(int)     intcor
     18.05     -19.81       3.87        0.00      42.53       1.39       1.08       0.67       ----

> <Gold.Chemscore.Fitness>
18.0540

> <Gold.Chemscore.DG>
-19.8106

> <Gold.Chemscore.ZeroCoef>
-5.4800

> <Gold.Chemscore.Hbond>
3.8669

> <Gold.Chemscore.Metal>
0.0000

> <Gold.Chemscore.Lipo>
42.5271

> <Gold.Chemscore.Internal_Hbond>
0.0000

> <Gold.Chemscore.DEClash>
1.0826

> <Gold.Chemscore.DEInternal>
0.6740

> <Gold.Chemscore.Rot>
1.3908

> <Gold.Chemscore.Internal.Correction>
   9.000000E+99

> <Gold.Chemscore.Hbonds>
donor molecule, donor type, donor heavy atom, donor atom, acceptor molecule, acceptor atom, score
      L1  H     3    19       P1  7948  0.95
      L1  H    12    29       P1  7948  0.95
      L1  H    16    18       P1 10957  0.90
      P1  H  7997  8010       L1     9  0.78

> <Gold.Chemscore.Hbond.Weighted>
-12.9153

> <Gold.Chemscore.Metal.Weighted>
-0.0000

> <Gold.Chemscore.Lipo.Weighted>
-4.9757

> <Gold.Chemscore.Internal_Hbond.Weighted>
0.0000

> <Gold.Chemscore.DEClash.Weighted>
1.0826

> <Gold.Chemscore.DEInternal.Weighted>
0.6740

> <Gold.Chemscore.Rot.Weighted>
3.5603

> <Gold.Chemscore.Internal.Correction.Weighted>
   9.000000E+99

> <Gold.Protein.RotatedTorsions>
[ 6907 6896 6895 6894 ] final  -93.95 input  -60.11 | X-H torsion
[ 7974 7965 7964 7962 ] final  116.42 input  175.53 | X-H torsion
[ 8008 7997 7996 7995 ] final  109.30 input   59.86 | X-H torsion
[ 10167 10162 10161 10158 ] final  162.82 input  -65.29 | X-H torsion
[ 10718 10713 10712 10709 ] final -113.16 input   66.30 | X-H torsion
[ 10763 10752 10751 10750 ] final -114.80 input  -60.55 | X-H torsion
[ 11005 11000 10999 10996 ] final -113.49 input  -57.11 | X-H torsion

> <Gold.Protein.ActiveResidues>
 VAL166  LYS551  ARG553  GLY616  TRP617  ASP618  TYR619  PRO620  LYS621  CYS622 
 ASP623  PHE694  ASN695  SER759  ASP760  ASP761  ALA762  ILE779  LEU786  VAL792 
 PHE793  MET794  SER795  GLU796  ALA797  LYS798  CYS799  TRP800  GLU811  SER814 

> <Gold.Protein.RotatedAtoms>
  150.6932  134.1887  159.4276 H   0  0  0  0  0  0  0  0  0  0  0  0  # atno 6907 bound_to 6896
  151.9859  135.0002  160.0568 H   0  0  0  0  0  0  0  0  0  0  0  0  # atno 6908 bound_to 6896
  152.1713  133.4610  159.4947 H   0  0  0  0  0  0  0  0  0  0  0  0  # atno 6909 bound_to 6896
  145.1799  139.3055  143.4423 H   0  0  0  0  0  0  0  0  0  0  0  0  # atno 7974 bound_to 7965
  156.1968  140.3060  155.9444 H   0  0  0  0  0  0  0  0  0  0  0  0  # atno 8008 bound_to 7997
  155.3046  140.0448  157.3048 H   0  0  0  0  0  0  0  0  0  0  0  0  # atno 8009 bound_to 7997
  154.5520  140.2294  155.8479 H   0  0  0  0  0  0  0  0  0  0  0  0  # atno 8010 bound_to 7997
  139.4865  144.4399  151.8965 H   0  0  0  0  0  0  0  0  0  0  0  0  # atno 10167 bound_to 10162
  156.0750  130.5958  150.8606 H   0  0  0  0  0  0  0  0  0  0  0  0  # atno 10718 bound_to 10713
  154.8455  135.4404  154.1563 H   0  0  0  0  0  0  0  0  0  0  0  0  # atno 10763 bound_to 10752
  153.2711  135.6945  153.7486 H   0  0  0  0  0  0  0  0  0  0  0  0  # atno 10764 bound_to 10752
  153.6726  135.3416  155.3132 H   0  0  0  0  0  0  0  0  0  0  0  0  # atno 10765 bound_to 10752
  141.0611  133.9534  157.2665 H   0  0  0  0  0  0  0  0  0  0  0  0  # atno 11005 bound_to 11000
  146.3455  140.1974  142.8589 LP  0  0  0  0  0  0  0  0  0  0  0  0  # atno 17320 bound_to 7965
  145.0147  140.8744  143.5203 LP  0  0  0  0  0  0  0  0  0  0  0  0  # atno 17321 bound_to 7965
  140.3850  144.2688  150.5905 LP  0  0  0  0  0  0  0  0  0  0  0  0  # atno 17342 bound_to 10162
  140.5198  143.2268  151.8406 LP  0  0  0  0  0  0  0  0  0  0  0  0  # atno 17343 bound_to 10162
  157.5840  131.0946  150.9225 LP  0  0  0  0  0  0  0  0  0  0  0  0  # atno 17370 bound_to 10713
  156.9415  130.5386  149.5280 LP  0  0  0  0  0  0  0  0  0  0  0  0  # atno 17371 bound_to 10713
  139.9433  135.0188  156.8776 LP  0  0  0  0  0  0  0  0  0  0  0  0  # atno 17394 bound_to 11000
  140.5867  134.0300  155.7484 LP  0  0  0  0  0  0  0  0  0  0  0  0  # atno 17395 bound_to 11000

$$$$
