AV-unprocessed.smi:3149|AV-procd|sdf|12006|dock4
  -GOLD-   2272017413D 1   1.00000     0.00000
 Structure written by MMmdl.
 37 38  0  0  0  0  0  0  0  0  1 V2000
  153.0365  138.2047  156.8279 C   0  0  0  0  0  0  0  0  0  0  0  0
  151.6641  138.8216  156.4909 C   0  0  1  0  0  0  0  0  0  0  0  0
  151.6866  140.2623  156.7318 N   0  0  0  0  0  0  0  0  0  0  0  0
  152.0932  140.6313  158.0921 C   0  0  0  0  0  0  0  0  0  0  0  0
  151.9521  142.1385  158.3172 C   0  0  0  0  0  0  0  0  0  0  0  0
  151.2346  142.8082  157.5746 O   0  0  0  0  0  0  0  0  0  0  0  0
  152.5780  142.6957  159.4359 N   0  0  0  0  0  0  0  0  0  0  0  0
  152.0476  143.8896  160.0759 C   0  0  0  0  0  0  0  0  0  0  0  0
  152.6656  143.3389  161.3656 C   0  0  0  0  0  0  0  0  0  0  0  0
  152.7154  141.9660  160.6878 C   0  0  0  0  0  0  0  0  0  0  0  0
  151.2308  138.5390  155.0262 C   0  0  1  0  0  0  0  0  0  0  0  0
  151.0795  137.0358  154.7182 C   0  0  0  0  0  0  0  0  0  0  0  0
  150.0602  139.3077  154.6072 N   0  0  0  0  0  0  0  0  0  0  0  0
  148.8807  138.8323  154.0705 C   0  0  0  0  0  0  0  0  0  0  0  0
  148.0847  139.9094  153.8054 C   0  0  0  0  0  0  0  0  0  0  0  0
  148.8741  141.0201  154.2122 C   0  0  0  0  0  0  0  0  0  0  0  0
  150.0547  140.6585  154.6860 N   0  0  0  0  0  0  0  0  0  0  0  0
  153.0644  137.1496  156.5547 H   0  0  0  0  0  0  0  0  0  0  0  0
  153.2553  138.2604  157.8939 H   0  0  0  0  0  0  0  0  0  0  0  0
  153.8469  138.7051  156.2969 H   0  0  0  0  0  0  0  0  0  0  0  0
  150.9127  138.3716  157.1417 H   0  0  0  0  0  0  0  0  0  0  0  0
  152.2512  140.7193  156.0295 H   0  0  0  0  0  0  0  0  0  0  0  0
  151.4967  140.0896  158.8275 H   0  0  0  0  0  0  0  0  0  0  0  0
  153.1343  140.3560  158.2594 H   0  0  0  0  0  0  0  0  0  0  0  0
  152.4910  144.8192  159.7182 H   0  0  0  0  0  0  0  0  0  0  0  0
  150.9564  143.9235  160.1015 H   0  0  0  0  0  0  0  0  0  0  0  0
  153.6528  143.7506  161.5825 H   0  0  0  0  0  0  0  0  0  0  0  0
  152.0069  143.3859  162.2333 H   0  0  0  0  0  0  0  0  0  0  0  0
  151.8550  141.3404  160.9320 H   0  0  0  0  0  0  0  0  0  0  0  0
  153.6645  141.4398  160.7949 H   0  0  0  0  0  0  0  0  0  0  0  0
  152.0513  138.8842  154.3951 H   0  0  0  0  0  0  0  0  0  0  0  0
  151.9977  136.4957  154.9507 H   0  0  0  0  0  0  0  0  0  0  0  0
  150.8621  136.8743  153.6621 H   0  0  0  0  0  0  0  0  0  0  0  0
  150.2746  136.5778  155.2939 H   0  0  0  0  0  0  0  0  0  0  0  0
  148.7082  137.7765  153.9214 H   0  0  0  0  0  0  0  0  0  0  0  0
  147.0913  139.9050  153.3822 H   0  0  0  0  0  0  0  0  0  0  0  0
  148.6278  142.0710  154.1748 H   0  0  0  0  0  0  0  0  0  0  0  0
  1  2  1  0  0  0  0
  1 18  1  0  0  0  0
  1 19  1  0  0  0  0
  1 20  1  0  0  0  0
  2  3  1  0  0  0  0
  2 11  1  0  0  0  0
  2 21  1  0  0  0  0
  3  4  1  0  0  0  0
  3 22  1  0  0  0  0
  4  5  1  0  0  0  0
  4 23  1  0  0  0  0
  4 24  1  0  0  0  0
  5  6  2  0  0  0  0
  5  7  1  0  0  0  0
  7 10  1  0  0  0  0
  7  8  1  0  0  0  0
  8  9  1  0  0  0  0
  8 25  1  0  0  0  0
  8 26  1  0  0  0  0
  9 10  1  0  0  0  0
  9 27  1  0  0  0  0
  9 28  1  0  0  0  0
 10 29  1  0  0  0  0
 10 30  1  0  0  0  0
 11 12  1  0  0  0  0
 11 13  1  0  0  0  0
 11 31  1  0  0  0  0
 12 32  1  0  0  0  0
 12 33  1  0  0  0  0
 12 34  1  0  0  0  0
 13 17  1  0  0  0  0
 13 14  1  0  0  0  0
 14 15  2  0  0  0  0
 14 35  1  0  0  0  0
 15 16  1  0  0  0  0
 15 36  1  0  0  0  0
 16 17  2  0  0  0  0
 16 37  1  0  0  0  0
M  END
> <s_m_source_file>
AV-unprocessed.smi

> <i_m_source_file_index>
3149

> <i_lp_mmshare_version>
43012

> <i_f3d_flags>
0

> <s_epik_input>
bjFbY0hdW2NIXVtjSF1uMVtDQEBIXShbQ0gzXSlbQ0BIXShbQ0gzXSlbTkhdW0NIMl1DKD1PKU4yW0NIMl1bQ0gyXVtDSDJdMg==

> <s_epik_cmdline>
J2VwaWtfcHl0aG9uJywgJy1waCcsICc3LjAnLCAnLXRuJywgJzgnLCAnLW1hJywgJzIwMCcsICctbWV0YWxfYmluZGluZycsICctaW1hZScsICc8aW5maWxlLm1hZT4nLCAnLW9tYWUnLCAnPG91dGZpbGUubWFlPic=

> <r_lp_tautomer_probability>
1

> <r_epik_Ionization_Penalty>
0.918674

> <r_epik_Ionization_Penalty_Charging>
0

> <r_epik_Ionization_Penalty_Neutral>
0.918674

> <r_epik_State_Penalty>
0.958258

> <r_epik_Charging_Adjusted_Penalty>
0.958258

> <i_epik_Tot_Q>
0

> <i_epik_Tot_abs_Q>
0

> <r_epik_Metal_State_Penalty>
0.956881

> <b_epik_Metal_Only>
0

> <s_lp_Force_Field>
OPLS_2005

> <r_lp_Energy>
24.8849

> <b_lp_Chiralities_Consistent>
1

> <s_lp_Variant>
AV-unprocessed.smi:3149-8

> <Gold.Version>
5.8.1

> <Gold.Id.Protein>
6NUR|6NUR_protein|mol2

> <Gold.PLP.Fitness>
39.9393

> <Gold.PLP.PLP>
-35.9050

> <Gold.PLP.part.hbond>
-1.0000

> <Gold.PLP.part.metal>
0.0000

> <Gold.PLP.part.buried>
-2.5095

> <Gold.PLP.part.nonpolar>
-32.9681

> <Gold.PLP.part.repulsive>
0.2008

> <Gold.PLP.ligand.clash>
0.0000

> <Gold.PLP.ligand.torsion>
0.7625

> <Gold.PLP.Chemscore.Hbond>
0.6240

> <Gold.PLP.Chemscore.CHOScore>
0.8956

> <Gold.PLP.Chemscore.Metal>
0.0000

> <Gold.Chemscore.Hbonds>
donor molecule, donor type, donor heavy atom, donor atom, acceptor molecule, acceptor atom, score
      P1  H  7989  7998       L1    17  0.62
      L1  C    14    35       P1  7948  0.90

> <Gold.PLP.Chemscore.Internal.Correction>
1.0005

> <Gold.Rescore>
     Score         DG    S(hbond)    S(metal)    S(lipo)     H(rot)  DE(clash)    DE(int)     intcor
     10.51     -12.79       0.77        0.00      79.69       1.79       0.01       2.27       ----

> <Gold.Chemscore.Fitness>
10.5119

> <Gold.Chemscore.DG>
-12.7870

> <Gold.Chemscore.ZeroCoef>
-5.4800

> <Gold.Chemscore.Hbond>
0.7663

> <Gold.Chemscore.Metal>
0.0000

> <Gold.Chemscore.Lipo>
79.6871

> <Gold.Chemscore.Internal_Hbond>
0.0000

> <Gold.Chemscore.DEClash>
0.0077

> <Gold.Chemscore.DEInternal>
2.2674

> <Gold.Chemscore.Rot>
1.7874

> <Gold.Chemscore.Internal.Correction>
   9.000000E+99

> <Gold.Chemscore.Hbonds>
donor molecule, donor type, donor heavy atom, donor atom, acceptor molecule, acceptor atom, score
      P1  H  7989  7998       L1    17  0.07

> <Gold.Chemscore.Hbond.Weighted>
-2.5595

> <Gold.Chemscore.Metal.Weighted>
-0.0000

> <Gold.Chemscore.Lipo.Weighted>
-9.3234

> <Gold.Chemscore.Internal_Hbond.Weighted>
0.0000

> <Gold.Chemscore.DEClash.Weighted>
0.0077

> <Gold.Chemscore.DEInternal.Weighted>
2.2674

> <Gold.Chemscore.Rot.Weighted>
4.5758

> <Gold.Chemscore.Internal.Correction.Weighted>
   9.000000E+99

> <Gold.Protein.RotatedTorsions>
[ 6907 6896 6895 6894 ] final  168.08 input  -60.11 | X-H torsion
[ 7974 7965 7964 7962 ] final   -6.30 input  175.53 | X-H torsion
[ 8008 7997 7996 7995 ] final -117.89 input   59.86 | X-H torsion
[ 10167 10162 10161 10158 ] final   66.43 input  -65.29 | X-H torsion
[ 10718 10713 10712 10709 ] final -129.24 input   66.30 | X-H torsion
[ 10763 10752 10751 10750 ] final   39.13 input  -60.55 | X-H torsion
[ 11005 11000 10999 10996 ] final -152.87 input  -57.11 | X-H torsion

> <Gold.Protein.ActiveResidues>
 VAL166  LYS551  ARG553  GLY616  TRP617  ASP618  TYR619  PRO620  LYS621  CYS622 
 ASP623  PHE694  ASN695  SER759  ASP760  ASP761  ALA762  ILE779  LEU786  VAL792 
 PHE793  MET794  SER795  GLU796  ALA797  LYS798  CYS799  TRP800  GLU811  SER814 

> <Gold.Protein.RotatedAtoms>
  151.8533  133.3444  159.3679 H   0  0  0  0  0  0  0  0  0  0  0  0  # atno 6907 bound_to 6896
  150.7200  134.5278  159.5694 H   0  0  0  0  0  0  0  0  0  0  0  0  # atno 6908 bound_to 6896
  152.2776  134.7865  160.0454 H   0  0  0  0  0  0  0  0  0  0  0  0  # atno 6909 bound_to 6896
  146.2334  140.2149  142.8336 H   0  0  0  0  0  0  0  0  0  0  0  0  # atno 7974 bound_to 7965
  155.0909  140.0395  157.2668 H   0  0  0  0  0  0  0  0  0  0  0  0  # atno 8008 bound_to 7997
  154.6833  140.2637  155.6861 H   0  0  0  0  0  0  0  0  0  0  0  0  # atno 8009 bound_to 7997
  156.2702  140.2774  156.1384 H   0  0  0  0  0  0  0  0  0  0  0  0  # atno 8010 bound_to 7997
  140.1005  144.4908  150.7041 H   0  0  0  0  0  0  0  0  0  0  0  0  # atno 10167 bound_to 10162
  156.2027  130.6868  151.0558 H   0  0  0  0  0  0  0  0  0  0  0  0  # atno 10718 bound_to 10713
  152.9977  135.6229  154.2415 H   0  0  0  0  0  0  0  0  0  0  0  0  # atno 10763 bound_to 10752
  154.2155  135.2798  155.2945 H   0  0  0  0  0  0  0  0  0  0  0  0  # atno 10764 bound_to 10752
  154.5571  135.5716  153.7032 H   0  0  0  0  0  0  0  0  0  0  0  0  # atno 10765 bound_to 10752
  140.7143  134.3798  157.5193 H   0  0  0  0  0  0  0  0  0  0  0  0  # atno 11005 bound_to 11000
  144.9677  140.8338  143.5474 LP  0  0  0  0  0  0  0  0  0  0  0  0  # atno 17320 bound_to 7965
  145.2127  139.2197  143.5134 LP  0  0  0  0  0  0  0  0  0  0  0  0  # atno 17321 bound_to 7965
  140.6980  143.2416  151.4944 LP  0  0  0  0  0  0  0  0  0  0  0  0  # atno 17342 bound_to 10162
  139.5674  144.2009  152.1786 LP  0  0  0  0  0  0  0  0  0  0  0  0  # atno 17343 bound_to 10162
  157.6995  131.0781  150.6865 LP  0  0  0  0  0  0  0  0  0  0  0  0  # atno 17370 bound_to 10713
  156.6923  130.4598  149.5596 LP  0  0  0  0  0  0  0  0  0  0  0  0  # atno 17371 bound_to 10713
  139.8864  134.8911  156.2588 LP  0  0  0  0  0  0  0  0  0  0  0  0  # atno 17394 bound_to 11000
  141.0058  133.7124  156.1032 LP  0  0  0  0  0  0  0  0  0  0  0  0  # atno 17395 bound_to 11000

$$$$
