#       Name:                AV-unprocessed.smi:3307
#       Creating user name   scv26
#       Creation time:       Fri Mar 27 19:04:06 2020


#       File generated by GOLD software.
#

@<TRIPOS>MOLECULE
AV-unprocessed.smi:3307
    32    33     1
SMALL
NO_CHARGES


@<TRIPOS>ATOM
      1 ****        -3.7089   1.7178  -1.2833 C.3            1 S1                 0.0000
      2 ****        -2.6446   0.6641  -1.1941 C.2            1 S1                 0.0000
      3 ****        -2.8033  -0.7487  -1.1469 C.2            1 S1                 0.0000
      4 ****        -1.5269  -1.2302  -1.0692 C.2            1 S1                 0.0000
      5 ****        -1.0369  -2.6390  -0.9947 C.3            1 S1                 0.0000
      6 ****        -0.6835  -0.1328  -1.0661 N.pl3          1 S1                 0.0000
      7 ****         0.7699  -0.0845  -1.0086 C.3            1 S1                 0.0000
      8 ****         1.2878   0.6247   0.2569 C.3            1 S1                 0.0000
      9 ****         2.8132   0.7131   0.3338 C.3            1 S1                 0.0000
     10 ****         3.0653   0.8885   1.8268 C.3            1 S1                 0.0000
     11 ****         1.9817   0.0225   2.4740 C.3            1 S1                 0.0000
     12 ****         0.8760  -0.0623   1.4985 N.4            1 S1                 1.0000
     13 ****        -1.3731   1.0254  -1.1498 N.2            1 S1                 0.0000
     14 ****        -4.7030   1.2719  -1.3206 H              1 S1                 0.0000
     15 ****        -3.5852   2.3265  -2.1793 H              1 S1                 0.0000
     16 ****        -3.6762   2.3829  -0.4201 H              1 S1                 0.0000
     17 ****        -3.7178  -1.3230  -1.1692 H              1 S1                 0.0000
     18 ****        -1.8715  -3.3394  -0.9552 H              1 S1                 0.0000
     19 ****        -0.4284  -2.7940  -0.1038 H              1 S1                 0.0000
     20 ****        -0.4340  -2.8868  -1.8685 H              1 S1                 0.0000
     21 ****         1.1693  -1.0972  -1.0655 H              1 S1                 0.0000
     22 ****         1.1251   0.4366  -1.8986 H              1 S1                 0.0000
     23 ****         0.8891   1.6395   0.3044 H              1 S1                 0.0000
     24 ****         3.2685  -0.2169  -0.0099 H              1 S1                 0.0000
     25 ****         3.2206   1.5293  -0.2638 H              1 S1                 0.0000
     26 ****         4.0737   0.6000   2.1250 H              1 S1                 0.0000
     27 ****         2.9191   1.9336   2.1041 H              1 S1                 0.0000
     28 ****         2.3579  -0.9847   2.6555 H              1 S1                 0.0000
     29 ****         1.6416   0.4322   3.4254 H              1 S1                 0.0000
     30 ****         0.0386   0.3673   1.8653 H              1 S1                 0.0000
     31 ****         0.6966  -1.0360   1.2989 H              1 S1                 0.0000
     32 ****        -1.0029   1.9540  -1.1732 LP             1 S1                 0.0000
@<TRIPOS>BOND
    1    1    2 1     
    2    1   14 1     
    3    1   15 1     
    4    1   16 1     
    5    2   13 2     
    6    2    3 1     
    7    3    4 2     
    8    3   17 1     
    9    4    5 1     
   10    4    6 1     
   11    5   18 1     
   12    5   19 1     
   13    5   20 1     
   14    6    7 1     
   15    6   13 1     
   16    7    8 1     
   17    7   21 1     
   18    7   22 1     
   19    8   12 1     
   20    8    9 1     
   21    8   23 1     
   22    9   10 1     
   23    9   24 1     
   24    9   25 1     
   25   10   11 1     
   26   10   26 1     
   27   10   27 1     
   28   11   12 1     
   29   11   28 1     
   30   11   29 1     
   31   12   30 1     
   32   12   31 1     
   33   13   32 1     
@<TRIPOS>SUBSTRUCTURE
      1 S1             1
@<TRIPOS>SET
LONE_PAIRS      STATIC     ATOMS    <user>   **** ""
1 32
DONOR_HYDROGENS      STATIC     ATOMS    <user>   **** ""
2 30 31
ATOM$BLUE        STATIC     ATOMS    COLORGROUP SYSTEM
1 32
ATOM$RED        STATIC     ATOMS    COLORGROUP SYSTEM
2 30 31
