AV-unprocessed.smi:730|AV-procd|sdf|3525|dock1
  -GOLD-   22720 0513D 1   1.00000     0.00000
 Structure written by MMmdl.
 40 41  0  0  0  0  0  0  0  0  1 V2000
  149.3381  129.1584  156.0278 C   0  0  0  0  0  0  0  0  0  0  0  0
  149.9332  129.6924  154.7095 C   0  0  0  0  0  0  0  0  0  0  0  0
  151.4690  129.6495  154.8175 C   0  0  0  0  0  0  0  0  0  0  0  0
  149.4797  128.7689  153.5634 C   0  0  0  0  0  0  0  0  0  0  0  0
  149.4761  131.1007  154.4477 C   0  0  0  0  0  0  0  0  0  0  0  0
  148.8045  131.6967  153.4145 C   0  0  0  0  0  0  0  0  0  0  0  0
  148.7071  133.0517  153.8275 C   0  0  0  0  0  0  0  0  0  0  0  0
  148.0648  134.0172  153.0108 N   0  0  0  0  0  0  0  0  0  0  0  0
  146.7769  134.0388  152.6277 C   0  0  0  0  0  0  0  0  0  0  0  0
  145.9353  133.1885  152.9191 O   0  0  0  0  0  0  0  0  0  0  0  0
  146.5099  135.1174  151.8772 N   0  0  0  0  0  0  0  0  0  0  0  0
  145.2049  135.4399  151.3036 C   0  0  1  0  0  0  0  0  0  0  0  0
  144.6503  134.2392  150.5133 C   0  0  0  0  0  0  0  0  0  0  0  0
  143.6511  133.5610  151.4488 C   0  0  0  0  0  0  0  0  0  0  0  0
  143.0242  134.7241  152.2099 C   0  0  0  0  0  0  0  0  0  0  0  0
  144.1767  135.7150  152.4248 C   0  0  2  0  0  0  0  0  0  0  0  0
  143.6923  137.0410  152.3733 O   0  0  0  0  0  0  0  0  0  0  0  0
  149.2684  133.2702  155.0056 N   0  0  0  0  0  0  0  0  0  0  0  0
  149.7629  132.0247  155.4078 O   0  0  0  0  0  0  0  0  0  0  0  0
  149.6655  128.1376  156.2281 H   0  0  0  0  0  0  0  0  0  0  0  0
  148.2477  129.1510  155.9988 H   0  0  0  0  0  0  0  0  0  0  0  0
  149.6411  129.7702  156.8786 H   0  0  0  0  0  0  0  0  0  0  0  0
  151.8268  130.2889  155.6255 H   0  0  0  0  0  0  0  0  0  0  0  0
  151.9442  129.9892  153.8964 H   0  0  0  0  0  0  0  0  0  0  0  0
  151.8273  128.6385  155.0144 H   0  0  0  0  0  0  0  0  0  0  0  0
  149.7888  127.7374  153.7367 H   0  0  0  0  0  0  0  0  0  0  0  0
  149.9034  129.0796  152.6076 H   0  0  0  0  0  0  0  0  0  0  0  0
  148.3942  128.7733  153.4577 H   0  0  0  0  0  0  0  0  0  0  0  0
  148.4408  131.2356  152.5085 H   0  0  0  0  0  0  0  0  0  0  0  0
  148.6468  134.7767  152.6907 H   0  0  0  0  0  0  0  0  0  0  0  0
  147.2608  135.7651  151.6885 H   0  0  0  0  0  0  0  0  0  0  0  0
  145.3025  136.3032  150.6414 H   0  0  0  0  0  0  0  0  0  0  0  0
  144.1212  134.6052  149.6324 H   0  0  0  0  0  0  0  0  0  0  0  0
  145.4203  133.5522  150.1597 H   0  0  0  0  0  0  0  0  0  0  0  0
  142.9139  132.9615  150.9141 H   0  0  0  0  0  0  0  0  0  0  0  0
  144.1788  132.9054  152.1425 H   0  0  0  0  0  0  0  0  0  0  0  0
  142.2470  135.1722  151.5883 H   0  0  0  0  0  0  0  0  0  0  0  0
  142.5582  134.4132  153.1454 H   0  0  0  0  0  0  0  0  0  0  0  0
  144.6189  135.5455  153.4081 H   0  0  0  0  0  0  0  0  0  0  0  0
  143.9103  137.4069  151.5296 H   0  0  0  0  0  0  0  0  0  0  0  0
  1  2  1  0  0  0  0
  1 20  1  0  0  0  0
  1 21  1  0  0  0  0
  1 22  1  0  0  0  0
  2  3  1  0  0  0  0
  2  4  1  0  0  0  0
  2  5  1  0  0  0  0
  3 23  1  0  0  0  0
  3 24  1  0  0  0  0
  3 25  1  0  0  0  0
  4 26  1  0  0  0  0
  4 27  1  0  0  0  0
  4 28  1  0  0  0  0
  5 19  1  0  0  0  0
  5  6  2  0  0  0  0
  6  7  1  0  0  0  0
  6 29  1  0  0  0  0
  7  8  1  0  0  0  0
  7 18  2  0  0  0  0
  8  9  1  0  0  0  0
  8 30  1  0  0  0  0
  9 10  2  0  0  0  0
  9 11  1  0  0  0  0
 11 12  1  0  0  0  0
 11 31  1  0  0  0  0
 12 16  1  0  0  0  0
 12 13  1  0  0  0  0
 12 32  1  0  0  0  0
 13 14  1  0  0  0  0
 13 33  1  0  0  0  0
 13 34  1  0  0  0  0
 14 15  1  0  0  0  0
 14 35  1  0  0  0  0
 14 36  1  0  0  0  0
 15 16  1  0  0  0  0
 15 37  1  0  0  0  0
 15 38  1  0  0  0  0
 16 17  1  0  0  0  0
 16 39  1  0  0  0  0
 17 40  1  0  0  0  0
 18 19  1  0  0  0  0
M  END
> <s_m_source_file>
AV-unprocessed.smi

> <i_m_source_file_index>
730

> <i_lp_mmshare_version>
43012

> <i_f3d_flags>
0

> <s_epik_input>
W0NIM11DKFtDSDNdKShbQ0gzXSljMVtjSF1jKG5vMSlbTkhdQyg9TylbTkhdW0NAQEhdMltDSDJdW0NIMl1bQ0gyXVtDQEhdMltPSF0=

> <s_epik_cmdline>
J2VwaWtfcHl0aG9uJywgJy1waCcsICc3LjAnLCAnLXRuJywgJzgnLCAnLW1hJywgJzIwMCcsICctbWV0YWxfYmluZGluZycsICctaW1hZScsICc8aW5maWxlLm1hZT4nLCAnLW9tYWUnLCAnPG91dGZpbGUubWFlPic=

> <r_lp_tautomer_probability>
1

> <r_epik_Ionization_Penalty>
2.23071e-05

> <r_epik_Ionization_Penalty_Charging>
0

> <r_epik_Ionization_Penalty_Neutral>
2.23071e-05

> <r_epik_State_Penalty>
-0

> <r_epik_Charging_Adjusted_Penalty>
0

> <i_epik_Tot_Q>
0

> <i_epik_Tot_abs_Q>
0

> <r_epik_Metal_State_Penalty>
-0

> <b_epik_Metal_Only>
0

> <s_lp_Force_Field>
OPLS_2005

> <r_lp_Energy>
16.5613

> <b_lp_Chiralities_Consistent>
1

> <s_lp_Variant>
AV-unprocessed.smi:730-4

> <Gold.Version>
5.8.1

> <Gold.Id.Protein>
6NUR|6NUR_protein|mol2

> <Gold.PLP.Fitness>
37.7407

> <Gold.PLP.PLP>
-30.4579

> <Gold.PLP.part.hbond>
-3.0000

> <Gold.PLP.part.metal>
0.0000

> <Gold.PLP.part.buried>
-3.6601

> <Gold.PLP.part.nonpolar>
-24.1763

> <Gold.PLP.part.repulsive>
0.1981

> <Gold.PLP.ligand.clash>
0.2925

> <Gold.PLP.ligand.torsion>
0.6435

> <Gold.PLP.Chemscore.Hbond>
2.9513

> <Gold.PLP.Chemscore.CHOScore>
0.0000

> <Gold.PLP.Chemscore.Metal>
0.0000

> <Gold.Chemscore.Hbonds>
donor molecule, donor type, donor heavy atom, donor atom, acceptor molecule, acceptor atom, score
      L1  H     8    30       P1  7948  0.85
      L1  H    11    31       P1  7948  1.00
      L1  H    17    40       P1 10171  0.88

> <Gold.PLP.Chemscore.Internal.Correction>
0.0085

> <Gold.Rescore>
     Score         DG    S(hbond)    S(metal)    S(lipo)     H(rot)  DE(clash)    DE(int)     intcor
     12.32     -16.05       2.48        0.00      56.95       1.71       0.15       3.58       ----

> <Gold.Chemscore.Fitness>
12.3155

> <Gold.Chemscore.DG>
-16.0472

> <Gold.Chemscore.ZeroCoef>
-5.4800

> <Gold.Chemscore.Hbond>
2.4815

> <Gold.Chemscore.Metal>
0.0000

> <Gold.Chemscore.Lipo>
56.9495

> <Gold.Chemscore.Internal_Hbond>
0.0000

> <Gold.Chemscore.DEClash>
0.1513

> <Gold.Chemscore.DEInternal>
3.5803

> <Gold.Chemscore.Rot>
1.7125

> <Gold.Chemscore.Internal.Correction>
   9.000000E+99

> <Gold.Chemscore.Hbonds>
donor molecule, donor type, donor heavy atom, donor atom, acceptor molecule, acceptor atom, score
      L1  H     8    30       P1  7948  0.14
      L1  H    11    31       P1  7948  0.94
      L1  H    17    40       P1 10171  0.85

> <Gold.Chemscore.Hbond.Weighted>
-8.2882

> <Gold.Chemscore.Metal.Weighted>
-0.0000

> <Gold.Chemscore.Lipo.Weighted>
-6.6631

> <Gold.Chemscore.Internal_Hbond.Weighted>
0.0000

> <Gold.Chemscore.DEClash.Weighted>
0.1513

> <Gold.Chemscore.DEInternal.Weighted>
3.5803

> <Gold.Chemscore.Rot.Weighted>
4.3841

> <Gold.Chemscore.Internal.Correction.Weighted>
   9.000000E+99

> <Gold.Protein.RotatedTorsions>
[ 6907 6896 6895 6894 ] final  -33.61 input  -60.11 | X-H torsion
[ 7974 7965 7964 7962 ] final  -77.97 input  175.53 | X-H torsion
[ 8008 7997 7996 7995 ] final -124.07 input   59.86 | X-H torsion
[ 10167 10162 10161 10158 ] final  158.84 input  -65.29 | X-H torsion
[ 10718 10713 10712 10709 ] final  115.34 input   66.30 | X-H torsion
[ 10763 10752 10751 10750 ] final  159.62 input  -60.55 | X-H torsion
[ 11005 11000 10999 10996 ] final -100.58 input  -57.11 | X-H torsion

> <Gold.Protein.ActiveResidues>
 VAL166  LYS551  ARG553  GLY616  TRP617  ASP618  TYR619  PRO620  LYS621  CYS622 
 ASP623  PHE694  ASN695  SER759  ASP760  ASP761  ALA762  ILE779  LEU786  VAL792 
 PHE793  MET794  SER795  GLU796  ALA797  LYS798  CYS799  TRP800  GLU811  SER814 

> <Gold.Protein.RotatedAtoms>
  151.0633  134.9751  159.8271 H   0  0  0  0  0  0  0  0  0  0  0  0  # atno 6907 bound_to 6896
  152.5398  134.2390  159.8864 H   0  0  0  0  0  0  0  0  0  0  0  0  # atno 6908 bound_to 6896
  151.2411  133.4356  159.2641 H   0  0  0  0  0  0  0  0  0  0  0  0  # atno 6909 bound_to 6896
  145.5926  140.9426  143.1284 H   0  0  0  0  0  0  0  0  0  0  0  0  # atno 7974 bound_to 7965
  155.1908  140.0413  157.2900 H   0  0  0  0  0  0  0  0  0  0  0  0  # atno 8008 bound_to 7997
  154.6140  140.2484  155.7605 H   0  0  0  0  0  0  0  0  0  0  0  0  # atno 8009 bound_to 7997
  156.2395  140.2909  156.0416 H   0  0  0  0  0  0  0  0  0  0  0  0  # atno 8010 bound_to 7997
  139.4829  144.4787  151.8475 H   0  0  0  0  0  0  0  0  0  0  0  0  # atno 10167 bound_to 10162
  157.6228  131.1011  150.7316 H   0  0  0  0  0  0  0  0  0  0  0  0  # atno 10718 bound_to 10713
  154.2347  135.2777  155.2877 H   0  0  0  0  0  0  0  0  0  0  0  0  # atno 10763 bound_to 10752
  154.5595  135.5651  153.6998 H   0  0  0  0  0  0  0  0  0  0  0  0  # atno 10764 bound_to 10752
  153.0012  135.6294  154.2489 H   0  0  0  0  0  0  0  0  0  0  0  0  # atno 10765 bound_to 10752
  141.1265  133.8410  157.1121 H   0  0  0  0  0  0  0  0  0  0  0  0  # atno 11005 bound_to 11000
  144.7344  139.7628  143.7335 LP  0  0  0  0  0  0  0  0  0  0  0  0  # atno 17320 bound_to 7965
  146.1635  139.4758  142.9973 LP  0  0  0  0  0  0  0  0  0  0  0  0  # atno 17321 bound_to 7965
  140.4261  144.2178  150.5887 LP  0  0  0  0  0  0  0  0  0  0  0  0  # atno 17342 bound_to 10162
  140.4826  143.2374  151.8934 LP  0  0  0  0  0  0  0  0  0  0  0  0  # atno 17343 bound_to 10162
  156.7670  130.4816  149.5426 LP  0  0  0  0  0  0  0  0  0  0  0  0  # atno 17370 bound_to 10713
  156.1382  130.6226  151.0430 LP  0  0  0  0  0  0  0  0  0  0  0  0  # atno 17371 bound_to 10713
  140.0269  134.9920  157.0703 LP  0  0  0  0  0  0  0  0  0  0  0  0  # atno 17394 bound_to 11000
  140.4349  134.1742  155.7170 LP  0  0  0  0  0  0  0  0  0  0  0  0  # atno 17395 bound_to 11000

$$$$
