AV-unprocessed.smi:156|AV-procd|sdf|1290|dock5
  -GOLD-   2262018573D 1   1.00000     0.00000
 Structure written by MMmdl.
 51 53  0  0  0  0  0  0  0  0  1 V2000
  146.3705  133.3182  158.9121 C   0  0  0  0  0  0  0  0  0  0  0  0
  146.9651  134.6620  158.4490 C   0  0  1  0  0  0  0  0  0  0  0  0
  147.7796  135.4279  159.5323 C   0  0  1  0  0  0  0  0  0  0  0  0
  148.5367  136.6197  158.9133 C   0  0  0  0  0  0  0  0  0  0  0  0
  146.6857  136.0203  160.9180 S   0  0  0  0  0  0  0  0  0  0  0  0
  147.1777  134.9655  162.3461 C   0  0  0  0  0  0  0  0  0  0  0  0
  147.0428  137.4116  161.2346 O   0  0  0  0  0  0  0  0  0  0  0  0
  145.2914  135.6861  160.5899 O   0  0  0  0  0  0  0  0  0  0  0  0
  147.7441  134.4586  157.2186 N   0  0  0  0  0  0  0  0  0  0  0  0
  148.9680  133.6632  157.2396 C   0  0  0  0  0  0  0  0  0  0  0  0
  147.1300  134.6680  156.0241 C   0  0  0  0  0  0  0  0  0  0  0  0
  146.1602  135.6183  155.9651 N   0  0  0  0  0  0  0  0  0  0  0  0
  145.5288  135.8751  154.8167 C   0  0  0  0  0  0  0  0  0  0  0  0
  145.7046  135.3059  153.6240 N   0  0  0  0  0  0  0  0  0  0  0  0
  146.6720  134.3459  153.6722 C   0  0  0  0  0  0  0  0  0  0  0  0
  147.4342  133.9709  154.8162 C   0  0  0  0  0  0  0  0  0  0  0  0
  148.3243  132.9601  154.4692 N   0  0  0  0  0  0  0  0  0  0  0  0
  148.1052  132.7556  153.1998 C   0  0  0  0  0  0  0  0  0  0  0  0
  147.1136  133.5309  152.6433 N   0  0  0  0  0  0  0  0  0  0  0  0
  146.6559  133.5109  151.2604 C   0  0  0  0  0  0  0  0  0  0  0  0
  145.2380  132.9304  151.0471 C   0  0  0  0  0  0  0  0  0  0  0  0
  144.2592  134.0046  151.5534 C   0  0  0  0  0  0  0  0  0  0  0  0
  142.9042  133.6415  151.3787 O   0  0  0  0  0  0  0  0  0  0  0  0
  144.9603  132.3219  149.6611 C   0  0  0  0  0  0  0  0  0  0  0  0
  145.1235  130.9772  150.1629 O   0  0  0  0  0  0  0  0  0  0  0  0
  144.9978  131.4816  151.5108 C   0  0  0  0  0  0  0  0  0  0  0  0
  145.5941  133.4553  159.6635 H   0  0  0  0  0  0  0  0  0  0  0  0
  147.1355  132.6623  159.3283 H   0  0  0  0  0  0  0  0  0  0  0  0
  145.9014  132.7941  158.0785 H   0  0  0  0  0  0  0  0  0  0  0  0
  146.1022  135.2889  158.2247 H   0  0  0  0  0  0  0  0  0  0  0  0
  148.5035  134.7563  159.9924 H   0  0  0  0  0  0  0  0  0  0  0  0
  149.1716  136.3069  158.0845 H   0  0  0  0  0  0  0  0  0  0  0  0
  149.1957  137.1004  159.6341 H   0  0  0  0  0  0  0  0  0  0  0  0
  147.8451  137.3716  158.5325 H   0  0  0  0  0  0  0  0  0  0  0  0
  146.4849  135.1360  163.1701 H   0  0  0  0  0  0  0  0  0  0  0  0
  148.1828  135.2257  162.6754 H   0  0  0  0  0  0  0  0  0  0  0  0
  147.1410  133.9153  162.0575 H   0  0  0  0  0  0  0  0  0  0  0  0
  149.5855  133.8744  156.3659 H   0  0  0  0  0  0  0  0  0  0  0  0
  148.7339  132.5985  157.2507 H   0  0  0  0  0  0  0  0  0  0  0  0
  149.5685  133.8829  158.1210 H   0  0  0  0  0  0  0  0  0  0  0  0
  144.7735  136.6456  154.8614 H   0  0  0  0  0  0  0  0  0  0  0  0
  148.6639  132.0248  152.6341 H   0  0  0  0  0  0  0  0  0  0  0  0
  146.7117  134.5325  150.8818 H   0  0  0  0  0  0  0  0  0  0  0  0
  147.3854  132.9431  150.6814 H   0  0  0  0  0  0  0  0  0  0  0  0
  144.4168  134.2014  152.6145 H   0  0  0  0  0  0  0  0  0  0  0  0
  144.4195  134.9492  151.0325 H   0  0  0  0  0  0  0  0  0  0  0  0
  142.6205  133.9346  150.5261 H   0  0  0  0  0  0  0  0  0  0  0  0
  143.9499  132.4883  149.2854 H   0  0  0  0  0  0  0  0  0  0  0  0
  145.6911  132.5817  148.8968 H   0  0  0  0  0  0  0  0  0  0  0  0
  145.7528  131.0810  152.1847 H   0  0  0  0  0  0  0  0  0  0  0  0
  144.0016  131.2962  151.9144 H   0  0  0  0  0  0  0  0  0  0  0  0
  1  2  1  0  0  0  0
  1 27  1  0  0  0  0
  1 28  1  0  0  0  0
  1 29  1  0  0  0  0
  2  3  1  0  0  0  0
  2  9  1  0  0  0  0
  2 30  1  0  0  0  0
  3  4  1  0  0  0  0
  3  5  1  0  0  0  0
  3 31  1  0  0  0  0
  4 32  1  0  0  0  0
  4 33  1  0  0  0  0
  4 34  1  0  0  0  0
  5  6  1  0  0  0  0
  5  7  2  0  0  0  0
  5  8  2  0  0  0  0
  6 35  1  0  0  0  0
  6 36  1  0  0  0  0
  6 37  1  0  0  0  0
  9 10  1  0  0  0  0
  9 11  1  0  0  0  0
 10 38  1  0  0  0  0
 10 39  1  0  0  0  0
 10 40  1  0  0  0  0
 11 16  1  0  0  0  0
 11 12  2  0  0  0  0
 12 13  1  0  0  0  0
 13 14  2  0  0  0  0
 13 41  1  0  0  0  0
 14 15  1  0  0  0  0
 15 19  1  0  0  0  0
 15 16  2  0  0  0  0
 16 17  1  0  0  0  0
 17 18  2  0  0  0  0
 18 19  1  0  0  0  0
 18 42  1  0  0  0  0
 19 20  1  0  0  0  0
 20 21  1  0  0  0  0
 20 43  1  0  0  0  0
 20 44  1  0  0  0  0
 21 26  1  0  0  0  0
 21 22  1  0  0  0  0
 21 24  1  0  0  0  0
 22 23  1  0  0  0  0
 22 45  1  0  0  0  0
 22 46  1  0  0  0  0
 23 47  1  0  0  0  0
 24 25  1  0  0  0  0
 24 48  1  0  0  0  0
 24 49  1  0  0  0  0
 25 26  1  0  0  0  0
 26 50  1  0  0  0  0
 26 51  1  0  0  0  0
M  END
> <s_m_source_file>
AV-unprocessed.smi

> <i_m_source_file_index>
156

> <i_lp_mmshare_version>
43012

> <i_f3d_flags>
0

> <s_epik_input>
W0NIM11TKD1PKSg9TylbQ0BASF0oW0NIM10pW0NAQEhdKFtDSDNdKU4oW0NIM10pYyhuW2NIXW4xKWMoYzEyKW5bY0hdbjJbQ0gyXUMzKFtDSDJdW09IXSlbQ0gyXU9bQ0gyXTM=

> <s_epik_cmdline>
J2VwaWtfcHl0aG9uJywgJy1waCcsICc3LjAnLCAnLXRuJywgJzgnLCAnLW1hJywgJzIwMCcsICctbWV0YWxfYmluZGluZycsICctaW1hZScsICc8aW5maWxlLm1hZT4nLCAnLW9tYWUnLCAnPG91dGZpbGUubWFlPic=

> <r_lp_tautomer_probability>
1

> <r_epik_Ionization_Penalty>
0.00107697

> <r_epik_Ionization_Penalty_Charging>
0

> <r_epik_Ionization_Penalty_Neutral>
0.00107697

> <r_epik_State_Penalty>
0.000614712

> <r_epik_Charging_Adjusted_Penalty>
0.000614712

> <i_epik_Tot_Q>
0

> <i_epik_Tot_abs_Q>
0

> <r_epik_Metal_State_Penalty>
-0

> <b_epik_Metal_Only>
0

> <s_lp_Force_Field>
OPLS_2005

> <r_lp_Energy>
27.5373

> <b_lp_Chiralities_Consistent>
1

> <s_lp_Variant>
AV-unprocessed.smi:156-4

> <Gold.Version>
5.8.1

> <Gold.Id.Protein>
6NUR|6NUR_protein|mol2

> <Gold.PLP.Fitness>
40.9861

> <Gold.PLP.PLP>
-30.8268

> <Gold.PLP.part.hbond>
-4.0000

> <Gold.PLP.part.metal>
0.0000

> <Gold.PLP.part.buried>
-3.5890

> <Gold.PLP.part.nonpolar>
-22.9839

> <Gold.PLP.part.repulsive>
0.2470

> <Gold.PLP.ligand.clash>
0.0000

> <Gold.PLP.ligand.torsion>
1.3073

> <Gold.PLP.Chemscore.Hbond>
2.8560

> <Gold.PLP.Chemscore.CHOScore>
1.0000

> <Gold.PLP.Chemscore.Metal>
0.0000

> <Gold.Chemscore.Hbonds>
donor molecule, donor type, donor heavy atom, donor atom, acceptor molecule, acceptor atom, score
      L1  H    23    47       P1 10186  0.82
      P1  H  6931  6943       L1     7  0.31
      P1  H  6934  6947       L1     7  1.00
      L1  C    18    42       P1 10747  0.75

> <Gold.PLP.Chemscore.Internal.Correction>
1.2059

> <Gold.Rescore>
     Score         DG    S(hbond)    S(metal)    S(lipo)     H(rot)  DE(clash)    DE(int)     intcor
      7.33     -11.77       2.21        0.00      60.85       3.21       0.08       4.37       ----

> <Gold.Chemscore.Fitness>
7.3275

> <Gold.Chemscore.DG>
-11.7699

> <Gold.Chemscore.ZeroCoef>
-5.4800

> <Gold.Chemscore.Hbond>
2.2131

> <Gold.Chemscore.Metal>
0.0000

> <Gold.Chemscore.Lipo>
60.8503

> <Gold.Chemscore.Internal_Hbond>
0.0000

> <Gold.Chemscore.DEClash>
0.0767

> <Gold.Chemscore.DEInternal>
4.3657

> <Gold.Chemscore.Rot>
3.2115

> <Gold.Chemscore.Internal.Correction>
   9.000000E+99

> <Gold.Chemscore.Hbonds>
donor molecule, donor type, donor heavy atom, donor atom, acceptor molecule, acceptor atom, score
      L1  H    23    47       P1 10186  0.71
      P1  H  6931  6943       L1     7  0.30
      P1  H  6934  6947       L1     7  0.99

> <Gold.Chemscore.Hbond.Weighted>
-7.3919

> <Gold.Chemscore.Metal.Weighted>
-0.0000

> <Gold.Chemscore.Lipo.Weighted>
-7.1195

> <Gold.Chemscore.Internal_Hbond.Weighted>
0.0000

> <Gold.Chemscore.DEClash.Weighted>
0.0767

> <Gold.Chemscore.DEInternal.Weighted>
4.3657

> <Gold.Chemscore.Rot.Weighted>
8.2215

> <Gold.Chemscore.Internal.Correction.Weighted>
   9.000000E+99

> <Gold.Protein.RotatedTorsions>
[ 6907 6896 6895 6894 ] final  -22.38 input  -60.11 | X-H torsion
[ 7974 7965 7964 7962 ] final  -42.80 input  175.53 | X-H torsion
[ 8008 7997 7996 7995 ] final  -56.52 input   59.86 | X-H torsion
[ 10167 10162 10161 10158 ] final   18.29 input  -65.29 | X-H torsion
[ 10718 10713 10712 10709 ] final   53.45 input   66.30 | X-H torsion
[ 10763 10752 10751 10750 ] final  -69.93 input  -60.55 | X-H torsion
[ 11005 11000 10999 10996 ] final  -30.83 input  -57.11 | X-H torsion

> <Gold.Protein.ActiveResidues>
 VAL166  LYS551  ARG553  GLY616  TRP617  ASP618  TYR619  PRO620  LYS621  CYS622 
 ASP623  PHE694  ASN695  SER759  ASP760  ASP761  ALA762  ILE779  LEU786  VAL792 
 PHE793  MET794  SER795  GLU796  ALA797  LYS798  CYS799  TRP800  GLU811  SER814 

> <Gold.Protein.RotatedAtoms>
  151.2195  135.0513  159.8943 H   0  0  0  0  0  0  0  0  0  0  0  0  # atno 6907 bound_to 6896
  152.5417  134.0656  159.8182 H   0  0  0  0  0  0  0  0  0  0  0  0  # atno 6908 bound_to 6896
  151.0821  133.5334  159.2652 H   0  0  0  0  0  0  0  0  0  0  0  0  # atno 6909 bound_to 6896
  146.0081  140.6997  142.9238 H   0  0  0  0  0  0  0  0  0  0  0  0  # atno 7974 bound_to 7965
  154.4233  140.1128  156.5650 H   0  0  0  0  0  0  0  0  0  0  0  0  # atno 8008 bound_to 7997
  155.6271  140.3495  155.4652 H   0  0  0  0  0  0  0  0  0  0  0  0  # atno 8009 bound_to 7997
  155.9977  140.1192  157.0567 H   0  0  0  0  0  0  0  0  0  0  0  0  # atno 8010 bound_to 7997
  140.5664  143.9243  150.6679 H   0  0  0  0  0  0  0  0  0  0  0  0  # atno 10167 bound_to 10162
  157.5168  130.8537  149.8505 H   0  0  0  0  0  0  0  0  0  0  0  0  # atno 10718 bound_to 10713
  154.4104  135.6010  153.5949 H   0  0  0  0  0  0  0  0  0  0  0  0  # atno 10763 bound_to 10752
  152.9790  135.5928  154.4077 H   0  0  0  0  0  0  0  0  0  0  0  0  # atno 10764 bound_to 10752
  154.3888  135.2842  155.2145 H   0  0  0  0  0  0  0  0  0  0  0  0  # atno 10765 bound_to 10752
  140.9416  133.7275  156.1084 H   0  0  0  0  0  0  0  0  0  0  0  0  # atno 11005 bound_to 11000
  144.6943  140.3350  143.7209 LP  0  0  0  0  0  0  0  0  0  0  0  0  # atno 17320 bound_to 7965
  145.7385  139.1757  143.2389 LP  0  0  0  0  0  0  0  0  0  0  0  0  # atno 17321 bound_to 7965
  140.2707  143.3458  152.1240 LP  0  0  0  0  0  0  0  0  0  0  0  0  # atno 17342 bound_to 10162
  139.5095  144.6868  151.5866 LP  0  0  0  0  0  0  0  0  0  0  0  0  # atno 17343 bound_to 10162
  156.0325  130.3760  150.1648 LP  0  0  0  0  0  0  0  0  0  0  0  0  # atno 17370 bound_to 10713
  156.9836  130.9872  151.3431 LP  0  0  0  0  0  0  0  0  0  0  0  0  # atno 17371 bound_to 10713
  140.7726  134.3815  157.5504 LP  0  0  0  0  0  0  0  0  0  0  0  0  # atno 17394 bound_to 11000
  139.8822  134.9032  156.2849 LP  0  0  0  0  0  0  0  0  0  0  0  0  # atno 17395 bound_to 11000

$$$$
