AV-unprocessed.smi:1972|AV-procd|sdf|7974|dock5
  -GOLD-   2272010153D 1   1.00000     0.00000
 Structure written by MMmdl.
 44 45  0  0  0  0  0  0  0  0  1 V2000
  148.6406  131.7396  154.0917 C   0  0  0  0  0  0  0  0  0  0  0  0
  149.8063  132.3970  155.3125 S   0  0  0  0  0  0  0  0  0  0  0  0
  149.5832  134.1748  155.0142 C   0  0  0  0  0  0  0  0  0  0  0  0
  150.5186  135.0367  155.8818 C   0  0  0  0  0  0  0  0  0  0  0  0
  150.2704  136.5427  155.7424 C   0  0  0  0  0  0  0  0  0  0  0  0
  149.8787  137.2020  156.7056 O   0  0  0  0  0  0  0  0  0  0  0  0
  150.4916  137.0710  154.5284 N   0  0  0  0  0  0  0  0  0  0  0  0
  150.3333  138.4782  154.1706 C   0  0  0  0  0  0  0  0  0  0  0  0
  150.7893  139.4567  155.2447 C   0  0  0  0  0  0  0  0  0  0  0  0
  150.1103  140.6787  155.4184 C   0  0  0  0  0  0  0  0  0  0  0  0
  150.5517  141.5759  156.4095 C   0  0  0  0  0  0  0  0  0  0  0  0
  151.6735  141.2334  157.2016 C   0  0  0  0  0  0  0  0  0  0  0  0
  152.1365  142.1163  158.2022 N   0  0  0  0  0  0  0  0  0  0  0  0
  151.5817  143.4684  158.2351 C   0  0  0  0  0  0  0  0  0  0  0  0
  152.4034  144.3626  159.1780 C   0  0  0  0  0  0  0  0  0  0  0  0
  152.4774  143.7614  160.4665 O   0  0  0  0  0  0  0  0  0  0  0  0
  153.1266  142.4937  160.4301 C   0  0  1  0  0  0  0  0  0  0  0  0
  153.2444  141.9716  161.8657 C   0  0  0  0  0  0  0  0  0  0  0  0
  152.3213  141.5360  159.5303 C   0  0  0  0  0  0  0  0  0  0  0  0
  152.3260  140.0570  157.0308 N   0  0  0  0  0  0  0  0  0  0  0  0
  151.8984  139.2005  156.0795 C   0  0  0  0  0  0  0  0  0  0  0  0
  148.6358  130.6501  154.1240 H   0  0  0  0  0  0  0  0  0  0  0  0
  148.9230  132.0550  153.0871 H   0  0  0  0  0  0  0  0  0  0  0  0
  147.6315  132.0965  154.2989 H   0  0  0  0  0  0  0  0  0  0  0  0
  149.7879  134.3686  153.9611 H   0  0  0  0  0  0  0  0  0  0  0  0
  148.5382  134.4401  155.1796 H   0  0  0  0  0  0  0  0  0  0  0  0
  150.4371  134.7347  156.9272 H   0  0  0  0  0  0  0  0  0  0  0  0
  151.5519  134.8491  155.5885 H   0  0  0  0  0  0  0  0  0  0  0  0
  150.8078  136.4510  153.7966 H   0  0  0  0  0  0  0  0  0  0  0  0
  150.8583  138.7077  153.2421 H   0  0  0  0  0  0  0  0  0  0  0  0
  149.2751  138.6442  153.9672 H   0  0  0  0  0  0  0  0  0  0  0  0
  149.2565  140.9267  154.8050 H   0  0  0  0  0  0  0  0  0  0  0  0
  150.0181  142.5026  156.5573 H   0  0  0  0  0  0  0  0  0  0  0  0
  151.5835  143.9034  157.2348 H   0  0  0  0  0  0  0  0  0  0  0  0
  150.5449  143.4244  158.5714 H   0  0  0  0  0  0  0  0  0  0  0  0
  153.4073  144.5263  158.7825 H   0  0  0  0  0  0  0  0  0  0  0  0
  151.9343  145.3422  159.2690 H   0  0  0  0  0  0  0  0  0  0  0  0
  154.1322  142.6191  160.0241 H   0  0  0  0  0  0  0  0  0  0  0  0
  153.7487  141.0054  161.8913 H   0  0  0  0  0  0  0  0  0  0  0  0
  152.2622  141.8494  162.3232 H   0  0  0  0  0  0  0  0  0  0  0  0
  153.8174  142.6620  162.4851 H   0  0  0  0  0  0  0  0  0  0  0  0
  151.3400  141.3460  159.9674 H   0  0  0  0  0  0  0  0  0  0  0  0
  152.8371  140.5781  159.4839 H   0  0  0  0  0  0  0  0  0  0  0  0
  152.4680  138.2881  155.9878 H   0  0  0  0  0  0  0  0  0  0  0  0
  1  2  1  0  0  0  0
  1 22  1  0  0  0  0
  1 23  1  0  0  0  0
  1 24  1  0  0  0  0
  2  3  1  0  0  0  0
  3  4  1  0  0  0  0
  3 25  1  0  0  0  0
  3 26  1  0  0  0  0
  4  5  1  0  0  0  0
  4 27  1  0  0  0  0
  4 28  1  0  0  0  0
  5  6  2  0  0  0  0
  5  7  1  0  0  0  0
  7  8  1  0  0  0  0
  7 29  1  0  0  0  0
  8  9  1  0  0  0  0
  8 30  1  0  0  0  0
  8 31  1  0  0  0  0
  9 21  1  0  0  0  0
  9 10  2  0  0  0  0
 10 11  1  0  0  0  0
 10 32  1  0  0  0  0
 11 12  2  0  0  0  0
 11 33  1  0  0  0  0
 12 13  1  0  0  0  0
 12 20  1  0  0  0  0
 13 19  1  0  0  0  0
 13 14  1  0  0  0  0
 14 15  1  0  0  0  0
 14 34  1  0  0  0  0
 14 35  1  0  0  0  0
 15 16  1  0  0  0  0
 15 36  1  0  0  0  0
 15 37  1  0  0  0  0
 16 17  1  0  0  0  0
 17 18  1  0  0  0  0
 17 19  1  0  0  0  0
 17 38  1  0  0  0  0
 18 39  1  0  0  0  0
 18 40  1  0  0  0  0
 18 41  1  0  0  0  0
 19 42  1  0  0  0  0
 19 43  1  0  0  0  0
 20 21  2  0  0  0  0
 21 44  1  0  0  0  0
M  END
> <s_m_source_file>
AV-unprocessed.smi

> <i_m_source_file_index>
1972

> <i_lp_mmshare_version>
43012

> <i_f3d_flags>
0

> <s_epik_input>
W0NIM11TW0NIMl1bQ0gyXUMoPU8pW05IXVtDSDJdYzFbY0hdW2NIXWMobltjSF0xKU4yW0NIMl1bQ0gyXU9bQ0BASF0oW0NIM10pW0NIMl0y

> <s_epik_cmdline>
J2VwaWtfcHl0aG9uJywgJy1waCcsICc3LjAnLCAnLXRuJywgJzgnLCAnLW1hJywgJzIwMCcsICctbWV0YWxfYmluZGluZycsICctaW1hZScsICc8aW5maWxlLm1hZT4nLCAnLW9tYWUnLCAnPG91dGZpbGUubWFlPic=

> <r_lp_tautomer_probability>
1

> <r_epik_Ionization_Penalty>
0.00559088

> <r_epik_Ionization_Penalty_Charging>
0

> <r_epik_Ionization_Penalty_Neutral>
0.00559088

> <r_epik_State_Penalty>
0.00409544

> <r_epik_Charging_Adjusted_Penalty>
0.00409544

> <i_epik_Tot_Q>
0

> <i_epik_Tot_abs_Q>
0

> <r_epik_Metal_State_Penalty>
-0

> <b_epik_Metal_Only>
0

> <s_lp_Force_Field>
OPLS_2005

> <r_lp_Energy>
17.6906

> <b_lp_Chiralities_Consistent>
1

> <s_lp_Variant>
AV-unprocessed.smi:1972-1

> <Gold.Version>
5.8.1

> <Gold.Id.Protein>
6NUR|6NUR_protein|mol2

> <Gold.PLP.Fitness>
49.5959

> <Gold.PLP.PLP>
-45.3113

> <Gold.PLP.part.hbond>
-2.8902

> <Gold.PLP.part.metal>
0.0000

> <Gold.PLP.part.buried>
-2.6087

> <Gold.PLP.part.nonpolar>
-39.0581

> <Gold.PLP.part.repulsive>
0.1377

> <Gold.PLP.ligand.clash>
0.0000

> <Gold.PLP.ligand.torsion>
0.6974

> <Gold.PLP.Chemscore.Hbond>
1.7459

> <Gold.PLP.Chemscore.CHOScore>
0.0000

> <Gold.PLP.Chemscore.Metal>
0.0000

> <Gold.Chemscore.Hbonds>
donor molecule, donor type, donor heavy atom, donor atom, acceptor molecule, acceptor atom, score
      L1  H     7    29       P1  7949  0.10
      P1  H  7997  8008       L1    20  0.82

> <Gold.PLP.Chemscore.Internal.Correction>
0.4417

> <Gold.Rescore>
     Score         DG    S(hbond)    S(metal)    S(lipo)     H(rot)  DE(clash)    DE(int)     intcor
     12.72     -16.28       0.56        0.00     114.65       1.75       0.15       3.42       ----

> <Gold.Chemscore.Fitness>
12.7198

> <Gold.Chemscore.DG>
-16.2839

> <Gold.Chemscore.ZeroCoef>
-5.4800

> <Gold.Chemscore.Hbond>
0.5566

> <Gold.Chemscore.Metal>
0.0000

> <Gold.Chemscore.Lipo>
114.6537

> <Gold.Chemscore.Internal_Hbond>
0.0000

> <Gold.Chemscore.DEClash>
0.1478

> <Gold.Chemscore.DEInternal>
3.4163

> <Gold.Chemscore.Rot>
1.7460

> <Gold.Chemscore.Internal.Correction>
   9.000000E+99

> <Gold.Chemscore.Hbonds>
donor molecule, donor type, donor heavy atom, donor atom, acceptor molecule, acceptor atom, score
      L1  H     7    29       P1  7949  0.02
      P1  H  7997  8008       L1    20  0.17

> <Gold.Chemscore.Hbond.Weighted>
-1.8591

> <Gold.Chemscore.Metal.Weighted>
-0.0000

> <Gold.Chemscore.Lipo.Weighted>
-13.4145

> <Gold.Chemscore.Internal_Hbond.Weighted>
0.0000

> <Gold.Chemscore.DEClash.Weighted>
0.1478

> <Gold.Chemscore.DEInternal.Weighted>
3.4163

> <Gold.Chemscore.Rot.Weighted>
4.4697

> <Gold.Chemscore.Internal.Correction.Weighted>
   9.000000E+99

> <Gold.Protein.RotatedTorsions>
[ 6907 6896 6895 6894 ] final  136.46 input  -60.11 | X-H torsion
[ 7974 7965 7964 7962 ] final  132.28 input  175.53 | X-H torsion
[ 8008 7997 7996 7995 ] final  -51.95 input   59.86 | X-H torsion
[ 10167 10162 10161 10158 ] final -158.67 input  -65.29 | X-H torsion
[ 10718 10713 10712 10709 ] final  113.07 input   66.30 | X-H torsion
[ 10763 10752 10751 10750 ] final   22.93 input  -60.55 | X-H torsion
[ 11005 11000 10999 10996 ] final -178.84 input  -57.11 | X-H torsion

> <Gold.Protein.ActiveResidues>
 VAL166  LYS551  ARG553  GLY616  TRP617  ASP618  TYR619  PRO620  LYS621  CYS622 
 ASP623  PHE694  ASN695  SER759  ASP760  ASP761  ALA762  ILE779  LEU786  VAL792 
 PHE793  MET794  SER795  GLU796  ALA797  LYS798  CYS799  TRP800  GLU811  SER814 

> <Gold.Protein.RotatedAtoms>
  152.2891  133.5544  159.5545 H   0  0  0  0  0  0  0  0  0  0  0  0  # atno 6907 bound_to 6896
  150.7228  134.0454  159.3789 H   0  0  0  0  0  0  0  0  0  0  0  0  # atno 6908 bound_to 6896
  151.8361  135.0606  160.0493 H   0  0  0  0  0  0  0  0  0  0  0  0  # atno 6909 bound_to 6896
  144.9985  139.4335  143.5304 H   0  0  0  0  0  0  0  0  0  0  0  0  # atno 7974 bound_to 7965
  154.4095  140.1235  156.4913 H   0  0  0  0  0  0  0  0  0  0  0  0  # atno 8008 bound_to 7997
  155.6987  140.3495  155.4904 H   0  0  0  0  0  0  0  0  0  0  0  0  # atno 8009 bound_to 7997
  155.9404  140.1086  157.1050 H   0  0  0  0  0  0  0  0  0  0  0  0  # atno 8010 bound_to 7997
  139.6674  143.9805  152.2263 H   0  0  0  0  0  0  0  0  0  0  0  0  # atno 10167 bound_to 10162
  157.6358  131.0978  150.6988 H   0  0  0  0  0  0  0  0  0  0  0  0  # atno 10718 bound_to 10713
  153.0877  135.6638  153.9916 H   0  0  0  0  0  0  0  0  0  0  0  0  # atno 10763 bound_to 10752
  153.9521  135.2983  155.3439 H   0  0  0  0  0  0  0  0  0  0  0  0  # atno 10764 bound_to 10752
  154.7288  135.5132  153.9002 H   0  0  0  0  0  0  0  0  0  0  0  0  # atno 10765 bound_to 10752
  140.4253  134.6568  157.4685 H   0  0  0  0  0  0  0  0  0  0  0  0  # atno 11005 bound_to 11000
  146.3447  139.9359  142.8747 LP  0  0  0  0  0  0  0  0  0  0  0  0  # atno 17320 bound_to 7965
  145.2186  140.9925  143.4059 LP  0  0  0  0  0  0  0  0  0  0  0  0  # atno 17321 bound_to 7965
  139.9560  144.6589  150.8125 LP  0  0  0  0  0  0  0  0  0  0  0  0  # atno 17342 bound_to 10162
  140.7605  143.3152  151.2751 LP  0  0  0  0  0  0  0  0  0  0  0  0  # atno 17343 bound_to 10162
  156.7320  130.4712  149.5497 LP  0  0  0  0  0  0  0  0  0  0  0  0  # atno 17370 bound_to 10713
  156.1596  130.6365  151.0702 LP  0  0  0  0  0  0  0  0  0  0  0  0  # atno 17371 bound_to 10713
  140.0172  134.6602  155.9293 LP  0  0  0  0  0  0  0  0  0  0  0  0  # atno 17394 bound_to 11000
  141.1768  133.6541  156.4859 LP  0  0  0  0  0  0  0  0  0  0  0  0  # atno 17395 bound_to 11000

$$$$
