AV-unprocessed.smi:2195|AV-procd|sdf|8907|dock9
  -GOLD-   2272012123D 1   1.00000     0.00000
 Structure written by MMmdl.
 40 42  0  0  0  0  0  0  0  0  2 V2000
  143.1267  145.3133  155.0243 C   0  0  0  0  0  0  0  0  0  0  0  0
  144.1071  144.1584  155.0227 C   0  0  0  0  0  0  0  0  0  0  0  0
  144.9035  143.9033  153.8891 C   0  0  0  0  0  0  0  0  0  0  0  0
  145.8147  142.8296  153.8934 C   0  0  0  0  0  0  0  0  0  0  0  0
  145.9482  141.9991  155.0249 C   0  0  0  0  0  0  0  0  0  0  0  0
  146.8652  140.9728  154.9435 O   0  0  0  0  0  0  0  0  0  0  0  0
  148.0028  141.1514  154.1100 C   0  0  0  0  0  0  0  0  0  0  0  0
  149.2557  140.6830  154.8653 C   0  0  1  0  0  0  0  0  0  0  0  0
  150.1400  140.0883  153.9358 O   0  0  0  0  0  0  0  0  0  0  0  0
  149.9607  141.8363  155.6073 C   0  0  0  0  0  0  0  0  0  0  0  0
  150.7154  141.3812  156.7839 N   0  0  0  0  0  0  0  0  0  0  0  0
  150.9505  140.1165  157.2271 C   0  0  0  0  0  0  0  0  0  0  0  0
  151.7000  140.2094  158.3603 N   0  3  0  0  0  0  0  0  0  0  0  0
  151.9486  141.5536  158.6459 C   0  0  0  0  0  0  0  0  0  0  0  0
  152.6593  142.1472  159.6847 C   0  0  0  0  0  0  0  0  0  0  0  0
  152.7242  143.5562  159.6828 C   0  0  0  0  0  0  0  0  0  0  0  0
  152.0994  144.3189  158.6748 C   0  0  0  0  0  0  0  0  0  0  0  0
  151.3809  143.7064  157.6271 C   0  0  0  0  0  0  0  0  0  0  0  0
  151.3192  142.3132  157.6367 C   0  0  0  0  0  0  0  0  0  0  0  0
  145.1460  142.2636  156.1637 C   0  0  0  0  0  0  0  0  0  0  0  0
  144.2327  143.3360  156.1597 C   0  0  0  0  0  0  0  0  0  0  0  0
  142.8324  145.5795  154.0085 H   0  0  0  0  0  0  0  0  0  0  0  0
  143.5785  146.1886  155.4914 H   0  0  0  0  0  0  0  0  0  0  0  0
  142.2248  145.0538  155.5795 H   0  0  0  0  0  0  0  0  0  0  0  0
  144.8191  144.5290  153.0125 H   0  0  0  0  0  0  0  0  0  0  0  0
  146.4185  142.6420  153.0178 H   0  0  0  0  0  0  0  0  0  0  0  0
  147.8802  140.5592  153.2014 H   0  0  0  0  0  0  0  0  0  0  0  0
  148.1100  142.1982  153.8201 H   0  0  0  0  0  0  0  0  0  0  0  0
  148.9707  139.9115  155.5819 H   0  0  0  0  0  0  0  0  0  0  0  0
  149.6793  139.9665  153.1194 H   0  0  0  0  0  0  0  0  0  0  0  0
  150.6254  142.3893  154.9434 H   0  0  0  0  0  0  0  0  0  0  0  0
  149.2219  142.5553  155.9633 H   0  0  0  0  0  0  0  0  0  0  0  0
  150.6045  139.2037  156.7635 H   0  0  0  0  0  0  0  0  0  0  0  0
  153.1408  141.5655  160.4569 H   0  0  0  0  0  0  0  0  0  0  0  0
  153.2650  144.0623  160.4693 H   0  0  0  0  0  0  0  0  0  0  0  0
  152.1738  145.3963  158.7044 H   0  0  0  0  0  0  0  0  0  0  0  0
  150.9116  144.3000  156.8567 H   0  0  0  0  0  0  0  0  0  0  0  0
  145.2120  141.6591  157.0554 H   0  0  0  0  0  0  0  0  0  0  0  0
  143.6284  143.5250  157.0347 H   0  0  0  0  0  0  0  0  0  0  0  0
  152.0178  139.4124  158.8970 H   0  0  0  0  0  0  0  0  0  0  0  0
  1  2  1  0  0  0  0
  1 22  1  0  0  0  0
  1 23  1  0  0  0  0
  1 24  1  0  0  0  0
  2 21  1  0  0  0  0
  2  3  2  0  0  0  0
  3  4  1  0  0  0  0
  3 25  1  0  0  0  0
  4  5  2  0  0  0  0
  4 26  1  0  0  0  0
  5  6  1  0  0  0  0
  5 20  1  0  0  0  0
  6  7  1  0  0  0  0
  7  8  1  0  0  0  0
  7 27  1  0  0  0  0
  7 28  1  0  0  0  0
  8  9  1  0  0  0  0
  8 10  1  0  0  0  0
  8 29  1  0  0  0  0
  9 30  1  0  0  0  0
 10 11  1  0  0  0  0
 10 31  1  0  0  0  0
 10 32  1  0  0  0  0
 11 19  1  0  0  0  0
 11 12  1  0  0  0  0
 12 13  2  0  0  0  0
 12 33  1  0  0  0  0
 13 14  1  0  0  0  0
 13 40  1  0  0  0  0
 14 19  2  0  0  0  0
 14 15  1  0  0  0  0
 15 16  2  0  0  0  0
 15 34  1  0  0  0  0
 16 17  1  0  0  0  0
 16 35  1  0  0  0  0
 17 18  2  0  0  0  0
 17 36  1  0  0  0  0
 18 19  1  0  0  0  0
 18 37  1  0  0  0  0
 20 21  2  0  0  0  0
 20 38  1  0  0  0  0
 21 39  1  0  0  0  0
M  CHG  1  13   1
M  END
> <s_m_source_file>
AV-unprocessed.smi

> <i_m_source_file_index>
2195

> <i_lp_mmshare_version>
43012

> <i_f3d_flags>
0

> <s_epik_input>
W0NIM11jMVtjSF1bY0hdYyhbY0hdW2NIXTEpT1tDSDJdW0NASF0oW09IXSlbQ0gyXW4oW2NIXW4yKWMoYzIzKVtjSF1bY0hdW2NIXVtjSF0z

> <s_epik_cmdline>
J2VwaWtfcHl0aG9uJywgJy1waCcsICc3LjAnLCAnLXRuJywgJzgnLCAnLW1hJywgJzIwMCcsICctbWV0YWxfYmluZGluZycsICctaW1hZScsICc8aW5maWxlLm1hZT4nLCAnLW9tYWUnLCAnPG91dGZpbGUubWFlPic=

> <r_lp_tautomer_probability>
1

> <r_epik_Ionization_Penalty>
1.3774

> <r_epik_Ionization_Penalty_Charging>
1.37739

> <r_epik_Ionization_Penalty_Neutral>
2.3993e-06

> <r_epik_State_Penalty>
1.45762

> <r_epik_Charging_Adjusted_Penalty>
2.83501

> <i_epik_Tot_Q>
1

> <i_epik_Tot_abs_Q>
1

> <r_epik_Metal_State_Penalty>
5.49752

> <b_epik_Metal_Only>
0

> <s_lp_Force_Field>
OPLS_2005

> <r_lp_Energy>
19.9339

> <b_lp_Chiralities_Consistent>
1

> <s_lp_Variant>
AV-unprocessed.smi:2195-4

> <Gold.Version>
5.8.1

> <Gold.Id.Protein>
6NUR|6NUR_protein|mol2

> <Gold.PLP.Fitness>
54.1383

> <Gold.PLP.PLP>
-51.1466

> <Gold.PLP.part.hbond>
-2.0000

> <Gold.PLP.part.metal>
0.0000

> <Gold.PLP.part.buried>
-6.7667

> <Gold.PLP.part.nonpolar>
-42.9610

> <Gold.PLP.part.repulsive>
0.2414

> <Gold.PLP.ligand.clash>
0.0000

> <Gold.PLP.ligand.torsion>
1.4977

> <Gold.PLP.Chemscore.Hbond>
1.9760

> <Gold.PLP.Chemscore.CHOScore>
0.0000

> <Gold.PLP.Chemscore.Metal>
0.0000

> <Gold.Chemscore.Hbonds>
donor molecule, donor type, donor heavy atom, donor atom, acceptor molecule, acceptor atom, score
      L1  H     9    30       P1  7957  1.00
      P1  H  7989  7998       L1     9  0.90

> <Gold.PLP.Chemscore.Internal.Correction>
0.0592

> <Gold.Rescore>
     Score         DG    S(hbond)    S(metal)    S(lipo)     H(rot)  DE(clash)    DE(int)     intcor
     17.68     -19.43       1.45        0.00     127.59       2.27       0.16       1.59       ----

> <Gold.Chemscore.Fitness>
17.6821

> <Gold.Chemscore.DG>
-19.4326

> <Gold.Chemscore.ZeroCoef>
-5.4800

> <Gold.Chemscore.Hbond>
1.4496

> <Gold.Chemscore.Metal>
0.0000

> <Gold.Chemscore.Lipo>
127.5911

> <Gold.Chemscore.Internal_Hbond>
0.0000

> <Gold.Chemscore.DEClash>
0.1627

> <Gold.Chemscore.DEInternal>
1.5878

> <Gold.Chemscore.Rot>
2.2723

> <Gold.Chemscore.Internal.Correction>
   9.000000E+99

> <Gold.Chemscore.Hbonds>
donor molecule, donor type, donor heavy atom, donor atom, acceptor molecule, acceptor atom, score
      L1  H     9    30       P1  7957  0.94
      P1  H  7989  7998       L1     9  0.39

> <Gold.Chemscore.Hbond.Weighted>
-4.8415

> <Gold.Chemscore.Metal.Weighted>
-0.0000

> <Gold.Chemscore.Lipo.Weighted>
-14.9282

> <Gold.Chemscore.Internal_Hbond.Weighted>
0.0000

> <Gold.Chemscore.DEClash.Weighted>
0.1627

> <Gold.Chemscore.DEInternal.Weighted>
1.5878

> <Gold.Chemscore.Rot.Weighted>
5.8170

> <Gold.Chemscore.Internal.Correction.Weighted>
   9.000000E+99

> <Gold.Protein.RotatedTorsions>
[ 6907 6896 6895 6894 ] final  -65.81 input  -60.11 | X-H torsion
[ 7974 7965 7964 7962 ] final   -5.66 input  175.53 | X-H torsion
[ 8008 7997 7996 7995 ] final   17.57 input   59.86 | X-H torsion
[ 10167 10162 10161 10158 ] final  -80.36 input  -65.29 | X-H torsion
[ 10718 10713 10712 10709 ] final -107.62 input   66.30 | X-H torsion
[ 10763 10752 10751 10750 ] final  -35.60 input  -60.55 | X-H torsion
[ 11005 11000 10999 10996 ] final   61.74 input  -57.11 | X-H torsion

> <Gold.Protein.ActiveResidues>
 VAL166  LYS551  ARG553  GLY616  TRP617  ASP618  TYR619  PRO620  LYS621  CYS622 
 ASP623  PHE694  ASN695  SER759  ASP760  ASP761  ALA762  ILE779  LEU786  VAL792 
 PHE793  MET794  SER795  GLU796  ALA797  LYS798  CYS799  TRP800  GLU811  SER814 

> <Gold.Protein.RotatedAtoms>
  150.7502  134.6109  159.6085 H   0  0  0  0  0  0  0  0  0  0  0  0  # atno 6907 bound_to 6896
  152.3443  134.7089  160.0264 H   0  0  0  0  0  0  0  0  0  0  0  0  # atno 6908 bound_to 6896
  151.7531  133.3292  159.3433 H   0  0  0  0  0  0  0  0  0  0  0  0  # atno 6909 bound_to 6896
  146.2348  140.2055  142.8334 H   0  0  0  0  0  0  0  0  0  0  0  0  # atno 7974 bound_to 7965
  154.8934  140.2990  155.5358 H   0  0  0  0  0  0  0  0  0  0  0  0  # atno 8008 bound_to 7997
  156.3020  140.2420  156.3887 H   0  0  0  0  0  0  0  0  0  0  0  0  # atno 8009 bound_to 7997
  154.8595  140.0406  157.1645 H   0  0  0  0  0  0  0  0  0  0  0  0  # atno 8010 bound_to 7997
  140.4510  143.2483  151.8489 H   0  0  0  0  0  0  0  0  0  0  0  0  # atno 10167 bound_to 10162
  156.0445  130.5671  150.7846 H   0  0  0  0  0  0  0  0  0  0  0  0  # atno 10718 bound_to 10713
  153.8659  135.6835  153.4778 H   0  0  0  0  0  0  0  0  0  0  0  0  # atno 10763 bound_to 10752
  153.1315  135.4696  154.9354 H   0  0  0  0  0  0  0  0  0  0  0  0  # atno 10764 bound_to 10752
  154.7737  135.3246  154.8086 H   0  0  0  0  0  0  0  0  0  0  0  0  # atno 10765 bound_to 10752
  140.0140  134.6253  155.9737 H   0  0  0  0  0  0  0  0  0  0  0  0  # atno 11005 bound_to 11000
  144.9748  140.8403  143.5433 LP  0  0  0  0  0  0  0  0  0  0  0  0  # atno 17320 bound_to 7965
  145.2041  139.2237  143.5177 LP  0  0  0  0  0  0  0  0  0  0  0  0  # atno 17321 bound_to 7965
  139.4797  144.5120  151.8920 LP  0  0  0  0  0  0  0  0  0  0  0  0  # atno 17342 bound_to 10162
  140.4207  144.2247  150.5887 LP  0  0  0  0  0  0  0  0  0  0  0  0  # atno 17343 bound_to 10162
  157.5304  131.0936  150.9962 LP  0  0  0  0  0  0  0  0  0  0  0  0  # atno 17370 bound_to 10713
  157.0270  130.5696  149.5338 LP  0  0  0  0  0  0  0  0  0  0  0  0  # atno 17371 bound_to 10713
  141.1730  133.6538  156.4723 LP  0  0  0  0  0  0  0  0  0  0  0  0  # atno 17394 bound_to 11000
  140.4503  134.6934  157.5036 LP  0  0  0  0  0  0  0  0  0  0  0  0  # atno 17395 bound_to 11000

$$$$
