AV-unprocessed.smi:2110|AV-procd|sdf|8609|dock6
  -GOLD-   2272011353D 1   1.00000     0.00000
 Structure written by MMmdl.
 47 48  0  0  0  0  0  0  0  0  2 V2000
  151.9570  144.6772  158.4191 C   0  0  0  0  0  0  0  0  0  0  0  0
  151.6840  143.3795  157.6478 C   0  0  0  0  0  0  0  0  0  0  0  0
  151.7372  142.2153  158.5460 N   0  0  0  0  0  0  0  0  0  0  0  0
  152.5558  142.3524  159.7616 C   0  0  0  0  0  0  0  0  0  0  0  0
  153.7319  141.3657  159.7628 C   0  0  0  0  0  0  0  0  0  0  0  0
  151.3586  140.6359  157.9384 S   0  0  0  0  0  0  0  0  0  0  0  0
  152.4580  140.1761  157.0756 O   0  0  0  0  0  0  0  0  0  0  0  0
  150.8686  139.8152  159.0558 O   0  0  0  0  0  0  0  0  0  0  0  0
  150.0130  141.0419  156.9344 N   0  0  0  0  0  0  0  0  0  0  0  0
  150.1122  141.0279  155.4729 C   0  0  0  0  0  0  0  0  0  0  0  0
  148.7677  141.0651  154.7676 C   0  0  0  0  0  0  0  0  0  0  0  0
  148.5148  140.2007  153.6827 C   0  0  0  0  0  0  0  0  0  0  0  0
  147.2597  140.2489  153.0490 C   0  0  0  0  0  0  0  0  0  0  0  0
  146.3209  141.1166  153.4828 N   0  3  0  0  0  0  0  0  0  0  0  0
  146.5037  141.9750  154.5163 C   0  0  0  0  0  0  0  0  0  0  0  0
  145.4308  142.8207  154.8765 N   0  0  0  0  0  0  0  0  0  0  0  0
  144.2763  142.1834  155.5086 C   0  0  0  0  0  0  0  0  0  0  0  0
  143.3529  143.2394  156.1394 C   0  0  0  0  0  0  0  0  0  0  0  0
  142.9955  144.2104  155.1628 O   0  0  0  0  0  0  0  0  0  0  0  0
  144.1348  144.9083  154.6744 C   0  0  0  0  0  0  0  0  0  0  0  0
  145.0900  143.9226  153.9808 C   0  0  0  0  0  0  0  0  0  0  0  0
  147.7566  141.9622  155.1805 C   0  0  0  0  0  0  0  0  0  0  0  0
  151.9313  145.5362  157.7487 H   0  0  0  0  0  0  0  0  0  0  0  0
  152.9388  144.6553  158.8927 H   0  0  0  0  0  0  0  0  0  0  0  0
  151.2144  144.8470  159.1982 H   0  0  0  0  0  0  0  0  0  0  0  0
  150.7038  143.4203  157.1719 H   0  0  0  0  0  0  0  0  0  0  0  0
  152.4112  143.2707  156.8424 H   0  0  0  0  0  0  0  0  0  0  0  0
  152.9441  143.3690  159.8252 H   0  0  0  0  0  0  0  0  0  0  0  0
  151.9275  142.2064  160.6410 H   0  0  0  0  0  0  0  0  0  0  0  0
  154.3468  141.5026  160.6524 H   0  0  0  0  0  0  0  0  0  0  0  0
  154.3725  141.5141  158.8934 H   0  0  0  0  0  0  0  0  0  0  0  0
  153.3918  140.3303  159.7565 H   0  0  0  0  0  0  0  0  0  0  0  0
  149.3546  141.7095  157.3358 H   0  0  0  0  0  0  0  0  0  0  0  0
  150.6850  141.9000  155.1580 H   0  0  0  0  0  0  0  0  0  0  0  0
  150.6792  140.1521  155.1580 H   0  0  0  0  0  0  0  0  0  0  0  0
  149.2678  139.5046  153.3427 H   0  0  0  0  0  0  0  0  0  0  0  0
  146.9777  139.6212  152.2162 H   0  0  0  0  0  0  0  0  0  0  0  0
  143.7321  141.6153  154.7534 H   0  0  0  0  0  0  0  0  0  0  0  0
  144.5800  141.4789  156.2825 H   0  0  0  0  0  0  0  0  0  0  0  0
  142.4464  142.7665  156.5174 H   0  0  0  0  0  0  0  0  0  0  0  0
  143.8372  143.7223  156.9897 H   0  0  0  0  0  0  0  0  0  0  0  0
  143.8082  145.6729  153.9695 H   0  0  0  0  0  0  0  0  0  0  0  0
  144.6369  145.4257  155.4937 H   0  0  0  0  0  0  0  0  0  0  0  0
  145.9889  144.4620  153.6815 H   0  0  0  0  0  0  0  0  0  0  0  0
  144.6274  143.5226  153.0776 H   0  0  0  0  0  0  0  0  0  0  0  0
  147.9618  142.6278  156.0052 H   0  0  0  0  0  0  0  0  0  0  0  0
  145.4181  141.1219  153.0077 H   0  0  0  0  0  0  0  0  0  0  0  0
  1  2  1  0  0  0  0
  1 23  1  0  0  0  0
  1 24  1  0  0  0  0
  1 25  1  0  0  0  0
  2  3  1  0  0  0  0
  2 26  1  0  0  0  0
  2 27  1  0  0  0  0
  3  4  1  0  0  0  0
  3  6  1  0  0  0  0
  4  5  1  0  0  0  0
  4 28  1  0  0  0  0
  4 29  1  0  0  0  0
  5 30  1  0  0  0  0
  5 31  1  0  0  0  0
  5 32  1  0  0  0  0
  6  7  2  0  0  0  0
  6  8  2  0  0  0  0
  6  9  1  0  0  0  0
  9 10  1  0  0  0  0
  9 33  1  0  0  0  0
 10 11  1  0  0  0  0
 10 34  1  0  0  0  0
 10 35  1  0  0  0  0
 11 22  1  0  0  0  0
 11 12  2  0  0  0  0
 12 13  1  0  0  0  0
 12 36  1  0  0  0  0
 13 14  2  0  0  0  0
 13 37  1  0  0  0  0
 14 15  1  0  0  0  0
 14 47  1  0  0  0  0
 15 16  1  0  0  0  0
 15 22  2  0  0  0  0
 16 21  1  0  0  0  0
 16 17  1  0  0  0  0
 17 18  1  0  0  0  0
 17 38  1  0  0  0  0
 17 39  1  0  0  0  0
 18 19  1  0  0  0  0
 18 40  1  0  0  0  0
 18 41  1  0  0  0  0
 19 20  1  0  0  0  0
 20 21  1  0  0  0  0
 20 42  1  0  0  0  0
 20 43  1  0  0  0  0
 21 44  1  0  0  0  0
 21 45  1  0  0  0  0
 22 46  1  0  0  0  0
M  CHG  1  14   1
M  END
> <s_m_source_file>
AV-unprocessed.smi

> <i_m_source_file_index>
2110

> <i_lp_mmshare_version>
43012

> <i_f3d_flags>
0

> <s_epik_input>
W0NIM11bQ0gyXU4oW0NIMl1bQ0gzXSlTKD1PKSg9TylbTkhdW0NIMl1jMVtjSF1bY0hdbmMoW2NIXTEpTjJbQ0gyXVtDSDJdT1tDSDJdW0NIMl0y

> <s_epik_cmdline>
J2VwaWtfcHl0aG9uJywgJy1waCcsICc3LjAnLCAnLXRuJywgJzgnLCAnLW1hJywgJzIwMCcsICctbWV0YWxfYmluZGluZycsICctaW1hZScsICc8aW5maWxlLm1hZT4nLCAnLW9tYWUnLCAnPG91dGZpbGUubWFlPic=

> <r_lp_tautomer_probability>
0.999994

> <r_epik_Ionization_Penalty>
1.66934

> <r_epik_Ionization_Penalty_Charging>
1.61364

> <r_epik_Ionization_Penalty_Neutral>
0.0557011

> <r_epik_State_Penalty>
1.67389

> <r_epik_Charging_Adjusted_Penalty>
3.28753

> <i_epik_Tot_Q>
1

> <i_epik_Tot_abs_Q>
1

> <r_epik_Metal_State_Penalty>
4.64949

> <b_epik_Metal_Only>
0

> <s_lp_Force_Field>
OPLS_2005

> <r_lp_Energy>
18.4454

> <b_lp_Chiralities_Consistent>
1

> <s_lp_Variant>
AV-unprocessed.smi:2110-2

> <Gold.Version>
5.8.1

> <Gold.Id.Protein>
6NUR|6NUR_protein|mol2

> <Gold.PLP.Fitness>
46.5585

> <Gold.PLP.PLP>
-38.6868

> <Gold.PLP.part.hbond>
-2.1865

> <Gold.PLP.part.metal>
0.0000

> <Gold.PLP.part.buried>
0.3104

> <Gold.PLP.part.nonpolar>
-37.2869

> <Gold.PLP.part.repulsive>
0.3362

> <Gold.PLP.ligand.clash>
0.0000

> <Gold.PLP.ligand.torsion>
2.5126

> <Gold.PLP.Chemscore.Hbond>
3.0000

> <Gold.PLP.Chemscore.CHOScore>
0.0000

> <Gold.PLP.Chemscore.Metal>
0.0000

> <Gold.Chemscore.Hbonds>
donor molecule, donor type, donor heavy atom, donor atom, acceptor molecule, acceptor atom, score
      L1  H    14    47       P1 10175  1.80
      P1  H  7997  8010       L1     7  1.00

> <Gold.PLP.Chemscore.Internal.Correction>
3.8968

> <Gold.Rescore>
     Score         DG    S(hbond)    S(metal)    S(lipo)     H(rot)  DE(clash)    DE(int)     intcor
     15.04     -17.83       1.95        0.00      88.48       1.77       0.25       2.54       ----

> <Gold.Chemscore.Fitness>
15.0398

> <Gold.Chemscore.DG>
-17.8293

> <Gold.Chemscore.ZeroCoef>
-5.4800

> <Gold.Chemscore.Hbond>
1.9532

> <Gold.Chemscore.Metal>
0.0000

> <Gold.Chemscore.Lipo>
88.4766

> <Gold.Chemscore.Internal_Hbond>
0.0000

> <Gold.Chemscore.DEClash>
0.2466

> <Gold.Chemscore.DEInternal>
2.5429

> <Gold.Chemscore.Rot>
1.7680

> <Gold.Chemscore.Internal.Correction>
   9.000000E+99

> <Gold.Chemscore.Hbonds>
donor molecule, donor type, donor heavy atom, donor atom, acceptor molecule, acceptor atom, score
      L1  H    14    47       P1 10175  0.18
      P1  H  7997  8010       L1     7  0.95

> <Gold.Chemscore.Hbond.Weighted>
-6.5236

> <Gold.Chemscore.Metal.Weighted>
-0.0000

> <Gold.Chemscore.Lipo.Weighted>
-10.3518

> <Gold.Chemscore.Internal_Hbond.Weighted>
0.0000

> <Gold.Chemscore.DEClash.Weighted>
0.2466

> <Gold.Chemscore.DEInternal.Weighted>
2.5429

> <Gold.Chemscore.Rot.Weighted>
4.5261

> <Gold.Chemscore.Internal.Correction.Weighted>
   9.000000E+99

> <Gold.Protein.RotatedTorsions>
[ 6907 6896 6895 6894 ] final  -21.54 input  -60.11 | X-H torsion
[ 7974 7965 7964 7962 ] final   86.36 input  175.53 | X-H torsion
[ 8008 7997 7996 7995 ] final   65.69 input   59.86 | X-H torsion
[ 10167 10162 10161 10158 ] final  131.36 input  -65.29 | X-H torsion
[ 10718 10713 10712 10709 ] final  -11.43 input   66.30 | X-H torsion
[ 10763 10752 10751 10750 ] final  -32.68 input  -60.55 | X-H torsion
[ 11005 11000 10999 10996 ] final   67.15 input  -57.11 | X-H torsion

> <Gold.Protein.ActiveResidues>
 VAL166  LYS551  ARG553  GLY616  TRP617  ASP618  TYR619  PRO620  LYS621  CYS622 
 ASP623  PHE694  ASN695  SER759  ASP760  ASP761  ALA762  ILE779  LEU786  VAL792 
 PHE793  MET794  SER795  GLU796  ALA797  LYS798  CYS799  TRP800  GLU811  SER814 

> <Gold.Protein.RotatedAtoms>
  151.2318  135.0557  159.8990 H   0  0  0  0  0  0  0  0  0  0  0  0  # atno 6907 bound_to 6896
  152.5404  134.0528  159.8128 H   0  0  0  0  0  0  0  0  0  0  0  0  # atno 6908 bound_to 6896
  151.0709  133.5418  159.2658 H   0  0  0  0  0  0  0  0  0  0  0  0  # atno 6909 bound_to 6896
  145.5732  139.2316  143.2394 H   0  0  0  0  0  0  0  0  0  0  0  0  # atno 7974 bound_to 7965
  155.6656  140.3497  155.4799 H   0  0  0  0  0  0  0  0  0  0  0  0  # atno 8008 bound_to 7997
  155.9731  140.1159  157.0817 H   0  0  0  0  0  0  0  0  0  0  0  0  # atno 8009 bound_to 7997
  154.4171  140.1153  156.5320 H   0  0  0  0  0  0  0  0  0  0  0  0  # atno 8010 bound_to 7997
  139.5388  144.6709  151.4696 H   0  0  0  0  0  0  0  0  0  0  0  0  # atno 10167 bound_to 10162
  156.6591  130.4977  149.6036 H   0  0  0  0  0  0  0  0  0  0  0  0  # atno 10718 bound_to 10713
  153.8177  135.6877  153.4831 H   0  0  0  0  0  0  0  0  0  0  0  0  # atno 10763 bound_to 10752
  153.1588  135.4588  154.9741 H   0  0  0  0  0  0  0  0  0  0  0  0  # atno 10764 bound_to 10752
  154.7940  135.3312  154.7652 H   0  0  0  0  0  0  0  0  0  0  0  0  # atno 10765 bound_to 10752
  139.9788  134.6778  156.0302 H   0  0  0  0  0  0  0  0  0  0  0  0  # atno 11005 bound_to 11000
  146.1769  140.6559  142.9207 LP  0  0  0  0  0  0  0  0  0  0  0  0  # atno 17320 bound_to 7965
  144.7428  140.4987  143.6857 LP  0  0  0  0  0  0  0  0  0  0  0  0  # atno 17321 bound_to 7965
  140.6607  143.8504  150.6885 LP  0  0  0  0  0  0  0  0  0  0  0  0  # atno 17342 bound_to 10162
  140.1897  143.4046  152.1872 LP  0  0  0  0  0  0  0  0  0  0  0  0  # atno 17343 bound_to 10162
  156.2025  130.6628  151.1182 LP  0  0  0  0  0  0  0  0  0  0  0  0  # atno 17370 bound_to 10713
  157.7115  131.0731  150.6482 LP  0  0  0  0  0  0  0  0  0  0  0  0  # atno 17371 bound_to 10713
  141.1462  133.6555  156.3876 LP  0  0  0  0  0  0  0  0  0  0  0  0  # atno 17394 bound_to 11000
  140.5139  134.6369  157.5294 LP  0  0  0  0  0  0  0  0  0  0  0  0  # atno 17395 bound_to 11000

$$$$
