AV-unprocessed.smi:3318|AV-procd|sdf|12763|dock10
  -GOLD-   2272019103D 1   1.00000     0.00000
 Structure written by MMmdl.
 45 46  0  0  0  0  0  0  0  0  3 V2000
  142.4333  135.1046  152.7695 C   0  0  0  0  0  0  0  0  0  0  0  0
  143.3030  136.3232  153.0967 C   0  0  0  0  0  0  0  0  0  0  0  0
  144.4623  136.4985  152.1001 C   0  0  0  0  0  0  0  0  0  0  0  0
  145.1848  137.7843  152.2797 N   0  3  2  0  0  0  0  0  0  0  0  0
  146.1833  138.0529  151.2106 C   0  0  0  0  0  0  0  0  0  0  0  0
  146.8172  139.4462  151.3749 C   0  0  0  0  0  0  0  0  0  0  0  0
  147.4577  139.6380  152.7648 C   0  0  2  0  0  0  0  0  0  0  0  0
  148.6990  138.8458  152.9389 N   0  3  0  0  0  0  0  0  0  0  0  0
  149.1399  138.6576  154.3373 C   0  0  0  0  0  0  0  0  0  0  0  0
  150.6515  138.8886  154.4713 C   0  0  0  0  0  0  0  0  0  0  0  0
  150.9977  139.7225  155.6901 C   0  0  0  0  0  0  0  0  0  0  0  0
  151.8025  139.1946  156.7220 C   0  0  0  0  0  0  0  0  0  0  0  0
  152.0966  140.0149  157.8286 C   0  0  0  0  0  0  0  0  0  0  0  0
  151.5792  141.3243  157.8588 C   0  0  0  0  0  0  0  0  0  0  0  0
  150.7869  141.7576  156.7769 C   0  0  0  0  0  0  0  0  0  0  0  0
  150.4994  140.9790  155.7110 N   0  0  0  0  0  0  0  0  0  0  0  0
  146.4259  139.2845  153.8507 C   0  0  0  0  0  0  0  0  0  0  0  0
  145.7940  137.8973  153.6304 C   0  0  0  0  0  0  0  0  0  0  0  0
  141.6180  135.0050  153.4869 H   0  0  0  0  0  0  0  0  0  0  0  0
  143.0155  134.1831  152.8003 H   0  0  0  0  0  0  0  0  0  0  0  0
  141.9923  135.1903  151.7760 H   0  0  0  0  0  0  0  0  0  0  0  0
  142.6661  137.2073  153.1064 H   0  0  0  0  0  0  0  0  0  0  0  0
  143.7003  136.2165  154.1068 H   0  0  0  0  0  0  0  0  0  0  0  0
  145.1613  135.6750  152.2541 H   0  0  0  0  0  0  0  0  0  0  0  0
  144.1067  136.4118  151.0722 H   0  0  0  0  0  0  0  0  0  0  0  0
  146.9549  137.2817  151.2270 H   0  0  0  0  0  0  0  0  0  0  0  0
  145.7114  138.0014  150.2303 H   0  0  0  0  0  0  0  0  0  0  0  0
  147.5384  139.6266  150.5784 H   0  0  0  0  0  0  0  0  0  0  0  0
  146.0395  140.1994  151.2400 H   0  0  0  0  0  0  0  0  0  0  0  0
  147.7244  140.6887  152.8899 H   0  0  0  0  0  0  0  0  0  0  0  0
  148.5283  137.9250  152.5596 H   0  0  0  0  0  0  0  0  0  0  0  0
  148.6075  139.3468  154.9927 H   0  0  0  0  0  0  0  0  0  0  0  0
  148.8892  137.6458  154.6592 H   0  0  0  0  0  0  0  0  0  0  0  0
  151.1730  137.9325  154.5399 H   0  0  0  0  0  0  0  0  0  0  0  0
  151.0346  139.3839  153.5780 H   0  0  0  0  0  0  0  0  0  0  0  0
  152.1863  138.1861  156.6713 H   0  0  0  0  0  0  0  0  0  0  0  0
  152.7080  139.6463  158.6393 H   0  0  0  0  0  0  0  0  0  0  0  0
  151.7841  141.9815  158.6910 H   0  0  0  0  0  0  0  0  0  0  0  0
  150.3742  142.7556  156.7669 H   0  0  0  0  0  0  0  0  0  0  0  0
  146.8833  139.3358  154.8396 H   0  0  0  0  0  0  0  0  0  0  0  0
  145.6346  140.0356  153.8469 H   0  0  0  0  0  0  0  0  0  0  0  0
  145.0310  137.7319  154.3922 H   0  0  0  0  0  0  0  0  0  0  0  0
  146.5420  137.1137  153.7596 H   0  0  0  0  0  0  0  0  0  0  0  0
  144.4857  138.5118  152.2232 H   0  0  0  0  0  0  0  0  0  0  0  0
  149.4457  139.2746  152.4113 H   0  0  0  0  0  0  0  0  0  0  0  0
  1  2  1  0  0  0  0
  1 19  1  0  0  0  0
  1 20  1  0  0  0  0
  1 21  1  0  0  0  0
  2  3  1  0  0  0  0
  2 22  1  0  0  0  0
  2 23  1  0  0  0  0
  3  4  1  0  0  0  0
  3 24  1  0  0  0  0
  3 25  1  0  0  0  0
  4 18  1  0  0  0  0
  4  5  1  0  0  0  0
  4 44  1  0  0  0  0
  5  6  1  0  0  0  0
  5 26  1  0  0  0  0
  5 27  1  0  0  0  0
  6  7  1  0  0  0  0
  6 28  1  0  0  0  0
  6 29  1  0  0  0  0
  7  8  1  0  0  0  0
  7 17  1  0  0  0  0
  7 30  1  0  0  0  0
  8  9  1  0  0  0  0
  8 31  1  0  0  0  0
  8 45  1  0  0  0  0
  9 10  1  0  0  0  0
  9 32  1  0  0  0  0
  9 33  1  0  0  0  0
 10 11  1  0  0  0  0
 10 34  1  0  0  0  0
 10 35  1  0  0  0  0
 11 16  1  0  0  0  0
 11 12  2  0  0  0  0
 12 13  1  0  0  0  0
 12 36  1  0  0  0  0
 13 14  2  0  0  0  0
 13 37  1  0  0  0  0
 14 15  1  0  0  0  0
 14 38  1  0  0  0  0
 15 16  2  0  0  0  0
 15 39  1  0  0  0  0
 17 18  1  0  0  0  0
 17 40  1  0  0  0  0
 17 41  1  0  0  0  0
 18 42  1  0  0  0  0
 18 43  1  0  0  0  0
M  CHG  1   4   1
M  CHG  1   8   1
M  END
> <s_m_source_file>
AV-unprocessed.smi

> <i_m_source_file_index>
3318

> <i_lp_mmshare_version>
43012

> <i_f3d_flags>
0

> <s_epik_input>
W0NIM11bQ0gyXVtDSDJdTjFbQ0gyXVtDSDJdW0NIXShbQ0gyXVtDSDJdMSlbTkhdW0NIMl1bQ0gyXWMyW2NIXVtjSF1bY0hdW2NIXW4y

> <s_epik_cmdline>
J2VwaWtfcHl0aG9uJywgJy1waCcsICc3LjAnLCAnLXRuJywgJzgnLCAnLW1hJywgJzIwMCcsICctbWV0YWxfYmluZGluZycsICctaW1hZScsICc8aW5maWxlLm1hZT4nLCAnLW9tYWUnLCAnPG91dGZpbGUubWFlPic=

> <r_epik_Ionization_Penalty>
0.0638186

> <r_epik_Ionization_Penalty_Charging>
0.0628538

> <r_epik_Ionization_Penalty_Neutral>
0.000964829

> <r_epik_State_Penalty>
0.0518488

> <r_epik_Charging_Adjusted_Penalty>
0.114703

> <i_epik_Tot_Q>
2

> <i_epik_Tot_abs_Q>
2

> <r_epik_Metal_State_Penalty>
0.0535981

> <b_epik_Metal_Only>
0

> <s_lp_Force_Field>
OPLS_2005

> <r_lp_Energy>
29.7366

> <b_lp_Chiralities_Consistent>
1

> <s_lp_Variant>
AV-unprocessed.smi:3318-2

> <Gold.Version>
5.8.1

> <Gold.Id.Protein>
6NUR|6NUR_protein|mol2

> <Gold.PLP.Fitness>
48.3091

> <Gold.PLP.PLP>
-32.5958

> <Gold.PLP.part.hbond>
-4.2804

> <Gold.PLP.part.metal>
0.0000

> <Gold.PLP.part.buried>
3.7082

> <Gold.PLP.part.nonpolar>
-32.5234

> <Gold.PLP.part.repulsive>
0.1644

> <Gold.PLP.ligand.clash>
0.0000

> <Gold.PLP.ligand.torsion>
0.8369

> <Gold.PLP.Chemscore.Hbond>
4.7680

> <Gold.PLP.Chemscore.CHOScore>
1.0000

> <Gold.PLP.Chemscore.Metal>
0.0000

> <Gold.Chemscore.Hbonds>
donor molecule, donor type, donor heavy atom, donor atom, acceptor molecule, acceptor atom, score
      L1  H     4    44       P1 10175  1.59
      L1  H     8    31       P1  7948  2.00
      L1  H     8    45       P1  7957  0.65
      L1  C    15    39       P1  8028  0.58

> <Gold.PLP.Chemscore.Internal.Correction>
0.0832

> <Gold.Rescore>
     Score         DG    S(hbond)    S(metal)    S(lipo)     H(rot)  DE(clash)    DE(int)     intcor
     17.91     -20.77       2.68        0.00      88.04       1.55       1.87       0.99       ----

> <Gold.Chemscore.Fitness>
17.9068

> <Gold.Chemscore.DG>
-20.7695

> <Gold.Chemscore.ZeroCoef>
-5.4800

> <Gold.Chemscore.Hbond>
2.6842

> <Gold.Chemscore.Metal>
0.0000

> <Gold.Chemscore.Lipo>
88.0373

> <Gold.Chemscore.Internal_Hbond>
0.0000

> <Gold.Chemscore.DEClash>
1.8717

> <Gold.Chemscore.DEInternal>
0.9911

> <Gold.Chemscore.Rot>
1.5532

> <Gold.Chemscore.Internal.Correction>
   9.000000E+99

> <Gold.Chemscore.Hbonds>
donor molecule, donor type, donor heavy atom, donor atom, acceptor molecule, acceptor atom, score
      L1  H     4    44       P1 10175  0.78
      L1  H     8    31       P1  7948  0.98
      L1  H     8    45       P1  7957  0.62

> <Gold.Chemscore.Hbond.Weighted>
-8.9654

> <Gold.Chemscore.Metal.Weighted>
-0.0000

> <Gold.Chemscore.Lipo.Weighted>
-10.3004

> <Gold.Chemscore.Internal_Hbond.Weighted>
0.0000

> <Gold.Chemscore.DEClash.Weighted>
1.8717

> <Gold.Chemscore.DEInternal.Weighted>
0.9911

> <Gold.Chemscore.Rot.Weighted>
3.9762

> <Gold.Chemscore.Internal.Correction.Weighted>
   9.000000E+99

> <Gold.Protein.RotatedTorsions>
[ 6907 6896 6895 6894 ] final   73.19 input  -60.11 | X-H torsion
[ 7974 7965 7964 7962 ] final   -7.35 input  175.53 | X-H torsion
[ 8008 7997 7996 7995 ] final -170.02 input   59.86 | X-H torsion
[ 10167 10162 10161 10158 ] final  133.55 input  -65.29 | X-H torsion
[ 10718 10713 10712 10709 ] final -145.25 input   66.30 | X-H torsion
[ 10763 10752 10751 10750 ] final   60.18 input  -60.55 | X-H torsion
[ 11005 11000 10999 10996 ] final -147.16 input  -57.11 | X-H torsion

> <Gold.Protein.ActiveResidues>
 VAL166  LYS551  ARG553  GLY616  TRP617  ASP618  TYR619  PRO620  LYS621  CYS622 
 ASP623  PHE694  ASN695  SER759  ASP760  ASP761  ALA762  ILE779  LEU786  VAL792 
 PHE793  MET794  SER795  GLU796  ALA797  LYS798  CYS799  TRP800  GLU811  SER814 

> <Gold.Protein.RotatedAtoms>
  152.4910  134.4459  159.9558 H   0  0  0  0  0  0  0  0  0  0  0  0  # atno 6907 bound_to 6896
  151.4446  133.3628  159.2794 H   0  0  0  0  0  0  0  0  0  0  0  0  # atno 6908 bound_to 6896
  150.9064  134.8503  159.7455 H   0  0  0  0  0  0  0  0  0  0  0  0  # atno 6909 bound_to 6896
  146.2309  140.2306  142.8340 H   0  0  0  0  0  0  0  0  0  0  0  0  # atno 7974 bound_to 7965
  155.9128  140.1060  157.1266 H   0  0  0  0  0  0  0  0  0  0  0  0  # atno 8008 bound_to 7997
  154.4042  140.1271  156.4644 H   0  0  0  0  0  0  0  0  0  0  0  0  # atno 8009 bound_to 7997
  155.7290  140.3468  155.5053 H   0  0  0  0  0  0  0  0  0  0  0  0  # atno 8010 bound_to 7997
  139.5292  144.6610  151.5011 H   0  0  0  0  0  0  0  0  0  0  0  0  # atno 10167 bound_to 10162
  156.3802  130.7833  151.2024 H   0  0  0  0  0  0  0  0  0  0  0  0  # atno 10718 bound_to 10713
  152.9914  135.5545  154.5832 H   0  0  0  0  0  0  0  0  0  0  0  0  # atno 10763 bound_to 10752
  154.5209  135.2807  155.1265 H   0  0  0  0  0  0  0  0  0  0  0  0  # atno 10764 bound_to 10752
  154.2619  135.6379  153.5330 H   0  0  0  0  0  0  0  0  0  0  0  0  # atno 10765 bound_to 10752
  140.7745  134.3150  157.5064 H   0  0  0  0  0  0  0  0  0  0  0  0  # atno 11005 bound_to 11000
  144.9561  140.8228  143.5542 LP  0  0  0  0  0  0  0  0  0  0  0  0  # atno 17320 bound_to 7965
  145.2272  139.2132  143.5062 LP  0  0  0  0  0  0  0  0  0  0  0  0  # atno 17321 bound_to 7965
  140.6459  143.8796  150.6736 LP  0  0  0  0  0  0  0  0  0  0  0  0  # atno 17342 bound_to 10162
  140.2145  143.3857  152.1692 LP  0  0  0  0  0  0  0  0  0  0  0  0  # atno 17343 bound_to 10162
  157.7491  131.0346  150.4326 LP  0  0  0  0  0  0  0  0  0  0  0  0  # atno 17370 bound_to 10713
  156.4569  130.4023  149.6601 LP  0  0  0  0  0  0  0  0  0  0  0  0  # atno 17371 bound_to 10713
  139.8751  134.9281  156.3443 LP  0  0  0  0  0  0  0  0  0  0  0  0  # atno 17394 bound_to 11000
  140.9541  133.7431  156.0312 LP  0  0  0  0  0  0  0  0  0  0  0  0  # atno 17395 bound_to 11000

$$$$
