AV-unprocessed.smi:35|AV-procd|sdf|273|dock7
  -GOLD-   2262016 43D 1   1.00000     0.00000
 Structure written by MMmdl.
 28 29  0  0  0  0  0  0  0  0  2 V2000
  152.9804  140.2022  158.1269 O   0  0  0  0  0  0  0  0  0  0  0  0
  151.9051  140.3481  157.5484 C   0  0  0  0  0  0  0  0  0  0  0  0
  151.3228  139.3612  156.8071 N   0  5  0  0  0  0  0  0  0  0  0  0
  150.1302  139.5290  156.1630 C   0  0  0  0  0  0  0  0  0  0  0  0
  149.5817  138.6359  155.5173 O   0  0  0  0  0  0  0  0  0  0  0  0
  149.4755  140.7877  156.2489 N   0  0  0  0  0  0  0  0  0  0  0  0
  148.1536  140.9924  155.5414 C   0  0  2  0  0  0  0  0  0  0  0  0
  147.3340  139.8966  155.7983 O   0  0  0  0  0  0  0  0  0  0  0  0
  146.4438  139.7375  154.7055 C   0  0  2  0  0  0  0  0  0  0  0  0
  145.8651  138.3141  154.7025 C   0  0  0  0  0  0  0  0  0  0  0  0
  144.9686  138.1552  153.6234 O   0  0  0  0  0  0  0  0  0  0  0  0
  147.3395  140.0354  153.4977 C   0  0  1  0  0  0  0  0  0  0  0  0
  146.5594  140.5163  152.4206 O   0  0  0  0  0  0  0  0  0  0  0  0
  148.2868  141.1197  154.0068 C   0  0  2  0  0  0  0  0  0  0  0  0
  149.5969  140.9049  153.5128 O   0  0  0  0  0  0  0  0  0  0  0  0
  150.0307  141.8018  157.0103 C   0  0  0  0  0  0  0  0  0  0  0  0
  151.2039  141.6256  157.6510 C   0  0  0  0  0  0  0  0  0  0  0  0
  151.8802  143.1590  158.7083 Br  0  0  0  0  0  0  0  0  0  0  0  0
  147.6843  141.8653  155.9986 H   0  0  0  0  0  0  0  0  0  0  0  0
  145.6534  140.4881  154.7787 H   0  0  0  0  0  0  0  0  0  0  0  0
  146.6652  137.5849  154.5711 H   0  0  0  0  0  0  0  0  0  0  0  0
  145.3705  138.0852  155.6472 H   0  0  0  0  0  0  0  0  0  0  0  0
  144.6411  139.0067  153.3772 H   0  0  0  0  0  0  0  0  0  0  0  0
  147.8901  139.1392  153.2054 H   0  0  0  0  0  0  0  0  0  0  0  0
  145.6501  140.3406  152.6087 H   0  0  0  0  0  0  0  0  0  0  0  0
  147.9532  142.1204  153.7273 H   0  0  0  0  0  0  0  0  0  0  0  0
  149.5581  140.2276  152.8542 H   0  0  0  0  0  0  0  0  0  0  0  0
  149.5179  142.7475  157.1041 H   0  0  0  0  0  0  0  0  0  0  0  0
  1  2  2  0  0  0  0
  2 17  1  0  0  0  0
  2  3  1  0  0  0  0
  3  4  1  0  0  0  0
  4  5  2  0  0  0  0
  4  6  1  0  0  0  0
  6  7  1  0  0  0  0
  6 16  1  0  0  0  0
  7 14  1  0  0  0  0
  7  8  1  0  0  0  0
  7 19  1  0  0  0  0
  8  9  1  0  0  0  0
  9 10  1  0  0  0  0
  9 12  1  0  0  0  0
  9 20  1  0  0  0  0
 10 11  1  0  0  0  0
 10 21  1  0  0  0  0
 10 22  1  0  0  0  0
 11 23  1  0  0  0  0
 12 13  1  0  0  0  0
 12 14  1  0  0  0  0
 12 24  1  0  0  0  0
 13 25  1  0  0  0  0
 14 15  1  0  0  0  0
 14 26  1  0  0  0  0
 15 27  1  0  0  0  0
 16 17  2  0  0  0  0
 16 28  1  0  0  0  0
 17 18  1  0  0  0  0
M  CHG  1   3  -1
M  END
> <s_m_source_file>
AV-unprocessed.smi

> <i_m_source_file_index>
35

> <i_lp_mmshare_version>
43012

> <i_f3d_flags>
0

> <s_epik_input>
Tz1jMVtuSF1jKD1PKW4oW2NIXWMxQnIpW0NAQEhdMk9bQ0BASF0oW0NIMl1bT0hdKVtDQEBIXShbT0hdKVtDQEhdMltPSF0=

> <s_epik_cmdline>
J2VwaWtfcHl0aG9uJywgJy1waCcsICc3LjAnLCAnLXRuJywgJzgnLCAnLW1hJywgJzIwMCcsICctbWV0YWxfYmluZGluZycsICctaW1hZScsICc8aW5maWxlLm1hZT4nLCAnLW9tYWUnLCAnPG91dGZpbGUubWFlPic=

> <r_epik_Ionization_Penalty>
1.06112

> <r_epik_Ionization_Penalty_Charging>
2.1796e-09

> <r_epik_Ionization_Penalty_Neutral>
1.06112

> <r_epik_State_Penalty>
1.11484

> <r_epik_Charging_Adjusted_Penalty>
1.11484

> <i_epik_Tot_Q>
-1

> <i_epik_Tot_abs_Q>
1

> <r_epik_Metal_State_Penalty>
0.0032876

> <b_epik_Metal_Only>
0

> <s_epik_Chemistry_Notes>
This compound contains an acetal/aminal-like group ( X-CH(R)-Y where X, Y are N, S, or O) that may be acid/base labile, releasing an aldehyde.

> <s_lp_Force_Field>
OPLS_2005

> <r_lp_Energy>
42.5644

> <b_lp_Chiralities_Consistent>
1

> <s_lp_Variant>
AV-unprocessed.smi:35-27

> <Gold.Version>
5.8.1

> <Gold.Id.Protein>
6NUR|6NUR_protein|mol2

> <Gold.PLP.Fitness>
41.3189

> <Gold.PLP.PLP>
-23.9045

> <Gold.PLP.part.hbond>
-5.9649

> <Gold.PLP.part.metal>
0.0000

> <Gold.PLP.part.buried>
-2.9465

> <Gold.PLP.part.nonpolar>
-15.7091

> <Gold.PLP.part.repulsive>
0.0468

> <Gold.PLP.ligand.clash>
0.0000

> <Gold.PLP.ligand.torsion>
0.3008

> <Gold.PLP.Chemscore.Hbond>
4.9360

> <Gold.PLP.Chemscore.CHOScore>
1.0000

> <Gold.PLP.Chemscore.Metal>
0.0000

> <Gold.Chemscore.Hbonds>
donor molecule, donor type, donor heavy atom, donor atom, acceptor molecule, acceptor atom, score
      L1  H    11    23       P1 10175  1.00
      L1  H    13    25       P1 10175  1.00
      L1  H    15    27       P1  7957  0.80
      P1  H  7989  7998       L1    15  0.17
      P1  H  7997  8009       L1     1  0.96
      P1  H  8011  8017       L1    15  0.90
      L1  C    16    28       P1  8028  1.00

> <Gold.PLP.Chemscore.Internal.Correction>
0.2081

> <Gold.Rescore>
     Score         DG    S(hbond)    S(metal)    S(lipo)     H(rot)  DE(clash)    DE(int)     intcor
     11.19     -13.61       3.72        0.00      42.76       3.63       0.05       2.38       ----

> <Gold.Chemscore.Fitness>
11.1856

> <Gold.Chemscore.DG>
-13.6103

> <Gold.Chemscore.ZeroCoef>
-5.4800

> <Gold.Chemscore.Hbond>
3.7155

> <Gold.Chemscore.Metal>
0.0000

> <Gold.Chemscore.Lipo>
42.7625

> <Gold.Chemscore.Internal_Hbond>
0.0000

> <Gold.Chemscore.DEClash>
0.0456

> <Gold.Chemscore.DEInternal>
2.3791

> <Gold.Chemscore.Rot>
3.6261

> <Gold.Chemscore.Internal.Correction>
   9.000000E+99

> <Gold.Chemscore.Hbonds>
donor molecule, donor type, donor heavy atom, donor atom, acceptor molecule, acceptor atom, score
      L1  H    11    23       P1 10175  0.98
      L1  H    13    25       P1 10175  0.73
      L1  H    15    27       P1  7957  0.80
      P1  H  7989  7998       L1    15  0.01
      P1  H  7997  8009       L1     1  0.78
      P1  H  8011  8017       L1    15  0.05

> <Gold.Chemscore.Hbond.Weighted>
-12.4099

> <Gold.Chemscore.Metal.Weighted>
-0.0000

> <Gold.Chemscore.Lipo.Weighted>
-5.0032

> <Gold.Chemscore.Internal_Hbond.Weighted>
0.0000

> <Gold.Chemscore.DEClash.Weighted>
0.0456

> <Gold.Chemscore.DEInternal.Weighted>
2.3791

> <Gold.Chemscore.Rot.Weighted>
9.2828

> <Gold.Chemscore.Internal.Correction.Weighted>
   9.000000E+99

> <Gold.Protein.RotatedTorsions>
[ 6907 6896 6895 6894 ] final   16.54 input  -60.11 | X-H torsion
[ 7974 7965 7964 7962 ] final  115.65 input  175.53 | X-H torsion
[ 8008 7997 7996 7995 ] final  164.16 input   59.86 | X-H torsion
[ 10167 10162 10161 10158 ] final   25.83 input  -65.29 | X-H torsion
[ 10718 10713 10712 10709 ] final  147.25 input   66.30 | X-H torsion
[ 10763 10752 10751 10750 ] final  160.16 input  -60.55 | X-H torsion
[ 11005 11000 10999 10996 ] final  172.61 input  -57.11 | X-H torsion

> <Gold.Protein.ActiveResidues>
 VAL166  LYS551  ARG553  GLY616  TRP617  ASP618  TYR619  PRO620  LYS621  CYS622 
 ASP623  PHE694  ASN695  SER759  ASP760  ASP761  ALA762  ILE779  LEU786  VAL792 
 PHE793  MET794  SER795  GLU796  ALA797  LYS798  CYS799  TRP800  GLU811  SER814 

> <Gold.Protein.RotatedAtoms>
  151.8355  135.0607  160.0441 H   0  0  0  0  0  0  0  0  0  0  0  0  # atno 6907 bound_to 6896
  152.2848  133.5500  159.5529 H   0  0  0  0  0  0  0  0  0  0  0  0  # atno 6908 bound_to 6896
  150.7205  134.0428  159.3814 H   0  0  0  0  0  0  0  0  0  0  0  0  # atno 6909 bound_to 6896
  145.1894  139.3008  143.4376 H   0  0  0  0  0  0  0  0  0  0  0  0  # atno 7974 bound_to 7965
  156.1901  140.1704  156.8108 H   0  0  0  0  0  0  0  0  0  0  0  0  # atno 8008 bound_to 7997
  154.5461  140.0727  156.8623 H   0  0  0  0  0  0  0  0  0  0  0  0  # atno 8009 bound_to 7997
  155.3119  140.3368  155.4246 H   0  0  0  0  0  0  0  0  0  0  0  0  # atno 8010 bound_to 7997
  140.5073  144.0218  150.6357 H   0  0  0  0  0  0  0  0  0  0  0  0  # atno 10167 bound_to 10162
  157.3232  131.0908  151.1223 H   0  0  0  0  0  0  0  0  0  0  0  0  # atno 10718 bound_to 10713
  154.2431  135.2774  155.2846 H   0  0  0  0  0  0  0  0  0  0  0  0  # atno 10763 bound_to 10752
  154.5528  135.5670  153.6941 H   0  0  0  0  0  0  0  0  0  0  0  0  # atno 10764 bound_to 10752
  152.9996  135.6278  154.2575 H   0  0  0  0  0  0  0  0  0  0  0  0  # atno 10765 bound_to 10752
  140.3316  134.7352  157.4138 H   0  0  0  0  0  0  0  0  0  0  0  0  # atno 11005 bound_to 11000
  146.3439  140.2101  142.8590 LP  0  0  0  0  0  0  0  0  0  0  0  0  # atno 17320 bound_to 7965
  145.0056  140.8670  143.5255 LP  0  0  0  0  0  0  0  0  0  0  0  0  # atno 17321 bound_to 7965
  140.3530  143.2952  152.0466 LP  0  0  0  0  0  0  0  0  0  0  0  0  # atno 17342 bound_to 10162
  139.4887  144.6359  151.6976 LP  0  0  0  0  0  0  0  0  0  0  0  0  # atno 17343 bound_to 10162
  157.2500  130.6609  149.5927 LP  0  0  0  0  0  0  0  0  0  0  0  0  # atno 17370 bound_to 10713
  155.9688  130.4541  150.5838 LP  0  0  0  0  0  0  0  0  0  0  0  0  # atno 17371 bound_to 10713
  140.0856  134.5671  155.8496 LP  0  0  0  0  0  0  0  0  0  0  0  0  # atno 17394 bound_to 11000
  141.2062  133.6653  156.6226 LP  0  0  0  0  0  0  0  0  0  0  0  0  # atno 17395 bound_to 11000

$$$$
