AV-unprocessed.smi:49|AV-procd|sdf|468|dock6
  -GOLD-   2262016333D 1   1.00000     0.00000
 Structure written by MMmdl.
 28 29  0  0  0  0  0  0  0  0  2 V2000
  153.6791  141.8509  160.7586 C   0  0  0  0  0  0  0  0  0  0  0  0
  153.0981  143.1688  160.2341 C   0  0  0  0  0  0  0  0  0  0  0  0
  152.0772  142.9505  159.1670 C   0  0  0  0  0  0  0  0  0  0  0  0
  151.7183  141.7057  158.7304 N   0  0  0  0  0  0  0  0  0  0  0  0
  150.8469  142.0294  157.7771 C   0  0  0  0  0  0  0  0  0  0  0  0
  150.1018  141.0684  156.8994 C   0  0  1  0  0  0  0  0  0  0  0  0
  149.2980  141.7171  155.7703 C   0  0  0  0  0  0  0  0  0  0  0  0
  149.3599  140.6528  154.6791 C   0  0  1  0  0  0  0  0  0  0  0  0
  149.1308  141.1936  153.3954 O   0  0  0  0  0  0  0  0  0  0  0  0
  150.7758  140.0827  154.8237 C   0  0  0  0  0  0  0  0  0  0  0  0
  151.1404  140.2440  156.2457 N   0  3  0  0  0  0  0  0  0  0  0  0
  150.7093  143.3509  157.6458 N   0  0  0  0  0  0  0  0  0  0  0  0
  151.5060  143.9760  158.5376 N   0  0  0  0  0  0  0  0  0  0  0  0
  149.4644  140.4168  157.4994 H   0  0  0  0  0  0  0  0  0  0  0  0
  148.6244  139.8731  154.8835 H   0  0  0  0  0  0  0  0  0  0  0  0
  150.1227  143.8477  156.9903 H   0  0  0  0  0  0  0  0  0  0  0  0
  154.4197  142.0358  161.5366 H   0  0  0  0  0  0  0  0  0  0  0  0
  154.1670  141.2909  159.9604 H   0  0  0  0  0  0  0  0  0  0  0  0
  152.8991  141.2186  161.1840 H   0  0  0  0  0  0  0  0  0  0  0  0
  152.6427  143.7244  161.0548 H   0  0  0  0  0  0  0  0  0  0  0  0
  153.8993  143.7970  159.8426 H   0  0  0  0  0  0  0  0  0  0  0  0
  148.2836  141.9881  156.0650 H   0  0  0  0  0  0  0  0  0  0  0  0
  149.8007  142.6224  155.4242 H   0  0  0  0  0  0  0  0  0  0  0  0
  149.2446  140.5099  152.7525 H   0  0  0  0  0  0  0  0  0  0  0  0
  150.8410  139.0417  154.5067 H   0  0  0  0  0  0  0  0  0  0  0  0
  151.4878  140.6599  154.2317 H   0  0  0  0  0  0  0  0  0  0  0  0
  152.0290  140.7218  156.3036 H   0  0  0  0  0  0  0  0  0  0  0  0
  151.2049  139.3461  156.7032 H   0  0  0  0  0  0  0  0  0  0  0  0
  1  2  1  0  0  0  0
  1 17  1  0  0  0  0
  1 18  1  0  0  0  0
  1 19  1  0  0  0  0
  2 20  1  0  0  0  0
  2 21  1  0  0  0  0
  2  3  1  0  0  0  0
  3  4  1  0  0  0  0
  3 13  2  0  0  0  0
  4  5  2  0  0  0  0
  5  6  1  0  0  0  0
  5 12  1  0  0  0  0
  6 14  1  0  0  0  0
  6 11  1  0  0  0  0
  6  7  1  0  0  0  0
  7  8  1  0  0  0  0
  7 22  1  0  0  0  0
  7 23  1  0  0  0  0
  8 15  1  0  0  0  0
  8  9  1  0  0  0  0
  8 10  1  0  0  0  0
  9 24  1  0  0  0  0
 10 11  1  0  0  0  0
 10 25  1  0  0  0  0
 10 26  1  0  0  0  0
 11 27  1  0  0  0  0
 11 28  1  0  0  0  0
 12 13  1  0  0  0  0
 12 16  1  0  0  0  0
M  CHG  1  11   1
M  END
> <s_m_source_file>
AV-unprocessed.smi

> <i_m_source_file_index>
49

> <i_lp_mmshare_version>
43012

> <i_f3d_flags>
0

> <s_epik_input>
W0NIM11bQ0gyXWMxbmMobltuSF0xKVtDQEBIXTJbQ0gyXVtDQEBIXShbT0hdKVtDSDJdW05IXTI=

> <s_epik_cmdline>
J2VwaWtfcHl0aG9uJywgJy1waCcsICc3LjAnLCAnLXRuJywgJzgnLCAnLW1hJywgJzIwMCcsICctbWV0YWxfYmluZGluZycsICctaW1hZScsICc8aW5maWxlLm1hZT4nLCAnLW9tYWUnLCAnPG91dGZpbGUubWFlPic=

> <r_epik_Ionization_Penalty>
0.372103

> <r_epik_Ionization_Penalty_Charging>
0.0688988

> <r_epik_Ionization_Penalty_Neutral>
0.303204

> <r_epik_State_Penalty>
0.737493

> <r_epik_Charging_Adjusted_Penalty>
0.806392

> <i_epik_Tot_Q>
1

> <i_epik_Tot_abs_Q>
1

> <r_epik_Metal_State_Penalty>
1.01235

> <b_epik_Metal_Only>
0

> <s_lp_Force_Field>
OPLS_2005

> <r_lp_Energy>
17.828

> <b_lp_Chiralities_Consistent>
1

> <s_lp_Variant>
AV-unprocessed.smi:49-6

> <Gold.Version>
5.8.1

> <Gold.Id.Protein>
6NUR|6NUR_protein|mol2

> <Gold.PLP.Fitness>
34.4269

> <Gold.PLP.PLP>
-26.0824

> <Gold.PLP.part.hbond>
-3.6247

> <Gold.PLP.part.metal>
0.0000

> <Gold.PLP.part.buried>
-1.1530

> <Gold.PLP.part.nonpolar>
-21.5184

> <Gold.PLP.part.repulsive>
0.1974

> <Gold.PLP.ligand.clash>
0.0000

> <Gold.PLP.ligand.torsion>
0.0622

> <Gold.PLP.Chemscore.Hbond>
2.8165

> <Gold.PLP.Chemscore.CHOScore>
0.0000

> <Gold.PLP.Chemscore.Metal>
0.0000

> <Gold.Chemscore.Hbonds>
donor molecule, donor type, donor heavy atom, donor atom, acceptor molecule, acceptor atom, score
      L1  H     9    24       P1  7957  0.98
      L1  H    12    16       P1  8028  1.00
      P1  H  8011  8017       L1     9  0.60

> <Gold.PLP.Chemscore.Internal.Correction>
0.0195

> <Gold.Rescore>
     Score         DG    S(hbond)    S(metal)    S(lipo)     H(rot)  DE(clash)    DE(int)     intcor
     14.03     -14.12       2.32        0.00      48.98       1.89       0.06       0.03       ----

> <Gold.Chemscore.Fitness>
14.0277

> <Gold.Chemscore.DG>
-14.1192

> <Gold.Chemscore.ZeroCoef>
-5.4800

> <Gold.Chemscore.Hbond>
2.3180

> <Gold.Chemscore.Metal>
0.0000

> <Gold.Chemscore.Lipo>
48.9845

> <Gold.Chemscore.Internal_Hbond>
0.0000

> <Gold.Chemscore.DEClash>
0.0589

> <Gold.Chemscore.DEInternal>
0.0327

> <Gold.Chemscore.Rot>
1.8883

> <Gold.Chemscore.Internal.Correction>
   9.000000E+99

> <Gold.Chemscore.Hbonds>
donor molecule, donor type, donor heavy atom, donor atom, acceptor molecule, acceptor atom, score
      L1  H     9    24       P1  7957  0.93
      L1  H    12    16       P1  8028  0.94
      P1  H  8011  8017       L1     9  0.04

> <Gold.Chemscore.Hbond.Weighted>
-7.7420

> <Gold.Chemscore.Metal.Weighted>
-0.0000

> <Gold.Chemscore.Lipo.Weighted>
-5.7312

> <Gold.Chemscore.Internal_Hbond.Weighted>
0.0000

> <Gold.Chemscore.DEClash.Weighted>
0.0589

> <Gold.Chemscore.DEInternal.Weighted>
0.0327

> <Gold.Chemscore.Rot.Weighted>
4.8340

> <Gold.Chemscore.Internal.Correction.Weighted>
   9.000000E+99

> <Gold.Protein.RotatedTorsions>
[ 6907 6896 6895 6894 ] final -157.10 input  -60.11 | X-H torsion
[ 7974 7965 7964 7962 ] final   94.61 input  175.53 | X-H torsion
[ 8008 7997 7996 7995 ] final   19.28 input   59.86 | X-H torsion
[ 10167 10162 10161 10158 ] final   86.55 input  -65.29 | X-H torsion
[ 10718 10713 10712 10709 ] final   34.53 input   66.30 | X-H torsion
[ 10763 10752 10751 10750 ] final   79.83 input  -60.55 | X-H torsion
[ 11005 11000 10999 10996 ] final  -25.07 input  -57.11 | X-H torsion

> <Gold.Protein.ActiveResidues>
 VAL166  LYS551  ARG553  GLY616  TRP617  ASP618  TYR619  PRO620  LYS621  CYS622 
 ASP623  PHE694  ASN695  SER759  ASP760  ASP761  ALA762  ILE779  LEU786  VAL792 
 PHE793  MET794  SER795  GLU796  ALA797  LYS798  CYS799  TRP800  GLU811  SER814 

> <Gold.Protein.RotatedAtoms>
  151.2976  133.4137  159.2637 H   0  0  0  0  0  0  0  0  0  0  0  0  # atno 6907 bound_to 6896
  151.0223  134.9478  159.8076 H   0  0  0  0  0  0  0  0  0  0  0  0  # atno 6908 bound_to 6896
  152.5327  134.2939  159.9106 H   0  0  0  0  0  0  0  0  0  0  0  0  # atno 6909 bound_to 6896
  145.4632  139.2286  143.2976 H   0  0  0  0  0  0  0  0  0  0  0  0  # atno 7974 bound_to 7965
  154.9185  140.3024  155.5229 H   0  0  0  0  0  0  0  0  0  0  0  0  # atno 8008 bound_to 7997
  156.3011  140.2376  156.4168 H   0  0  0  0  0  0  0  0  0  0  0  0  # atno 8009 bound_to 7997
  154.8355  140.0416  157.1494 H   0  0  0  0  0  0  0  0  0  0  0  0  # atno 8010 bound_to 7997
  139.8864  144.6411  150.8786 H   0  0  0  0  0  0  0  0  0  0  0  0  # atno 10167 bound_to 10162
  157.3115  130.7401  149.6728 H   0  0  0  0  0  0  0  0  0  0  0  0  # atno 10718 bound_to 10713
  153.0984  135.4825  154.8822 H   0  0  0  0  0  0  0  0  0  0  0  0  # atno 10763 bound_to 10752
  154.7351  135.3069  154.8827 H   0  0  0  0  0  0  0  0  0  0  0  0  # atno 10764 bound_to 10752
  153.9451  135.6829  153.4797 H   0  0  0  0  0  0  0  0  0  0  0  0  # atno 10765 bound_to 10752
  140.8904  133.7592  156.0413 H   0  0  0  0  0  0  0  0  0  0  0  0  # atno 11005 bound_to 11000
  146.2439  140.5403  142.8922 LP  0  0  0  0  0  0  0  0  0  0  0  0  # atno 17320 bound_to 7965
  144.7990  140.6177  143.6491 LP  0  0  0  0  0  0  0  0  0  0  0  0  # atno 17321 bound_to 7965
  140.7735  143.3544  151.1949 LP  0  0  0  0  0  0  0  0  0  0  0  0  # atno 17342 bound_to 10162
  139.7149  143.9316  152.2962 LP  0  0  0  0  0  0  0  0  0  0  0  0  # atno 17343 bound_to 10162
  155.9678  130.4250  150.4633 LP  0  0  0  0  0  0  0  0  0  0  0  0  # atno 17370 bound_to 10713
  157.2632  131.0571  151.2307 LP  0  0  0  0  0  0  0  0  0  0  0  0  # atno 17371 bound_to 10713
  140.8354  134.3129  157.5333 LP  0  0  0  0  0  0  0  0  0  0  0  0  # atno 17394 bound_to 11000
  139.8729  134.9386  156.3720 LP  0  0  0  0  0  0  0  0  0  0  0  0  # atno 17395 bound_to 11000

$$$$
