AV-unprocessed.smi:603|AV-procd|sdf|3036|dock5
  -GOLD-   2262023553D 1   1.00000     0.00000
 Structure written by MMmdl.
 35 36  0  0  0  0  0  0  0  0  1 V2000
  149.7893  139.9065  154.7650 O   0  0  0  0  0  0  0  0  0  0  0  0
  149.1579  140.9439  154.9764 C   0  0  0  0  0  0  0  0  0  0  0  0
  147.8852  141.2119  154.1655 C   0  0  0  0  0  0  0  0  0  0  0  0
  147.1250  139.9775  153.9271 N   0  0  0  0  0  0  0  0  0  0  0  0
  146.7151  139.8144  152.6150 N   0  0  0  0  0  0  0  0  0  0  0  0
  146.0466  138.7638  152.2843 C   0  0  0  0  0  0  0  0  0  0  0  0
  145.7010  137.7377  153.2428 C   0  0  0  0  0  0  0  0  0  0  0  0
  144.8028  136.3491  152.7407 Cl  0  0  0  0  0  0  0  0  0  0  0  0
  146.1031  137.9090  154.5272 C   0  0  0  0  0  0  0  0  0  0  0  0
  145.7274  136.7245  155.7311 Cl  0  0  0  0  0  0  0  0  0  0  0  0
  146.8666  139.0948  154.9407 C   0  0  0  0  0  0  0  0  0  0  0  0
  147.2486  139.2861  156.0958 O   0  0  0  0  0  0  0  0  0  0  0  0
  149.4788  141.8965  155.8825 N   0  0  0  0  0  0  0  0  0  0  0  0
  150.5063  141.9803  156.7600 C   0  0  0  0  0  0  0  0  0  0  0  0
  151.1510  140.9784  157.0659 O   0  0  0  0  0  0  0  0  0  0  0  0
  150.7791  143.1953  157.2721 N   0  0  0  0  0  0  0  0  0  0  0  0
  151.8936  143.5106  158.1613 C   0  0  0  0  0  0  0  0  0  0  0  0
  151.6141  143.0440  159.6040 C   0  0  0  0  0  0  0  0  0  0  0  0
  151.3497  144.3144  160.4120 C   0  0  0  0  0  0  0  0  0  0  0  0
  152.2066  145.3745  159.7277 C   0  0  0  0  0  0  0  0  0  0  0  0
  152.1144  145.0337  158.2392 C   0  0  0  0  0  0  0  0  0  0  0  0
  147.2697  141.9602  154.6685 H   0  0  0  0  0  0  0  0  0  0  0  0
  148.1690  141.6678  153.2150 H   0  0  0  0  0  0  0  0  0  0  0  0
  145.7053  138.5924  151.2632 H   0  0  0  0  0  0  0  0  0  0  0  0
  148.8389  142.6769  155.9163 H   0  0  0  0  0  0  0  0  0  0  0  0
  150.1655  143.9585  157.0235 H   0  0  0  0  0  0  0  0  0  0  0  0
  152.8021  143.0306  157.7926 H   0  0  0  0  0  0  0  0  0  0  0  0
  150.7908  142.3325  159.6812 H   0  0  0  0  0  0  0  0  0  0  0  0
  152.5021  142.5474  159.9970 H   0  0  0  0  0  0  0  0  0  0  0  0
  150.2963  144.5875  160.3346 H   0  0  0  0  0  0  0  0  0  0  0  0
  151.5886  144.1972  161.4694 H   0  0  0  0  0  0  0  0  0  0  0  0
  151.8753  146.3898  159.9475 H   0  0  0  0  0  0  0  0  0  0  0  0
  153.2405  145.2814  160.0630 H   0  0  0  0  0  0  0  0  0  0  0  0
  153.0055  145.3484  157.6952 H   0  0  0  0  0  0  0  0  0  0  0  0
  151.2681  145.5690  157.8050 H   0  0  0  0  0  0  0  0  0  0  0  0
  1  2  2  0  0  0  0
  2  3  1  0  0  0  0
  2 13  1  0  0  0  0
  3  4  1  0  0  0  0
  3 22  1  0  0  0  0
  3 23  1  0  0  0  0
  4 11  1  0  0  0  0
  4  5  1  0  0  0  0
  5  6  2  0  0  0  0
  6  7  1  0  0  0  0
  6 24  1  0  0  0  0
  7  8  1  0  0  0  0
  7  9  2  0  0  0  0
  9 10  1  0  0  0  0
  9 11  1  0  0  0  0
 11 12  2  0  0  0  0
 13 14  1  0  0  0  0
 13 25  1  0  0  0  0
 14 15  2  0  0  0  0
 14 16  1  0  0  0  0
 16 17  1  0  0  0  0
 16 26  1  0  0  0  0
 17 21  1  0  0  0  0
 17 18  1  0  0  0  0
 17 27  1  0  0  0  0
 18 19  1  0  0  0  0
 18 28  1  0  0  0  0
 18 29  1  0  0  0  0
 19 20  1  0  0  0  0
 19 30  1  0  0  0  0
 19 31  1  0  0  0  0
 20 21  1  0  0  0  0
 20 32  1  0  0  0  0
 20 33  1  0  0  0  0
 21 34  1  0  0  0  0
 21 35  1  0  0  0  0
M  END
> <s_m_source_file>
AV-unprocessed.smi

> <i_m_source_file_index>
603

> <i_lp_mmshare_version>
43012

> <i_f3d_flags>
0

> <s_epik_input>
W0NIMl0xW0NIMl1bQ0gyXVtDSDJdW0NIXTFbTkhdQyg9TylbTkhdQyg9TylbQ0gyXW4ybltjSF1jKENsKWMoQ2wpYzI9Tw==

> <s_epik_cmdline>
J2VwaWtfcHl0aG9uJywgJy1waCcsICc3LjAnLCAnLXRuJywgJzgnLCAnLW1hJywgJzIwMCcsICctbWV0YWxfYmluZGluZycsICctaW1hZScsICc8aW5maWxlLm1hZT4nLCAnLW9tYWUnLCAnPG91dGZpbGUubWFlPic=

> <r_lp_tautomer_probability>
1

> <r_epik_Ionization_Penalty>
3.28905e-05

> <r_epik_Ionization_Penalty_Charging>
2.24292e-11

> <r_epik_Ionization_Penalty_Neutral>
3.28905e-05

> <r_epik_State_Penalty>
-0

> <r_epik_Charging_Adjusted_Penalty>
2.24292e-11

> <i_epik_Tot_Q>
0

> <i_epik_Tot_abs_Q>
0

> <r_epik_Metal_State_Penalty>
-0

> <b_epik_Metal_Only>
0

> <s_lp_Force_Field>
OPLS_2005

> <r_lp_Energy>
36.9935

> <b_lp_Chiralities_Consistent>
1

> <s_lp_Variant>
AV-unprocessed.smi:603-1

> <Gold.Version>
5.8.1

> <Gold.Id.Protein>
6NUR|6NUR_protein|mol2

> <Gold.PLP.Fitness>
49.3127

> <Gold.PLP.PLP>
-39.5810

> <Gold.PLP.part.hbond>
-3.0000

> <Gold.PLP.part.metal>
0.0000

> <Gold.PLP.part.buried>
-5.7579

> <Gold.PLP.part.nonpolar>
-34.2905

> <Gold.PLP.part.repulsive>
3.3075

> <Gold.PLP.ligand.clash>
0.0000

> <Gold.PLP.ligand.torsion>
0.7535

> <Gold.PLP.Chemscore.Hbond>
2.7440

> <Gold.PLP.Chemscore.CHOScore>
0.9969

> <Gold.PLP.Chemscore.Metal>
0.0000

> <Gold.Chemscore.Hbonds>
donor molecule, donor type, donor heavy atom, donor atom, acceptor molecule, acceptor atom, score
      L1  H    13    25       P1  8028  0.74
      L1  H    16    26       P1  8028  0.96
      L1  C     6    24       P1 10171  1.00

> <Gold.PLP.Chemscore.Internal.Correction>
0.0159

> <Gold.Rescore>
     Score         DG    S(hbond)    S(metal)    S(lipo)     H(rot)  DE(clash)    DE(int)     intcor
     14.52     -18.05       2.14        0.00      82.66       1.65       0.84       2.69       ----

> <Gold.Chemscore.Fitness>
14.5211

> <Gold.Chemscore.DG>
-18.0478

> <Gold.Chemscore.ZeroCoef>
-5.4800

> <Gold.Chemscore.Hbond>
2.1351

> <Gold.Chemscore.Metal>
0.0000

> <Gold.Chemscore.Lipo>
82.6624

> <Gold.Chemscore.Internal_Hbond>
0.0000

> <Gold.Chemscore.DEClash>
0.8402

> <Gold.Chemscore.DEInternal>
2.6865

> <Gold.Chemscore.Rot>
1.6543

> <Gold.Chemscore.Internal.Correction>
   9.000000E+99

> <Gold.Chemscore.Hbonds>
donor molecule, donor type, donor heavy atom, donor atom, acceptor molecule, acceptor atom, score
      L1  H    13    25       P1  8028  0.70
      L1  H    16    26       P1  8028  0.85
      P1  H  7989  7998       L1     1  0.01

> <Gold.Chemscore.Hbond.Weighted>
-7.1312

> <Gold.Chemscore.Metal.Weighted>
-0.0000

> <Gold.Chemscore.Lipo.Weighted>
-9.6715

> <Gold.Chemscore.Internal_Hbond.Weighted>
0.0000

> <Gold.Chemscore.DEClash.Weighted>
0.8402

> <Gold.Chemscore.DEInternal.Weighted>
2.6865

> <Gold.Chemscore.Rot.Weighted>
4.2349

> <Gold.Chemscore.Internal.Correction.Weighted>
   9.000000E+99

> <Gold.Protein.RotatedTorsions>
[ 6907 6896 6895 6894 ] final  164.12 input  -60.11 | X-H torsion
[ 7974 7965 7964 7962 ] final   84.24 input  175.53 | X-H torsion
[ 8008 7997 7996 7995 ] final -178.99 input   59.86 | X-H torsion
[ 10167 10162 10161 10158 ] final   -1.92 input  -65.29 | X-H torsion
[ 10718 10713 10712 10709 ] final  -65.94 input   66.30 | X-H torsion
[ 10763 10752 10751 10750 ] final  -92.89 input  -60.55 | X-H torsion
[ 11005 11000 10999 10996 ] final  -18.41 input  -57.11 | X-H torsion

> <Gold.Protein.ActiveResidues>
 VAL166  LYS551  ARG553  GLY616  TRP617  ASP618  TYR619  PRO620  LYS621  CYS622 
 ASP623  PHE694  ASN695  SER759  ASP760  ASP761  ALA762  ILE779  LEU786  VAL792 
 PHE793  MET794  SER795  GLU796  ALA797  LYS798  CYS799  TRP800  GLU811  SER814 

> <Gold.Protein.RotatedAtoms>
  151.9147  133.3570  159.3875 H   0  0  0  0  0  0  0  0  0  0  0  0  # atno 6907 bound_to 6896
  150.7050  134.4696  159.5428 H   0  0  0  0  0  0  0  0  0  0  0  0  # atno 6908 bound_to 6896
  152.2308  134.8323  160.0524 H   0  0  0  0  0  0  0  0  0  0  0  0  # atno 6909 bound_to 6896
  145.6014  139.2353  143.2244 H   0  0  0  0  0  0  0  0  0  0  0  0  # atno 7974 bound_to 7965
  156.0253  140.1270  157.0315 H   0  0  0  0  0  0  0  0  0  0  0  0  # atno 8008 bound_to 7997
  154.4328  140.1060  156.6092 H   0  0  0  0  0  0  0  0  0  0  0  0  # atno 8009 bound_to 7997
  155.5886  140.3469  155.4562 H   0  0  0  0  0  0  0  0  0  0  0  0  # atno 8010 bound_to 7997
  140.6830  143.6718  150.8179 H   0  0  0  0  0  0  0  0  0  0  0  0  # atno 10167 bound_to 10162
  156.0641  130.4254  150.1636 H   0  0  0  0  0  0  0  0  0  0  0  0  # atno 10718 bound_to 10713
  154.6905  135.5214  153.8386 H   0  0  0  0  0  0  0  0  0  0  0  0  # atno 10763 bound_to 10752
  153.0629  135.6574  154.0431 H   0  0  0  0  0  0  0  0  0  0  0  0  # atno 10764 bound_to 10752
  154.0306  135.2985  155.3349 H   0  0  0  0  0  0  0  0  0  0  0  0  # atno 10765 bound_to 10752
  140.8265  133.8029  155.9714 H   0  0  0  0  0  0  0  0  0  0  0  0  # atno 11005 bound_to 11000
  146.1573  140.6839  142.9294 LP  0  0  0  0  0  0  0  0  0  0  0  0  # atno 17320 bound_to 7965
  144.7308  140.4666  143.6939 LP  0  0  0  0  0  0  0  0  0  0  0  0  # atno 17321 bound_to 7965
  140.0421  143.5335  152.2713 LP  0  0  0  0  0  0  0  0  0  0  0  0  # atno 17342 bound_to 10162
  139.6166  144.7621  151.2832 LP  0  0  0  0  0  0  0  0  0  0  0  0  # atno 17343 bound_to 10162
  156.9700  130.9831  151.3461 LP  0  0  0  0  0  0  0  0  0  0  0  0  # atno 17370 bound_to 10713
  157.5670  130.8284  149.8340 LP  0  0  0  0  0  0  0  0  0  0  0  0  # atno 17371 bound_to 10713
  140.9044  134.2339  157.5023 LP  0  0  0  0  0  0  0  0  0  0  0  0  # atno 17394 bound_to 11000
  139.8706  134.9721  156.4761 LP  0  0  0  0  0  0  0  0  0  0  0  0  # atno 17395 bound_to 11000

$$$$
