AV-unprocessed.smi:1449|AV-procd|sdf|5895|dock5
  -GOLD-   22720 5583D 1   1.00000     0.00000
 Structure written by MMmdl.
 34 35  0  0  0  0  0  0  0  0  1 V2000
  145.7694  128.8174  152.2278 C   0  0  0  0  0  0  0  0  0  0  0  0
  146.7830  128.9816  153.2133 O   0  0  0  0  0  0  0  0  0  0  0  0
  147.3279  130.2368  153.3904 C   0  0  0  0  0  0  0  0  0  0  0  0
  148.3720  130.3927  154.3232 C   0  0  0  0  0  0  0  0  0  0  0  0
  148.9355  131.6696  154.5095 C   0  0  0  0  0  0  0  0  0  0  0  0
  148.4278  132.7573  153.7593 C   0  0  0  0  0  0  0  0  0  0  0  0
  148.9189  134.0886  153.8384 N   0  0  0  0  0  0  0  0  0  0  0  0
  149.5492  134.7005  154.8605 C   0  0  0  0  0  0  0  0  0  0  0  0
  149.7694  134.1894  155.9561 O   0  0  0  0  0  0  0  0  0  0  0  0
  149.9099  135.9709  154.6047 N   0  0  0  0  0  0  0  0  0  0  0  0
  150.6036  136.9133  155.4841 C   0  0  2  0  0  0  0  0  0  0  0  0
  149.6168  137.5864  156.4564 C   0  0  0  0  0  0  0  0  0  0  0  0
  150.3033  138.8004  157.0947 C   0  0  0  0  0  0  0  0  0  0  0  0
  151.4846  139.4322  155.8437 S   0  0  0  0  0  0  0  0  0  0  0  0
  150.9375  140.6435  155.2143 O   0  0  0  0  0  0  0  0  0  0  0  0
  152.8377  139.4227  156.4200 O   0  0  0  0  0  0  0  0  0  0  0  0
  151.3070  138.0232  154.6863 C   0  0  0  0  0  0  0  0  0  0  0  0
  147.3887  132.4931  152.8433 C   0  0  0  0  0  0  0  0  0  0  0  0
  146.8447  131.2717  152.6595 N   0  0  0  0  0  0  0  0  0  0  0  0
  145.4474  127.7763  152.2129 H   0  0  0  0  0  0  0  0  0  0  0  0
  146.1374  129.0637  151.2308 H   0  0  0  0  0  0  0  0  0  0  0  0
  144.8948  129.4307  152.4493 H   0  0  0  0  0  0  0  0  0  0  0  0
  148.7391  129.5457  154.8838 H   0  0  0  0  0  0  0  0  0  0  0  0
  149.7484  131.7804  155.2096 H   0  0  0  0  0  0  0  0  0  0  0  0
  148.7343  134.6630  153.0291 H   0  0  0  0  0  0  0  0  0  0  0  0
  149.6502  136.3320  153.6980 H   0  0  0  0  0  0  0  0  0  0  0  0
  151.3454  136.3874  156.0878 H   0  0  0  0  0  0  0  0  0  0  0  0
  148.7454  137.9344  155.8997 H   0  0  0  0  0  0  0  0  0  0  0  0
  149.2529  136.8900  157.2124 H   0  0  0  0  0  0  0  0  0  0  0  0
  149.6015  139.5836  157.3815 H   0  0  0  0  0  0  0  0  0  0  0  0
  150.8735  138.5041  157.9755 H   0  0  0  0  0  0  0  0  0  0  0  0
  152.2840  137.7271  154.3035 H   0  0  0  0  0  0  0  0  0  0  0  0
  150.6926  138.3575  153.8494 H   0  0  0  0  0  0  0  0  0  0  0  0
  146.9769  133.2878  152.2382 H   0  0  0  0  0  0  0  0  0  0  0  0
  1  2  1  0  0  0  0
  1 20  1  0  0  0  0
  1 21  1  0  0  0  0
  1 22  1  0  0  0  0
  2  3  1  0  0  0  0
  3 19  1  0  0  0  0
  3  4  2  0  0  0  0
  4  5  1  0  0  0  0
  4 23  1  0  0  0  0
  5  6  2  0  0  0  0
  5 24  1  0  0  0  0
  6  7  1  0  0  0  0
  6 18  1  0  0  0  0
  7  8  1  0  0  0  0
  7 25  1  0  0  0  0
  8  9  2  0  0  0  0
  8 10  1  0  0  0  0
 10 11  1  0  0  0  0
 10 26  1  0  0  0  0
 11 17  1  0  0  0  0
 11 12  1  0  0  0  0
 11 27  1  0  0  0  0
 12 13  1  0  0  0  0
 12 28  1  0  0  0  0
 12 29  1  0  0  0  0
 13 14  1  0  0  0  0
 13 30  1  0  0  0  0
 13 31  1  0  0  0  0
 14 15  2  0  0  0  0
 14 16  2  0  0  0  0
 14 17  1  0  0  0  0
 17 32  1  0  0  0  0
 17 33  1  0  0  0  0
 18 19  2  0  0  0  0
 18 34  1  0  0  0  0
M  END
> <s_m_source_file>
AV-unprocessed.smi

> <i_m_source_file_index>
1449

> <i_lp_mmshare_version>
43012

> <i_f3d_flags>
0

> <s_epik_input>
W0NIM11PYzFbY0hdW2NIXWMoW2NIXW4xKVtOSF1DKD1PKVtOSF1bQ0BASF0oW0NIMl0yKVtDSDJdW0NIMl1TMig9Tyk9Tw==

> <s_epik_cmdline>
J2VwaWtfcHl0aG9uJywgJy1waCcsICc3LjAnLCAnLXRuJywgJzgnLCAnLW1hJywgJzIwMCcsICctbWV0YWxfYmluZGluZycsICctaW1hZScsICc8aW5maWxlLm1hZT4nLCAnLW9tYWUnLCAnPG91dGZpbGUubWFlPic=

> <r_lp_tautomer_probability>
1

> <r_epik_Ionization_Penalty>
7.6506e-05

> <r_epik_Ionization_Penalty_Charging>
0

> <r_epik_Ionization_Penalty_Neutral>
7.6506e-05

> <r_epik_State_Penalty>
-0

> <r_epik_Charging_Adjusted_Penalty>
0

> <i_epik_Tot_Q>
0

> <i_epik_Tot_abs_Q>
0

> <r_epik_Metal_State_Penalty>
-0

> <b_epik_Metal_Only>
0

> <s_lp_Force_Field>
OPLS_2005

> <r_lp_Energy>
18.5668

> <b_lp_Chiralities_Consistent>
1

> <s_lp_Variant>
AV-unprocessed.smi:1449-1

> <Gold.Version>
5.8.1

> <Gold.Id.Protein>
6NUR|6NUR_protein|mol2

> <Gold.PLP.Fitness>
41.1885

> <Gold.PLP.PLP>
-30.3862

> <Gold.PLP.part.hbond>
-4.4096

> <Gold.PLP.part.metal>
0.0000

> <Gold.PLP.part.buried>
-4.1307

> <Gold.PLP.part.nonpolar>
-22.7122

> <Gold.PLP.part.repulsive>
0.3786

> <Gold.PLP.ligand.clash>
0.0000

> <Gold.PLP.ligand.torsion>
0.4562

> <Gold.PLP.Chemscore.Hbond>
3.9040

> <Gold.PLP.Chemscore.CHOScore>
0.0000

> <Gold.PLP.Chemscore.Metal>
0.0000

> <Gold.Chemscore.Hbonds>
donor molecule, donor type, donor heavy atom, donor atom, acceptor molecule, acceptor atom, score
      L1  H     7    25       P1  7948  0.90
      L1  H    10    26       P1  7948  1.00
      P1  H  7989  7998       L1    15  0.91
      P1  H  7997  8009       L1    16  1.00

> <Gold.PLP.Chemscore.Internal.Correction>
0.0028

> <Gold.Rescore>
     Score         DG    S(hbond)    S(metal)    S(lipo)     H(rot)  DE(clash)    DE(int)     intcor
     15.91     -17.29       2.79        0.00      49.97       1.31       0.03       1.35       ----

> <Gold.Chemscore.Fitness>
15.9087

> <Gold.Chemscore.DG>
-17.2928

> <Gold.Chemscore.ZeroCoef>
-5.4800

> <Gold.Chemscore.Hbond>
2.7911

> <Gold.Chemscore.Metal>
0.0000

> <Gold.Chemscore.Lipo>
49.9692

> <Gold.Chemscore.Internal_Hbond>
0.0000

> <Gold.Chemscore.DEClash>
0.0300

> <Gold.Chemscore.DEInternal>
1.3541

> <Gold.Chemscore.Rot>
1.3109

> <Gold.Chemscore.Internal.Correction>
   9.000000E+99

> <Gold.Chemscore.Hbonds>
donor molecule, donor type, donor heavy atom, donor atom, acceptor molecule, acceptor atom, score
      L1  H     7    25       P1  7948  0.18
      L1  H    10    26       P1  7948  0.49
      P1  H  7989  7998       L1    15  0.69
      P1  H  7997  8009       L1    16  1.00

> <Gold.Chemscore.Hbond.Weighted>
-9.3223

> <Gold.Chemscore.Metal.Weighted>
-0.0000

> <Gold.Chemscore.Lipo.Weighted>
-5.8464

> <Gold.Chemscore.Internal_Hbond.Weighted>
0.0000

> <Gold.Chemscore.DEClash.Weighted>
0.0300

> <Gold.Chemscore.DEInternal.Weighted>
1.3541

> <Gold.Chemscore.Rot.Weighted>
3.3559

> <Gold.Chemscore.Internal.Correction.Weighted>
   9.000000E+99

> <Gold.Protein.RotatedTorsions>
[ 6907 6896 6895 6894 ] final  -11.32 input  -60.11 | X-H torsion
[ 7974 7965 7964 7962 ] final -101.40 input  175.53 | X-H torsion
[ 8008 7997 7996 7995 ] final -155.34 input   59.86 | X-H torsion
[ 10167 10162 10161 10158 ] final -174.45 input  -65.29 | X-H torsion
[ 10718 10713 10712 10709 ] final -127.86 input   66.30 | X-H torsion
[ 10763 10752 10751 10750 ] final  -96.79 input  -60.55 | X-H torsion
[ 11005 11000 10999 10996 ] final  109.94 input  -57.11 | X-H torsion

> <Gold.Protein.ActiveResidues>
 VAL166  LYS551  ARG553  GLY616  TRP617  ASP618  TYR619  PRO620  LYS621  CYS622 
 ASP623  PHE694  ASN695  SER759  ASP760  ASP761  ALA762  ILE779  LEU786  VAL792 
 PHE793  MET794  SER795  GLU796  ALA797  LYS798  CYS799  TRP800  GLU811  SER814 

> <Gold.Protein.RotatedAtoms>
  151.3881  135.0951  159.9517 H   0  0  0  0  0  0  0  0  0  0  0  0  # atno 6907 bound_to 6896
  152.5088  133.9006  159.7449 H   0  0  0  0  0  0  0  0  0  0  0  0  # atno 6908 bound_to 6896
  150.9454  133.6553  159.2811 H   0  0  0  0  0  0  0  0  0  0  0  0  # atno 6909 bound_to 6896
  145.2821  140.9329  143.2926 H   0  0  0  0  0  0  0  0  0  0  0  0  # atno 7974 bound_to 7965
  155.7003  140.0766  157.2413 H   0  0  0  0  0  0  0  0  0  0  0  0  # atno 8008 bound_to 7997
  154.4074  140.1648  156.2237 H   0  0  0  0  0  0  0  0  0  0  0  0  # atno 8009 bound_to 7997
  155.9373  140.3387  155.6301 H   0  0  0  0  0  0  0  0  0  0  0  0  # atno 8010 bound_to 7997
  139.5633  144.1816  152.1273 H   0  0  0  0  0  0  0  0  0  0  0  0  # atno 10167 bound_to 10162
  156.1896  130.6786  151.0408 H   0  0  0  0  0  0  0  0  0  0  0  0  # atno 10718 bound_to 10713
  154.7271  135.5070  153.8903 H   0  0  0  0  0  0  0  0  0  0  0  0  # atno 10763 bound_to 10752
  153.0915  135.6660  153.9854 H   0  0  0  0  0  0  0  0  0  0  0  0  # atno 10764 bound_to 10752
  153.9664  135.3042  155.3409 H   0  0  0  0  0  0  0  0  0  0  0  0  # atno 10765 bound_to 10752
  139.8872  134.9471  156.6202 H   0  0  0  0  0  0  0  0  0  0  0  0  # atno 11005 bound_to 11000
  144.9244  139.4373  143.6525 LP  0  0  0  0  0  0  0  0  0  0  0  0  # atno 17320 bound_to 7965
  146.3213  139.8122  142.8943 LP  0  0  0  0  0  0  0  0  0  0  0  0  # atno 17321 bound_to 7965
  140.1334  144.5267  150.6788 LP  0  0  0  0  0  0  0  0  0  0  0  0  # atno 17342 bound_to 10162
  140.6915  143.2378  151.5119 LP  0  0  0  0  0  0  0  0  0  0  0  0  # atno 17343 bound_to 10162
  157.6921  131.0806  150.7078 LP  0  0  0  0  0  0  0  0  0  0  0  0  # atno 17370 bound_to 10713
  156.7135  130.4659  149.5541 LP  0  0  0  0  0  0  0  0  0  0  0  0  # atno 17371 bound_to 10713
  140.7745  133.8711  155.8518 LP  0  0  0  0  0  0  0  0  0  0  0  0  # atno 17394 bound_to 11000
  140.9814  134.1401  157.4491 LP  0  0  0  0  0  0  0  0  0  0  0  0  # atno 17395 bound_to 11000

$$$$
