AV-unprocessed.smi:1664|AV-procd|sdf|6668|dock4
  -GOLD-   22720 7383D 1   1.00000     0.00000
 Structure written by MMmdl.
 35 36  0  0  0  0  0  0  0  0  3 V2000
  149.8225  138.0447  157.7751 C   0  0  0  0  0  0  0  0  0  0  0  0
  151.1048  138.0072  156.9200 C   0  0  2  0  0  0  0  0  0  0  0  0
  151.3556  136.6180  156.4827 C   0  0  0  0  0  0  0  0  0  0  0  0
  151.5527  135.5300  156.1399 N   0  0  0  0  0  0  0  0  0  0  0  0
  152.2293  138.5088  157.7117 N   0  0  0  0  0  0  0  0  0  0  0  0
  152.6766  138.0480  158.8946 C   0  0  0  0  0  0  0  0  0  0  0  0
  152.1573  137.1024  159.4850 O   0  0  0  0  0  0  0  0  0  0  0  0
  153.8953  138.7405  159.5291 C   0  0  0  0  0  0  0  0  0  0  0  0
  153.6437  140.1016  160.0377 N   0  0  0  0  0  0  0  0  0  0  0  0
  153.1029  141.0319  159.1282 C   0  0  0  0  0  0  0  0  0  0  0  0
  152.8266  142.3023  159.4822 C   0  0  0  0  0  0  0  0  0  0  0  0
  152.2598  143.2405  158.5386 N   0  3  0  0  0  0  0  0  0  0  0  0
  152.4421  144.4400  158.7201 O   0  0  0  0  0  0  0  0  0  0  0  0
  151.6137  142.8113  157.5874 O   0  5  0  0  0  0  0  0  0  0  0  0
  153.1097  142.6978  160.8485 C   0  0  0  0  0  0  0  0  0  0  0  0
  153.6209  141.8109  161.7250 C   0  0  0  0  0  0  0  0  0  0  0  0
  153.9104  140.4258  161.3400 C   0  0  0  0  0  0  0  0  0  0  0  0
  154.3578  139.6052  162.1409 O   0  0  0  0  0  0  0  0  0  0  0  0
  150.8975  138.8988  155.6976 C   0  0  0  0  0  0  0  0  0  0  0  0
  150.5877  138.3423  154.3257 C   0  0  0  0  0  0  0  0  0  0  0  0
  151.9179  139.0146  154.5874 C   0  0  0  0  0  0  0  0  0  0  0  0
  148.9551  137.7337  157.1922 H   0  0  0  0  0  0  0  0  0  0  0  0
  149.6234  139.0494  158.1505 H   0  0  0  0  0  0  0  0  0  0  0  0
  149.8855  137.3768  158.6343 H   0  0  0  0  0  0  0  0  0  0  0  0
  152.7293  139.2884  157.3102 H   0  0  0  0  0  0  0  0  0  0  0  0
  154.2788  138.1009  160.3260 H   0  0  0  0  0  0  0  0  0  0  0  0
  154.6927  138.7637  158.7847 H   0  0  0  0  0  0  0  0  0  0  0  0
  152.9228  140.6368  158.1385 H   0  0  0  0  0  0  0  0  0  0  0  0
  152.9142  143.7074  161.1787 H   0  0  0  0  0  0  0  0  0  0  0  0
  153.8236  142.1268  162.7378 H   0  0  0  0  0  0  0  0  0  0  0  0
  150.3795  139.8253  155.9408 H   0  0  0  0  0  0  0  0  0  0  0  0
  150.5878  137.2625  154.1935 H   0  0  0  0  0  0  0  0  0  0  0  0
  149.8638  138.8822  153.7186 H   0  0  0  0  0  0  0  0  0  0  0  0
  152.0751  140.0004  154.1546 H   0  0  0  0  0  0  0  0  0  0  0  0
  152.8024  138.3825  154.6293 H   0  0  0  0  0  0  0  0  0  0  0  0
  1  2  1  0  0  0  0
  1 22  1  0  0  0  0
  1 23  1  0  0  0  0
  1 24  1  0  0  0  0
  2  3  1  0  0  0  0
  2  5  1  0  0  0  0
  2 19  1  0  0  0  0
  3  4  3  0  0  0  0
  5  6  1  0  0  0  0
  5 25  1  0  0  0  0
  6  7  2  0  0  0  0
  6  8  1  0  0  0  0
  8  9  1  0  0  0  0
  8 26  1  0  0  0  0
  8 27  1  0  0  0  0
  9 17  1  0  0  0  0
  9 10  1  0  0  0  0
 10 11  2  0  0  0  0
 10 28  1  0  0  0  0
 11 12  1  0  0  0  0
 11 15  1  0  0  0  0
 12 13  2  0  0  0  0
 12 14  1  0  0  0  0
 15 16  2  0  0  0  0
 15 29  1  0  0  0  0
 16 17  1  0  0  0  0
 16 30  1  0  0  0  0
 17 18  2  0  0  0  0
 19 21  1  0  0  0  0
 19 20  1  0  0  0  0
 19 31  1  0  0  0  0
 20 21  1  0  0  0  0
 20 32  1  0  0  0  0
 20 33  1  0  0  0  0
 21 34  1  0  0  0  0
 21 35  1  0  0  0  0
M  CHG  1  12   1
M  CHG  1  14  -1
M  END
> <s_m_source_file>
AV-unprocessed.smi

> <i_m_source_file_index>
1664

> <i_lp_mmshare_version>
43012

> <i_f3d_flags>
0

> <s_epik_input>
W0NIMl0xW0NIMl1bQ0hdMVtDQF0oW0NIM10pKEMjTilbTkhdQyg9TylbQ0gyXW4yW2NIXWMoW04rXSg9TylbTy1dKVtjSF1bY0hdYzI9Tw==

> <s_epik_cmdline>
J2VwaWtfcHl0aG9uJywgJy1waCcsICc3LjAnLCAnLXRuJywgJzgnLCAnLW1hJywgJzIwMCcsICctbWV0YWxfYmluZGluZycsICctaW1hZScsICc8aW5maWxlLm1hZT4nLCAnLW9tYWUnLCAnPG91dGZpbGUubWFlPic=

> <r_lp_tautomer_probability>
1

> <r_epik_Ionization_Penalty>
4.65324e-07

> <r_epik_Ionization_Penalty_Charging>
6.17383e-11

> <r_epik_Ionization_Penalty_Neutral>
4.65262e-07

> <r_epik_State_Penalty>
-0

> <r_epik_Charging_Adjusted_Penalty>
6.17383e-11

> <i_epik_Tot_Q>
0

> <i_epik_Tot_abs_Q>
2

> <r_epik_Metal_State_Penalty>
-0

> <b_epik_Metal_Only>
0

> <s_lp_Force_Field>
OPLS_2005

> <r_lp_Energy>
24.1204

> <b_lp_Chiralities_Consistent>
1

> <s_lp_Variant>
AV-unprocessed.smi:1664-2

> <Gold.Version>
5.8.1

> <Gold.Id.Protein>
6NUR|6NUR_protein|mol2

> <Gold.PLP.Fitness>
41.2000

> <Gold.PLP.PLP>
-36.3542

> <Gold.PLP.part.hbond>
-2.0000

> <Gold.PLP.part.metal>
0.0000

> <Gold.PLP.part.buried>
-6.1879

> <Gold.PLP.part.nonpolar>
-28.8407

> <Gold.PLP.part.repulsive>
0.1646

> <Gold.PLP.ligand.clash>
0.0000

> <Gold.PLP.ligand.torsion>
1.3235

> <Gold.PLP.Chemscore.Hbond>
1.9913

> <Gold.PLP.Chemscore.CHOScore>
0.0000

> <Gold.PLP.Chemscore.Metal>
0.0000

> <Gold.Chemscore.Hbonds>
donor molecule, donor type, donor heavy atom, donor atom, acceptor molecule, acceptor atom, score
      P1  H  6896  6907       L1     7  0.93
      P1  H 10752 10764       L1     4  1.00

> <Gold.PLP.Chemscore.Internal.Correction>
1.5191

> <Gold.Rescore>
     Score         DG    S(hbond)    S(metal)    S(lipo)     H(rot)  DE(clash)    DE(int)     intcor
     13.47     -15.31       1.91        0.00      72.01       1.94       0.01       1.83       ----

> <Gold.Chemscore.Fitness>
13.4714

> <Gold.Chemscore.DG>
-15.3074

> <Gold.Chemscore.ZeroCoef>
-5.4800

> <Gold.Chemscore.Hbond>
1.9055

> <Gold.Chemscore.Metal>
0.0000

> <Gold.Chemscore.Lipo>
72.0149

> <Gold.Chemscore.Internal_Hbond>
0.0000

> <Gold.Chemscore.DEClash>
0.0073

> <Gold.Chemscore.DEInternal>
1.8287

> <Gold.Chemscore.Rot>
1.9386

> <Gold.Chemscore.Internal.Correction>
   9.000000E+99

> <Gold.Chemscore.Hbonds>
donor molecule, donor type, donor heavy atom, donor atom, acceptor molecule, acceptor atom, score
      P1  H  6896  6907       L1     7  0.88
      P1  H 10752 10764       L1     4  0.74

> <Gold.Chemscore.Hbond.Weighted>
-6.3644

> <Gold.Chemscore.Metal.Weighted>
-0.0000

> <Gold.Chemscore.Lipo.Weighted>
-8.4257

> <Gold.Chemscore.Internal_Hbond.Weighted>
0.0000

> <Gold.Chemscore.DEClash.Weighted>
0.0073

> <Gold.Chemscore.DEInternal.Weighted>
1.8287

> <Gold.Chemscore.Rot.Weighted>
4.9627

> <Gold.Chemscore.Internal.Correction.Weighted>
   9.000000E+99

> <Gold.Protein.RotatedTorsions>
[ 6907 6896 6895 6894 ] final   12.47 input  -60.11 | X-H torsion
[ 7974 7965 7964 7962 ] final   75.69 input  175.53 | X-H torsion
[ 8008 7997 7996 7995 ] final -169.88 input   59.86 | X-H torsion
[ 10167 10162 10161 10158 ] final -129.76 input  -65.29 | X-H torsion
[ 10718 10713 10712 10709 ] final  120.76 input   66.30 | X-H torsion
[ 10763 10752 10751 10750 ] final  -40.18 input  -60.55 | X-H torsion
[ 11005 11000 10999 10996 ] final   51.04 input  -57.11 | X-H torsion

> <Gold.Protein.ActiveResidues>
 VAL166  LYS551  ARG553  GLY616  TRP617  ASP618  TYR619  PRO620  LYS621  CYS622 
 ASP623  PHE694  ASN695  SER759  ASP760  ASP761  ALA762  ILE779  LEU786  VAL792 
 PHE793  MET794  SER795  GLU796  ALA797  LYS798  CYS799  TRP800  GLU811  SER814 

> <Gold.Protein.RotatedAtoms>
  151.7709  135.0786  160.0359 H   0  0  0  0  0  0  0  0  0  0  0  0  # atno 6907 bound_to 6896
  152.3289  133.5932  159.5804 H   0  0  0  0  0  0  0  0  0  0  0  0  # atno 6908 bound_to 6896
  150.7411  133.9814  159.3619 H   0  0  0  0  0  0  0  0  0  0  0  0  # atno 6909 bound_to 6896
  145.7123  139.2619  143.1643 H   0  0  0  0  0  0  0  0  0  0  0  0  # atno 7974 bound_to 7965
  155.9110  140.1057  157.1279 H   0  0  0  0  0  0  0  0  0  0  0  0  # atno 8008 bound_to 7997
  154.4039  140.1274  156.4621 H   0  0  0  0  0  0  0  0  0  0  0  0  # atno 8009 bound_to 7997
  155.7311  140.3468  155.5062 H   0  0  0  0  0  0  0  0  0  0  0  0  # atno 8010 bound_to 7997
  139.9364  143.6213  152.2516 H   0  0  0  0  0  0  0  0  0  0  0  0  # atno 10167 bound_to 10162
  157.5867  131.1069  150.8080 H   0  0  0  0  0  0  0  0  0  0  0  0  # atno 10718 bound_to 10713
  153.9417  135.6760  153.4744 H   0  0  0  0  0  0  0  0  0  0  0  0  # atno 10763 bound_to 10752
  153.0928  135.4866  154.8720 H   0  0  0  0  0  0  0  0  0  0  0  0  # atno 10764 bound_to 10752
  154.7374  135.3152  154.8747 H   0  0  0  0  0  0  0  0  0  0  0  0  # atno 10765 bound_to 10752
  140.0967  134.5137  155.8801 H   0  0  0  0  0  0  0  0  0  0  0  0  # atno 11005 bound_to 11000
  146.0701  140.7878  142.9692 LP  0  0  0  0  0  0  0  0  0  0  0  0  # atno 17320 bound_to 7965
  144.6938  140.3329  143.7213 LP  0  0  0  0  0  0  0  0  0  0  0  0  # atno 17321 bound_to 7965
  139.6740  144.7659  151.1730 LP  0  0  0  0  0  0  0  0  0  0  0  0  # atno 17342 bound_to 10162
  140.7623  143.5823  150.8882 LP  0  0  0  0  0  0  0  0  0  0  0  0  # atno 17343 bound_to 10162
  156.8512  130.5081  149.5311 LP  0  0  0  0  0  0  0  0  0  0  0  0  # atno 17370 bound_to 10713
  156.0917  130.5901  150.9744 LP  0  0  0  0  0  0  0  0  0  0  0  0  # atno 17371 bound_to 10713
  141.2094  133.6683  156.6435 LP  0  0  0  0  0  0  0  0  0  0  0  0  # atno 17394 bound_to 11000
  140.3277  134.7955  157.4302 LP  0  0  0  0  0  0  0  0  0  0  0  0  # atno 17395 bound_to 11000

$$$$
