AV-unprocessed.smi:748|AV-procd|sdf|3583|dock7
  -GOLD-   22720 0573D 1   1.00000     0.00000
 Structure written by MMmdl.
 50 51  0  0  0  0  0  0  0  0  1 V2000
  147.1928  129.0402  152.0742 C   0  0  0  0  0  0  0  0  0  0  0  0
  146.4546  130.3489  152.3961 C   0  0  0  0  0  0  0  0  0  0  0  0
  145.3237  130.6230  151.3958 C   0  0  0  0  0  0  0  0  0  0  0  0
  147.3876  131.4720  152.3946 N   0  0  0  0  0  0  0  0  0  0  0  0
  147.5293  132.3694  153.3828 C   0  0  0  0  0  0  0  0  0  0  0  0
  146.8635  132.3448  154.4186 O   0  0  0  0  0  0  0  0  0  0  0  0
  148.5854  133.4555  153.1564 C   0  0  0  0  0  0  0  0  0  0  0  0
  149.4982  133.6807  154.3779 C   0  0  0  0  0  0  0  0  0  0  0  0
  149.8436  135.0888  154.5319 N   0  0  0  0  0  0  0  0  0  0  0  0
  150.4183  135.6269  155.6199 C   0  0  0  0  0  0  0  0  0  0  0  0
  150.7361  134.9732  156.6141 O   0  0  0  0  0  0  0  0  0  0  0  0
  150.7270  137.0940  155.5314 C   0  0  0  0  0  0  0  0  0  0  0  0
  150.3689  137.8569  154.3979 C   0  0  0  0  0  0  0  0  0  0  0  0
  150.6786  139.2291  154.3885 C   0  0  0  0  0  0  0  0  0  0  0  0
  151.2924  139.8571  155.4122 N   0  0  0  0  0  0  0  0  0  0  0  0
  151.6249  139.1420  156.5149 C   0  0  0  0  0  0  0  0  0  0  0  0
  152.2558  139.8133  157.5843 N   0  0  0  0  0  0  0  0  0  0  0  0
  152.5721  138.9876  158.7465 C   0  0  0  0  0  0  0  0  0  0  0  0
  153.5160  139.7427  159.6975 C   0  0  0  0  0  0  0  0  0  0  0  0
  152.9464  141.0007  160.0451 O   0  0  0  0  0  0  0  0  0  0  0  0
  152.7525  141.8351  158.9064 C   0  0  2  0  0  0  0  0  0  0  0  0
  152.2286  143.1927  159.3858 C   0  0  0  0  0  0  0  0  0  0  0  0
  151.7727  141.1465  157.9374 C   0  0  0  0  0  0  0  0  0  0  0  0
  151.3579  137.7556  156.6076 C   0  0  0  0  0  0  0  0  0  0  0  0
  146.5069  128.1927  152.0816 H   0  0  0  0  0  0  0  0  0  0  0  0
  147.9738  128.8351  152.8070 H   0  0  0  0  0  0  0  0  0  0  0  0
  147.6618  129.0800  151.0904 H   0  0  0  0  0  0  0  0  0  0  0  0
  146.0049  130.2590  153.3865 H   0  0  0  0  0  0  0  0  0  0  0  0
  144.5965  129.8107  151.3952 H   0  0  0  0  0  0  0  0  0  0  0  0
  145.7065  130.7270  150.3800 H   0  0  0  0  0  0  0  0  0  0  0  0
  144.7904  131.5405  151.6473 H   0  0  0  0  0  0  0  0  0  0  0  0
  147.9761  131.5706  151.5799 H   0  0  0  0  0  0  0  0  0  0  0  0
  149.1895  133.1748  152.2924 H   0  0  0  0  0  0  0  0  0  0  0  0
  148.0768  134.3841  152.8948 H   0  0  0  0  0  0  0  0  0  0  0  0
  148.9933  133.3597  155.2897 H   0  0  0  0  0  0  0  0  0  0  0  0
  150.4072  133.0811  154.2988 H   0  0  0  0  0  0  0  0  0  0  0  0
  149.6389  135.6994  153.7542 H   0  0  0  0  0  0  0  0  0  0  0  0
  149.8671  137.4136  153.5500 H   0  0  0  0  0  0  0  0  0  0  0  0
  150.4232  139.8410  153.5360 H   0  0  0  0  0  0  0  0  0  0  0  0
  151.6443  138.7386  159.2632 H   0  0  0  0  0  0  0  0  0  0  0  0
  153.0368  138.0453  158.4596 H   0  0  0  0  0  0  0  0  0  0  0  0
  153.6748  139.1622  160.6062 H   0  0  0  0  0  0  0  0  0  0  0  0
  154.4950  139.8887  159.2384 H   0  0  0  0  0  0  0  0  0  0  0  0
  153.7121  141.9901  158.4097 H   0  0  0  0  0  0  0  0  0  0  0  0
  152.0783  143.8728  158.5469 H   0  0  0  0  0  0  0  0  0  0  0  0
  152.9338  143.6624  160.0717 H   0  0  0  0  0  0  0  0  0  0  0  0
  151.2766  143.0872  159.9069 H   0  0  0  0  0  0  0  0  0  0  0  0
  151.6630  141.7558  157.0392 H   0  0  0  0  0  0  0  0  0  0  0  0
  150.7869  141.0610  158.3969 H   0  0  0  0  0  0  0  0  0  0  0  0
  151.6476  137.1972  157.4860 H   0  0  0  0  0  0  0  0  0  0  0  0
  1  2  1  0  0  0  0
  1 25  1  0  0  0  0
  1 26  1  0  0  0  0
  1 27  1  0  0  0  0
  2  3  1  0  0  0  0
  2  4  1  0  0  0  0
  2 28  1  0  0  0  0
  3 29  1  0  0  0  0
  3 30  1  0  0  0  0
  3 31  1  0  0  0  0
  4  5  1  0  0  0  0
  4 32  1  0  0  0  0
  5  6  2  0  0  0  0
  5  7  1  0  0  0  0
  7  8  1  0  0  0  0
  7 33  1  0  0  0  0
  7 34  1  0  0  0  0
  8  9  1  0  0  0  0
  8 35  1  0  0  0  0
  8 36  1  0  0  0  0
  9 10  1  0  0  0  0
  9 37  1  0  0  0  0
 10 11  2  0  0  0  0
 10 12  1  0  0  0  0
 12 24  1  0  0  0  0
 12 13  2  0  0  0  0
 13 14  1  0  0  0  0
 13 38  1  0  0  0  0
 14 15  2  0  0  0  0
 14 39  1  0  0  0  0
 15 16  1  0  0  0  0
 16 17  1  0  0  0  0
 16 24  2  0  0  0  0
 17 23  1  0  0  0  0
 17 18  1  0  0  0  0
 18 19  1  0  0  0  0
 18 40  1  0  0  0  0
 18 41  1  0  0  0  0
 19 20  1  0  0  0  0
 19 42  1  0  0  0  0
 19 43  1  0  0  0  0
 20 21  1  0  0  0  0
 21 22  1  0  0  0  0
 21 23  1  0  0  0  0
 21 44  1  0  0  0  0
 22 45  1  0  0  0  0
 22 46  1  0  0  0  0
 22 47  1  0  0  0  0
 23 48  1  0  0  0  0
 23 49  1  0  0  0  0
 24 50  1  0  0  0  0
M  END
> <s_m_source_file>
AV-unprocessed.smi

> <i_m_source_file_index>
748

> <i_lp_mmshare_version>
43012

> <i_f3d_flags>
0

> <s_epik_input>
W0NIM11bQ0hdKFtDSDNdKVtOSF1DKD1PKVtDSDJdW0NIMl1bTkhdQyg9TyljMVtjSF1bY0hdbmMoW2NIXTEpTjJbQ0gyXVtDSDJdT1tDQEBIXShbQ0gzXSlbQ0gyXTI=

> <s_epik_cmdline>
J2VwaWtfcHl0aG9uJywgJy1waCcsICc3LjAnLCAnLXRuJywgJzgnLCAnLW1hJywgJzIwMCcsICctbWV0YWxfYmluZGluZycsICctaW1hZScsICc8aW5maWxlLm1hZT4nLCAnLW9tYWUnLCAnPG91dGZpbGUubWFlPic=

> <r_lp_tautomer_probability>
1

> <r_epik_Ionization_Penalty>
1.38678e-05

> <r_epik_Ionization_Penalty_Charging>
0

> <r_epik_Ionization_Penalty_Neutral>
1.38678e-05

> <r_epik_State_Penalty>
-0

> <r_epik_Charging_Adjusted_Penalty>
0

> <i_epik_Tot_Q>
0

> <i_epik_Tot_abs_Q>
0

> <r_epik_Metal_State_Penalty>
-0

> <b_epik_Metal_Only>
0

> <s_lp_Force_Field>
OPLS_2005

> <r_lp_Energy>
15.3694

> <b_lp_Chiralities_Consistent>
1

> <s_lp_Variant>
AV-unprocessed.smi:748-2

> <Gold.Version>
5.8.1

> <Gold.Id.Protein>
6NUR|6NUR_protein|mol2

> <Gold.PLP.Fitness>
46.9097

> <Gold.PLP.PLP>
-39.3107

> <Gold.PLP.part.hbond>
-2.7270

> <Gold.PLP.part.metal>
0.0000

> <Gold.PLP.part.buried>
-3.5054

> <Gold.PLP.part.nonpolar>
-32.2840

> <Gold.PLP.part.repulsive>
0.1368

> <Gold.PLP.ligand.clash>
0.0000

> <Gold.PLP.ligand.torsion>
0.8417

> <Gold.PLP.Chemscore.Hbond>
1.9750

> <Gold.PLP.Chemscore.CHOScore>
1.0000

> <Gold.PLP.Chemscore.Metal>
0.0000

> <Gold.Chemscore.Hbonds>
donor molecule, donor type, donor heavy atom, donor atom, acceptor molecule, acceptor atom, score
      L1  H     4    32       P1 10747  1.00
      L1  H     9    37       P1  7948  0.93
      L1  C    14    39       P1  7957  1.00

> <Gold.PLP.Chemscore.Internal.Correction>
0.3575

> <Gold.Rescore>
     Score         DG    S(hbond)    S(metal)    S(lipo)     H(rot)  DE(clash)    DE(int)     intcor
     15.84     -17.09       1.31        0.00     102.82       1.87       0.46       0.79       ----

> <Gold.Chemscore.Fitness>
15.8387

> <Gold.Chemscore.DG>
-17.0863

> <Gold.Chemscore.ZeroCoef>
-5.4800

> <Gold.Chemscore.Hbond>
1.3058

> <Gold.Chemscore.Metal>
0.0000

> <Gold.Chemscore.Lipo>
102.8205

> <Gold.Chemscore.Internal_Hbond>
0.0000

> <Gold.Chemscore.DEClash>
0.4588

> <Gold.Chemscore.DEInternal>
0.7889

> <Gold.Chemscore.Rot>
1.8692

> <Gold.Chemscore.Internal.Correction>
   9.000000E+99

> <Gold.Chemscore.Hbonds>
donor molecule, donor type, donor heavy atom, donor atom, acceptor molecule, acceptor atom, score
      L1  H     4    32       P1 10747  0.95
      L1  H     9    37       P1  7948  0.19

> <Gold.Chemscore.Hbond.Weighted>
-4.3615

> <Gold.Chemscore.Metal.Weighted>
-0.0000

> <Gold.Chemscore.Lipo.Weighted>
-12.0300

> <Gold.Chemscore.Internal_Hbond.Weighted>
0.0000

> <Gold.Chemscore.DEClash.Weighted>
0.4588

> <Gold.Chemscore.DEInternal.Weighted>
0.7889

> <Gold.Chemscore.Rot.Weighted>
4.7852

> <Gold.Chemscore.Internal.Correction.Weighted>
   9.000000E+99

> <Gold.Protein.RotatedTorsions>
[ 6907 6896 6895 6894 ] final  138.07 input  -60.11 | X-H torsion
[ 7974 7965 7964 7962 ] final -153.56 input  175.53 | X-H torsion
[ 8008 7997 7996 7995 ] final  -37.68 input   59.86 | X-H torsion
[ 10167 10162 10161 10158 ] final -139.87 input  -65.29 | X-H torsion
[ 10718 10713 10712 10709 ] final -128.44 input   66.30 | X-H torsion
[ 10763 10752 10751 10750 ] final -166.60 input  -60.55 | X-H torsion
[ 11005 11000 10999 10996 ] final -142.70 input  -57.11 | X-H torsion

> <Gold.Protein.ActiveResidues>
 VAL166  LYS551  ARG553  GLY616  TRP617  ASP618  TYR619  PRO620  LYS621  CYS622 
 ASP623  PHE694  ASN695  SER759  ASP760  ASP761  ALA762  ILE779  LEU786  VAL792 
 PHE793  MET794  SER795  GLU796  ALA797  LYS798  CYS799  TRP800  GLU811  SER814 

> <Gold.Protein.RotatedAtoms>
  152.2709  133.5381  159.5438 H   0  0  0  0  0  0  0  0  0  0  0  0  # atno 6907 bound_to 6896
  150.7159  134.0699  159.3870 H   0  0  0  0  0  0  0  0  0  0  0  0  # atno 6908 bound_to 6896
  151.8614  135.0523  160.0520 H   0  0  0  0  0  0  0  0  0  0  0  0  # atno 6909 bound_to 6896
  144.7734  140.4509  143.5890 H   0  0  0  0  0  0  0  0  0  0  0  0  # atno 7974 bound_to 7965
  154.4049  140.1598  156.2577 H   0  0  0  0  0  0  0  0  0  0  0  0  # atno 8008 bound_to 7997
  155.9064  140.3430  155.6043 H   0  0  0  0  0  0  0  0  0  0  0  0  # atno 8009 bound_to 7997
  155.7387  140.0790  157.2246 H   0  0  0  0  0  0  0  0  0  0  0  0  # atno 8010 bound_to 7997
  139.8337  143.7414  152.2665 H   0  0  0  0  0  0  0  0  0  0  0  0  # atno 10167 bound_to 10162
  156.1951  130.6821  151.0472 H   0  0  0  0  0  0  0  0  0  0  0  0  # atno 10718 bound_to 10713
  154.6817  135.2955  154.9604 H   0  0  0  0  0  0  0  0  0  0  0  0  # atno 10763 bound_to 10752
  154.0597  135.6633  153.4814 H   0  0  0  0  0  0  0  0  0  0  0  0  # atno 10764 bound_to 10752
  153.0552  135.5149  154.7863 H   0  0  0  0  0  0  0  0  0  0  0  0  # atno 10765 bound_to 10752
  140.8199  134.2643  157.4905 H   0  0  0  0  0  0  0  0  0  0  0  0  # atno 11005 bound_to 11000
  145.6255  139.1529  143.2998 LP  0  0  0  0  0  0  0  0  0  0  0  0  # atno 17320 bound_to 7965
  146.1898  140.6362  142.9151 LP  0  0  0  0  0  0  0  0  0  0  0  0  # atno 17321 bound_to 7965
  139.7629  144.7501  151.0337 LP  0  0  0  0  0  0  0  0  0  0  0  0  # atno 17342 bound_to 10162
  140.7804  143.4731  151.0119 LP  0  0  0  0  0  0  0  0  0  0  0  0  # atno 17343 bound_to 10162
  157.6953  131.0796  150.6988 LP  0  0  0  0  0  0  0  0  0  0  0  0  # atno 17370 bound_to 10713
  156.7045  130.4633  149.5564 LP  0  0  0  0  0  0  0  0  0  0  0  0  # atno 17371 bound_to 10713
  139.8709  134.9530  156.4131 LP  0  0  0  0  0  0  0  0  0  0  0  0  # atno 17394 bound_to 11000
  140.9110  133.7712  155.9791 LP  0  0  0  0  0  0  0  0  0  0  0  0  # atno 17395 bound_to 11000

$$$$
