AV-unprocessed.smi:53|AV-procd|sdf|522|dock7
  -GOLD-   2262016393D 1   1.00000     0.00000
 Structure written by MMmdl.
 30 31  0  0  0  0  0  0  0  0  1 V2000
  139.1455  137.7363  155.2031 N   0  0  0  0  0  0  0  0  0  0  0  0
  140.2439  137.1442  154.7138 C   0  0  0  0  0  0  0  0  0  0  0  0
  140.1272  136.0429  153.7848 C   0  0  0  0  0  0  0  0  0  0  0  0
  141.2790  135.4962  153.3370 C   0  0  0  0  0  0  0  0  0  0  0  0
  142.5242  135.9595  153.7430 N   0  0  0  0  0  0  0  0  0  0  0  0
  143.8188  135.3464  153.2402 C   0  0  1  0  0  0  0  0  0  0  0  0
  143.5341  134.2446  152.4266 O   0  0  0  0  0  0  0  0  0  0  0  0
  143.8225  134.5491  151.0646 C   0  0  2  0  0  0  0  0  0  0  0  0
  144.1026  133.2520  150.2908 C   0  0  0  0  0  0  0  0  0  0  0  0
  142.9068  132.5207  150.1240 O   0  0  0  0  0  0  0  0  0  0  0  0
  145.0426  135.4584  151.2034 C   0  0  1  0  0  0  0  0  0  0  0  0
  145.3217  136.2002  150.0303 O   0  0  0  0  0  0  0  0  0  0  0  0
  144.6729  136.3277  152.4011 C   0  0  1  0  0  0  0  0  0  0  0  0
  143.9740  137.5013  152.0121 O   0  0  0  0  0  0  0  0  0  0  0  0
  142.6046  137.0448  154.6483 C   0  0  0  0  0  0  0  0  0  0  0  0
  143.6871  137.4990  155.0172 O   0  0  0  0  0  0  0  0  0  0  0  0
  141.4279  137.5843  155.0933 N   0  0  0  0  0  0  0  0  0  0  0  0
  144.3350  134.9681  154.1247 H   0  0  0  0  0  0  0  0  0  0  0  0
  142.9971  135.1071  150.6182 H   0  0  0  0  0  0  0  0  0  0  0  0
  145.9172  134.8571  151.4569 H   0  0  0  0  0  0  0  0  0  0  0  0
  145.5549  136.6242  152.9696 H   0  0  0  0  0  0  0  0  0  0  0  0
  139.2311  138.5059  155.8510 H   0  0  0  0  0  0  0  0  0  0  0  0
  138.2322  137.4104  154.9208 H   0  0  0  0  0  0  0  0  0  0  0  0
  139.1795  135.6505  153.4443 H   0  0  0  0  0  0  0  0  0  0  0  0
  141.1977  134.6746  152.6423 H   0  0  0  0  0  0  0  0  0  0  0  0
  144.4852  133.4831  149.2963 H   0  0  0  0  0  0  0  0  0  0  0  0
  144.8541  132.6432  150.7942 H   0  0  0  0  0  0  0  0  0  0  0  0
  142.2399  133.1052  149.7975 H   0  0  0  0  0  0  0  0  0  0  0  0
  144.7289  136.9351  149.9926 H   0  0  0  0  0  0  0  0  0  0  0  0
  144.1789  137.6819  151.1070 H   0  0  0  0  0  0  0  0  0  0  0  0
  1  2  1  0  0  0  0
  1 22  1  0  0  0  0
  1 23  1  0  0  0  0
  2 17  2  0  0  0  0
  2  3  1  0  0  0  0
  3  4  2  0  0  0  0
  3 24  1  0  0  0  0
  4  5  1  0  0  0  0
  4 25  1  0  0  0  0
  5  6  1  0  0  0  0
  5 15  1  0  0  0  0
  6 18  1  0  0  0  0
  6 13  1  0  0  0  0
  6  7  1  0  0  0  0
  7  8  1  0  0  0  0
  8 19  1  0  0  0  0
  8  9  1  0  0  0  0
  8 11  1  0  0  0  0
  9 10  1  0  0  0  0
  9 26  1  0  0  0  0
  9 27  1  0  0  0  0
 10 28  1  0  0  0  0
 11 20  1  0  0  0  0
 11 12  1  0  0  0  0
 11 13  1  0  0  0  0
 12 29  1  0  0  0  0
 13 21  1  0  0  0  0
 13 14  1  0  0  0  0
 14 30  1  0  0  0  0
 15 16  2  0  0  0  0
 15 17  1  0  0  0  0
M  END
> <s_m_source_file>
AV-unprocessed.smi

> <i_m_source_file_index>
53

> <i_lp_mmshare_version>
43012

> <i_f3d_flags>
0

> <s_epik_input>
W05IMl1jMVtjSF1bY0hdbihjKD1PKW4xKVtDQEBIXTJPW0NASF0oW0NIMl1bT0hdKVtDQEBIXShbT0hdKVtDQEBIXTJbT0hd

> <s_epik_cmdline>
J2VwaWtfcHl0aG9uJywgJy1waCcsICc3LjAnLCAnLXRuJywgJzgnLCAnLW1hJywgJzIwMCcsICctbWV0YWxfYmluZGluZycsICctaW1hZScsICc8aW5maWxlLm1hZT4nLCAnLW9tYWUnLCAnPG91dGZpbGUubWFlPic=

> <r_lp_tautomer_probability>
0.99996

> <r_epik_Ionization_Penalty>
0.00069087

> <r_epik_Ionization_Penalty_Charging>
2.61959e-08

> <r_epik_Ionization_Penalty_Neutral>
0.000690844

> <r_epik_State_Penalty>
1.15523e-05

> <r_epik_Charging_Adjusted_Penalty>
1.15785e-05

> <i_epik_Tot_Q>
0

> <i_epik_Tot_abs_Q>
0

> <r_epik_Metal_State_Penalty>
-0

> <b_epik_Metal_Only>
0

> <s_epik_Chemistry_Notes>
This compound contains an acetal/aminal-like group ( X-CH(R)-Y where X, Y are N, S, or O) that may be acid/base labile, releasing an aldehyde.

> <s_lp_Force_Field>
OPLS_2005

> <r_lp_Energy>
37.6612

> <b_lp_Chiralities_Consistent>
1

> <s_lp_Variant>
AV-unprocessed.smi:53-10

> <Gold.Version>
5.8.1

> <Gold.Id.Protein>
6NUR|6NUR_protein|mol2

> <Gold.PLP.Fitness>
36.5830

> <Gold.PLP.PLP>
-27.8529

> <Gold.PLP.part.hbond>
-5.6233

> <Gold.PLP.part.metal>
0.0000

> <Gold.PLP.part.buried>
-6.3808

> <Gold.PLP.part.nonpolar>
-16.8482

> <Gold.PLP.part.repulsive>
0.2430

> <Gold.PLP.ligand.clash>
0.0000

> <Gold.PLP.ligand.torsion>
0.0663

> <Gold.PLP.Chemscore.Hbond>
2.9280

> <Gold.PLP.Chemscore.CHOScore>
0.0000

> <Gold.PLP.Chemscore.Metal>
0.0000

> <Gold.Chemscore.Hbonds>
donor molecule, donor type, donor heavy atom, donor atom, acceptor molecule, acceptor atom, score
      L1  H    10    28       P1 10186  1.00
      L1  H    12    29       P1 10171  1.00
      L1  H    14    30       P1 10171  0.93

> <Gold.PLP.Chemscore.Internal.Correction>
0.0786

> <Gold.Rescore>
     Score         DG    S(hbond)    S(metal)    S(lipo)     H(rot)  DE(clash)    DE(int)     intcor
     10.10     -10.48       2.98        0.00      38.92       3.71       0.06       0.32       ----

> <Gold.Chemscore.Fitness>
10.1003

> <Gold.Chemscore.DG>
-10.4802

> <Gold.Chemscore.ZeroCoef>
-5.4800

> <Gold.Chemscore.Hbond>
2.9770

> <Gold.Chemscore.Metal>
0.0000

> <Gold.Chemscore.Lipo>
38.9175

> <Gold.Chemscore.Internal_Hbond>
0.0000

> <Gold.Chemscore.DEClash>
0.0575

> <Gold.Chemscore.DEInternal>
0.3224

> <Gold.Chemscore.Rot>
3.7095

> <Gold.Chemscore.Internal.Correction>
   9.000000E+99

> <Gold.Chemscore.Hbonds>
donor molecule, donor type, donor heavy atom, donor atom, acceptor molecule, acceptor atom, score
      L1  H    10    28       P1 10186  1.00
      L1  H    12    29       P1 10171  1.00
      L1  H    14    30       P1 10171  0.89

> <Gold.Chemscore.Hbond.Weighted>
-9.9432

> <Gold.Chemscore.Metal.Weighted>
-0.0000

> <Gold.Chemscore.Lipo.Weighted>
-4.5534

> <Gold.Chemscore.Internal_Hbond.Weighted>
0.0000

> <Gold.Chemscore.DEClash.Weighted>
0.0575

> <Gold.Chemscore.DEInternal.Weighted>
0.3224

> <Gold.Chemscore.Rot.Weighted>
9.4964

> <Gold.Chemscore.Internal.Correction.Weighted>
   9.000000E+99

> <Gold.Protein.RotatedTorsions>
[ 6907 6896 6895 6894 ] final -138.73 input  -60.11 | X-H torsion
[ 7974 7965 7964 7962 ] final   88.44 input  175.53 | X-H torsion
[ 8008 7997 7996 7995 ] final  -66.97 input   59.86 | X-H torsion
[ 10167 10162 10161 10158 ] final  -29.87 input  -65.29 | X-H torsion
[ 10718 10713 10712 10709 ] final   75.52 input   66.30 | X-H torsion
[ 10763 10752 10751 10750 ] final   80.71 input  -60.55 | X-H torsion
[ 11005 11000 10999 10996 ] final  113.95 input  -57.11 | X-H torsion

> <Gold.Protein.ActiveResidues>
 VAL166  LYS551  ARG553  GLY616  TRP617  ASP618  TYR619  PRO620  LYS621  CYS622 
 ASP623  PHE694  ASN695  SER759  ASP760  ASP761  ALA762  ILE779  LEU786  VAL792 
 PHE793  MET794  SER795  GLU796  ALA797  LYS798  CYS799  TRP800  GLU811  SER814 

> <Gold.Protein.RotatedAtoms>
  151.0388  133.5724  159.2652 H   0  0  0  0  0  0  0  0  0  0  0  0  # atno 6907 bound_to 6896
  151.2779  135.0704  159.9168 H   0  0  0  0  0  0  0  0  0  0  0  0  # atno 6908 bound_to 6896
  152.5360  134.0107  159.7991 H   0  0  0  0  0  0  0  0  0  0  0  0  # atno 6909 bound_to 6896
  145.5456  139.2291  143.2541 H   0  0  0  0  0  0  0  0  0  0  0  0  # atno 7974 bound_to 7965
  154.4769  140.0902  156.7283 H   0  0  0  0  0  0  0  0  0  0  0  0  # atno 8008 bound_to 7997
  155.4574  140.3459  155.4290 H   0  0  0  0  0  0  0  0  0  0  0  0  # atno 8009 bound_to 7997
  156.1130  140.1453  156.9300 H   0  0  0  0  0  0  0  0  0  0  0  0  # atno 8010 bound_to 7997
  140.7256  143.3894  151.1457 H   0  0  0  0  0  0  0  0  0  0  0  0  # atno 10167 bound_to 10162
  157.6637  130.9730  150.1365 H   0  0  0  0  0  0  0  0  0  0  0  0  # atno 10718 bound_to 10713
  153.1056  135.4792  154.8945 H   0  0  0  0  0  0  0  0  0  0  0  0  # atno 10763 bound_to 10752
  154.7426  135.3086  154.8703 H   0  0  0  0  0  0  0  0  0  0  0  0  # atno 10764 bound_to 10752
  153.9307  135.6845  153.4799 H   0  0  0  0  0  0  0  0  0  0  0  0  # atno 10765 bound_to 10752
  139.8967  134.9559  156.6817 H   0  0  0  0  0  0  0  0  0  0  0  0  # atno 11005 bound_to 11000
  146.1952  140.6277  142.9127 LP  0  0  0  0  0  0  0  0  0  0  0  0  # atno 17320 bound_to 7965
  144.7555  140.5296  143.6772 LP  0  0  0  0  0  0  0  0  0  0  0  0  # atno 17321 bound_to 7965
  139.7496  143.8799  152.3073 LP  0  0  0  0  0  0  0  0  0  0  0  0  # atno 17342 bound_to 10162
  139.8648  144.7099  150.9057 LP  0  0  0  0  0  0  0  0  0  0  0  0  # atno 17343 bound_to 10162
  156.2199  130.3673  149.8569 LP  0  0  0  0  0  0  0  0  0  0  0  0  # atno 17370 bound_to 10713
  156.6425  130.8710  151.3516 LP  0  0  0  0  0  0  0  0  0  0  0  0  # atno 17371 bound_to 10713
  140.7294  133.9072  155.8201 LP  0  0  0  0  0  0  0  0  0  0  0  0  # atno 17394 bound_to 11000
  141.0165  134.0948  157.4166 LP  0  0  0  0  0  0  0  0  0  0  0  0  # atno 17395 bound_to 11000

$$$$
