AV-unprocessed.smi:1550|AV-procd|sdf|6230|dock10
  -GOLD-   22720 6413D 1   1.00000     0.00000
 Structure written by MMmdl.
 42 43  0  0  0  0  0  0  0  0  2 V2000
  149.9668  140.1522  155.5498 C   0  0  0  0  0  0  0  0  0  0  0  0
  150.0853  140.0770  157.0792 C   0  0  2  0  0  0  0  0  0  0  0  0
  151.1854  140.8954  157.4652 O   0  0  0  0  0  0  0  0  0  0  0  0
  150.9326  142.2967  157.4654 C   0  0  0  0  0  0  0  0  0  0  0  0
  151.8106  142.9805  158.5224 C   0  0  1  0  0  0  0  0  0  0  0  0
  151.1811  144.2689  159.0897 C   0  0  0  0  0  0  0  0  0  0  0  0
  152.0830  144.8718  160.1723 C   0  0  0  0  0  0  0  0  0  0  0  0
  152.4102  143.8051  161.2234 C   0  0  0  0  0  0  0  0  0  0  0  0
  152.9820  142.5461  160.5510 C   0  0  0  0  0  0  0  0  0  0  0  0
  152.0700  142.0528  159.5740 O   0  0  0  0  0  0  0  0  0  0  0  0
  150.3061  138.6322  157.5566 C   0  0  0  0  0  0  0  0  0  0  0  0
  151.3815  138.0797  157.3274 O   0  0  0  0  0  0  0  0  0  0  0  0
  149.2669  138.0816  158.2147 N   0  0  0  0  0  0  0  0  0  0  0  0
  149.1316  136.8105  158.8006 C   0  0  0  0  0  0  0  0  0  0  0  0
  148.7785  136.5733  160.0950 C   0  0  0  0  0  0  0  0  0  0  0  0
  148.6563  135.2252  160.6364 C   0  0  0  0  0  0  0  0  0  0  0  0
  148.1931  134.9234  162.0508 C   0  0  0  0  0  0  0  0  0  0  0  0
  149.0183  135.4589  162.9507 F   0  0  0  0  0  0  0  0  0  0  0  0
  146.9774  135.4314  162.2480 F   0  0  0  0  0  0  0  0  0  0  0  0
  148.1338  133.6088  162.2646 F   0  0  0  0  0  0  0  0  0  0  0  0
  148.9082  134.2538  159.6872 C   0  0  0  0  0  0  0  0  0  0  0  0
  149.2708  134.4020  158.3943 N   0  5  0  0  0  0  0  0  0  0  0  0
  149.3919  135.6666  157.9012 C   0  0  0  0  0  0  0  0  0  0  0  0
  149.7119  135.8720  156.7296 O   0  0  0  0  0  0  0  0  0  0  0  0
  149.1517  139.5263  155.1844 H   0  0  0  0  0  0  0  0  0  0  0  0
  150.8852  139.8286  155.0581 H   0  0  0  0  0  0  0  0  0  0  0  0
  149.7660  141.1745  155.2288 H   0  0  0  0  0  0  0  0  0  0  0  0
  149.1655  140.4766  157.5111 H   0  0  0  0  0  0  0  0  0  0  0  0
  151.1411  142.7150  156.4797 H   0  0  0  0  0  0  0  0  0  0  0  0
  149.8852  142.5011  157.6885 H   0  0  0  0  0  0  0  0  0  0  0  0
  152.7620  143.2303  158.0495 H   0  0  0  0  0  0  0  0  0  0  0  0
  151.0164  144.9935  158.2915 H   0  0  0  0  0  0  0  0  0  0  0  0
  150.2026  144.0496  159.5186 H   0  0  0  0  0  0  0  0  0  0  0  0
  153.0057  145.2381  159.7205 H   0  0  0  0  0  0  0  0  0  0  0  0
  151.5981  145.7303  160.6379 H   0  0  0  0  0  0  0  0  0  0  0  0
  153.1194  144.1988  161.9521 H   0  0  0  0  0  0  0  0  0  0  0  0
  151.5063  143.5442  161.7752 H   0  0  0  0  0  0  0  0  0  0  0  0
  153.9465  142.7581  160.0869 H   0  0  0  0  0  0  0  0  0  0  0  0
  153.1527  141.7691  161.2961 H   0  0  0  0  0  0  0  0  0  0  0  0
  148.4433  138.6597  158.2990 H   0  0  0  0  0  0  0  0  0  0  0  0
  148.5692  137.3817  160.7744 H   0  0  0  0  0  0  0  0  0  0  0  0
  148.7985  133.1981  160.0154 H   0  0  0  0  0  0  0  0  0  0  0  0
  1  2  1  0  0  0  0
  1 25  1  0  0  0  0
  1 26  1  0  0  0  0
  1 27  1  0  0  0  0
  2  3  1  0  0  0  0
  2 11  1  0  0  0  0
  2 28  1  0  0  0  0
  3  4  1  0  0  0  0
  4  5  1  0  0  0  0
  4 29  1  0  0  0  0
  4 30  1  0  0  0  0
  5 10  1  0  0  0  0
  5  6  1  0  0  0  0
  5 31  1  0  0  0  0
  6  7  1  0  0  0  0
  6 32  1  0  0  0  0
  6 33  1  0  0  0  0
  7  8  1  0  0  0  0
  7 34  1  0  0  0  0
  7 35  1  0  0  0  0
  8  9  1  0  0  0  0
  8 36  1  0  0  0  0
  8 37  1  0  0  0  0
  9 10  1  0  0  0  0
  9 38  1  0  0  0  0
  9 39  1  0  0  0  0
 11 12  2  0  0  0  0
 11 13  1  0  0  0  0
 13 14  1  0  0  0  0
 13 40  1  0  0  0  0
 14 23  1  0  0  0  0
 14 15  2  0  0  0  0
 15 16  1  0  0  0  0
 15 41  1  0  0  0  0
 16 17  1  0  0  0  0
 16 21  2  0  0  0  0
 17 18  1  0  0  0  0
 17 19  1  0  0  0  0
 17 20  1  0  0  0  0
 21 22  1  0  0  0  0
 21 42  1  0  0  0  0
 22 23  1  0  0  0  0
 23 24  2  0  0  0  0
M  CHG  1  22  -1
M  END
> <s_m_source_file>
AV-unprocessed.smi

> <i_m_source_file_index>
1550

> <i_lp_mmshare_version>
43012

> <i_f3d_flags>
0

> <s_epik_input>
TzFbQ0gyXVtDSDJdW0NIMl1bQ0gyXVtDQEhdMVtDSDJdT1tDQEBIXShbQ0gzXSlDKD1PKVtOSF1jMltjSF1jKEMoRikoRilGKVtjSF1bbkhdYzI9Tw==

> <s_epik_cmdline>
J2VwaWtfcHl0aG9uJywgJy1waCcsICc3LjAnLCAnLXRuJywgJzgnLCAnLW1hJywgJzIwMCcsICctbWV0YWxfYmluZGluZycsICctaW1hZScsICc8aW5maWxlLm1hZT4nLCAnLW9tYWUnLCAnPG91dGZpbGUubWFlPic=

> <r_epik_Ionization_Penalty>
2.54933

> <r_epik_Ionization_Penalty_Charging>
0.0583423

> <r_epik_Ionization_Penalty_Neutral>
2.49099

> <r_epik_State_Penalty>
2.65532

> <r_epik_Charging_Adjusted_Penalty>
2.71366

> <i_epik_Tot_Q>
-1

> <i_epik_Tot_abs_Q>
1

> <r_epik_Metal_State_Penalty>
0.516364

> <b_epik_Metal_Only>
0

> <s_lp_Force_Field>
OPLS_2005

> <r_lp_Energy>
26.7738

> <b_lp_Chiralities_Consistent>
1

> <s_lp_Variant>
AV-unprocessed.smi:1550-7

> <Gold.Version>
5.8.1

> <Gold.Id.Protein>
6NUR|6NUR_protein|mol2

> <Gold.PLP.Fitness>
49.7877

> <Gold.PLP.PLP>
-46.5039

> <Gold.PLP.part.hbond>
-1.0000

> <Gold.PLP.part.metal>
0.0000

> <Gold.PLP.part.buried>
-4.1969

> <Gold.PLP.part.nonpolar>
-41.7562

> <Gold.PLP.part.repulsive>
0.1416

> <Gold.PLP.ligand.clash>
0.0000

> <Gold.PLP.ligand.torsion>
1.4328

> <Gold.PLP.Chemscore.Hbond>
2.0000

> <Gold.PLP.Chemscore.CHOScore>
0.0000

> <Gold.PLP.Chemscore.Metal>
0.0000

> <Gold.PLP.Chemscore.Internal.Correction>
0.1494

> <Gold.Rescore>
     Score         DG    S(hbond)    S(metal)    S(lipo)     H(rot)  DE(clash)    DE(int)     intcor
     10.28     -14.87       0.47        0.00     106.86       1.82       0.14       4.45       ----

> <Gold.Chemscore.Fitness>
10.2800

> <Gold.Chemscore.DG>
-14.8676

> <Gold.Chemscore.ZeroCoef>
-5.4800

> <Gold.Chemscore.Hbond>
0.4652

> <Gold.Chemscore.Metal>
0.0000

> <Gold.Chemscore.Lipo>
106.8578

> <Gold.Chemscore.Internal_Hbond>
0.0000

> <Gold.Chemscore.DEClash>
0.1417

> <Gold.Chemscore.DEInternal>
4.4459

> <Gold.Chemscore.Rot>
1.8236

> <Gold.Chemscore.Internal.Correction>
   9.000000E+99

> <Gold.Chemscore.Hbond.Weighted>
-1.5537

> <Gold.Chemscore.Metal.Weighted>
-0.0000

> <Gold.Chemscore.Lipo.Weighted>
-12.5024

> <Gold.Chemscore.Internal_Hbond.Weighted>
0.0000

> <Gold.Chemscore.DEClash.Weighted>
0.1417

> <Gold.Chemscore.DEInternal.Weighted>
4.4459

> <Gold.Chemscore.Rot.Weighted>
4.6684

> <Gold.Chemscore.Internal.Correction.Weighted>
   9.000000E+99

> <Gold.Protein.RotatedTorsions>
[ 6907 6896 6895 6894 ] final  139.75 input  -60.11 | X-H torsion
[ 7974 7965 7964 7962 ] final   82.42 input  175.53 | X-H torsion
[ 8008 7997 7996 7995 ] final -133.47 input   59.86 | X-H torsion
[ 10167 10162 10161 10158 ] final -105.93 input  -65.29 | X-H torsion
[ 10718 10713 10712 10709 ] final  140.20 input   66.30 | X-H torsion
[ 10763 10752 10751 10750 ] final -120.31 input  -60.55 | X-H torsion
[ 11005 11000 10999 10996 ] final   60.98 input  -57.11 | X-H torsion

> <Gold.Protein.ActiveResidues>
 VAL166  LYS551  ARG553  GLY616  TRP617  ASP618  TYR619  PRO620  LYS621  CYS622 
 ASP623  PHE694  ASN695  SER759  ASP760  ASP761  ALA762  ILE779  LEU786  VAL792 
 PHE793  MET794  SER795  GLU796  ALA797  LYS798  CYS799  TRP800  GLU811  SER814 

> <Gold.Protein.RotatedAtoms>
  152.2512  133.5216  159.5325 H   0  0  0  0  0  0  0  0  0  0  0  0  # atno 6907 bound_to 6896
  150.7094  134.0958  159.3957 H   0  0  0  0  0  0  0  0  0  0  0  0  # atno 6908 bound_to 6896
  151.8878  135.0428  160.0545 H   0  0  0  0  0  0  0  0  0  0  0  0  # atno 6909 bound_to 6896
  145.6253  139.2394  143.2115 H   0  0  0  0  0  0  0  0  0  0  0  0  # atno 7974 bound_to 7965
  155.3460  140.0474  157.3045 H   0  0  0  0  0  0  0  0  0  0  0  0  # atno 8008 bound_to 7997
  154.5252  140.2238  155.8868 H   0  0  0  0  0  0  0  0  0  0  0  0  # atno 8009 bound_to 7997
  156.1732  140.3091  155.9017 H   0  0  0  0  0  0  0  0  0  0  0  0  # atno 8010 bound_to 7997
  140.1933  143.3875  152.1189 H   0  0  0  0  0  0  0  0  0  0  0  0  # atno 10167 bound_to 10162
  157.4059  131.1022  151.0504 H   0  0  0  0  0  0  0  0  0  0  0  0  # atno 10718 bound_to 10713
  154.8641  135.4207  154.2438 H   0  0  0  0  0  0  0  0  0  0  0  0  # atno 10763 bound_to 10752
  153.3398  135.6993  153.6882 H   0  0  0  0  0  0  0  0  0  0  0  0  # atno 10764 bound_to 10752
  153.5865  135.3563  155.2868 H   0  0  0  0  0  0  0  0  0  0  0  0  # atno 10765 bound_to 10752
  140.0193  134.6177  155.9663 H   0  0  0  0  0  0  0  0  0  0  0  0  # atno 11005 bound_to 11000
  146.1399  140.7072  142.9372 LP  0  0  0  0  0  0  0  0  0  0  0  0  # atno 17320 bound_to 7965
  144.7215  140.4387  143.7005 LP  0  0  0  0  0  0  0  0  0  0  0  0  # atno 17321 bound_to 7965
  139.5247  144.7087  151.5274 LP  0  0  0  0  0  0  0  0  0  0  0  0  # atno 17342 bound_to 10162
  140.6441  143.8830  150.6720 LP  0  0  0  0  0  0  0  0  0  0  0  0  # atno 17343 bound_to 10162
  157.1485  130.6174  149.5575 LP  0  0  0  0  0  0  0  0  0  0  0  0  # atno 17370 bound_to 10713
  155.9836  130.4857  150.6943 LP  0  0  0  0  0  0  0  0  0  0  0  0  # atno 17371 bound_to 10713
  141.1763  133.6541  156.4843 LP  0  0  0  0  0  0  0  0  0  0  0  0  # atno 17394 bound_to 11000
  140.4415  134.7011  157.4994 LP  0  0  0  0  0  0  0  0  0  0  0  0  # atno 17395 bound_to 11000

$$$$
