AV-unprocessed.smi:1389|AV-procd|sdf|5649|dock3
  -GOLD-   22720 5273D 1   1.00000     0.00000
 Structure written by MMmdl.
 52 54  0  0  0  0  0  0  0  0  2 V2000
  146.8191  133.7221  153.6631 C   0  0  0  0  0  0  0  0  0  0  0  0
  145.4272  134.0206  153.0544 C   0  0  1  0  0  0  0  0  0  0  0  0
  145.1163  135.5388  153.1457 C   0  0  0  0  0  0  0  0  0  0  0  0
  146.3204  136.3609  153.0949 N   0  0  0  0  0  0  0  0  0  0  0  0
  146.4147  137.5917  153.6140 C   0  0  0  0  0  0  0  0  0  0  0  0
  145.4880  138.1526  154.1988 O   0  0  0  0  0  0  0  0  0  0  0  0
  147.6408  138.1080  153.4261 N   0  0  0  0  0  0  0  0  0  0  0  0
  148.1403  139.3634  153.8746 C   0  0  0  0  0  0  0  0  0  0  0  0
  147.3386  140.5307  153.8433 C   0  0  0  0  0  0  0  0  0  0  0  0
  147.8951  141.7614  154.2314 C   0  0  0  0  0  0  0  0  0  0  0  0
  149.2435  141.7862  154.6235 C   0  0  0  0  0  0  0  0  0  0  0  0
  150.0243  140.6877  154.6445 N   0  0  0  0  0  0  0  0  0  0  0  0
  149.4985  139.4901  154.2864 C   0  0  0  0  0  0  0  0  0  0  0  0
  150.3634  138.3725  154.3418 N   0  0  0  0  0  0  0  0  0  0  0  0
  149.9478  137.2154  155.1294 C   0  0  0  0  0  0  0  0  0  0  0  0
  151.2183  136.6472  155.7707 C   0  0  0  0  0  0  0  0  0  0  0  0
  152.3397  137.1871  154.8889 C   0  0  0  0  0  0  0  0  0  0  0  0
  151.8038  138.5575  154.4853 C   0  0  0  0  0  0  0  0  0  0  0  0
  145.3291  133.4896  151.6530 N   0  3  0  0  0  0  0  0  0  0  0  0
  145.6436  132.0365  151.5545 C   0  0  0  0  0  0  0  0  0  0  0  0
  145.5709  131.5415  150.1007 C   0  0  0  0  0  0  0  0  0  0  0  0
  144.2803  131.8030  149.5735 O   0  0  0  0  0  0  0  0  0  0  0  0
  144.0111  133.1955  149.5433 C   0  0  0  0  0  0  0  0  0  0  0  0
  144.0321  133.7651  150.9724 C   0  0  0  0  0  0  0  0  0  0  0  0
  146.9348  134.1491  154.6589 H   0  0  0  0  0  0  0  0  0  0  0  0
  147.6164  134.1289  153.0403 H   0  0  0  0  0  0  0  0  0  0  0  0
  147.0003  132.6560  153.7884 H   0  0  0  0  0  0  0  0  0  0  0  0
  144.6777  133.5015  153.6545 H   0  0  0  0  0  0  0  0  0  0  0  0
  144.4392  135.8306  152.3407 H   0  0  0  0  0  0  0  0  0  0  0  0
  144.6294  135.7848  154.0893 H   0  0  0  0  0  0  0  0  0  0  0  0
  147.1298  135.9692  152.6356 H   0  0  0  0  0  0  0  0  0  0  0  0
  148.3272  137.4938  153.0125 H   0  0  0  0  0  0  0  0  0  0  0  0
  146.3136  140.5067  153.5056 H   0  0  0  0  0  0  0  0  0  0  0  0
  147.3057  142.6661  154.2161 H   0  0  0  0  0  0  0  0  0  0  0  0
  149.7101  142.7132  154.9221 H   0  0  0  0  0  0  0  0  0  0  0  0
  149.2032  137.4758  155.8830 H   0  0  0  0  0  0  0  0  0  0  0  0
  149.5090  136.4752  154.4602 H   0  0  0  0  0  0  0  0  0  0  0  0
  151.3266  137.0418  156.7818 H   0  0  0  0  0  0  0  0  0  0  0  0
  151.2110  135.5589  155.8338 H   0  0  0  0  0  0  0  0  0  0  0  0
  153.3009  137.2399  155.4009 H   0  0  0  0  0  0  0  0  0  0  0  0
  152.4570  136.5565  154.0065 H   0  0  0  0  0  0  0  0  0  0  0  0
  152.2541  138.9126  153.5579 H   0  0  0  0  0  0  0  0  0  0  0  0
  152.0248  139.2787  155.2734 H   0  0  0  0  0  0  0  0  0  0  0  0
  146.6453  131.8231  151.9213 H   0  0  0  0  0  0  0  0  0  0  0  0
  144.9471  131.4691  152.1739 H   0  0  0  0  0  0  0  0  0  0  0  0
  146.3368  132.0178  149.4862 H   0  0  0  0  0  0  0  0  0  0  0  0
  145.7553  130.4677  150.0612 H   0  0  0  0  0  0  0  0  0  0  0  0
  144.7374  133.7064  148.9089 H   0  0  0  0  0  0  0  0  0  0  0  0
  143.0312  133.3538  149.0922 H   0  0  0  0  0  0  0  0  0  0  0  0
  143.2144  133.3410  151.5571 H   0  0  0  0  0  0  0  0  0  0  0  0
  143.8549  134.8361  150.8875 H   0  0  0  0  0  0  0  0  0  0  0  0
  146.0331  133.9748  151.1151 H   0  0  0  0  0  0  0  0  0  0  0  0
  1  2  1  0  0  0  0
  1 25  1  0  0  0  0
  1 26  1  0  0  0  0
  1 27  1  0  0  0  0
  2  3  1  0  0  0  0
  2 19  1  0  0  0  0
  2 28  1  0  0  0  0
  3  4  1  0  0  0  0
  3 29  1  0  0  0  0
  3 30  1  0  0  0  0
  4  5  1  0  0  0  0
  4 31  1  0  0  0  0
  5  6  2  0  0  0  0
  5  7  1  0  0  0  0
  7  8  1  0  0  0  0
  7 32  1  0  0  0  0
  8 13  1  0  0  0  0
  8  9  2  0  0  0  0
  9 10  1  0  0  0  0
  9 33  1  0  0  0  0
 10 11  2  0  0  0  0
 10 34  1  0  0  0  0
 11 12  1  0  0  0  0
 11 35  1  0  0  0  0
 12 13  2  0  0  0  0
 13 14  1  0  0  0  0
 14 18  1  0  0  0  0
 14 15  1  0  0  0  0
 15 16  1  0  0  0  0
 15 36  1  0  0  0  0
 15 37  1  0  0  0  0
 16 17  1  0  0  0  0
 16 38  1  0  0  0  0
 16 39  1  0  0  0  0
 17 18  1  0  0  0  0
 17 40  1  0  0  0  0
 17 41  1  0  0  0  0
 18 42  1  0  0  0  0
 18 43  1  0  0  0  0
 19 24  1  0  0  0  0
 19 20  1  0  0  0  0
 19 52  1  0  0  0  0
 20 21  1  0  0  0  0
 20 44  1  0  0  0  0
 20 45  1  0  0  0  0
 21 22  1  0  0  0  0
 21 46  1  0  0  0  0
 21 47  1  0  0  0  0
 22 23  1  0  0  0  0
 23 24  1  0  0  0  0
 23 48  1  0  0  0  0
 23 49  1  0  0  0  0
 24 50  1  0  0  0  0
 24 51  1  0  0  0  0
M  CHG  1  19   1
M  END
> <s_m_source_file>
AV-unprocessed.smi

> <i_m_source_file_index>
1389

> <i_lp_mmshare_version>
43012

> <i_f3d_flags>
0

> <s_epik_input>
W0NIMl0xW0NIMl1PW0NIMl1bQ0gyXU4xW0NASF0oW0NIM10pW0NIMl1bTkhdQyg9TylbTkhdYzJbY0hdW2NIXVtjSF1uYzJOM1tDSDJdW0NIMl1bQ0gyXVtDSDJdMw==

> <s_epik_cmdline>
J2VwaWtfcHl0aG9uJywgJy1waCcsICc3LjAnLCAnLXRuJywgJzgnLCAnLW1hJywgJzIwMCcsICctbWV0YWxfYmluZGluZycsICctaW1hZScsICc8aW5maWxlLm1hZT4nLCAnLW9tYWUnLCAnPG91dGZpbGUubWFlPic=

> <r_lp_tautomer_probability>
1

> <r_epik_Ionization_Penalty>
0.686

> <r_epik_Ionization_Penalty_Charging>
0.602531

> <r_epik_Ionization_Penalty_Neutral>
0.08347

> <r_epik_State_Penalty>
0.679975

> <r_epik_Charging_Adjusted_Penalty>
1.28251

> <i_epik_Tot_Q>
1

> <i_epik_Tot_abs_Q>
1

> <r_epik_Metal_State_Penalty>
0.679055

> <b_epik_Metal_Only>
0

> <s_lp_Force_Field>
OPLS_2005

> <r_lp_Energy>
49.8528

> <b_lp_Chiralities_Consistent>
1

> <s_lp_Variant>
AV-unprocessed.smi:1389-4

> <Gold.Version>
5.8.1

> <Gold.Id.Protein>
6NUR|6NUR_protein|mol2

> <Gold.PLP.Fitness>
43.4073

> <Gold.PLP.PLP>
-32.7622

> <Gold.PLP.part.hbond>
-4.0000

> <Gold.PLP.part.metal>
0.0000

> <Gold.PLP.part.buried>
0.1755

> <Gold.PLP.part.nonpolar>
-30.6400

> <Gold.PLP.part.repulsive>
0.6275

> <Gold.PLP.ligand.clash>
0.1819

> <Gold.PLP.ligand.torsion>
1.0755

> <Gold.PLP.Chemscore.Hbond>
3.1993

> <Gold.PLP.Chemscore.CHOScore>
1.0000

> <Gold.PLP.Chemscore.Metal>
0.0000

> <Gold.Chemscore.Hbonds>
donor molecule, donor type, donor heavy atom, donor atom, acceptor molecule, acceptor atom, score
      L1  H     4    31       P1  7948  0.99
      L1  H     7    32       P1  7948  1.00
      P1  H  7989  7998       L1    12  0.80
      P1  H 10785 10796       L1    22  0.44
      L1  C    11    35       P1  8028  1.00

> <Gold.PLP.Chemscore.Internal.Correction>
0.3800

> <Gold.Rescore>
     Score         DG    S(hbond)    S(metal)    S(lipo)     H(rot)  DE(clash)    DE(int)     intcor
     17.39     -22.05       2.75        0.00      98.95       1.63       2.37       2.29       ----

> <Gold.Chemscore.Fitness>
17.3935

> <Gold.Chemscore.DG>
-22.0531

> <Gold.Chemscore.ZeroCoef>
-5.4800

> <Gold.Chemscore.Hbond>
2.7457

> <Gold.Chemscore.Metal>
0.0000

> <Gold.Chemscore.Lipo>
98.9489

> <Gold.Chemscore.Internal_Hbond>
0.0000

> <Gold.Chemscore.DEClash>
2.3727

> <Gold.Chemscore.DEInternal>
2.2868

> <Gold.Chemscore.Rot>
1.6307

> <Gold.Chemscore.Internal.Correction>
   9.000000E+99

> <Gold.Chemscore.Hbonds>
donor molecule, donor type, donor heavy atom, donor atom, acceptor molecule, acceptor atom, score
      L1  H     4    31       P1  7948  0.92
      L1  H     7    32       P1  7948  0.99
      P1  H  7989  7998       L1    12  0.29
      P1  H 10785 10796       L1    22  0.40

> <Gold.Chemscore.Hbond.Weighted>
-9.1706

> <Gold.Chemscore.Metal.Weighted>
-0.0000

> <Gold.Chemscore.Lipo.Weighted>
-11.5770

> <Gold.Chemscore.Internal_Hbond.Weighted>
0.0000

> <Gold.Chemscore.DEClash.Weighted>
2.3727

> <Gold.Chemscore.DEInternal.Weighted>
2.2868

> <Gold.Chemscore.Rot.Weighted>
4.1746

> <Gold.Chemscore.Internal.Correction.Weighted>
   9.000000E+99

> <Gold.Protein.RotatedTorsions>
[ 6907 6896 6895 6894 ] final  -36.60 input  -60.11 | X-H torsion
[ 7974 7965 7964 7962 ] final  -19.07 input  175.53 | X-H torsion
[ 8008 7997 7996 7995 ] final  -91.51 input   59.86 | X-H torsion
[ 10167 10162 10161 10158 ] final  -70.07 input  -65.29 | X-H torsion
[ 10718 10713 10712 10709 ] final   13.14 input   66.30 | X-H torsion
[ 10763 10752 10751 10750 ] final  -32.18 input  -60.55 | X-H torsion
[ 11005 11000 10999 10996 ] final  -90.77 input  -57.11 | X-H torsion

> <Gold.Protein.ActiveResidues>
 VAL166  LYS551  ARG553  GLY616  TRP617  ASP618  TYR619  PRO620  LYS621  CYS622 
 ASP623  PHE694  ASN695  SER759  ASP760  ASP761  ALA762  ILE779  LEU786  VAL792 
 PHE793  MET794  SER795  GLU796  ALA797  LYS798  CYS799  TRP800  GLU811  SER814 

> <Gold.Protein.RotatedAtoms>
  151.0252  134.9498  159.8080 H   0  0  0  0  0  0  0  0  0  0  0  0  # atno 6907 bound_to 6896
  152.5334  134.2852  159.9032 H   0  0  0  0  0  0  0  0  0  0  0  0  # atno 6908 bound_to 6896
  151.2860  133.4145  159.2664 H   0  0  0  0  0  0  0  0  0  0  0  0  # atno 6909 bound_to 6896
  146.1860  140.4011  142.8476 H   0  0  0  0  0  0  0  0  0  0  0  0  # atno 7974 bound_to 7965
  154.7117  140.0518  157.0556 H   0  0  0  0  0  0  0  0  0  0  0  0  # atno 8008 bound_to 7997
  155.0546  140.3183  155.4661 H   0  0  0  0  0  0  0  0  0  0  0  0  # atno 8009 bound_to 7997
  156.2791  140.2109  156.5672 H   0  0  0  0  0  0  0  0  0  0  0  0  # atno 8010 bound_to 7997
  140.5381  143.2316  151.7140 H   0  0  0  0  0  0  0  0  0  0  0  0  # atno 10167 bound_to 10162
  157.0203  130.6152  149.5720 H   0  0  0  0  0  0  0  0  0  0  0  0  # atno 10718 bound_to 10713
  153.8095  135.6883  153.4843 H   0  0  0  0  0  0  0  0  0  0  0  0  # atno 10763 bound_to 10752
  153.1637  135.4569  154.9806 H   0  0  0  0  0  0  0  0  0  0  0  0  # atno 10764 bound_to 10752
  154.7973  135.3324  154.7577 H   0  0  0  0  0  0  0  0  0  0  0  0  # atno 10765 bound_to 10752
  141.1559  133.7713  156.9785 H   0  0  0  0  0  0  0  0  0  0  0  0  # atno 11005 bound_to 11000
  144.8398  140.6839  143.6237 LP  0  0  0  0  0  0  0  0  0  0  0  0  # atno 17320 bound_to 7965
  145.3937  139.1611  143.4215 LP  0  0  0  0  0  0  0  0  0  0  0  0  # atno 17321 bound_to 7965
  139.4978  144.4011  152.0180 LP  0  0  0  0  0  0  0  0  0  0  0  0  # atno 17342 bound_to 10162
  140.3118  144.3529  150.6032 LP  0  0  0  0  0  0  0  0  0  0  0  0  # atno 17343 bound_to 10162
  156.0104  130.5195  150.7971 LP  0  0  0  0  0  0  0  0  0  0  0  0  # atno 17370 bound_to 10713
  157.5254  131.0934  151.0024 LP  0  0  0  0  0  0  0  0  0  0  0  0  # atno 17371 bound_to 10713
  140.1082  134.9493  157.2025 LP  0  0  0  0  0  0  0  0  0  0  0  0  # atno 17394 bound_to 11000
  140.3229  134.2896  155.7243 LP  0  0  0  0  0  0  0  0  0  0  0  0  # atno 17395 bound_to 11000

$$$$
