AV-unprocessed.smi:2752|AV-procd|sdf|10607|dock10
  -GOLD-   2272015 63D 1   1.00000     0.00000
 Structure written by MMmdl.
 34 35  0  0  0  0  0  0  0  0  1 V2000
  149.8617  139.2819  153.5790 C   0  0  0  0  0  0  0  0  0  0  0  0
  149.2522  140.3182  154.3316 O   0  0  0  0  0  0  0  0  0  0  0  0
  147.8549  140.1308  154.5412 C   0  0  2  0  0  0  0  0  0  0  0  0
  147.1580  140.0172  153.1809 C   0  0  0  0  0  0  0  0  0  0  0  0
  146.9840  141.4645  152.7293 C   0  0  0  0  0  0  0  0  0  0  0  0
  146.6772  142.2393  154.0137 C   0  0  0  0  0  0  0  0  0  0  0  0
  147.2390  141.3984  155.1772 C   0  0  2  0  0  0  0  0  0  0  0  0
  148.1975  142.1649  155.9709 N   0  0  0  0  0  0  0  0  0  0  0  0
  149.0724  141.6325  156.8358 C   0  0  0  0  0  0  0  0  0  0  0  0
  149.1460  140.4255  157.0686 O   0  0  0  0  0  0  0  0  0  0  0  0
  149.8431  142.5821  157.3943 N   0  0  0  0  0  0  0  0  0  0  0  0
  150.8863  142.4199  158.3443 C   0  0  0  0  0  0  0  0  0  0  0  0
  151.2046  143.5799  159.0869 C   0  0  0  0  0  0  0  0  0  0  0  0
  152.2256  143.5243  160.0557 C   0  0  0  0  0  0  0  0  0  0  0  0
  152.9018  142.3078  160.2555 C   0  0  0  0  0  0  0  0  0  0  0  0
  153.8903  142.2057  161.1755 F   0  0  0  0  0  0  0  0  0  0  0  0
  152.5248  141.1996  159.4748 C   0  0  0  0  0  0  0  0  0  0  0  0
  151.5462  141.2516  158.5463 N   0  0  0  0  0  0  0  0  0  0  0  0
  150.9199  139.5048  153.4439 H   0  0  0  0  0  0  0  0  0  0  0  0
  149.4122  139.1790  152.5914 H   0  0  0  0  0  0  0  0  0  0  0  0
  149.7858  138.3261  154.0986 H   0  0  0  0  0  0  0  0  0  0  0  0
  147.6726  139.2598  155.1733 H   0  0  0  0  0  0  0  0  0  0  0  0
  147.7063  139.4155  152.4563 H   0  0  0  0  0  0  0  0  0  0  0  0
  146.1772  139.5583  153.3122 H   0  0  0  0  0  0  0  0  0  0  0  0
  147.9184  141.8257  152.2976 H   0  0  0  0  0  0  0  0  0  0  0  0
  146.2048  141.5778  151.9753 H   0  0  0  0  0  0  0  0  0  0  0  0
  147.0968  143.2455  153.9723 H   0  0  0  0  0  0  0  0  0  0  0  0
  145.5985  142.3485  154.1318 H   0  0  0  0  0  0  0  0  0  0  0  0
  146.4009  141.1060  155.8131 H   0  0  0  0  0  0  0  0  0  0  0  0
  148.2064  143.1647  155.8334 H   0  0  0  0  0  0  0  0  0  0  0  0
  149.6663  143.5314  157.1011 H   0  0  0  0  0  0  0  0  0  0  0  0
  150.6739  144.5059  158.9193 H   0  0  0  0  0  0  0  0  0  0  0  0
  152.4838  144.3994  160.6336 H   0  0  0  0  0  0  0  0  0  0  0  0
  153.0201  140.2478  159.5977 H   0  0  0  0  0  0  0  0  0  0  0  0
  1  2  1  0  0  0  0
  1 19  1  0  0  0  0
  1 20  1  0  0  0  0
  1 21  1  0  0  0  0
  2  3  1  0  0  0  0
  3  7  1  0  0  0  0
  3  4  1  0  0  0  0
  3 22  1  0  0  0  0
  4  5  1  0  0  0  0
  4 23  1  0  0  0  0
  4 24  1  0  0  0  0
  5  6  1  0  0  0  0
  5 25  1  0  0  0  0
  5 26  1  0  0  0  0
  6  7  1  0  0  0  0
  6 27  1  0  0  0  0
  6 28  1  0  0  0  0
  7  8  1  0  0  0  0
  7 29  1  0  0  0  0
  8  9  1  0  0  0  0
  8 30  1  0  0  0  0
  9 10  2  0  0  0  0
  9 11  1  0  0  0  0
 11 12  1  0  0  0  0
 11 31  1  0  0  0  0
 12 18  1  0  0  0  0
 12 13  2  0  0  0  0
 13 14  1  0  0  0  0
 13 32  1  0  0  0  0
 14 15  2  0  0  0  0
 14 33  1  0  0  0  0
 15 16  1  0  0  0  0
 15 17  1  0  0  0  0
 17 18  2  0  0  0  0
 17 34  1  0  0  0  0
M  END
> <s_m_source_file>
AV-unprocessed.smi

> <i_m_source_file_index>
2752

> <i_lp_mmshare_version>
43012

> <i_f3d_flags>
0

> <s_epik_input>
W0NIM11PW0NAQEhdMVtDSDJdW0NIMl1bQ0gyXVtDQEhdMVtOSF1DKD1PKVtOSF1jMltjSF1bY0hdYyhGKVtjSF1uMg==

> <s_epik_cmdline>
J2VwaWtfcHl0aG9uJywgJy1waCcsICc3LjAnLCAnLXRuJywgJzgnLCAnLW1hJywgJzIwMCcsICctbWV0YWxfYmluZGluZycsICctaW1hZScsICc8aW5maWxlLm1hZT4nLCAnLW9tYWUnLCAnPG91dGZpbGUubWFlPic=

> <r_lp_tautomer_probability>
1

> <r_epik_Ionization_Penalty>
3.49853e-05

> <r_epik_Ionization_Penalty_Charging>
0

> <r_epik_Ionization_Penalty_Neutral>
3.49853e-05

> <r_epik_State_Penalty>
-0

> <r_epik_Charging_Adjusted_Penalty>
0

> <i_epik_Tot_Q>
0

> <i_epik_Tot_abs_Q>
0

> <r_epik_Metal_State_Penalty>
-0

> <b_epik_Metal_Only>
0

> <s_lp_Force_Field>
OPLS_2005

> <r_lp_Energy>
23.7965

> <b_lp_Chiralities_Consistent>
1

> <s_lp_Variant>
AV-unprocessed.smi:2752-3

> <Gold.Version>
5.8.1

> <Gold.Id.Protein>
6NUR|6NUR_protein|mol2

> <Gold.PLP.Fitness>
37.5814

> <Gold.PLP.PLP>
-32.3401

> <Gold.PLP.part.hbond>
-2.0000

> <Gold.PLP.part.metal>
0.0000

> <Gold.PLP.part.buried>
-4.5075

> <Gold.PLP.part.nonpolar>
-24.3394

> <Gold.PLP.part.repulsive>
0.2023

> <Gold.PLP.ligand.clash>
0.0000

> <Gold.PLP.ligand.torsion>
0.3251

> <Gold.PLP.Chemscore.Hbond>
1.9600

> <Gold.PLP.Chemscore.CHOScore>
0.0000

> <Gold.PLP.Chemscore.Metal>
0.0000

> <Gold.Chemscore.Hbonds>
donor molecule, donor type, donor heavy atom, donor atom, acceptor molecule, acceptor atom, score
      L1  H     8    30       P1  8028  1.00
      L1  H    11    31       P1  8028  0.93

> <Gold.PLP.Chemscore.Internal.Correction>
0.0115

> <Gold.Rescore>
     Score         DG    S(hbond)    S(metal)    S(lipo)     H(rot)  DE(clash)    DE(int)     intcor
     14.02     -16.83       1.83        0.00      72.84       1.28       0.38       2.42       ----

> <Gold.Chemscore.Fitness>
14.0245

> <Gold.Chemscore.DG>
-16.8306

> <Gold.Chemscore.ZeroCoef>
-5.4800

> <Gold.Chemscore.Hbond>
1.8296

> <Gold.Chemscore.Metal>
0.0000

> <Gold.Chemscore.Lipo>
72.8372

> <Gold.Chemscore.Internal_Hbond>
0.0000

> <Gold.Chemscore.DEClash>
0.3818

> <Gold.Chemscore.DEInternal>
2.4242

> <Gold.Chemscore.Rot>
1.2821

> <Gold.Chemscore.Internal.Correction>
   9.000000E+99

> <Gold.Chemscore.Hbonds>
donor molecule, donor type, donor heavy atom, donor atom, acceptor molecule, acceptor atom, score
      L1  H     8    30       P1  8028  0.82
      L1  H    11    31       P1  8028  0.82

> <Gold.Chemscore.Hbond.Weighted>
-6.1108

> <Gold.Chemscore.Metal.Weighted>
-0.0000

> <Gold.Chemscore.Lipo.Weighted>
-8.5220

> <Gold.Chemscore.Internal_Hbond.Weighted>
0.0000

> <Gold.Chemscore.DEClash.Weighted>
0.3818

> <Gold.Chemscore.DEInternal.Weighted>
2.4242

> <Gold.Chemscore.Rot.Weighted>
3.2822

> <Gold.Chemscore.Internal.Correction.Weighted>
   9.000000E+99

> <Gold.Protein.RotatedTorsions>
[ 6907 6896 6895 6894 ] final  -21.79 input  -60.11 | X-H torsion
[ 7974 7965 7964 7962 ] final  104.70 input  175.53 | X-H torsion
[ 8008 7997 7996 7995 ] final  -60.42 input   59.86 | X-H torsion
[ 10167 10162 10161 10158 ] final  122.30 input  -65.29 | X-H torsion
[ 10718 10713 10712 10709 ] final  104.73 input   66.30 | X-H torsion
[ 10763 10752 10751 10750 ] final  -88.19 input  -60.55 | X-H torsion
[ 11005 11000 10999 10996 ] final -152.06 input  -57.11 | X-H torsion

> <Gold.Protein.ActiveResidues>
 VAL166  LYS551  ARG553  GLY616  TRP617  ASP618  TYR619  PRO620  LYS621  CYS622 
 ASP623  PHE694  ASN695  SER759  ASP760  ASP761  ALA762  ILE779  LEU786  VAL792 
 PHE793  MET794  SER795  GLU796  ALA797  LYS798  CYS799  TRP800  GLU811  SER814 

> <Gold.Protein.RotatedAtoms>
  151.2281  135.0544  159.8976 H   0  0  0  0  0  0  0  0  0  0  0  0  # atno 6907 bound_to 6896
  152.5408  134.0567  159.8144 H   0  0  0  0  0  0  0  0  0  0  0  0  # atno 6908 bound_to 6896
  151.0743  133.5392  159.2656 H   0  0  0  0  0  0  0  0  0  0  0  0  # atno 6909 bound_to 6896
  145.3293  139.2491  143.3669 H   0  0  0  0  0  0  0  0  0  0  0  0  # atno 7974 bound_to 7965
  154.4398  140.1040  156.6270 H   0  0  0  0  0  0  0  0  0  0  0  0  # atno 8008 bound_to 7997
  155.5646  140.3488  155.4481 H   0  0  0  0  0  0  0  0  0  0  0  0  # atno 8009 bound_to 7997
  156.0435  140.1287  157.0119 H   0  0  0  0  0  0  0  0  0  0  0  0  # atno 8010 bound_to 7997
  139.5867  144.7009  151.3391 H   0  0  0  0  0  0  0  0  0  0  0  0  # atno 10167 bound_to 10162
  157.6730  131.0811  150.5750 H   0  0  0  0  0  0  0  0  0  0  0  0  # atno 10718 bound_to 10713
  154.6418  135.5386  153.7798 H   0  0  0  0  0  0  0  0  0  0  0  0  # atno 10763 bound_to 10752
  153.0338  135.6461  154.1148 H   0  0  0  0  0  0  0  0  0  0  0  0  # atno 10764 bound_to 10752
  154.1072  135.2929  155.3218 H   0  0  0  0  0  0  0  0  0  0  0  0  # atno 10765 bound_to 10752
  140.7229  134.3707  157.5180 H   0  0  0  0  0  0  0  0  0  0  0  0  # atno 11005 bound_to 11000
  146.3052  140.3868  142.8690 LP  0  0  0  0  0  0  0  0  0  0  0  0  # atno 17320 bound_to 7965
  144.8877  140.7483  143.5947 LP  0  0  0  0  0  0  0  0  0  0  0  0  # atno 17321 bound_to 7965
  140.7137  143.7322  150.7615 LP  0  0  0  0  0  0  0  0  0  0  0  0  # atno 17342 bound_to 10162
  140.0868  143.4916  152.2500 LP  0  0  0  0  0  0  0  0  0  0  0  0  # atno 17343 bound_to 10162
  156.6051  130.4365  149.5881 LP  0  0  0  0  0  0  0  0  0  0  0  0  # atno 17370 bound_to 10713
  156.2475  130.6887  151.1614 LP  0  0  0  0  0  0  0  0  0  0  0  0  # atno 17371 bound_to 10713
  139.8844  134.8967  156.2707 LP  0  0  0  0  0  0  0  0  0  0  0  0  # atno 17394 bound_to 11000
  140.9987  133.7164  156.0927 LP  0  0  0  0  0  0  0  0  0  0  0  0  # atno 17395 bound_to 11000

$$$$
