AV-unprocessed.smi:3188|AV-procd|sdf|12186|dock4
  -GOLD-   2272018 23D 1   1.00000     0.00000
 Structure written by MMmdl.
 40 41  0  0  0  0  0  0  0  0  2 V2000
  152.5150  138.7994  154.6309 C   0  0  0  0  0  0  0  0  0  0  0  0
  151.4049  139.6580  155.2142 C   0  0  0  0  0  0  0  0  0  0  0  0
  151.5482  140.2412  156.4209 C   0  0  0  0  0  0  0  0  0  0  0  0
  150.5212  141.1513  157.0710 C   0  0  0  0  0  0  0  0  0  0  0  0
  149.1870  141.1954  156.3085 C   0  0  0  0  0  0  0  0  0  0  0  0
  149.4097  141.1611  154.7871 C   0  0  2  0  0  0  0  0  0  0  0  0
  148.1156  141.4500  154.0066 C   0  0  0  0  0  0  0  0  0  0  0  0
  150.1445  139.8581  154.3608 C   0  0  2  0  0  0  0  0  0  0  0  0
  149.2261  138.6081  154.3778 C   0  0  0  0  0  0  0  0  0  0  0  0
  148.4012  138.4920  153.1599 N   0  3  0  0  0  0  0  0  0  0  0  0
  146.9468  138.5921  153.3968 C   0  0  0  0  0  0  0  0  0  0  0  0
  146.1429  137.9210  152.2718 C   0  0  0  0  0  0  0  0  0  0  0  0
  145.1404  137.0070  152.7888 N   0  0  0  0  0  0  0  0  0  0  0  0
  143.7669  137.1200  152.7380 C   0  0  0  0  0  0  0  0  0  0  0  0
  143.3324  136.0022  153.3911 C   0  0  0  0  0  0  0  0  0  0  0  0
  144.4420  135.2674  153.8053 N   0  0  0  0  0  0  0  0  0  0  0  0
  145.5221  135.8776  153.4320 N   0  0  0  0  0  0  0  0  0  0  0  0
  152.7038  139.0662  153.5910 H   0  0  0  0  0  0  0  0  0  0  0  0
  152.2654  137.7413  154.6827 H   0  0  0  0  0  0  0  0  0  0  0  0
  153.4461  138.9365  155.1816 H   0  0  0  0  0  0  0  0  0  0  0  0
  152.4602  140.0923  156.9809 H   0  0  0  0  0  0  0  0  0  0  0  0
  150.3551  140.8362  158.1013 H   0  0  0  0  0  0  0  0  0  0  0  0
  150.9526  142.1519  157.1135 H   0  0  0  0  0  0  0  0  0  0  0  0
  148.5639  140.3528  156.6089 H   0  0  0  0  0  0  0  0  0  0  0  0
  148.6381  142.0931  156.5954 H   0  0  0  0  0  0  0  0  0  0  0  0
  150.0830  141.9872  154.5507 H   0  0  0  0  0  0  0  0  0  0  0  0
  147.3106  140.7685  154.2809 H   0  0  0  0  0  0  0  0  0  0  0  0
  148.2759  141.3725  152.9309 H   0  0  0  0  0  0  0  0  0  0  0  0
  147.7611  142.4605  154.2116 H   0  0  0  0  0  0  0  0  0  0  0  0
  150.4753  140.0139  153.3328 H   0  0  0  0  0  0  0  0  0  0  0  0
  149.8271  137.7051  154.4896 H   0  0  0  0  0  0  0  0  0  0  0  0
  148.5377  138.6392  155.2211 H   0  0  0  0  0  0  0  0  0  0  0  0
  148.6773  139.2160  152.5120 H   0  0  0  0  0  0  0  0  0  0  0  0
  146.7016  138.1324  154.3554 H   0  0  0  0  0  0  0  0  0  0  0  0
  146.6702  139.6444  153.4668 H   0  0  0  0  0  0  0  0  0  0  0  0
  145.6337  138.6795  151.6761 H   0  0  0  0  0  0  0  0  0  0  0  0
  146.8065  137.3842  151.5918 H   0  0  0  0  0  0  0  0  0  0  0  0
  143.2459  137.9420  152.2696 H   0  0  0  0  0  0  0  0  0  0  0  0
  142.3254  135.6697  153.5970 H   0  0  0  0  0  0  0  0  0  0  0  0
  148.5902  137.5939  152.7375 H   0  0  0  0  0  0  0  0  0  0  0  0
  1  2  1  0  0  0  0
  1 18  1  0  0  0  0
  1 19  1  0  0  0  0
  1 20  1  0  0  0  0
  2  8  1  0  0  0  0
  2  3  2  0  0  0  0
  3  4  1  0  0  0  0
  3 21  1  0  0  0  0
  4  5  1  0  0  0  0
  4 22  1  0  0  0  0
  4 23  1  0  0  0  0
  5  6  1  0  0  0  0
  5 24  1  0  0  0  0
  5 25  1  0  0  0  0
  6  7  1  0  0  0  0
  6  8  1  0  0  0  0
  6 26  1  0  0  0  0
  7 27  1  0  0  0  0
  7 28  1  0  0  0  0
  7 29  1  0  0  0  0
  8  9  1  0  0  0  0
  8 30  1  0  0  0  0
  9 10  1  0  0  0  0
  9 31  1  0  0  0  0
  9 32  1  0  0  0  0
 10 11  1  0  0  0  0
 10 33  1  0  0  0  0
 10 40  1  0  0  0  0
 11 12  1  0  0  0  0
 11 34  1  0  0  0  0
 11 35  1  0  0  0  0
 12 13  1  0  0  0  0
 12 36  1  0  0  0  0
 12 37  1  0  0  0  0
 13 17  1  0  0  0  0
 13 14  1  0  0  0  0
 14 15  2  0  0  0  0
 14 38  1  0  0  0  0
 15 16  1  0  0  0  0
 15 39  1  0  0  0  0
 16 17  2  0  0  0  0
M  CHG  1  10   1
M  END
> <s_m_source_file>
AV-unprocessed.smi

> <i_m_source_file_index>
3188

> <i_lp_mmshare_version>
43012

> <i_f3d_flags>
0

> <s_epik_input>
W0NIM11DMT1bQ0hdW0NIMl1bQ0gyXVtDQEBIXShbQ0gzXSlbQ0BIXTFbQ0gyXVtOSF1bQ0gyXVtDSDJdbjJbY0hdW2NIXW5uMg==

> <s_epik_cmdline>
J2VwaWtfcHl0aG9uJywgJy1waCcsICc3LjAnLCAnLXRuJywgJzgnLCAnLW1hJywgJzIwMCcsICctbWV0YWxfYmluZGluZycsICctaW1hZScsICc8aW5maWxlLm1hZT4nLCAnLW9tYWUnLCAnPG91dGZpbGUubWFlPic=

> <r_lp_tautomer_probability>
1

> <r_epik_Ionization_Penalty>
0.007268

> <r_epik_Ionization_Penalty_Charging>
0.00726786

> <r_epik_Ionization_Penalty_Neutral>
1.34882e-07

> <r_epik_State_Penalty>
0.00542069

> <r_epik_Charging_Adjusted_Penalty>
0.0126886

> <i_epik_Tot_Q>
1

> <i_epik_Tot_abs_Q>
1

> <r_epik_Metal_State_Penalty>
-0

> <b_epik_Metal_Only>
0

> <s_lp_Force_Field>
OPLS_2005

> <r_lp_Energy>
14.4229

> <b_lp_Chiralities_Consistent>
1

> <s_lp_Variant>
AV-unprocessed.smi:3188-4

> <Gold.Version>
5.8.1

> <Gold.Id.Protein>
6NUR|6NUR_protein|mol2

> <Gold.PLP.Fitness>
45.4582

> <Gold.PLP.PLP>
-33.2273

> <Gold.PLP.part.hbond>
-2.0000

> <Gold.PLP.part.metal>
0.0000

> <Gold.PLP.part.buried>
0.8841

> <Gold.PLP.part.nonpolar>
-31.4871

> <Gold.PLP.part.repulsive>
0.1779

> <Gold.PLP.ligand.clash>
0.0000

> <Gold.PLP.ligand.torsion>
1.1546

> <Gold.PLP.Chemscore.Hbond>
3.0000

> <Gold.PLP.Chemscore.CHOScore>
1.8189

> <Gold.PLP.Chemscore.Metal>
0.0000

> <Gold.Chemscore.Hbonds>
donor molecule, donor type, donor heavy atom, donor atom, acceptor molecule, acceptor atom, score
      L1  H    10    33       P1  7957  1.00
      L1  H    10    40       P1  7948  2.00
      L1  C    14    38       P1 10171  0.66
      L1  C    14    38       P1 10175  1.00

> <Gold.PLP.Chemscore.Internal.Correction>
0.0834

> <Gold.Rescore>
     Score         DG    S(hbond)    S(metal)    S(lipo)     H(rot)  DE(clash)    DE(int)     intcor
     15.63     -16.98       1.99        0.00      80.47       1.78       0.22       1.13       ----

> <Gold.Chemscore.Fitness>
15.6349

> <Gold.Chemscore.DG>
-16.9797

> <Gold.Chemscore.ZeroCoef>
-5.4800

> <Gold.Chemscore.Hbond>
1.9892

> <Gold.Chemscore.Metal>
0.0000

> <Gold.Chemscore.Lipo>
80.4678

> <Gold.Chemscore.Internal_Hbond>
0.0000

> <Gold.Chemscore.DEClash>
0.2172

> <Gold.Chemscore.DEInternal>
1.1276

> <Gold.Chemscore.Rot>
1.7809

> <Gold.Chemscore.Internal.Correction>
   9.000000E+99

> <Gold.Chemscore.Hbonds>
donor molecule, donor type, donor heavy atom, donor atom, acceptor molecule, acceptor atom, score
      L1  H    10    33       P1  7957  0.99
      L1  H    10    40       P1  7948  1.00

> <Gold.Chemscore.Hbond.Weighted>
-6.6440

> <Gold.Chemscore.Metal.Weighted>
-0.0000

> <Gold.Chemscore.Lipo.Weighted>
-9.4147

> <Gold.Chemscore.Internal_Hbond.Weighted>
0.0000

> <Gold.Chemscore.DEClash.Weighted>
0.2172

> <Gold.Chemscore.DEInternal.Weighted>
1.1276

> <Gold.Chemscore.Rot.Weighted>
4.5590

> <Gold.Chemscore.Internal.Correction.Weighted>
   9.000000E+99

> <Gold.Protein.RotatedTorsions>
[ 6907 6896 6895 6894 ] final   73.87 input  -60.11 | X-H torsion
[ 7974 7965 7964 7962 ] final    6.92 input  175.53 | X-H torsion
[ 8008 7997 7996 7995 ] final   96.94 input   59.86 | X-H torsion
[ 10167 10162 10161 10158 ] final  121.69 input  -65.29 | X-H torsion
[ 10718 10713 10712 10709 ] final -141.49 input   66.30 | X-H torsion
[ 10763 10752 10751 10750 ] final  -54.65 input  -60.55 | X-H torsion
[ 11005 11000 10999 10996 ] final  -42.42 input  -57.11 | X-H torsion

> <Gold.Protein.ActiveResidues>
 VAL166  LYS551  ARG553  GLY616  TRP617  ASP618  TYR619  PRO620  LYS621  CYS622 
 ASP623  PHE694  ASN695  SER759  ASP760  ASP761  ALA762  ILE779  LEU786  VAL792 
 PHE793  MET794  SER795  GLU796  ALA797  LYS798  CYS799  TRP800  GLU811  SER814 

> <Gold.Protein.RotatedAtoms>
  152.4946  134.4357  159.9526 H   0  0  0  0  0  0  0  0  0  0  0  0  # atno 6907 bound_to 6896
  151.4338  133.3656  159.2780 H   0  0  0  0  0  0  0  0  0  0  0  0  # atno 6908 bound_to 6896
  150.9136  134.8576  159.7501 H   0  0  0  0  0  0  0  0  0  0  0  0  # atno 6909 bound_to 6896
  146.2431  140.0161  142.8402 H   0  0  0  0  0  0  0  0  0  0  0  0  # atno 7974 bound_to 7965
  156.0849  140.3265  155.7741 H   0  0  0  0  0  0  0  0  0  0  0  0  # atno 8008 bound_to 7997
  155.5092  140.0575  157.2943 H   0  0  0  0  0  0  0  0  0  0  0  0  # atno 8009 bound_to 7997
  154.4603  140.1963  156.0279 H   0  0  0  0  0  0  0  0  0  0  0  0  # atno 8010 bound_to 7997
  139.5904  144.7023  151.3304 H   0  0  0  0  0  0  0  0  0  0  0  0  # atno 10167 bound_to 10162
  156.3347  130.7605  151.1730 H   0  0  0  0  0  0  0  0  0  0  0  0  # atno 10718 bound_to 10713
  154.1782  135.6448  153.5027 H   0  0  0  0  0  0  0  0  0  0  0  0  # atno 10763 bound_to 10752
  153.0066  135.5399  154.6542 H   0  0  0  0  0  0  0  0  0  0  0  0  # atno 10764 bound_to 10752
  154.5899  135.2933  155.0619 H   0  0  0  0  0  0  0  0  0  0  0  0  # atno 10765 bound_to 10752
  141.0314  133.6818  156.2592 H   0  0  0  0  0  0  0  0  0  0  0  0  # atno 11005 bound_to 11000
  145.1284  140.9503  143.4559 LP  0  0  0  0  0  0  0  0  0  0  0  0  # atno 17320 bound_to 7965
  145.0412  139.3258  143.5975 LP  0  0  0  0  0  0  0  0  0  0  0  0  # atno 17321 bound_to 7965
  140.7168  143.7244  150.7671 LP  0  0  0  0  0  0  0  0  0  0  0  0  # atno 17342 bound_to 10162
  140.0799  143.4979  152.2536 LP  0  0  0  0  0  0  0  0  0  0  0  0  # atno 17343 bound_to 10162
  157.7436  131.0471  150.4928 LP  0  0  0  0  0  0  0  0  0  0  0  0  # atno 17370 bound_to 10713
  156.5100  130.4137  149.6306 LP  0  0  0  0  0  0  0  0  0  0  0  0  # atno 17371 bound_to 10713
  140.6399  134.5176  157.5568 LP  0  0  0  0  0  0  0  0  0  0  0  0  # atno 17394 bound_to 11000
  139.9211  134.8148  156.1210 LP  0  0  0  0  0  0  0  0  0  0  0  0  # atno 17395 bound_to 11000

$$$$
