AV-unprocessed.smi:1047|AV-procd|sdf|4600|dock6
  -GOLD-   22720 3 93D 1   1.00000     0.00000
 Structure written by MMmdl.
 57 59  0  0  0  0  0  0  0  0  3 V2000
  143.0907  146.9132  155.1441 C   0  0  0  0  0  0  0  0  0  0  0  0
  142.5291  145.7153  154.3654 C   0  0  0  0  0  0  0  0  0  0  0  0
  143.5877  144.7642  153.9446 N   0  3  1  0  0  0  0  0  0  0  0  0
  144.6180  145.3720  153.0664 C   0  0  0  0  0  0  0  0  0  0  0  0
  145.6483  144.3145  152.6355 C   0  0  0  0  0  0  0  0  0  0  0  0
  146.2426  143.7223  153.7836 O   0  0  0  0  0  0  0  0  0  0  0  0
  145.2846  143.0729  154.6125 C   0  0  1  0  0  0  0  0  0  0  0  0
  146.0209  142.3498  155.7532 C   0  0  0  0  0  0  0  0  0  0  0  0
  146.4774  141.0211  155.3534 N   0  0  0  0  0  0  0  0  0  0  0  0
  147.2868  141.0232  154.1390 C   0  0  0  0  0  0  0  0  0  0  0  0
  148.7621  140.7186  154.4505 C   0  0  1  0  0  0  0  0  0  0  0  0
  149.5290  140.9802  153.2912 O   0  0  0  0  0  0  0  0  0  0  0  0
  149.2866  141.5810  155.6151 C   0  0  0  0  0  0  0  0  0  0  0  0
  150.4438  140.9800  156.2948 N   0  0  0  0  0  0  0  0  0  0  0  0
  151.1581  139.8686  155.9689 C   0  0  0  0  0  0  0  0  0  0  0  0
  152.1346  139.7178  156.9059 N   0  3  0  0  0  0  0  0  0  0  0  0
  152.0438  140.7484  157.8435 C   0  0  0  0  0  0  0  0  0  0  0  0
  152.8085  141.0205  158.9715 C   0  0  0  0  0  0  0  0  0  0  0  0
  152.4593  142.1620  159.7278 C   0  0  0  0  0  0  0  0  0  0  0  0
  153.2737  142.4863  160.9688 C   0  0  0  0  0  0  0  0  0  0  0  0
  151.3743  142.9901  159.3401 C   0  0  0  0  0  0  0  0  0  0  0  0
  151.0125  144.2199  160.1556 C   0  0  0  0  0  0  0  0  0  0  0  0
  150.6074  142.6946  158.1903 C   0  0  0  0  0  0  0  0  0  0  0  0
  150.9623  141.5642  157.4574 C   0  0  0  0  0  0  0  0  0  0  0  0
  144.2275  144.0879  155.0977 C   0  0  0  0  0  0  0  0  0  0  0  0
  142.3009  147.6328  155.3604 H   0  0  0  0  0  0  0  0  0  0  0  0
  143.8593  147.4308  154.5694 H   0  0  0  0  0  0  0  0  0  0  0  0
  143.5250  146.6152  156.0979 H   0  0  0  0  0  0  0  0  0  0  0  0
  141.7683  145.1966  154.9507 H   0  0  0  0  0  0  0  0  0  0  0  0
  142.0255  146.1019  153.4782 H   0  0  0  0  0  0  0  0  0  0  0  0
  144.1564  145.8028  152.1784 H   0  0  0  0  0  0  0  0  0  0  0  0
  145.1182  146.1857  153.5939 H   0  0  0  0  0  0  0  0  0  0  0  0
  145.1820  143.5470  152.0156 H   0  0  0  0  0  0  0  0  0  0  0  0
  146.4312  144.7764  152.0338 H   0  0  0  0  0  0  0  0  0  0  0  0
  144.7848  142.3082  154.0152 H   0  0  0  0  0  0  0  0  0  0  0  0
  146.8730  142.9514  156.0717 H   0  0  0  0  0  0  0  0  0  0  0  0
  145.3576  142.2720  156.6155 H   0  0  0  0  0  0  0  0  0  0  0  0
  146.9998  140.5956  156.1127 H   0  0  0  0  0  0  0  0  0  0  0  0
  146.8939  140.3153  153.4078 H   0  0  0  0  0  0  0  0  0  0  0  0
  147.2205  142.0093  153.6774 H   0  0  0  0  0  0  0  0  0  0  0  0
  148.8784  139.6665  154.7154 H   0  0  0  0  0  0  0  0  0  0  0  0
  149.2972  140.3485  152.6279 H   0  0  0  0  0  0  0  0  0  0  0  0
  149.5415  142.5877  155.2830 H   0  0  0  0  0  0  0  0  0  0  0  0
  148.5050  141.6991  156.3669 H   0  0  0  0  0  0  0  0  0  0  0  0
  150.9826  139.2226  155.1206 H   0  0  0  0  0  0  0  0  0  0  0  0
  153.6350  140.3870  159.2582 H   0  0  0  0  0  0  0  0  0  0  0  0
  152.6347  142.5090  161.8520 H   0  0  0  0  0  0  0  0  0  0  0  0
  153.7586  143.4575  160.8662 H   0  0  0  0  0  0  0  0  0  0  0  0
  154.0513  141.7415  161.1412 H   0  0  0  0  0  0  0  0  0  0  0  0
  150.1706  144.7564  159.7168 H   0  0  0  0  0  0  0  0  0  0  0  0
  151.8563  144.9088  160.2044 H   0  0  0  0  0  0  0  0  0  0  0  0
  150.7356  143.9384  161.1717 H   0  0  0  0  0  0  0  0  0  0  0  0
  149.7841  143.3283  157.8966 H   0  0  0  0  0  0  0  0  0  0  0  0
  144.6815  144.8413  155.7434 H   0  0  0  0  0  0  0  0  0  0  0  0
  143.4701  143.5727  155.6900 H   0  0  0  0  0  0  0  0  0  0  0  0
  143.1307  144.0401  153.4091 H   0  0  0  0  0  0  0  0  0  0  0  0
  152.8125  138.9664  156.9023 H   0  0  0  0  0  0  0  0  0  0  0  0
  1  2  1  0  0  0  0
  1 26  1  0  0  0  0
  1 27  1  0  0  0  0
  1 28  1  0  0  0  0
  2  3  1  0  0  0  0
  2 29  1  0  0  0  0
  2 30  1  0  0  0  0
  3 25  1  0  0  0  0
  3  4  1  0  0  0  0
  3 56  1  0  0  0  0
  4  5  1  0  0  0  0
  4 31  1  0  0  0  0
  4 32  1  0  0  0  0
  5  6  1  0  0  0  0
  5 33  1  0  0  0  0
  5 34  1  0  0  0  0
  6  7  1  0  0  0  0
  7  8  1  0  0  0  0
  7 25  1  0  0  0  0
  7 35  1  0  0  0  0
  8  9  1  0  0  0  0
  8 36  1  0  0  0  0
  8 37  1  0  0  0  0
  9 10  1  0  0  0  0
  9 38  1  0  0  0  0
 10 11  1  0  0  0  0
 10 39  1  0  0  0  0
 10 40  1  0  0  0  0
 11 12  1  0  0  0  0
 11 13  1  0  0  0  0
 11 41  1  0  0  0  0
 12 42  1  0  0  0  0
 13 14  1  0  0  0  0
 13 43  1  0  0  0  0
 13 44  1  0  0  0  0
 14 24  1  0  0  0  0
 14 15  1  0  0  0  0
 15 16  2  0  0  0  0
 15 45  1  0  0  0  0
 16 17  1  0  0  0  0
 16 57  1  0  0  0  0
 17 24  2  0  0  0  0
 17 18  1  0  0  0  0
 18 19  2  0  0  0  0
 18 46  1  0  0  0  0
 19 20  1  0  0  0  0
 19 21  1  0  0  0  0
 20 47  1  0  0  0  0
 20 48  1  0  0  0  0
 20 49  1  0  0  0  0
 21 22  1  0  0  0  0
 21 23  2  0  0  0  0
 22 50  1  0  0  0  0
 22 51  1  0  0  0  0
 22 52  1  0  0  0  0
 23 24  1  0  0  0  0
 23 53  1  0  0  0  0
 25 54  1  0  0  0  0
 25 55  1  0  0  0  0
M  CHG  1   3   1
M  CHG  1  16   1
M  END
> <s_m_source_file>
AV-unprocessed.smi

> <i_m_source_file_index>
1047

> <i_lp_mmshare_version>
43012

> <i_f3d_flags>
0

> <s_epik_input>
W0NIM11bQ0gyXU4xW0NIMl1bQ0gyXU9bQ0BIXShbQ0gyXTEpW0NIMl1bTkhdW0NIMl1bQ0BIXShbT0hdKVtDSDJdbihbY0hdbjIpYyhjMjMpW2NIXWMoW0NIM10pYyhbY0hdMylbQ0gzXQ==

> <s_epik_cmdline>
J2VwaWtfcHl0aG9uJywgJy1waCcsICc3LjAnLCAnLXRuJywgJzgnLCAnLW1hJywgJzIwMCcsICctbWV0YWxfYmluZGluZycsICctaW1hZScsICc8aW5maWxlLm1hZT4nLCAnLW9tYWUnLCAnPG91dGZpbGUubWFlPic=

> <r_epik_Ionization_Penalty>
2.03028

> <r_epik_Ionization_Penalty_Charging>
1.21256

> <r_epik_Ionization_Penalty_Neutral>
0.817715

> <r_epik_State_Penalty>
2.54959

> <r_epik_Charging_Adjusted_Penalty>
3.76215

> <i_epik_Tot_Q>
2

> <i_epik_Tot_abs_Q>
2

> <r_epik_Metal_State_Penalty>
6.52811

> <b_epik_Metal_Only>
0

> <s_lp_Force_Field>
OPLS_2005

> <r_lp_Energy>
36.9073

> <b_lp_Chiralities_Consistent>
1

> <s_lp_Variant>
AV-unprocessed.smi:1047-41

> <Gold.Version>
5.8.1

> <Gold.Id.Protein>
6NUR|6NUR_protein|mol2

> <Gold.PLP.Fitness>
59.9507

> <Gold.PLP.PLP>
-50.0576

> <Gold.PLP.part.hbond>
-4.2513

> <Gold.PLP.part.metal>
0.0000

> <Gold.PLP.part.buried>
-3.8810

> <Gold.PLP.part.nonpolar>
-42.4628

> <Gold.PLP.part.repulsive>
0.4370

> <Gold.PLP.ligand.clash>
0.0000

> <Gold.PLP.ligand.torsion>
1.0243

> <Gold.PLP.Chemscore.Hbond>
3.9108

> <Gold.PLP.Chemscore.CHOScore>
0.0000

> <Gold.PLP.Chemscore.Metal>
0.0000

> <Gold.Chemscore.Hbonds>
donor molecule, donor type, donor heavy atom, donor atom, acceptor molecule, acceptor atom, score
      L1  H     3    56       P1 10174  1.89
      L1  H    12    42       P1  7957  0.78
      P1  H  7989  7998       L1    12  0.17
      P1  H  8011  8017       L1    12  1.00

> <Gold.PLP.Chemscore.Internal.Correction>
0.2093

> <Gold.Rescore>
     Score         DG    S(hbond)    S(metal)    S(lipo)     H(rot)  DE(clash)    DE(int)     intcor
     20.44     -22.82       2.39        0.00     139.20       2.71       0.21       2.17       ----

> <Gold.Chemscore.Fitness>
20.4433

> <Gold.Chemscore.DG>
-22.8189

> <Gold.Chemscore.ZeroCoef>
-5.4800

> <Gold.Chemscore.Hbond>
2.3912

> <Gold.Chemscore.Metal>
0.0000

> <Gold.Chemscore.Lipo>
139.2043

> <Gold.Chemscore.Internal_Hbond>
0.0000

> <Gold.Chemscore.DEClash>
0.2083

> <Gold.Chemscore.DEInternal>
2.1673

> <Gold.Chemscore.Rot>
2.7088

> <Gold.Chemscore.Internal.Correction>
   9.000000E+99

> <Gold.Chemscore.Hbonds>
donor molecule, donor type, donor heavy atom, donor atom, acceptor molecule, acceptor atom, score
      L1  H     3    56       P1 10174  0.90
      L1  H    12    42       P1  7957  0.73
      P1  H  7989  7998       L1    12  0.09
      P1  H  8011  8017       L1    12  0.30

> <Gold.Chemscore.Hbond.Weighted>
-7.9866

> <Gold.Chemscore.Metal.Weighted>
-0.0000

> <Gold.Chemscore.Lipo.Weighted>
-16.2869

> <Gold.Chemscore.Internal_Hbond.Weighted>
0.0000

> <Gold.Chemscore.DEClash.Weighted>
0.2083

> <Gold.Chemscore.DEInternal.Weighted>
2.1673

> <Gold.Chemscore.Rot.Weighted>
6.9346

> <Gold.Chemscore.Internal.Correction.Weighted>
   9.000000E+99

> <Gold.Protein.RotatedTorsions>
[ 6907 6896 6895 6894 ] final   14.13 input  -60.11 | X-H torsion
[ 7974 7965 7964 7962 ] final  118.98 input  175.53 | X-H torsion
[ 8008 7997 7996 7995 ] final -168.23 input   59.86 | X-H torsion
[ 10167 10162 10161 10158 ] final   18.77 input  -65.29 | X-H torsion
[ 10718 10713 10712 10709 ] final  125.68 input   66.30 | X-H torsion
[ 10763 10752 10751 10750 ] final   14.59 input  -60.55 | X-H torsion
[ 11005 11000 10999 10996 ] final  -47.11 input  -57.11 | X-H torsion

> <Gold.Protein.ActiveResidues>
 VAL166  LYS551  ARG553  GLY616  TRP617  ASP618  TYR619  PRO620  LYS621  CYS622 
 ASP623  PHE694  ASN695  SER759  ASP760  ASP761  ALA762  ILE779  LEU786  VAL792 
 PHE793  MET794  SER795  GLU796  ALA797  LYS798  CYS799  TRP800  GLU811  SER814 

> <Gold.Protein.RotatedAtoms>
  151.7973  135.0719  160.0395 H   0  0  0  0  0  0  0  0  0  0  0  0  # atno 6907 bound_to 6896
  152.3114  133.5752  159.5692 H   0  0  0  0  0  0  0  0  0  0  0  0  # atno 6908 bound_to 6896
  150.7322  134.0062  159.3696 H   0  0  0  0  0  0  0  0  0  0  0  0  # atno 6909 bound_to 6896
  145.1486  139.3224  143.4578 H   0  0  0  0  0  0  0  0  0  0  0  0  # atno 7974 bound_to 7965
  155.8886  140.1021  157.1434 H   0  0  0  0  0  0  0  0  0  0  0  0  # atno 8008 bound_to 7997
  154.4012  140.1315  156.4351 H   0  0  0  0  0  0  0  0  0  0  0  0  # atno 8009 bound_to 7997
  155.7559  140.3464  155.5176 H   0  0  0  0  0  0  0  0  0  0  0  0  # atno 8010 bound_to 7997
  140.5628  143.9305  150.6655 H   0  0  0  0  0  0  0  0  0  0  0  0  # atno 10167 bound_to 10162
  157.5483  131.1095  150.8745 H   0  0  0  0  0  0  0  0  0  0  0  0  # atno 10718 bound_to 10713
  153.1607  135.6795  153.8747 H   0  0  0  0  0  0  0  0  0  0  0  0  # atno 10763 bound_to 10752
  153.8143  135.3138  155.3405 H   0  0  0  0  0  0  0  0  0  0  0  0  # atno 10764 bound_to 10752
  154.7930  135.4823  154.0185 H   0  0  0  0  0  0  0  0  0  0  0  0  # atno 10765 bound_to 10752
  141.0621  133.6706  156.3251 H   0  0  0  0  0  0  0  0  0  0  0  0  # atno 11005 bound_to 11000
  146.3497  140.1552  142.8591 LP  0  0  0  0  0  0  0  0  0  0  0  0  # atno 17320 bound_to 7965
  145.0455  140.8978  143.5027 LP  0  0  0  0  0  0  0  0  0  0  0  0  # atno 17321 bound_to 7965
  140.2760  143.3422  152.1194 LP  0  0  0  0  0  0  0  0  0  0  0  0  # atno 17342 bound_to 10162
  139.5078  144.6839  151.5937 LP  0  0  0  0  0  0  0  0  0  0  0  0  # atno 17343 bound_to 10162
  156.9278  130.5338  149.5279 LP  0  0  0  0  0  0  0  0  0  0  0  0  # atno 17370 bound_to 10713
  156.0554  130.5616  150.9080 LP  0  0  0  0  0  0  0  0  0  0  0  0  # atno 17371 bound_to 10713
  140.5848  134.5709  157.5487 LP  0  0  0  0  0  0  0  0  0  0  0  0  # atno 17394 bound_to 11000
  139.9442  134.7732  156.0603 LP  0  0  0  0  0  0  0  0  0  0  0  0  # atno 17395 bound_to 11000

$$$$
