#       Name:                AV-unprocessed.smi:3275
#       Creating user name   scv26
#       Creation time:       Fri Mar 27 18:44:53 2020


#       File generated by GOLD software.
#

@<TRIPOS>MOLECULE
AV-unprocessed.smi:3275
    40    41     1
SMALL
NO_CHARGES


@<TRIPOS>ATOM
      1 ****        -5.0195   3.0033   0.6774 O.3            1 S1                 0.0000
      2 ****        -3.7066   2.9066   0.1688 C.3            1 S1                 0.0000
      3 ****        -3.1512   1.5010   0.4211 C.3            1 S1                 0.0000
      4 ****        -1.8282   1.4372  -0.0913 O.3            1 S1                 0.0000
      5 ****        -1.1773   0.1895   0.1117 C.3            1 S1                 0.0000
      6 ****        -1.6435  -0.8573  -0.9224 C.3            1 S1                 0.0000
      7 ****        -0.8139  -2.1454  -0.7926 C.3            1 S1                 0.0000
      8 ****         0.6915  -1.8469  -0.8866 C.3            1 S1                 0.0000
      9 ****         1.0742  -0.8255   0.0846 N.3            1 S1                 0.0000
     10 ****         2.4622  -0.7353   0.2959 C.ar           1 S1                 0.0000
     11 ****         3.2382   0.2919  -0.2919 C.ar           1 S1                 0.0000
     12 ****         4.6263   0.3193  -0.0531 C.ar           1 S1                 0.0000
     13 ****         5.2658  -0.5876   0.7137 N.ar           1 S1                 0.0000
     14 ****         4.5264  -1.5656   1.2771 C.ar           1 S1                 0.0000
     15 ****         3.1325  -1.6870   1.1038 C.ar           1 S1                 0.0000
     16 ****         2.2873  -2.9686   1.9013 Cl             1 S1                 0.0000
     17 ****         0.3369   0.4314  -0.0251 C.3            1 S1                 0.0000
     18 ****        -5.3394   3.8783   0.5184 H              1 S1                 0.0000
     19 ****        -3.7198   3.1273  -0.8989 H              1 S1                 0.0000
     20 ****        -3.0809   3.6580   0.6516 H              1 S1                 0.0000
     21 ****        -3.1476   1.2886   1.4915 H              1 S1                 0.0000
     22 ****        -3.7886   0.7596  -0.0611 H              1 S1                 0.0000
     23 ****        -1.3754  -0.1742   1.1218 H              1 S1                 0.0000
     24 ****        -2.6994  -1.0924  -0.7928 H              1 S1                 0.0000
     25 ****        -1.5339  -0.4527  -1.9293 H              1 S1                 0.0000
     26 ****        -1.0301  -2.6229   0.1641 H              1 S1                 0.0000
     27 ****        -1.1025  -2.8569  -1.5667 H              1 S1                 0.0000
     28 ****         1.2594  -2.7641  -0.7290 H              1 S1                 0.0000
     29 ****         0.9391  -1.4920  -1.8880 H              1 S1                 0.0000
     30 ****         2.7946   1.0451  -0.9256 H              1 S1                 0.0000
     31 ****         5.2404   1.0905  -0.4940 H              1 S1                 0.0000
     32 ****         5.0641  -2.2731   1.8911 H              1 S1                 0.0000
     33 ****         0.5458   0.8915  -0.9916 H              1 S1                 0.0000
     34 ****         0.6729   1.1270   0.7451 H              1 S1                 0.0000
     35 ****        -5.0148   2.8194   1.6604 LP             1 S1                 0.0000
     36 ****        -5.6092   2.3398   0.2170 LP             1 S1                 0.0000
     37 ****        -1.2857   2.1489   0.3550 LP             1 S1                 0.0000
     38 ****        -1.8652   1.6139  -1.0748 LP             1 S1                 0.0000
     39 ****         0.7451  -1.1618   0.9670 LP             1 S1                 0.0000
     40 ****         6.2538  -0.5368   0.8596 LP             1 S1                 0.0000
@<TRIPOS>BOND
    1    1    2 1     
    2    1   18 1     
    3    2    3 1     
    4    2   19 1     
    5    2   20 1     
    6    3    4 1     
    7    3   21 1     
    8    3   22 1     
    9    4    5 1     
   10    5   17 1     
   11    5    6 1     
   12    5   23 1     
   13    6    7 1     
   14    6   24 1     
   15    6   25 1     
   16    7    8 1     
   17    7   26 1     
   18    7   27 1     
   19    8    9 1     
   20    8   28 1     
   21    8   29 1     
   22    9   10 1     
   23    9   17 1     
   24   10   15 ar    
   25   10   11 ar    
   26   11   12 ar    
   27   11   30 1     
   28   12   13 ar    
   29   12   31 1     
   30   13   14 ar    
   31   14   15 ar    
   32   14   32 1     
   33   15   16 1     
   34   17   33 1     
   35   17   34 1     
   36    1   35 1     
   37    1   36 1     
   38    4   37 1     
   39    4   38 1     
   40    9   39 1     
   41   13   40 1     
@<TRIPOS>SUBSTRUCTURE
      1 S1             1
@<TRIPOS>SET
LONE_PAIRS      STATIC     ATOMS    <user>   **** ""
6 35 36 37 38 39 40
DONOR_HYDROGENS      STATIC     ATOMS    <user>   **** ""
1 18
ATOM$BLUE        STATIC     ATOMS    COLORGROUP SYSTEM
6 35 36 37 38 39 40
ATOM$RED        STATIC     ATOMS    COLORGROUP SYSTEM
1 18
