AV-unprocessed.smi:123|AV-procd|sdf|1145|dock5
  -GOLD-   2262018273D 1   1.00000     0.00000
 Structure written by MMmdl.
 43 45  0  0  0  0  0  0  0  0  1 V2000
  148.3637  135.0603  156.6985 C   0  0  0  0  0  0  0  0  0  0  0  0
  149.7714  134.8520  157.2869 C   0  0  2  0  0  0  0  0  0  0  0  0
  150.6321  136.0077  157.0290 N   0  0  0  0  0  0  0  0  0  0  0  0
  151.0966  136.8826  157.9370 C   0  0  0  0  0  0  0  0  0  0  0  0
  150.8536  136.8022  159.1424 O   0  0  0  0  0  0  0  0  0  0  0  0
  151.9678  138.0191  157.3799 C   0  0  0  0  0  0  0  0  0  0  0  0
  151.5458  139.3614  157.8364 N   0  0  0  0  0  0  0  0  0  0  0  0
  150.2301  139.7982  157.5427 C   0  0  0  0  0  0  0  0  0  0  0  0
  149.4373  139.0758  156.9365 O   0  0  0  0  0  0  0  0  0  0  0  0
  149.8983  141.1450  157.9936 C   0  0  0  0  0  0  0  0  0  0  0  0
  148.6738  141.6442  157.7542 F   0  0  0  0  0  0  0  0  0  0  0  0
  150.8046  141.9027  158.6448 C   0  0  0  0  0  0  0  0  0  0  0  0
  152.0853  141.4626  158.9260 N   0  0  0  0  0  0  0  0  0  0  0  0
  153.0853  142.3447  159.6412 C   0  0  1  0  0  0  0  0  0  0  0  0
  153.1225  143.7339  158.9952 C   0  0  0  0  0  0  0  0  0  0  0  0
  152.1151  144.4910  159.8326 C   0  0  0  0  0  0  0  0  0  0  0  0
  152.3366  143.8757  161.2099 C   0  0  0  0  0  0  0  0  0  0  0  0
  152.6823  142.5129  160.9704 O   0  0  0  0  0  0  0  0  0  0  0  0
  152.4873  140.1742  158.5120 C   0  0  0  0  0  0  0  0  0  0  0  0
  153.6342  139.7743  158.7246 O   0  0  0  0  0  0  0  0  0  0  0  0
  150.4139  133.5582  156.8785 C   0  0  0  0  0  0  0  0  0  0  0  0
  150.5848  132.9172  155.6810 C   0  0  0  0  0  0  0  0  0  0  0  0
  151.2819  131.7103  155.9645 C   0  0  0  0  0  0  0  0  0  0  0  0
  151.4804  131.6992  157.3154 C   0  0  0  0  0  0  0  0  0  0  0  0
  150.9547  132.8158  157.8877 O   0  0  0  0  0  0  0  0  0  0  0  0
  147.6898  134.2623  157.0109 H   0  0  0  0  0  0  0  0  0  0  0  0
  148.3766  135.0708  155.6081 H   0  0  0  0  0  0  0  0  0  0  0  0
  147.9322  136.0034  157.0354 H   0  0  0  0  0  0  0  0  0  0  0  0
  149.6549  134.8223  158.3707 H   0  0  0  0  0  0  0  0  0  0  0  0
  150.8880  136.1633  156.0647 H   0  0  0  0  0  0  0  0  0  0  0  0
  153.0066  137.8198  157.6471 H   0  0  0  0  0  0  0  0  0  0  0  0
  151.9596  137.9613  156.2900 H   0  0  0  0  0  0  0  0  0  0  0  0
  150.5041  142.8945  158.9470 H   0  0  0  0  0  0  0  0  0  0  0  0
  154.0369  141.8119  159.6084 H   0  0  0  0  0  0  0  0  0  0  0  0
  154.1210  144.1527  159.1269 H   0  0  0  0  0  0  0  0  0  0  0  0
  152.8877  143.7070  157.9305 H   0  0  0  0  0  0  0  0  0  0  0  0
  152.2695  145.5701  159.8170 H   0  0  0  0  0  0  0  0  0  0  0  0
  151.1027  144.2854  159.4827 H   0  0  0  0  0  0  0  0  0  0  0  0
  153.1730  144.3637  161.7117 H   0  0  0  0  0  0  0  0  0  0  0  0
  151.4601  143.9585  161.8531 H   0  0  0  0  0  0  0  0  0  0  0  0
  150.2540  133.2752  154.7173 H   0  0  0  0  0  0  0  0  0  0  0  0
  151.5973  130.9469  155.2686 H   0  0  0  0  0  0  0  0  0  0  0  0
  151.9523  131.0088  157.9991 H   0  0  0  0  0  0  0  0  0  0  0  0
  1  2  1  0  0  0  0
  1 26  1  0  0  0  0
  1 27  1  0  0  0  0
  1 28  1  0  0  0  0
  2  3  1  0  0  0  0
  2 21  1  0  0  0  0
  2 29  1  0  0  0  0
  3  4  1  0  0  0  0
  3 30  1  0  0  0  0
  4  5  2  0  0  0  0
  4  6  1  0  0  0  0
  6  7  1  0  0  0  0
  6 31  1  0  0  0  0
  6 32  1  0  0  0  0
  7 19  1  0  0  0  0
  7  8  1  0  0  0  0
  8  9  2  0  0  0  0
  8 10  1  0  0  0  0
 10 11  1  0  0  0  0
 10 12  2  0  0  0  0
 12 13  1  0  0  0  0
 12 33  1  0  0  0  0
 13 14  1  0  0  0  0
 13 19  1  0  0  0  0
 14 18  1  0  0  0  0
 14 15  1  0  0  0  0
 14 34  1  0  0  0  0
 15 16  1  0  0  0  0
 15 35  1  0  0  0  0
 15 36  1  0  0  0  0
 16 17  1  0  0  0  0
 16 37  1  0  0  0  0
 16 38  1  0  0  0  0
 17 18  1  0  0  0  0
 17 39  1  0  0  0  0
 17 40  1  0  0  0  0
 19 20  2  0  0  0  0
 21 25  1  0  0  0  0
 21 22  2  0  0  0  0
 22 23  1  0  0  0  0
 22 41  1  0  0  0  0
 23 24  2  0  0  0  0
 23 42  1  0  0  0  0
 24 25  1  0  0  0  0
 24 43  1  0  0  0  0
M  END
> <s_m_source_file>
AV-unprocessed.smi

> <i_m_source_file_index>
123

> <i_lp_mmshare_version>
43012

> <i_f3d_flags>
0

> <s_epik_input>
bzFbY0hdW2NIXVtjSF1jMVtDQEhdKFtDSDNdKVtOSF1DKD1PKVtDSDJdbjJjKD1PKWMoRilbY0hdbihjMj1PKVtDQEBIXTNbQ0gyXVtDSDJdW0NIMl1PMw==

> <s_epik_cmdline>
J2VwaWtfcHl0aG9uJywgJy1waCcsICc3LjAnLCAnLXRuJywgJzgnLCAnLW1hJywgJzIwMCcsICctbWV0YWxfYmluZGluZycsICctaW1hZScsICc8aW5maWxlLm1hZT4nLCAnLW9tYWUnLCAnPG91dGZpbGUubWFlPic=

> <r_lp_tautomer_probability>
1

> <r_epik_Ionization_Penalty>
2.31906e-08

> <r_epik_Ionization_Penalty_Charging>
3.85846e-09

> <r_epik_Ionization_Penalty_Neutral>
1.93321e-08

> <r_epik_State_Penalty>
-0

> <r_epik_Charging_Adjusted_Penalty>
3.85846e-09

> <i_epik_Tot_Q>
0

> <i_epik_Tot_abs_Q>
0

> <r_epik_Metal_State_Penalty>
-0

> <b_epik_Metal_Only>
0

> <s_epik_Chemistry_Notes>
This compound contains an acetal/aminal-like group ( X-CH(R)-Y where X, Y are N, S, or O) that may be acid/base labile, releasing an aldehyde.

> <s_lp_Force_Field>
OPLS_2005

> <r_lp_Energy>
21.1126

> <b_lp_Chiralities_Consistent>
1

> <s_lp_Variant>
AV-unprocessed.smi:123-3

> <Gold.Version>
5.8.1

> <Gold.Id.Protein>
6NUR|6NUR_protein|mol2

> <Gold.PLP.Fitness>
46.7668

> <Gold.PLP.PLP>
-39.0455

> <Gold.PLP.part.hbond>
-3.0000

> <Gold.PLP.part.metal>
0.0000

> <Gold.PLP.part.buried>
-6.9264

> <Gold.PLP.part.nonpolar>
-29.0199

> <Gold.PLP.part.repulsive>
0.1282

> <Gold.PLP.ligand.clash>
0.0000

> <Gold.PLP.ligand.torsion>
0.6999

> <Gold.PLP.Chemscore.Hbond>
3.0000

> <Gold.PLP.Chemscore.CHOScore>
0.0000

> <Gold.PLP.Chemscore.Metal>
0.0000

> <Gold.Chemscore.Hbonds>
donor molecule, donor type, donor heavy atom, donor atom, acceptor molecule, acceptor atom, score
      P1  H  6896  6907       L1     5  1.00
      P1  H  6896  6909       L1    25  0.86
      P1  H  7997  8008       L1    20  1.00

> <Gold.PLP.Chemscore.Internal.Correction>
0.1211

> <Gold.Rescore>
     Score         DG    S(hbond)    S(metal)    S(lipo)     H(rot)  DE(clash)    DE(int)     intcor
     16.15     -18.28       2.89        0.00      75.69       2.23       0.00       2.13       ----

> <Gold.Chemscore.Fitness>
16.1458

> <Gold.Chemscore.DG>
-18.2787

> <Gold.Chemscore.ZeroCoef>
-5.4800

> <Gold.Chemscore.Hbond>
2.8932

> <Gold.Chemscore.Metal>
0.0000

> <Gold.Chemscore.Lipo>
75.6939

> <Gold.Chemscore.Internal_Hbond>
0.0000

> <Gold.Chemscore.DEClash>
0.0000

> <Gold.Chemscore.DEInternal>
2.1329

> <Gold.Chemscore.Rot>
2.2347

> <Gold.Chemscore.Internal.Correction>
   9.000000E+99

> <Gold.Chemscore.Hbonds>
donor molecule, donor type, donor heavy atom, donor atom, acceptor molecule, acceptor atom, score
      P1  H  6896  6907       L1     5  0.78
      P1  H  6896  6909       L1    25  0.83
      P1  H  7997  8008       L1    20  0.64

> <Gold.Chemscore.Hbond.Weighted>
-9.6633

> <Gold.Chemscore.Metal.Weighted>
-0.0000

> <Gold.Chemscore.Lipo.Weighted>
-8.8562

> <Gold.Chemscore.Internal_Hbond.Weighted>
0.0000

> <Gold.Chemscore.DEClash.Weighted>
0.0000

> <Gold.Chemscore.DEInternal.Weighted>
2.1329

> <Gold.Chemscore.Rot.Weighted>
5.7208

> <Gold.Chemscore.Internal.Correction.Weighted>
   9.000000E+99

> <Gold.Protein.RotatedTorsions>
[ 6907 6896 6895 6894 ] final  -38.46 input  -60.11 | X-H torsion
[ 7974 7965 7964 7962 ] final   70.44 input  175.53 | X-H torsion
[ 8008 7997 7996 7995 ] final  -91.10 input   59.86 | X-H torsion
[ 10167 10162 10161 10158 ] final -169.32 input  -65.29 | X-H torsion
[ 10718 10713 10712 10709 ] final  138.06 input   66.30 | X-H torsion
[ 10763 10752 10751 10750 ] final  -75.20 input  -60.55 | X-H torsion
[ 11005 11000 10999 10996 ] final   -2.25 input  -57.11 | X-H torsion

> <Gold.Protein.ActiveResidues>
 VAL166  LYS551  ARG553  GLY616  TRP617  ASP618  TYR619  PRO620  LYS621  CYS622 
 ASP623  PHE694  ASN695  SER759  ASP760  ASP761  ALA762  ILE779  LEU786  VAL792 
 PHE793  MET794  SER795  GLU796  ALA797  LYS798  CYS799  TRP800  GLU811  SER814 

> <Gold.Protein.RotatedAtoms>
  151.0022  134.9331  159.7959 H   0  0  0  0  0  0  0  0  0  0  0  0  # atno 6907 bound_to 6896
  152.5281  134.3139  159.9133 H   0  0  0  0  0  0  0  0  0  0  0  0  # atno 6908 bound_to 6896
  151.3145  133.4025  159.2684 H   0  0  0  0  0  0  0  0  0  0  0  0  # atno 6909 bound_to 6896
  145.7782  139.2875  143.1281 H   0  0  0  0  0  0  0  0  0  0  0  0  # atno 7974 bound_to 7965
  154.7066  140.0523  157.0510 H   0  0  0  0  0  0  0  0  0  0  0  0  # atno 8008 bound_to 7997
  155.0611  140.3189  155.4641 H   0  0  0  0  0  0  0  0  0  0  0  0  # atno 8009 bound_to 7997
  156.2776  140.2098  156.5738 H   0  0  0  0  0  0  0  0  0  0  0  0  # atno 8010 bound_to 7997
  139.5930  144.1172  152.1656 H   0  0  0  0  0  0  0  0  0  0  0  0  # atno 10167 bound_to 10162
  157.4293  131.1047  151.0267 H   0  0  0  0  0  0  0  0  0  0  0  0  # atno 10718 bound_to 10713
  154.4834  135.5839  153.6406 H   0  0  0  0  0  0  0  0  0  0  0  0  # atno 10763 bound_to 10752
  152.9851  135.6095  154.3217 H   0  0  0  0  0  0  0  0  0  0  0  0  # atno 10764 bound_to 10752
  154.3110  135.2845  155.2545 H   0  0  0  0  0  0  0  0  0  0  0  0  # atno 10765 bound_to 10752
  140.6563  133.9359  155.8410 H   0  0  0  0  0  0  0  0  0  0  0  0  # atno 11005 bound_to 11000
  146.0101  140.8443  142.9975 LP  0  0  0  0  0  0  0  0  0  0  0  0  # atno 17320 bound_to 7965
  144.6801  140.2477  143.7335 LP  0  0  0  0  0  0  0  0  0  0  0  0  # atno 17321 bound_to 7965
  140.0751  144.5747  150.7163 LP  0  0  0  0  0  0  0  0  0  0  0  0  # atno 17342 bound_to 10162
  140.7189  143.2570  151.4345 LP  0  0  0  0  0  0  0  0  0  0  0  0  # atno 17343 bound_to 10162
  157.1169  130.6045  149.5495 LP  0  0  0  0  0  0  0  0  0  0  0  0  # atno 17370 bound_to 10713
  155.9908  130.4960  150.7271 LP  0  0  0  0  0  0  0  0  0  0  0  0  # atno 17371 bound_to 10713
  141.0499  134.0500  157.3797 LP  0  0  0  0  0  0  0  0  0  0  0  0  # atno 17394 bound_to 11000
  139.9028  135.0170  156.7349 LP  0  0  0  0  0  0  0  0  0  0  0  0  # atno 17395 bound_to 11000

$$$$
