#       Name:                AV-unprocessed.smi:2668
#       Creating user name   scv26
#       Creation time:       Fri Mar 27 14:36:28 2020


#       File generated by GOLD software.
#

@<TRIPOS>MOLECULE
AV-unprocessed.smi:2668
    57    58     1
SMALL
NO_CHARGES


@<TRIPOS>ATOM
      1 ****        -4.7867  -2.2282   0.5071 C.3            1 S1                 0.0000
      2 ****        -4.1260  -1.6764  -0.6738 N.3            1 S1                 0.0000
      3 ****        -4.7365  -2.3253  -1.8325 C.3            1 S1                 0.0000
      4 ****        -4.2389  -0.2056  -0.7417 C.3            1 S1                 0.0000
      5 ****        -3.5290   0.3999  -1.9738 C.3            1 S1                 0.0000
      6 ****        -1.9969   0.3041  -1.8667 C.3            1 S1                 0.0000
      7 ****        -1.4871   0.9838  -0.6381 N.4            1 S1                 1.0000
      8 ****         0.0119   1.1429  -0.5592 C.3            1 S1                 0.0000
      9 ****         0.5292   1.9075  -1.8045 C.3            1 S1                 0.0000
     10 ****         0.3792   2.0245   0.6619 C.3            1 S1                 0.0000
     11 ****         0.7209  -0.2421  -0.4649 C.3            1 S1                 0.0000
     12 ****         2.1797  -0.1495  -0.4149 N.am           1 S1                 0.0000
     13 ****         2.9306  -0.2476   0.6917 C.2            1 S1                 0.0000
     14 ****         2.4613  -0.4136   1.8172 O.2            1 S1                 0.0000
     15 ****         4.2390  -0.1545   0.3988 N.am           1 S1                 0.0000
     16 ****         5.3504  -0.2069   1.2832 C.ar           1 S1                 0.0000
     17 ****         5.2815   0.0722   2.6699 C.ar           1 S1                 0.0000
     18 ****         6.4608   0.0036   3.4363 C.ar           1 S1                 0.0000
     19 ****         7.6652  -0.3345   2.7896 C.ar           1 S1                 0.0000
     20 ****         7.7482  -0.5898   1.4670 N.ar           1 S1                 0.0000
     21 ****         6.6137  -0.5212   0.7384 C.ar           1 S1                 0.0000
     22 ****        -2.1378   0.4192   0.5826 C.3            1 S1                 0.0000
     23 ****        -3.6717   0.5157   0.5023 C.3            1 S1                 0.0000
     24 ****        -4.2731  -1.9435   1.4240 H              1 S1                 0.0000
     25 ****        -4.7770  -3.3188   0.4831 H              1 S1                 0.0000
     26 ****        -5.8255  -1.9011   0.5720 H              1 S1                 0.0000
     27 ****        -4.1928  -2.1104  -2.7507 H              1 S1                 0.0000
     28 ****        -5.7745  -2.0153  -1.9617 H              1 S1                 0.0000
     29 ****        -4.7209  -3.4104  -1.7212 H              1 S1                 0.0000
     30 ****        -5.3019   0.0312  -0.8111 H              1 S1                 0.0000
     31 ****        -3.8737  -0.0352  -2.9102 H              1 S1                 0.0000
     32 ****        -3.8012   1.4538  -2.0469 H              1 S1                 0.0000
     33 ****        -1.6975  -0.7441  -1.8708 H              1 S1                 0.0000
     34 ****        -1.5868   0.7527  -2.7686 H              1 S1                 0.0000
     35 ****         1.5677   2.2187  -1.6842 H              1 S1                 0.0000
     36 ****        -0.0546   2.8103  -1.9889 H              1 S1                 0.0000
     37 ****         0.5043   1.2985  -2.7078 H              1 S1                 0.0000
     38 ****         1.4206   2.3467   0.6313 H              1 S1                 0.0000
     39 ****         0.2579   1.4967   1.6075 H              1 S1                 0.0000
     40 ****        -0.2306   2.9281   0.6992 H              1 S1                 0.0000
     41 ****         0.3604  -0.8099   0.3933 H              1 S1                 0.0000
     42 ****         0.4876  -0.8487  -1.3394 H              1 S1                 0.0000
     43 ****         2.6547  -0.0155  -1.2957 H              1 S1                 0.0000
     44 ****         4.4714  -0.0995  -0.5822 H              1 S1                 0.0000
     45 ****         4.3592   0.3498   3.1560 H              1 S1                 0.0000
     46 ****         6.4428   0.2105   4.4960 H              1 S1                 0.0000
     47 ****         8.5874  -0.3950   3.3484 H              1 S1                 0.0000
     48 ****         6.7183  -0.7287  -0.3167 H              1 S1                 0.0000
     49 ****        -1.8464  -0.6222   0.7195 H              1 S1                 0.0000
     50 ****        -1.8322   0.9521   1.4804 H              1 S1                 0.0000
     51 ****        -3.9451   1.5703   0.4445 H              1 S1                 0.0000
     52 ****        -4.1269   0.1690   1.4286 H              1 S1                 0.0000
     53 ****        -1.8349   1.9298  -0.7023 H              1 S1                 0.0000
     54 ****        -3.1430  -1.8576  -0.6420 LP             1 S1                 0.0000
     55 ****         1.4714  -0.4822   1.9410 LP             1 S1                 0.0000
     56 ****         3.0699  -0.4798   2.6079 LP             1 S1                 0.0000
     57 ****         8.6222  -0.8223   1.0402 LP             1 S1                 0.0000
@<TRIPOS>BOND
    1    1    2 1     
    2    1   24 1     
    3    1   25 1     
    4    1   26 1     
    5    2    3 1     
    6    2    4 1     
    7    3   27 1     
    8    3   28 1     
    9    3   29 1     
   10    4   23 1     
   11    4    5 1     
   12    4   30 1     
   13    5    6 1     
   14    5   31 1     
   15    5   32 1     
   16    6    7 1     
   17    6   33 1     
   18    6   34 1     
   19    7    8 1     
   20    7   22 1     
   21    7   53 1     
   22    8    9 1     
   23    8   10 1     
   24    8   11 1     
   25    9   35 1     
   26    9   36 1     
   27    9   37 1     
   28   10   38 1     
   29   10   39 1     
   30   10   40 1     
   31   11   12 1     
   32   11   41 1     
   33   11   42 1     
   34   12   13 am    
   35   12   43 1     
   36   13   14 2     
   37   13   15 am    
   38   15   16 1     
   39   15   44 1     
   40   16   21 ar    
   41   16   17 ar    
   42   17   18 ar    
   43   17   45 1     
   44   18   19 ar    
   45   18   46 1     
   46   19   20 ar    
   47   19   47 1     
   48   20   21 ar    
   49   21   48 1     
   50   22   23 1     
   51   22   49 1     
   52   22   50 1     
   53   23   51 1     
   54   23   52 1     
   55    2   54 1     
   56   14   55 1     
   57   14   56 1     
   58   20   57 1     
@<TRIPOS>SUBSTRUCTURE
      1 S1             1
@<TRIPOS>SET
LONE_PAIRS      STATIC     ATOMS    <user>   **** ""
4 54 55 56 57
DONOR_HYDROGENS      STATIC     ATOMS    <user>   **** ""
3 53 43 44
ATOM$BLUE        STATIC     ATOMS    COLORGROUP SYSTEM
4 54 55 56 57
ATOM$RED        STATIC     ATOMS    COLORGROUP SYSTEM
3 53 43 44
