#       Name:                AV-unprocessed.smi:1433
#       Creating user name   scv26
#       Creation time:       Fri Mar 27 05:49:49 2020


#       File generated by GOLD software.
#

@<TRIPOS>MOLECULE
AV-unprocessed.smi:1433
    50    51     1
SMALL
NO_CHARGES


@<TRIPOS>ATOM
      1 ****        -4.1360  -0.2976  -3.1181 C.3            1 S1                 0.0000
      2 ****        -2.8015  -0.9198  -2.6939 C.3            1 S1                 0.0000
      3 ****        -2.1255  -0.1292  -1.5576 C.3            1 S1                 0.0000
      4 ****        -0.8829  -0.7514  -1.0877 N.3            1 S1                 0.0000
      5 ****        -0.2496   0.0077   0.0160 C.3            1 S1                 0.0000
      6 ****         0.0380   1.4848  -0.3604 C.3            1 S1                 0.0000
      7 ****         1.0626  -0.6427   0.5349 C.3            1 S1                 0.0000
      8 ****         1.6341   0.0916   1.6568 N.am           1 S1                 0.0000
      9 ****         2.9026  -0.0103   2.0794 C.2            1 S1                 0.0000
     10 ****         3.7220  -0.7856   1.5877 O.2            1 S1                 0.0000
     11 ****         3.3101   0.9054   3.2351 C.3            1 S1                 0.0000
     12 ****         3.2322   2.3047   2.8513 N.pl3          1 S1                 0.0000
     13 ****         4.1606   3.0560   2.1610 C.2            1 S1                 0.0000
     14 ****         3.6445   4.3124   2.0221 C.2            1 S1                 0.0000
     15 ****         2.3787   4.2314   2.6669 C.2            1 S1                 0.0000
     16 ****         2.1345   3.0291   3.1627 N.2            1 S1                 0.0000
     17 ****        -1.1843  -2.1398  -0.7226 C.3            1 S1                 0.0000
     18 ****        -1.8636  -2.9261  -1.8602 C.3            1 S1                 0.0000
     19 ****        -2.2417  -4.3490  -1.4353 C.3            1 S1                 0.0000
     20 ****        -3.0502  -2.2485  -2.2530 O.3            1 S1                 0.0000
     21 ****        -3.9972   0.7224  -3.4776 H              1 S1                 0.0000
     22 ****        -4.8398  -0.2665  -2.2859 H              1 S1                 0.0000
     23 ****        -4.5956  -0.8733  -3.9218 H              1 S1                 0.0000
     24 ****        -2.1398  -0.9510  -3.5614 H              1 S1                 0.0000
     25 ****        -1.9307   0.8715  -1.9388 H              1 S1                 0.0000
     26 ****        -2.8213  -0.0212  -0.7239 H              1 S1                 0.0000
     27 ****        -0.9478   0.0246   0.8546 H              1 S1                 0.0000
     28 ****         0.5504   2.0284   0.4328 H              1 S1                 0.0000
     29 ****        -0.8747   2.0503  -0.5429 H              1 S1                 0.0000
     30 ****         0.6598   1.5493  -1.2539 H              1 S1                 0.0000
     31 ****         0.8947  -1.6535   0.9029 H              1 S1                 0.0000
     32 ****         1.7869  -0.7112  -0.2786 H              1 S1                 0.0000
     33 ****         1.0322   0.7555   2.1228 H              1 S1                 0.0000
     34 ****         2.6652   0.7248   4.0967 H              1 S1                 0.0000
     35 ****         4.3320   0.6846   3.5462 H              1 S1                 0.0000
     36 ****         5.0989   2.6366   1.8284 H              1 S1                 0.0000
     37 ****         4.1019   5.1598   1.5332 H              1 S1                 0.0000
     38 ****         1.6352   5.0051   2.7885 H              1 S1                 0.0000
     39 ****        -0.2722  -2.6767  -0.4710 H              1 S1                 0.0000
     40 ****        -1.8191  -2.1578   0.1645 H              1 S1                 0.0000
     41 ****        -1.1889  -2.9853  -2.7161 H              1 S1                 0.0000
     42 ****        -1.3607  -4.9159  -1.1336 H              1 S1                 0.0000
     43 ****        -2.7176  -4.8870  -2.2557 H              1 S1                 0.0000
     44 ****        -2.9375  -4.3385  -0.5958 H              1 S1                 0.0000
     45 ****        -0.2026  -0.7404  -1.8206 LP             1 S1                 0.0000
     46 ****         3.4542  -1.3827   0.8317 LP             1 S1                 0.0000
     47 ****         4.6557  -0.8184   1.9442 LP             1 S1                 0.0000
     48 ****         1.3203   2.7247   3.6570 LP             1 S1                 0.0000
     49 ****        -3.4781  -2.7585  -2.9991 LP             1 S1                 0.0000
     50 ****        -3.6734  -2.2151  -1.4716 LP             1 S1                 0.0000
@<TRIPOS>BOND
    1    1    2 1     
    2    1   21 1     
    3    1   22 1     
    4    1   23 1     
    5    2   20 1     
    6    2    3 1     
    7    2   24 1     
    8    3    4 1     
    9    3   25 1     
   10    3   26 1     
   11    4    5 1     
   12    4   17 1     
   13    5    6 1     
   14    5    7 1     
   15    5   27 1     
   16    6   28 1     
   17    6   29 1     
   18    6   30 1     
   19    7    8 1     
   20    7   31 1     
   21    7   32 1     
   22    8    9 am    
   23    8   33 1     
   24    9   10 2     
   25    9   11 1     
   26   11   12 1     
   27   11   34 1     
   28   11   35 1     
   29   12   16 1     
   30   12   13 1     
   31   13   14 2     
   32   13   36 1     
   33   14   15 1     
   34   14   37 1     
   35   15   16 2     
   36   15   38 1     
   37   17   18 1     
   38   17   39 1     
   39   17   40 1     
   40   18   19 1     
   41   18   20 1     
   42   18   41 1     
   43   19   42 1     
   44   19   43 1     
   45   19   44 1     
   46    4   45 1     
   47   10   46 1     
   48   10   47 1     
   49   16   48 1     
   50   20   49 1     
   51   20   50 1     
@<TRIPOS>SUBSTRUCTURE
      1 S1             1
@<TRIPOS>SET
LONE_PAIRS      STATIC     ATOMS    <user>   **** ""
6 45 46 47 48 49 50
DONOR_HYDROGENS      STATIC     ATOMS    <user>   **** ""
1 33
ATOM$BLUE        STATIC     ATOMS    COLORGROUP SYSTEM
6 45 46 47 48 49 50
ATOM$RED        STATIC     ATOMS    COLORGROUP SYSTEM
1 33
