AV-unprocessed.smi:1518|AV-procd|sdf|6127|dock7
  -GOLD-   22720 6273D 1   1.00000     0.00000
 Structure written by MMmdl.
 46 48  0  0  0  0  0  0  0  0  2 V2000
  149.6964  131.5489  154.4100 C   0  0  0  0  0  0  0  0  0  0  0  0
  148.4742  132.4658  154.4233 C   0  0  0  0  0  0  0  0  0  0  0  0
  147.3630  131.9684  154.2444 O   0  0  0  0  0  0  0  0  0  0  0  0
  148.6957  133.9230  154.6536 C   0  0  0  0  0  0  0  0  0  0  0  0
  147.5819  134.7613  154.8853 C   0  0  0  0  0  0  0  0  0  0  0  0
  147.7599  136.1387  155.1069 C   0  0  0  0  0  0  0  0  0  0  0  0
  149.0526  136.6918  155.0993 C   0  0  0  0  0  0  0  0  0  0  0  0
  150.1806  135.8794  154.8716 C   0  0  0  0  0  0  0  0  0  0  0  0
  151.4084  136.5057  154.8843 O   0  0  0  0  0  0  0  0  0  0  0  0
  151.4767  137.8745  154.5039 C   0  0  0  0  0  0  0  0  0  0  0  0
  152.2290  138.6802  155.5757 C   0  0  1  0  0  0  0  0  0  0  0  0
  152.8968  139.7656  154.9637 O   0  0  0  0  0  0  0  0  0  0  0  0
  151.3309  139.1455  156.7400 C   0  0  0  0  0  0  0  0  0  0  0  0
  150.9890  140.5749  156.6591 N   0  0  0  0  0  0  0  0  0  0  0  0
  150.1083  141.2239  155.8433 C   0  0  0  0  0  0  0  0  0  0  0  0
  149.2363  140.6163  154.7940 C   0  0  0  0  0  0  0  0  0  0  0  0
  149.5487  141.0827  153.5002 O   0  0  0  0  0  0  0  0  0  0  0  0
  150.1567  142.5465  156.1678 N   0  3  0  0  0  0  0  0  0  0  0  0
  151.0751  142.7476  157.1986 C   0  0  0  0  0  0  0  0  0  0  0  0
  151.4638  143.9102  157.8571 C   0  0  0  0  0  0  0  0  0  0  0  0
  152.4288  143.7681  158.8757 C   0  0  0  0  0  0  0  0  0  0  0  0
  152.9672  142.5075  159.2056 C   0  0  0  0  0  0  0  0  0  0  0  0
  152.5658  141.3363  158.5301 C   0  0  0  0  0  0  0  0  0  0  0  0
  151.6128  141.4849  157.5221 C   0  0  0  0  0  0  0  0  0  0  0  0
  149.9929  134.4912  154.6481 C   0  0  0  0  0  0  0  0  0  0  0  0
  150.2095  131.5819  155.3711 H   0  0  0  0  0  0  0  0  0  0  0  0
  150.3933  131.8513  153.6283 H   0  0  0  0  0  0  0  0  0  0  0  0
  149.3976  130.5179  154.2193 H   0  0  0  0  0  0  0  0  0  0  0  0
  146.5794  134.3576  154.8952 H   0  0  0  0  0  0  0  0  0  0  0  0
  146.9031  136.7721  155.2831 H   0  0  0  0  0  0  0  0  0  0  0  0
  149.1805  137.7508  155.2703 H   0  0  0  0  0  0  0  0  0  0  0  0
  152.0228  137.9551  153.5626 H   0  0  0  0  0  0  0  0  0  0  0  0
  150.4791  138.2886  154.3461 H   0  0  0  0  0  0  0  0  0  0  0  0
  153.0115  138.0371  155.9793 H   0  0  0  0  0  0  0  0  0  0  0  0
  152.3689  140.5422  155.0721 H   0  0  0  0  0  0  0  0  0  0  0  0
  150.4126  138.5611  156.7948 H   0  0  0  0  0  0  0  0  0  0  0  0
  151.8426  138.9854  157.6891 H   0  0  0  0  0  0  0  0  0  0  0  0
  149.3467  139.5319  154.8153 H   0  0  0  0  0  0  0  0  0  0  0  0
  148.1909  140.8342  155.0117 H   0  0  0  0  0  0  0  0  0  0  0  0
  149.4000  140.3822  152.8835 H   0  0  0  0  0  0  0  0  0  0  0  0
  151.0509  144.8767  157.6077 H   0  0  0  0  0  0  0  0  0  0  0  0
  152.7608  144.6427  159.4161 H   0  0  0  0  0  0  0  0  0  0  0  0
  153.7024  142.4359  159.9941 H   0  0  0  0  0  0  0  0  0  0  0  0
  152.9806  140.3755  158.7967 H   0  0  0  0  0  0  0  0  0  0  0  0
  150.8468  133.8567  154.4719 H   0  0  0  0  0  0  0  0  0  0  0  0
  149.5954  143.2578  155.7173 H   0  0  0  0  0  0  0  0  0  0  0  0
  1  2  1  0  0  0  0
  1 26  1  0  0  0  0
  1 27  1  0  0  0  0
  1 28  1  0  0  0  0
  2  3  2  0  0  0  0
  2  4  1  0  0  0  0
  4 25  1  0  0  0  0
  4  5  2  0  0  0  0
  5  6  1  0  0  0  0
  5 29  1  0  0  0  0
  6  7  2  0  0  0  0
  6 30  1  0  0  0  0
  7  8  1  0  0  0  0
  7 31  1  0  0  0  0
  8  9  1  0  0  0  0
  8 25  2  0  0  0  0
  9 10  1  0  0  0  0
 10 11  1  0  0  0  0
 10 32  1  0  0  0  0
 10 33  1  0  0  0  0
 11 12  1  0  0  0  0
 11 13  1  0  0  0  0
 11 34  1  0  0  0  0
 12 35  1  0  0  0  0
 13 14  1  0  0  0  0
 13 36  1  0  0  0  0
 13 37  1  0  0  0  0
 14 24  1  0  0  0  0
 14 15  1  0  0  0  0
 15 16  1  0  0  0  0
 15 18  2  0  0  0  0
 16 17  1  0  0  0  0
 16 38  1  0  0  0  0
 16 39  1  0  0  0  0
 17 40  1  0  0  0  0
 18 19  1  0  0  0  0
 18 46  1  0  0  0  0
 19 24  2  0  0  0  0
 19 20  1  0  0  0  0
 20 21  2  0  0  0  0
 20 41  1  0  0  0  0
 21 22  1  0  0  0  0
 21 42  1  0  0  0  0
 22 23  2  0  0  0  0
 22 43  1  0  0  0  0
 23 24  1  0  0  0  0
 23 44  1  0  0  0  0
 25 45  1  0  0  0  0
M  CHG  1  18   1
M  END
> <s_m_source_file>
AV-unprocessed.smi

> <i_m_source_file_index>
1518

> <i_lp_mmshare_version>
43012

> <i_f3d_flags>
0

> <s_epik_input>
W0NIM11DKD1PKWMxW2NIXVtjSF1bY0hdYyhbY0hdMSlPW0NIMl1bQ0BIXShbT0hdKVtDSDJdbihjKG4yKVtDSDJdW09IXSljKGMyMylbY0hdW2NIXVtjSF1bY0hdMw==

> <s_epik_cmdline>
J2VwaWtfcHl0aG9uJywgJy1waCcsICc3LjAnLCAnLXRuJywgJzgnLCAnLW1hJywgJzIwMCcsICctbWV0YWxfYmluZGluZycsICctaW1hZScsICc8aW5maWxlLm1hZT4nLCAnLW9tYWUnLCAnPG91dGZpbGUubWFlPic=

> <r_lp_tautomer_probability>
0.99995

> <r_epik_Ionization_Penalty>
1.40416

> <r_epik_Ionization_Penalty_Charging>
1.4033

> <r_epik_Ionization_Penalty_Neutral>
0.000858184

> <r_epik_State_Penalty>
1.48564

> <r_epik_Charging_Adjusted_Penalty>
2.88894

> <i_epik_Tot_Q>
1

> <i_epik_Tot_abs_Q>
1

> <r_epik_Metal_State_Penalty>
5.52809

> <b_epik_Metal_Only>
0

> <s_lp_Force_Field>
OPLS_2005

> <r_lp_Energy>
25.8835

> <b_lp_Chiralities_Consistent>
1

> <s_lp_Variant>
AV-unprocessed.smi:1518-4

> <Gold.Version>
5.8.1

> <Gold.Id.Protein>
6NUR|6NUR_protein|mol2

> <Gold.PLP.Fitness>
63.6718

> <Gold.PLP.PLP>
-49.5154

> <Gold.PLP.part.hbond>
-6.9325

> <Gold.PLP.part.metal>
0.0000

> <Gold.PLP.part.buried>
-4.2731

> <Gold.PLP.part.nonpolar>
-39.3624

> <Gold.PLP.part.repulsive>
0.3042

> <Gold.PLP.ligand.clash>
0.0000

> <Gold.PLP.ligand.torsion>
1.8909

> <Gold.PLP.Chemscore.Hbond>
5.9505

> <Gold.PLP.Chemscore.CHOScore>
0.0000

> <Gold.PLP.Chemscore.Metal>
0.0000

> <Gold.Chemscore.Hbonds>
donor molecule, donor type, donor heavy atom, donor atom, acceptor molecule, acceptor atom, score
      L1  H    17    40       P1  7957  0.78
      L1  H    18    46       P1  8028  2.00
      P1  H  7989  7998       L1    17  0.15
      P1  H  7997  8009       L1    12  1.00
      P1  H  8011  8017       L1    17  0.90
      P1  H 10752 10764       L1     9  1.00

> <Gold.PLP.Chemscore.Internal.Correction>
0.0865

> <Gold.Rescore>
     Score         DG    S(hbond)    S(metal)    S(lipo)     H(rot)  DE(clash)    DE(int)     intcor
     20.13     -22.25       3.30        0.00     122.09       3.34       0.14       1.98       ----

> <Gold.Chemscore.Fitness>
20.1256

> <Gold.Chemscore.DG>
-22.2463

> <Gold.Chemscore.ZeroCoef>
-5.4800

> <Gold.Chemscore.Hbond>
3.3021

> <Gold.Chemscore.Metal>
0.0000

> <Gold.Chemscore.Lipo>
122.0895

> <Gold.Chemscore.Internal_Hbond>
0.0000

> <Gold.Chemscore.DEClash>
0.1402

> <Gold.Chemscore.DEInternal>
1.9805

> <Gold.Chemscore.Rot>
3.3387

> <Gold.Chemscore.Internal.Correction>
   9.000000E+99

> <Gold.Chemscore.Hbonds>
donor molecule, donor type, donor heavy atom, donor atom, acceptor molecule, acceptor atom, score
      L1  H    17    40       P1  7957  0.78
      L1  H    18    46       P1  8028  0.96
      P1  H  7989  7998       L1    17  0.01
      P1  H  7997  8009       L1    12  0.13
      P1  H  8011  8017       L1    17  0.17
      P1  H 10752 10764       L1     9  0.81

> <Gold.Chemscore.Hbond.Weighted>
-11.0290

> <Gold.Chemscore.Metal.Weighted>
-0.0000

> <Gold.Chemscore.Lipo.Weighted>
-14.2845

> <Gold.Chemscore.Internal_Hbond.Weighted>
0.0000

> <Gold.Chemscore.DEClash.Weighted>
0.1402

> <Gold.Chemscore.DEInternal.Weighted>
1.9805

> <Gold.Chemscore.Rot.Weighted>
8.5471

> <Gold.Chemscore.Internal.Correction.Weighted>
   9.000000E+99

> <Gold.Protein.RotatedTorsions>
[ 6907 6896 6895 6894 ] final  -77.85 input  -60.11 | X-H torsion
[ 7974 7965 7964 7962 ] final   86.94 input  175.53 | X-H torsion
[ 8008 7997 7996 7995 ] final -154.02 input   59.86 | X-H torsion
[ 10167 10162 10161 10158 ] final   62.17 input  -65.29 | X-H torsion
[ 10718 10713 10712 10709 ] final   65.65 input   66.30 | X-H torsion
[ 10763 10752 10751 10750 ] final  -66.19 input  -60.55 | X-H torsion
[ 11005 11000 10999 10996 ] final -123.60 input  -57.11 | X-H torsion

> <Gold.Protein.ActiveResidues>
 VAL166  LYS551  ARG553  GLY616  TRP617  ASP618  TYR619  PRO620  LYS621  CYS622 
 ASP623  PHE694  ASN695  SER759  ASP760  ASP761  ALA762  ILE779  LEU786  VAL792 
 PHE793  MET794  SER795  GLU796  ALA797  LYS798  CYS799  TRP800  GLU811  SER814 

> <Gold.Protein.RotatedAtoms>
  150.6988  134.4360  159.5269 H   0  0  0  0  0  0  0  0  0  0  0  0  # atno 6907 bound_to 6896
  152.2078  134.8526  160.0510 H   0  0  0  0  0  0  0  0  0  0  0  0  # atno 6908 bound_to 6896
  151.9423  133.3606  159.4006 H   0  0  0  0  0  0  0  0  0  0  0  0  # atno 6909 bound_to 6896
  145.5656  139.2308  143.2435 H   0  0  0  0  0  0  0  0  0  0  0  0  # atno 7974 bound_to 7965
  155.6799  140.0743  157.2488 H   0  0  0  0  0  0  0  0  0  0  0  0  # atno 8008 bound_to 7997
  154.4107  140.1683  156.2023 H   0  0  0  0  0  0  0  0  0  0  0  0  # atno 8009 bound_to 7997
  155.9543  140.3375  155.6438 H   0  0  0  0  0  0  0  0  0  0  0  0  # atno 8010 bound_to 7997
  140.1469  144.4500  150.6780 H   0  0  0  0  0  0  0  0  0  0  0  0  # atno 10167 bound_to 10162
  157.6119  130.9225  150.0004 H   0  0  0  0  0  0  0  0  0  0  0  0  # atno 10718 bound_to 10713
  154.3561  135.6126  153.5667 H   0  0  0  0  0  0  0  0  0  0  0  0  # atno 10763 bound_to 10752
  152.9796  135.5804  154.4687 H   0  0  0  0  0  0  0  0  0  0  0  0  # atno 10764 bound_to 10752
  154.4416  135.2850  155.1821 H   0  0  0  0  0  0  0  0  0  0  0  0  # atno 10765 bound_to 10752
  140.9906  134.0544  157.3659 H   0  0  0  0  0  0  0  0  0  0  0  0  # atno 11005 bound_to 11000
  146.1820  140.6482  142.9185 LP  0  0  0  0  0  0  0  0  0  0  0  0  # atno 17320 bound_to 7965
  144.7462  140.5073  143.6834 LP  0  0  0  0  0  0  0  0  0  0  0  0  # atno 17321 bound_to 7965
  140.6726  143.2292  151.5586 LP  0  0  0  0  0  0  0  0  0  0  0  0  # atno 17342 bound_to 10162
  139.5445  144.2559  152.1415 LP  0  0  0  0  0  0  0  0  0  0  0  0  # atno 17343 bound_to 10162
  156.1225  130.3645  149.9864 LP  0  0  0  0  0  0  0  0  0  0  0  0  # atno 17370 bound_to 10713
  156.7941  130.9267  151.3646 LP  0  0  0  0  0  0  0  0  0  0  0  0  # atno 17371 bound_to 10713
  139.8990  135.0157  156.7177 LP  0  0  0  0  0  0  0  0  0  0  0  0  # atno 17394 bound_to 11000
  140.7046  133.9276  155.8046 LP  0  0  0  0  0  0  0  0  0  0  0  0  # atno 17395 bound_to 11000

$$$$
