AV-unprocessed.smi:1692|AV-procd|sdf|6780|dock3
  -GOLD-   22720 7543D 1   1.00000     0.00000
 Structure written by MMmdl.
 46 47  0  0  0  0  0  0  0  0  2 V2000
  152.3386  137.8694  155.1273 C   0  0  0  0  0  0  0  0  0  0  0  0
  151.0257  138.6598  155.1501 C   0  0  2  0  0  0  0  0  0  0  0  0
  150.3438  138.6920  153.7670 C   0  0  0  0  0  0  0  0  0  0  0  0
  149.1192  139.5288  153.7901 N   0  3  1  0  0  0  0  0  0  0  0  0
  147.9520  138.8565  154.4210 C   0  0  0  0  0  0  0  0  0  0  0  0
  146.6223  139.2302  153.7447 C   0  0  0  0  0  0  0  0  0  0  0  0
  146.6643  139.0165  152.2225 C   0  0  0  0  0  0  0  0  0  0  0  0
  146.7704  137.6030  151.8795 N   0  0  0  0  0  0  0  0  0  0  0  0
  145.7487  136.7343  151.8792 C   0  0  0  0  0  0  0  0  0  0  0  0
  144.5931  137.0493  152.1658 O   0  0  0  0  0  0  0  0  0  0  0  0
  146.1563  135.5019  151.5281 N   0  0  0  0  0  0  0  0  0  0  0  0
  145.3770  134.3205  151.4063 C   0  0  0  0  0  0  0  0  0  0  0  0
  146.1196  133.1247  151.2819 C   0  0  0  0  0  0  0  0  0  0  0  0
  145.4409  131.8972  151.1555 C   0  0  0  0  0  0  0  0  0  0  0  0
  144.0348  131.8972  151.1563 C   0  0  0  0  0  0  0  0  0  0  0  0
  143.3718  133.1317  151.2838 C   0  0  0  0  0  0  0  0  0  0  0  0
  144.0204  134.3095  151.4049 N   0  0  0  0  0  0  0  0  0  0  0  0
  149.4279  140.8793  154.3265 C   0  0  0  0  0  0  0  0  0  0  0  0
  150.1542  140.8005  155.6869 C   0  0  2  0  0  0  0  0  0  0  0  0
  150.5890  142.1825  156.1865 C   0  0  0  0  0  0  0  0  0  0  0  0
  151.3197  139.9943  155.5493 O   0  0  0  0  0  0  0  0  0  0  0  0
  152.1676  136.8323  154.8367 H   0  0  0  0  0  0  0  0  0  0  0  0
  152.8074  137.8648  156.1117 H   0  0  0  0  0  0  0  0  0  0  0  0
  153.0491  138.3022  154.4225 H   0  0  0  0  0  0  0  0  0  0  0  0
  150.3629  138.2012  155.8855 H   0  0  0  0  0  0  0  0  0  0  0  0
  151.0309  139.1154  153.0327 H   0  0  0  0  0  0  0  0  0  0  0  0
  150.1123  137.6838  153.4211 H   0  0  0  0  0  0  0  0  0  0  0  0
  148.0778  137.7766  154.3328 H   0  0  0  0  0  0  0  0  0  0  0  0
  147.9107  139.0708  155.4889 H   0  0  0  0  0  0  0  0  0  0  0  0
  145.8093  138.6386  154.1640 H   0  0  0  0  0  0  0  0  0  0  0  0
  146.3865  140.2738  153.9576 H   0  0  0  0  0  0  0  0  0  0  0  0
  145.7547  139.4078  151.7661 H   0  0  0  0  0  0  0  0  0  0  0  0
  147.4954  139.5693  151.7811 H   0  0  0  0  0  0  0  0  0  0  0  0
  147.6877  137.2605  151.6330 H   0  0  0  0  0  0  0  0  0  0  0  0
  147.1391  135.3947  151.3255 H   0  0  0  0  0  0  0  0  0  0  0  0
  147.1997  133.1422  151.2838 H   0  0  0  0  0  0  0  0  0  0  0  0
  145.9906  130.9726  151.0598 H   0  0  0  0  0  0  0  0  0  0  0  0
  143.4790  130.9761  151.0616 H   0  0  0  0  0  0  0  0  0  0  0  0
  142.2929  133.1756  151.2886 H   0  0  0  0  0  0  0  0  0  0  0  0
  150.0708  141.3854  153.6048 H   0  0  0  0  0  0  0  0  0  0  0  0
  148.5284  141.4882  154.4045 H   0  0  0  0  0  0  0  0  0  0  0  0
  149.5009  140.3594  156.4407 H   0  0  0  0  0  0  0  0  0  0  0  0
  149.7293  142.8395  156.3205 H   0  0  0  0  0  0  0  0  0  0  0  0
  151.2705  142.6612  155.4826 H   0  0  0  0  0  0  0  0  0  0  0  0
  151.1011  142.1069  157.1460 H   0  0  0  0  0  0  0  0  0  0  0  0
  148.8562  139.6566  152.8233 H   0  0  0  0  0  0  0  0  0  0  0  0
  1  2  1  0  0  0  0
  1 22  1  0  0  0  0
  1 23  1  0  0  0  0
  1 24  1  0  0  0  0
  2 21  1  0  0  0  0
  2  3  1  0  0  0  0
  2 25  1  0  0  0  0
  3  4  1  0  0  0  0
  3 26  1  0  0  0  0
  3 27  1  0  0  0  0
  4  5  1  0  0  0  0
  4 18  1  0  0  0  0
  4 46  1  0  0  0  0
  5  6  1  0  0  0  0
  5 28  1  0  0  0  0
  5 29  1  0  0  0  0
  6  7  1  0  0  0  0
  6 30  1  0  0  0  0
  6 31  1  0  0  0  0
  7  8  1  0  0  0  0
  7 32  1  0  0  0  0
  7 33  1  0  0  0  0
  8  9  1  0  0  0  0
  8 34  1  0  0  0  0
  9 10  2  0  0  0  0
  9 11  1  0  0  0  0
 11 12  1  0  0  0  0
 11 35  1  0  0  0  0
 12 17  1  0  0  0  0
 12 13  2  0  0  0  0
 13 14  1  0  0  0  0
 13 36  1  0  0  0  0
 14 15  2  0  0  0  0
 14 37  1  0  0  0  0
 15 16  1  0  0  0  0
 15 38  1  0  0  0  0
 16 17  2  0  0  0  0
 16 39  1  0  0  0  0
 18 19  1  0  0  0  0
 18 40  1  0  0  0  0
 18 41  1  0  0  0  0
 19 20  1  0  0  0  0
 19 21  1  0  0  0  0
 19 42  1  0  0  0  0
 20 43  1  0  0  0  0
 20 44  1  0  0  0  0
 20 45  1  0  0  0  0
M  CHG  1   4   1
M  END
> <s_m_source_file>
AV-unprocessed.smi

> <i_m_source_file_index>
1692

> <i_lp_mmshare_version>
43012

> <i_f3d_flags>
0

> <s_epik_input>
W0NIM11bQ0BASF0xW0NIMl1OKFtDSDJdW0NASF0oTzEpW0NIM10pW0NIMl1bQ0gyXVtDSDJdW05IXUMoPU8pW05IXWMyW2NIXVtjSF1bY0hdW2NIXW4y

> <s_epik_cmdline>
J2VwaWtfcHl0aG9uJywgJy1waCcsICc3LjAnLCAnLXRuJywgJzgnLCAnLW1hJywgJzIwMCcsICctbWV0YWxfYmluZGluZycsICctaW1hZScsICc8aW5maWxlLm1hZT4nLCAnLW9tYWUnLCAnPG91dGZpbGUubWFlPic=

> <r_epik_Ionization_Penalty>
0.270538

> <r_epik_Ionization_Penalty_Charging>
0.270496

> <r_epik_Ionization_Penalty_Neutral>
4.22978e-05

> <r_epik_State_Penalty>
0.262618

> <r_epik_Charging_Adjusted_Penalty>
0.533114

> <i_epik_Tot_Q>
1

> <i_epik_Tot_abs_Q>
1

> <r_epik_Metal_State_Penalty>
0.262618

> <b_epik_Metal_Only>
0

> <s_lp_Force_Field>
OPLS_2005

> <r_lp_Energy>
18.3

> <b_lp_Chiralities_Consistent>
1

> <s_lp_Variant>
AV-unprocessed.smi:1692-3

> <Gold.Version>
5.8.1

> <Gold.Id.Protein>
6NUR|6NUR_protein|mol2

> <Gold.PLP.Fitness>
46.6485

> <Gold.PLP.PLP>
-36.4994

> <Gold.PLP.part.hbond>
-3.0178

> <Gold.PLP.part.metal>
0.0000

> <Gold.PLP.part.buried>
-1.7804

> <Gold.PLP.part.nonpolar>
-32.9871

> <Gold.PLP.part.repulsive>
2.1091

> <Gold.PLP.ligand.clash>
0.0000

> <Gold.PLP.ligand.torsion>
0.5926

> <Gold.PLP.Chemscore.Hbond>
2.7730

> <Gold.PLP.Chemscore.CHOScore>
0.9744

> <Gold.PLP.Chemscore.Metal>
0.0000

> <Gold.Chemscore.Hbonds>
donor molecule, donor type, donor heavy atom, donor atom, acceptor molecule, acceptor atom, score
      L1  H     4    46       P1  7957  0.83
      L1  H     8    34       P1  7948  1.00
      L1  H    11    35       P1  7948  0.82
      P1  H  7989  7998       L1    21  0.18
      L1  C    16    39       P1 10186  0.86

> <Gold.PLP.Chemscore.Internal.Correction>
0.0921

> <Gold.Rescore>
     Score         DG    S(hbond)    S(metal)    S(lipo)     H(rot)  DE(clash)    DE(int)     intcor
     17.89     -19.92       2.51        0.00      90.83       1.78       0.31       1.73       ----

> <Gold.Chemscore.Fitness>
17.8894

> <Gold.Chemscore.DG>
-19.9243

> <Gold.Chemscore.ZeroCoef>
-5.4800

> <Gold.Chemscore.Hbond>
2.5083

> <Gold.Chemscore.Metal>
0.0000

> <Gold.Chemscore.Lipo>
90.8267

> <Gold.Chemscore.Internal_Hbond>
0.0000

> <Gold.Chemscore.DEClash>
0.3062

> <Gold.Chemscore.DEInternal>
1.7287

> <Gold.Chemscore.Rot>
1.7814

> <Gold.Chemscore.Internal.Correction>
   9.000000E+99

> <Gold.Chemscore.Hbonds>
donor molecule, donor type, donor heavy atom, donor atom, acceptor molecule, acceptor atom, score
      L1  H     4    46       P1  7957  0.81
      L1  H     8    34       P1  7948  0.96
      L1  H    11    35       P1  7948  0.70

> <Gold.Chemscore.Hbond.Weighted>
-8.3778

> <Gold.Chemscore.Metal.Weighted>
-0.0000

> <Gold.Chemscore.Lipo.Weighted>
-10.6267

> <Gold.Chemscore.Internal_Hbond.Weighted>
0.0000

> <Gold.Chemscore.DEClash.Weighted>
0.3062

> <Gold.Chemscore.DEInternal.Weighted>
1.7287

> <Gold.Chemscore.Rot.Weighted>
4.5603

> <Gold.Chemscore.Internal.Correction.Weighted>
   9.000000E+99

> <Gold.Protein.RotatedTorsions>
[ 6907 6896 6895 6894 ] final -144.77 input  -60.11 | X-H torsion
[ 7974 7965 7964 7962 ] final  -22.53 input  175.53 | X-H torsion
[ 8008 7997 7996 7995 ] final -109.10 input   59.86 | X-H torsion
[ 10167 10162 10161 10158 ] final -154.57 input  -65.29 | X-H torsion
[ 10718 10713 10712 10709 ] final -121.91 input   66.30 | X-H torsion
[ 10763 10752 10751 10750 ] final   88.73 input  -60.55 | X-H torsion
[ 11005 11000 10999 10996 ] final  -98.12 input  -57.11 | X-H torsion

> <Gold.Protein.ActiveResidues>
 VAL166  LYS551  ARG553  GLY616  TRP617  ASP618  TYR619  PRO620  LYS621  CYS622 
 ASP623  PHE694  ASN695  SER759  ASP760  ASP761  ALA762  ILE779  LEU786  VAL792 
 PHE793  MET794  SER795  GLU796  ALA797  LYS798  CYS799  TRP800  GLU811  SER814 

> <Gold.Protein.RotatedAtoms>
  151.1185  133.5121  159.2602 H   0  0  0  0  0  0  0  0  0  0  0  0  # atno 6907 bound_to 6896
  151.1887  135.0393  159.8833 H   0  0  0  0  0  0  0  0  0  0  0  0  # atno 6908 bound_to 6896
  152.5454  134.1028  159.8378 H   0  0  0  0  0  0  0  0  0  0  0  0  # atno 6909 bound_to 6896
  146.1670  140.4492  142.8548 H   0  0  0  0  0  0  0  0  0  0  0  0  # atno 7974 bound_to 7965
  154.9542  140.0400  157.2159 H   0  0  0  0  0  0  0  0  0  0  0  0  # atno 8008 bound_to 7997
  154.7950  140.2842  155.5941 H   0  0  0  0  0  0  0  0  0  0  0  0  # atno 8009 bound_to 7997
  156.2954  140.2566  156.2806 H   0  0  0  0  0  0  0  0  0  0  0  0  # atno 8010 bound_to 7997
  139.7002  143.9275  152.2425 H   0  0  0  0  0  0  0  0  0  0  0  0  # atno 10167 bound_to 10162
  156.1376  130.6442  150.9720 H   0  0  0  0  0  0  0  0  0  0  0  0  # atno 10718 bound_to 10713
  153.1798  135.4496  155.0013 H   0  0  0  0  0  0  0  0  0  0  0  0  # atno 10763 bound_to 10752
  154.8022  135.3260  154.7523 H   0  0  0  0  0  0  0  0  0  0  0  0  # atno 10764 bound_to 10752
  153.7989  135.6964  153.4914 H   0  0  0  0  0  0  0  0  0  0  0  0  # atno 10765 bound_to 10752
  141.1356  133.8221  157.0797 H   0  0  0  0  0  0  0  0  0  0  0  0  # atno 11005 bound_to 11000
  144.8107  140.6380  143.6417 LP  0  0  0  0  0  0  0  0  0  0  0  0  # atno 17320 bound_to 7965
  145.4441  139.1532  143.3954 LP  0  0  0  0  0  0  0  0  0  0  0  0  # atno 17321 bound_to 7965
  139.9116  144.6853  150.8556 LP  0  0  0  0  0  0  0  0  0  0  0  0  # atno 17342 bound_to 10162
  140.7707  143.3439  151.2150 LP  0  0  0  0  0  0  0  0  0  0  0  0  # atno 17343 bound_to 10162
  157.6546  131.0891  150.7976 LP  0  0  0  0  0  0  0  0  0  0  0  0  # atno 17370 bound_to 10713
  156.8054  130.4935  149.5363 LP  0  0  0  0  0  0  0  0  0  0  0  0  # atno 17371 bound_to 10713
  140.0459  134.9830  157.1048 LP  0  0  0  0  0  0  0  0  0  0  0  0  # atno 17394 bound_to 11000
  140.4063  134.2028  155.7163 LP  0  0  0  0  0  0  0  0  0  0  0  0  # atno 17395 bound_to 11000

$$$$
