#       Name:                AV-unprocessed.smi:1762
#       Creating user name   scv26
#       Creation time:       Fri Mar 27 08:33:25 2020


#       File generated by GOLD software.
#

@<TRIPOS>MOLECULE
AV-unprocessed.smi:1762
    58    59     1
SMALL
NO_CHARGES


@<TRIPOS>ATOM
      1 ****        -3.4579  -3.1197  -2.3182 C.3            1 S1                 0.0000
      2 ****        -3.7230  -1.6194  -2.0996 C.3            1 S1                 0.0000
      3 ****        -3.3445  -1.1316  -0.6870 C.3            1 S1                 0.0000
      4 ****        -1.8955  -1.0268  -0.4726 N.3            1 S1                 0.0000
      5 ****        -1.5433  -0.5854   0.9065 C.3            1 S1                 0.0000
      6 ****        -0.0350  -0.2915   1.0846 C.2            1 S1                 0.0000
      7 ****         0.8011  -1.1727   0.8822 O.2            1 S1                 0.0000
      8 ****         0.2972   0.9621   1.4320 N.am           1 S1                 0.0000
      9 ****         1.6608   1.4439   1.6124 C.3            1 S1                 0.0000
     10 ****         2.3369   1.7400   0.2628 C.3            1 S1                 0.0000
     11 ****         3.7566   2.2445   0.4305 C.ar           1 S1                 0.0000
     12 ****         4.8760   1.3971   0.2826 C.ar           1 S1                 0.0000
     13 ****         6.1707   1.9290   0.4578 C.ar           1 S1                 0.0000
     14 ****         6.3184   3.2943   0.7787 C.ar           1 S1                 0.0000
     15 ****         5.1660   4.0946   0.9165 C.ar           1 S1                 0.0000
     16 ****         3.9427   3.5482   0.7403 N.pl3          1 S1                 1.0000
     17 ****        -2.0669  -1.5143   2.0535 C.3            1 S1                 0.0000
     18 ****        -1.7443  -0.9880   3.4668 C.3            1 S1                 0.0000
     19 ****        -1.6277  -2.9855   1.9161 C.3            1 S1                 0.0000
     20 ****        -1.3257  -0.1920  -1.5437 C.3            1 S1                 0.0000
     21 ****        -1.6721  -0.7101  -2.9515 C.3            1 S1                 0.0000
     22 ****        -1.1590   0.2225  -4.0546 C.3            1 S1                 0.0000
     23 ****        -3.0848  -0.8159  -3.0890 O.3            1 S1                 0.0000
     24 ****        -4.0553  -3.7220  -1.6335 H              1 S1                 0.0000
     25 ****        -2.4132  -3.3816  -2.1510 H              1 S1                 0.0000
     26 ****        -3.7198  -3.4170  -3.3337 H              1 S1                 0.0000
     27 ****        -4.7947  -1.4661  -2.2300 H              1 S1                 0.0000
     28 ****        -3.8093  -0.1597  -0.5129 H              1 S1                 0.0000
     29 ****        -3.7993  -1.8213   0.0210 H              1 S1                 0.0000
     30 ****        -2.0442   0.3731   1.0598 H              1 S1                 0.0000
     31 ****        -0.4488   1.6276   1.5752 H              1 S1                 0.0000
     32 ****         1.6221   2.3491   2.2190 H              1 S1                 0.0000
     33 ****         2.2408   0.7138   2.1797 H              1 S1                 0.0000
     34 ****         2.3541   0.8428  -0.3576 H              1 S1                 0.0000
     35 ****         1.7595   2.4827  -0.2899 H              1 S1                 0.0000
     36 ****         4.7461   0.3524   0.0386 H              1 S1                 0.0000
     37 ****         7.0399   1.2971   0.3476 H              1 S1                 0.0000
     38 ****         7.3013   3.7211   0.9166 H              1 S1                 0.0000
     39 ****         5.1856   5.1469   1.1600 H              1 S1                 0.0000
     40 ****        -3.1549  -1.5052   2.0155 H              1 S1                 0.0000
     41 ****        -0.6802  -1.0508   3.6962 H              1 S1                 0.0000
     42 ****        -2.2713  -1.5670   4.2257 H              1 S1                 0.0000
     43 ****        -2.0515   0.0521   3.5796 H              1 S1                 0.0000
     44 ****        -0.5523  -3.1038   2.0455 H              1 S1                 0.0000
     45 ****        -1.8936  -3.3947   0.9415 H              1 S1                 0.0000
     46 ****        -2.1141  -3.6061   2.6690 H              1 S1                 0.0000
     47 ****        -1.6761   0.8358  -1.4335 H              1 S1                 0.0000
     48 ****        -0.2384  -0.1575  -1.4877 H              1 S1                 0.0000
     49 ****        -1.2182  -1.6905  -3.0988 H              1 S1                 0.0000
     50 ****        -0.0752   0.3309  -4.0056 H              1 S1                 0.0000
     51 ****        -1.5998   1.2161  -3.9690 H              1 S1                 0.0000
     52 ****        -1.4086  -0.1686  -5.0410 H              1 S1                 0.0000
     53 ****         3.1225   4.1459   0.8448 H              1 S1                 0.0000
     54 ****        -1.4790  -1.9340  -0.5323 LP             1 S1                 0.0000
     55 ****         0.5068  -2.0860   0.6006 LP             1 S1                 0.0000
     56 ****         1.7743  -0.9750   0.9995 LP             1 S1                 0.0000
     57 ****        -3.4720   0.1048  -3.0393 LP             1 S1                 0.0000
     58 ****        -3.2813  -1.2122  -3.9858 LP             1 S1                 0.0000
@<TRIPOS>BOND
    1    1    2 1     
    2    1   24 1     
    3    1   25 1     
    4    1   26 1     
    5    2   23 1     
    6    2    3 1     
    7    2   27 1     
    8    3    4 1     
    9    3   28 1     
   10    3   29 1     
   11    4    5 1     
   12    4   20 1     
   13    5    6 1     
   14    5   17 1     
   15    5   30 1     
   16    6    7 2     
   17    6    8 am    
   18    8    9 1     
   19    8   31 1     
   20    9   10 1     
   21    9   32 1     
   22    9   33 1     
   23   10   11 1     
   24   10   34 1     
   25   10   35 1     
   26   11   16 ar    
   27   11   12 ar    
   28   12   13 ar    
   29   12   36 1     
   30   13   14 ar    
   31   13   37 1     
   32   14   15 ar    
   33   14   38 1     
   34   15   16 ar    
   35   15   39 1     
   36   16   53 1     
   37   17   18 1     
   38   17   19 1     
   39   17   40 1     
   40   18   41 1     
   41   18   42 1     
   42   18   43 1     
   43   19   44 1     
   44   19   45 1     
   45   19   46 1     
   46   20   21 1     
   47   20   47 1     
   48   20   48 1     
   49   21   22 1     
   50   21   23 1     
   51   21   49 1     
   52   22   50 1     
   53   22   51 1     
   54   22   52 1     
   55    4   54 1     
   56    7   55 1     
   57    7   56 1     
   58   23   57 1     
   59   23   58 1     
@<TRIPOS>SUBSTRUCTURE
      1 S1             1
@<TRIPOS>SET
LONE_PAIRS      STATIC     ATOMS    <user>   **** ""
5 54 55 56 57 58
DONOR_HYDROGENS      STATIC     ATOMS    <user>   **** ""
2 31 53
ATOM$BLUE        STATIC     ATOMS    COLORGROUP SYSTEM
5 54 55 56 57 58
ATOM$RED        STATIC     ATOMS    COLORGROUP SYSTEM
2 31 53
