AV-unprocessed.smi:1445|AV-procd|sdf|5886|dock6
  -GOLD-   22720 5563D 1   1.00000     0.00000
 Structure written by MMmdl.
 46 47  0  0  0  0  0  0  0  0  2 V2000
  152.6792  138.1169  154.9567 C   0  0  0  0  0  0  0  0  0  0  0  0
  151.3768  138.4539  154.4912 O   0  0  0  0  0  0  0  0  0  0  0  0
  150.8008  139.6281  154.9376 C   0  0  0  0  0  0  0  0  0  0  0  0
  151.5070  140.4097  155.7927 N   0  0  0  0  0  0  0  0  0  0  0  0
  150.9445  141.5547  156.2311 C   0  0  0  0  0  0  0  0  0  0  0  0
  149.6569  141.9753  155.8510 C   0  0  0  0  0  0  0  0  0  0  0  0
  148.9224  141.1667  154.9642 C   0  0  0  0  0  0  0  0  0  0  0  0
  149.5064  139.9707  154.4813 C   0  0  0  0  0  0  0  0  0  0  0  0
  148.8424  139.0772  153.5964 N   0  0  0  0  0  0  0  0  0  0  0  0
  147.5304  139.0126  153.3147 C   0  0  0  0  0  0  0  0  0  0  0  0
  146.6620  139.7402  153.7966 O   0  0  0  0  0  0  0  0  0  0  0  0
  147.2708  138.0604  152.4071 N   0  0  0  0  0  0  0  0  0  0  0  0
  145.9456  137.7654  151.8743 C   0  0  0  0  0  0  0  0  0  0  0  0
  145.3281  136.5308  152.5593 C   0  0  0  0  0  0  0  0  0  0  0  0
  146.0376  135.2759  152.2067 N   0  3  2  0  0  0  0  0  0  0  0  0
  145.5918  134.7258  150.9005 C   0  0  0  0  0  0  0  0  0  0  0  0
  146.4416  133.5129  150.4901 C   0  0  0  0  0  0  0  0  0  0  0  0
  146.4170  132.4306  151.5784 C   0  0  0  0  0  0  0  0  0  0  0  0
  146.8193  133.0068  152.9486 C   0  0  1  0  0  0  0  0  0  0  0  0
  148.3283  133.2857  153.0593 C   0  0  0  0  0  0  0  0  0  0  0  0
  145.9700  134.2502  153.2838 C   0  0  0  0  0  0  0  0  0  0  0  0
  152.9868  137.1698  154.5138 H   0  0  0  0  0  0  0  0  0  0  0  0
  152.6972  137.9959  156.0407 H   0  0  0  0  0  0  0  0  0  0  0  0
  153.4133  138.8706  154.6678 H   0  0  0  0  0  0  0  0  0  0  0  0
  151.5361  142.1498  156.9110 H   0  0  0  0  0  0  0  0  0  0  0  0
  149.2402  142.8946  156.2353 H   0  0  0  0  0  0  0  0  0  0  0  0
  147.9254  141.4694  154.6842 H   0  0  0  0  0  0  0  0  0  0  0  0
  149.4476  138.4782  153.0539 H   0  0  0  0  0  0  0  0  0  0  0  0
  148.0404  137.5065  152.0599 H   0  0  0  0  0  0  0  0  0  0  0  0
  145.3110  138.6367  152.0388 H   0  0  0  0  0  0  0  0  0  0  0  0
  146.0151  137.6350  150.7940 H   0  0  0  0  0  0  0  0  0  0  0  0
  145.3104  136.6458  153.6444 H   0  0  0  0  0  0  0  0  0  0  0  0
  144.2863  136.4606  152.2431 H   0  0  0  0  0  0  0  0  0  0  0  0
  144.5387  134.4463  150.9617 H   0  0  0  0  0  0  0  0  0  0  0  0
  145.6725  135.4924  150.1288 H   0  0  0  0  0  0  0  0  0  0  0  0
  146.0704  133.1013  149.5511 H   0  0  0  0  0  0  0  0  0  0  0  0
  147.4679  133.8285  150.2996 H   0  0  0  0  0  0  0  0  0  0  0  0
  145.4098  132.0174  151.6450 H   0  0  0  0  0  0  0  0  0  0  0  0
  147.0694  131.6009  151.3039 H   0  0  0  0  0  0  0  0  0  0  0  0
  146.5936  132.2465  153.6976 H   0  0  0  0  0  0  0  0  0  0  0  0
  148.6528  134.0593  152.3637 H   0  0  0  0  0  0  0  0  0  0  0  0
  148.9084  132.3866  152.8502 H   0  0  0  0  0  0  0  0  0  0  0  0
  148.5904  133.6165  154.0646 H   0  0  0  0  0  0  0  0  0  0  0  0
  146.3020  134.6676  154.2339 H   0  0  0  0  0  0  0  0  0  0  0  0
  144.9290  133.9551  153.4268 H   0  0  0  0  0  0  0  0  0  0  0  0
  147.0109  135.5196  152.0901 H   0  0  0  0  0  0  0  0  0  0  0  0
  1  2  1  0  0  0  0
  1 22  1  0  0  0  0
  1 23  1  0  0  0  0
  1 24  1  0  0  0  0
  2  3  1  0  0  0  0
  3  8  1  0  0  0  0
  3  4  2  0  0  0  0
  4  5  1  0  0  0  0
  5  6  2  0  0  0  0
  5 25  1  0  0  0  0
  6  7  1  0  0  0  0
  6 26  1  0  0  0  0
  7  8  2  0  0  0  0
  7 27  1  0  0  0  0
  8  9  1  0  0  0  0
  9 10  1  0  0  0  0
  9 28  1  0  0  0  0
 10 11  2  0  0  0  0
 10 12  1  0  0  0  0
 12 13  1  0  0  0  0
 12 29  1  0  0  0  0
 13 14  1  0  0  0  0
 13 30  1  0  0  0  0
 13 31  1  0  0  0  0
 14 15  1  0  0  0  0
 14 32  1  0  0  0  0
 14 33  1  0  0  0  0
 15 21  1  0  0  0  0
 15 16  1  0  0  0  0
 15 46  1  0  0  0  0
 16 17  1  0  0  0  0
 16 34  1  0  0  0  0
 16 35  1  0  0  0  0
 17 18  1  0  0  0  0
 17 36  1  0  0  0  0
 17 37  1  0  0  0  0
 18 19  1  0  0  0  0
 18 38  1  0  0  0  0
 18 39  1  0  0  0  0
 19 20  1  0  0  0  0
 19 21  1  0  0  0  0
 19 40  1  0  0  0  0
 20 41  1  0  0  0  0
 20 42  1  0  0  0  0
 20 43  1  0  0  0  0
 21 44  1  0  0  0  0
 21 45  1  0  0  0  0
M  CHG  1  15   1
M  END
> <s_m_source_file>
AV-unprocessed.smi

> <i_m_source_file_index>
1445

> <i_lp_mmshare_version>
43012

> <i_f3d_flags>
0

> <s_epik_input>
W0NIM11PYzFuW2NIXVtjSF1bY0hdYzFbTkhdQyg9TylbTkhdW0NIMl1bQ0gyXU4yW0NIMl1bQ0gyXVtDSDJdW0NAQEhdKFtDSDNdKVtDSDJdMg==

> <s_epik_cmdline>
J2VwaWtfcHl0aG9uJywgJy1waCcsICc3LjAnLCAnLXRuJywgJzgnLCAnLW1hJywgJzIwMCcsICctbWV0YWxfYmluZGluZycsICctaW1hZScsICc8aW5maWxlLm1hZT4nLCAnLW9tYWUnLCAnPG91dGZpbGUubWFlPic=

> <r_lp_tautomer_probability>
1

> <r_epik_Ionization_Penalty>
0.00179544

> <r_epik_Ionization_Penalty_Charging>
0.00171832

> <r_epik_Ionization_Penalty_Neutral>
7.71118e-05

> <r_epik_State_Penalty>
0.0011618

> <r_epik_Charging_Adjusted_Penalty>
0.00288012

> <i_epik_Tot_Q>
1

> <i_epik_Tot_abs_Q>
1

> <r_epik_Metal_State_Penalty>
-0

> <b_epik_Metal_Only>
0

> <s_lp_Force_Field>
OPLS_2005

> <r_lp_Energy>
21.8434

> <b_lp_Chiralities_Consistent>
1

> <s_lp_Variant>
AV-unprocessed.smi:1445-2

> <Gold.Version>
5.8.1

> <Gold.Id.Protein>
6NUR|6NUR_protein|mol2

> <Gold.PLP.Fitness>
43.4677

> <Gold.PLP.PLP>
-35.4526

> <Gold.PLP.part.hbond>
-4.1529

> <Gold.PLP.part.metal>
0.0000

> <Gold.PLP.part.buried>
3.4759

> <Gold.PLP.part.nonpolar>
-33.0110

> <Gold.PLP.part.repulsive>
0.4754

> <Gold.PLP.ligand.clash>
0.0000

> <Gold.PLP.ligand.torsion>
0.5169

> <Gold.PLP.Chemscore.Hbond>
3.0000

> <Gold.PLP.Chemscore.CHOScore>
0.0000

> <Gold.PLP.Chemscore.Metal>
0.0000

> <Gold.Chemscore.Hbonds>
donor molecule, donor type, donor heavy atom, donor atom, acceptor molecule, acceptor atom, score
      L1  H    12    29       P1  7948  1.00
      L1  H    15    46       P1  7948  1.89

> <Gold.PLP.Chemscore.Internal.Correction>
0.0487

> <Gold.Rescore>
     Score         DG    S(hbond)    S(metal)    S(lipo)     H(rot)  DE(clash)    DE(int)     intcor
     14.64     -16.77       1.92        0.00      79.00       1.71       0.54       1.59       ----

> <Gold.Chemscore.Fitness>
14.6434

> <Gold.Chemscore.DG>
-16.7680

> <Gold.Chemscore.ZeroCoef>
-5.4800

> <Gold.Chemscore.Hbond>
1.9233

> <Gold.Chemscore.Metal>
0.0000

> <Gold.Chemscore.Lipo>
79.0044

> <Gold.Chemscore.Internal_Hbond>
0.0000

> <Gold.Chemscore.DEClash>
0.5358

> <Gold.Chemscore.DEInternal>
1.5887

> <Gold.Chemscore.Rot>
1.7107

> <Gold.Chemscore.Internal.Correction>
   9.000000E+99

> <Gold.Chemscore.Hbonds>
donor molecule, donor type, donor heavy atom, donor atom, acceptor molecule, acceptor atom, score
      L1  H    12    29       P1  7948  0.96
      L1  H    15    46       P1  7948  0.90

> <Gold.Chemscore.Hbond.Weighted>
-6.4239

> <Gold.Chemscore.Metal.Weighted>
-0.0000

> <Gold.Chemscore.Lipo.Weighted>
-9.2435

> <Gold.Chemscore.Internal_Hbond.Weighted>
0.0000

> <Gold.Chemscore.DEClash.Weighted>
0.5358

> <Gold.Chemscore.DEInternal.Weighted>
1.5887

> <Gold.Chemscore.Rot.Weighted>
4.3794

> <Gold.Chemscore.Internal.Correction.Weighted>
   9.000000E+99

> <Gold.Protein.RotatedTorsions>
[ 6907 6896 6895 6894 ] final   38.10 input  -60.11 | X-H torsion
[ 7974 7965 7964 7962 ] final  -22.28 input  175.53 | X-H torsion
[ 8008 7997 7996 7995 ] final -136.07 input   59.86 | X-H torsion
[ 10167 10162 10161 10158 ] final   17.05 input  -65.29 | X-H torsion
[ 10718 10713 10712 10709 ] final  -11.39 input   66.30 | X-H torsion
[ 10763 10752 10751 10750 ] final  115.50 input  -60.55 | X-H torsion
[ 11005 11000 10999 10996 ] final   63.18 input  -57.11 | X-H torsion

> <Gold.Protein.ActiveResidues>
 VAL166  LYS551  ARG553  GLY616  TRP617  ASP618  TYR619  PRO620  LYS621  CYS622 
 ASP623  PHE694  ASN695  SER759  ASP760  ASP761  ALA762  ILE779  LEU786  VAL792 
 PHE793  MET794  SER795  GLU796  ALA797  LYS798  CYS799  TRP800  GLU811  SER814 

> <Gold.Protein.RotatedAtoms>
  152.1520  134.8981  160.0547 H   0  0  0  0  0  0  0  0  0  0  0  0  # atno 6907 bound_to 6896
  152.0009  133.3820  159.4189 H   0  0  0  0  0  0  0  0  0  0  0  0  # atno 6908 bound_to 6896
  150.6877  134.3757  159.5055 H   0  0  0  0  0  0  0  0  0  0  0  0  # atno 6909 bound_to 6896
  146.1684  140.4458  142.8542 H   0  0  0  0  0  0  0  0  0  0  0  0  # atno 7974 bound_to 7965
  155.3891  140.0499  157.3041 H   0  0  0  0  0  0  0  0  0  0  0  0  # atno 8008 bound_to 7997
  154.5045  140.2169  155.9241 H   0  0  0  0  0  0  0  0  0  0  0  0  # atno 8009 bound_to 7997
  156.1508  140.3136  155.8651 H   0  0  0  0  0  0  0  0  0  0  0  0  # atno 8010 bound_to 7997
  140.5754  143.9082  150.6746 H   0  0  0  0  0  0  0  0  0  0  0  0  # atno 10167 bound_to 10162
  156.6597  130.4978  149.6034 H   0  0  0  0  0  0  0  0  0  0  0  0  # atno 10718 bound_to 10713
  153.5231  135.3593  155.2641 H   0  0  0  0  0  0  0  0  0  0  0  0  # atno 10763 bound_to 10752
  154.8733  135.4050  154.3236 H   0  0  0  0  0  0  0  0  0  0  0  0  # atno 10764 bound_to 10752
  153.3911  135.7072  153.6561 H   0  0  0  0  0  0  0  0  0  0  0  0  # atno 10765 bound_to 10752
  140.0042  134.6395  155.9881 H   0  0  0  0  0  0  0  0  0  0  0  0  # atno 11005 bound_to 11000
  144.8127  140.6414  143.6405 LP  0  0  0  0  0  0  0  0  0  0  0  0  # atno 17320 bound_to 7965
  145.4405  139.1536  143.3973 LP  0  0  0  0  0  0  0  0  0  0  0  0  # atno 17321 bound_to 7965
  140.2568  143.3553  152.1357 LP  0  0  0  0  0  0  0  0  0  0  0  0  # atno 17342 bound_to 10162
  139.5140  144.6941  151.5680 LP  0  0  0  0  0  0  0  0  0  0  0  0  # atno 17343 bound_to 10162
  156.2020  130.6626  151.1178 LP  0  0  0  0  0  0  0  0  0  0  0  0  # atno 17370 bound_to 10713
  157.7114  131.0732  150.6488 LP  0  0  0  0  0  0  0  0  0  0  0  0  # atno 17371 bound_to 10713
  141.1665  133.6537  156.4497 LP  0  0  0  0  0  0  0  0  0  0  0  0  # atno 17394 bound_to 11000
  140.4671  134.6787  157.5112 LP  0  0  0  0  0  0  0  0  0  0  0  0  # atno 17395 bound_to 11000

$$$$
