AV-unprocessed.smi:3162|AV-procd|sdf|12069|dock8
  -GOLD-   2272017503D 1   1.00000     0.00000
 Structure written by MMmdl.
 36 36  0  0  0  0  0  0  0  0  1 V2000
  147.0506  142.3388  154.3199 C   0  0  0  0  0  0  0  0  0  0  0  0
  147.4426  140.9202  153.8765 C   0  0  0  0  0  0  0  0  0  0  0  0
  148.3923  140.1863  154.8494 C   0  0  2  0  0  0  0  0  0  0  0  0
  149.6330  140.9703  155.0026 N   0  0  0  0  0  0  0  0  0  0  0  0
  149.9145  141.4673  156.3483 C   0  0  1  0  0  0  0  0  0  0  0  0
  150.1623  140.2772  157.2949 C   0  0  0  0  0  0  0  0  0  0  0  0
  151.1306  142.4111  156.2499 C   0  0  0  0  0  0  0  0  0  0  0  0
  151.4793  143.0173  157.5224 N   0  0  0  0  0  0  0  0  0  0  0  0
  151.3209  144.3276  157.9212 C   0  0  0  0  0  0  0  0  0  0  0  0
  151.7870  144.4268  159.2018 C   0  0  0  0  0  0  0  0  0  0  0  0
  151.8437  145.6356  160.0906 C   0  0  0  0  0  0  0  0  0  0  0  0
  152.2126  143.1016  159.5023 C   0  0  0  0  0  0  0  0  0  0  0  0
  152.0251  142.2607  158.4982 N   0  0  0  0  0  0  0  0  0  0  0  0
  148.6529  138.7338  154.4086 C   0  0  0  0  0  0  0  0  0  0  0  0
  149.1770  138.5482  153.1943 N   0  0  0  0  0  0  0  0  0  0  0  0
  148.3677  137.7933  155.1477 O   0  0  0  0  0  0  0  0  0  0  0  0
  146.4447  142.8272  153.5564 H   0  0  0  0  0  0  0  0  0  0  0  0
  147.9330  142.9569  154.4872 H   0  0  0  0  0  0  0  0  0  0  0  0
  146.4674  142.3280  155.2407 H   0  0  0  0  0  0  0  0  0  0  0  0
  146.5397  140.3296  153.7145 H   0  0  0  0  0  0  0  0  0  0  0  0
  147.9260  140.9946  152.9015 H   0  0  0  0  0  0  0  0  0  0  0  0
  147.9004  140.1619  155.8239 H   0  0  0  0  0  0  0  0  0  0  0  0
  150.4375  140.4863  154.6298 H   0  0  0  0  0  0  0  0  0  0  0  0
  149.0716  142.0519  156.7198 H   0  0  0  0  0  0  0  0  0  0  0  0
  150.3401  140.6145  158.3162 H   0  0  0  0  0  0  0  0  0  0  0  0
  151.0312  139.6970  156.9827 H   0  0  0  0  0  0  0  0  0  0  0  0
  149.3085  139.6012  157.3287 H   0  0  0  0  0  0  0  0  0  0  0  0
  152.0026  141.8709  155.8778 H   0  0  0  0  0  0  0  0  0  0  0  0
  150.9331  143.2118  155.5351 H   0  0  0  0  0  0  0  0  0  0  0  0
  150.8961  145.0742  157.2663 H   0  0  0  0  0  0  0  0  0  0  0  0
  151.7213  145.3708  161.1411 H   0  0  0  0  0  0  0  0  0  0  0  0
  151.0601  146.3538  159.8483 H   0  0  0  0  0  0  0  0  0  0  0  0
  152.7971  146.1563  159.9990 H   0  0  0  0  0  0  0  0  0  0  0  0
  152.6483  142.7276  160.4171 H   0  0  0  0  0  0  0  0  0  0  0  0
  149.3675  137.6127  152.8655 H   0  0  0  0  0  0  0  0  0  0  0  0
  149.3839  139.3455  152.6104 H   0  0  0  0  0  0  0  0  0  0  0  0
  1  2  1  0  0  0  0
  1 17  1  0  0  0  0
  1 18  1  0  0  0  0
  1 19  1  0  0  0  0
  2  3  1  0  0  0  0
  2 20  1  0  0  0  0
  2 21  1  0  0  0  0
  3  4  1  0  0  0  0
  3 14  1  0  0  0  0
  3 22  1  0  0  0  0
  4  5  1  0  0  0  0
  4 23  1  0  0  0  0
  5  6  1  0  0  0  0
  5  7  1  0  0  0  0
  5 24  1  0  0  0  0
  6 25  1  0  0  0  0
  6 26  1  0  0  0  0
  6 27  1  0  0  0  0
  7  8  1  0  0  0  0
  7 28  1  0  0  0  0
  7 29  1  0  0  0  0
  8 13  1  0  0  0  0
  8  9  1  0  0  0  0
  9 10  2  0  0  0  0
  9 30  1  0  0  0  0
 10 11  1  0  0  0  0
 10 12  1  0  0  0  0
 11 31  1  0  0  0  0
 11 32  1  0  0  0  0
 11 33  1  0  0  0  0
 12 13  2  0  0  0  0
 12 34  1  0  0  0  0
 14 15  1  0  0  0  0
 14 16  2  0  0  0  0
 15 35  1  0  0  0  0
 15 36  1  0  0  0  0
M  END
> <s_m_source_file>
AV-unprocessed.smi

> <i_m_source_file_index>
3162

> <i_lp_mmshare_version>
43012

> <i_f3d_flags>
0

> <s_epik_input>
W0NIM11bQ0gyXVtDQEBIXShDKD1PKVtOSDJdKVtOSF1bQ0BIXShbQ0gzXSlbQ0gyXW4xW2NIXWMoW0NIM10pW2NIXW4x

> <s_epik_cmdline>
J2VwaWtfcHl0aG9uJywgJy1waCcsICc3LjAnLCAnLXRuJywgJzgnLCAnLW1hJywgJzIwMCcsICctbWV0YWxfYmluZGluZycsICctaW1hZScsICc8aW5maWxlLm1hZT4nLCAnLW9tYWUnLCAnPG91dGZpbGUubWFlPic=

> <r_lp_tautomer_probability>
1

> <r_epik_Ionization_Penalty>
1.04167

> <r_epik_Ionization_Penalty_Charging>
0

> <r_epik_Ionization_Penalty_Neutral>
1.04167

> <r_epik_State_Penalty>
1.09367

> <r_epik_Charging_Adjusted_Penalty>
1.09367

> <i_epik_Tot_Q>
0

> <i_epik_Tot_abs_Q>
0

> <r_epik_Metal_State_Penalty>
1.09362

> <b_epik_Metal_Only>
0

> <s_lp_Force_Field>
OPLS_2005

> <r_lp_Energy>
3.23366

> <b_lp_Chiralities_Consistent>
1

> <s_lp_Variant>
AV-unprocessed.smi:3162-7

> <Gold.Version>
5.8.1

> <Gold.Id.Protein>
6NUR|6NUR_protein|mol2

> <Gold.PLP.Fitness>
40.9782

> <Gold.PLP.PLP>
-33.9230

> <Gold.PLP.part.hbond>
-2.2352

> <Gold.PLP.part.metal>
0.0000

> <Gold.PLP.part.buried>
-5.8166

> <Gold.PLP.part.nonpolar>
-27.3324

> <Gold.PLP.part.repulsive>
0.1740

> <Gold.PLP.ligand.clash>
0.0000

> <Gold.PLP.ligand.torsion>
0.9166

> <Gold.PLP.Chemscore.Hbond>
1.9760

> <Gold.PLP.Chemscore.CHOScore>
0.9479

> <Gold.PLP.Chemscore.Metal>
0.0000

> <Gold.Chemscore.Hbonds>
donor molecule, donor type, donor heavy atom, donor atom, acceptor molecule, acceptor atom, score
      L1  H    15    35       P1  7948  1.00
      L1  H    15    36       P1  7957  1.00
      L1  C     9    30       P1  8028  0.90

> <Gold.PLP.Chemscore.Internal.Correction>
0.1166

> <Gold.Rescore>
     Score         DG    S(hbond)    S(metal)    S(lipo)     H(rot)  DE(clash)    DE(int)     intcor
     14.36     -15.56       1.94        0.00      84.06       2.43       0.01       1.19       ----

> <Gold.Chemscore.Fitness>
14.3599

> <Gold.Chemscore.DG>
-15.5572

> <Gold.Chemscore.ZeroCoef>
-5.4800

> <Gold.Chemscore.Hbond>
1.9370

> <Gold.Chemscore.Metal>
0.0000

> <Gold.Chemscore.Lipo>
84.0635

> <Gold.Chemscore.Internal_Hbond>
0.0000

> <Gold.Chemscore.DEClash>
0.0123

> <Gold.Chemscore.DEInternal>
1.1851

> <Gold.Chemscore.Rot>
2.4328

> <Gold.Chemscore.Internal.Correction>
   9.000000E+99

> <Gold.Chemscore.Hbonds>
donor molecule, donor type, donor heavy atom, donor atom, acceptor molecule, acceptor atom, score
      L1  H    15    35       P1  7948  0.86
      L1  H    15    36       P1  7957  0.95

> <Gold.Chemscore.Hbond.Weighted>
-6.4697

> <Gold.Chemscore.Metal.Weighted>
-0.0000

> <Gold.Chemscore.Lipo.Weighted>
-9.8354

> <Gold.Chemscore.Internal_Hbond.Weighted>
0.0000

> <Gold.Chemscore.DEClash.Weighted>
0.0123

> <Gold.Chemscore.DEInternal.Weighted>
1.1851

> <Gold.Chemscore.Rot.Weighted>
6.2279

> <Gold.Chemscore.Internal.Correction.Weighted>
   9.000000E+99

> <Gold.Protein.RotatedTorsions>
[ 6907 6896 6895 6894 ] final  130.58 input  -60.11 | X-H torsion
[ 7974 7965 7964 7962 ] final   82.07 input  175.53 | X-H torsion
[ 8008 7997 7996 7995 ] final  -28.60 input   59.86 | X-H torsion
[ 10167 10162 10161 10158 ] final  159.34 input  -65.29 | X-H torsion
[ 10718 10713 10712 10709 ] final   90.78 input   66.30 | X-H torsion
[ 10763 10752 10751 10750 ] final   68.17 input  -60.55 | X-H torsion
[ 11005 11000 10999 10996 ] final -142.69 input  -57.11 | X-H torsion

> <Gold.Protein.ActiveResidues>
 VAL166  LYS551  ARG553  GLY616  TRP617  ASP618  TYR619  PRO620  LYS621  CYS622 
 ASP623  PHE694  ASN695  SER759  ASP760  ASP761  ALA762  ILE779  LEU786  VAL792 
 PHE793  MET794  SER795  GLU796  ALA797  LYS798  CYS799  TRP800  GLU811  SER814 

> <Gold.Protein.RotatedAtoms>
  152.3512  133.6181  159.5945 H   0  0  0  0  0  0  0  0  0  0  0  0  # atno 6907 bound_to 6896
  150.7539  133.9572  159.3513 H   0  0  0  0  0  0  0  0  0  0  0  0  # atno 6908 bound_to 6896
  151.7423  135.0852  160.0369 H   0  0  0  0  0  0  0  0  0  0  0  0  # atno 6909 bound_to 6896
  145.6299  139.2402  143.2091 H   0  0  0  0  0  0  0  0  0  0  0  0  # atno 7974 bound_to 7965
  154.4325  140.1841  156.1116 H   0  0  0  0  0  0  0  0  0  0  0  0  # atno 8008 bound_to 7997
  156.0213  140.3340  155.7017 H   0  0  0  0  0  0  0  0  0  0  0  0  # atno 8009 bound_to 7997
  155.5971  140.0636  157.2734 H   0  0  0  0  0  0  0  0  0  0  0  0  # atno 8010 bound_to 7997
  139.4832  144.4739  151.8537 H   0  0  0  0  0  0  0  0  0  0  0  0  # atno 10167 bound_to 10162
  157.6959  131.0383  150.3629 H   0  0  0  0  0  0  0  0  0  0  0  0  # atno 10718 bound_to 10713
  153.0222  135.5257  154.7093 H   0  0  0  0  0  0  0  0  0  0  0  0  # atno 10763 bound_to 10752
  154.6180  135.2886  155.0360 H   0  0  0  0  0  0  0  0  0  0  0  0  # atno 10764 bound_to 10752
  154.1357  135.6586  153.4984 H   0  0  0  0  0  0  0  0  0  0  0  0  # atno 10765 bound_to 10752
  140.8199  134.2643  157.4904 H   0  0  0  0  0  0  0  0  0  0  0  0  # atno 11005 bound_to 11000
  146.1365  140.7115  142.9387 LP  0  0  0  0  0  0  0  0  0  0  0  0  # atno 17320 bound_to 7965
  144.7198  140.4334  143.7017 LP  0  0  0  0  0  0  0  0  0  0  0  0  # atno 17321 bound_to 7965
  140.4210  144.2243  150.5887 LP  0  0  0  0  0  0  0  0  0  0  0  0  # atno 17342 bound_to 10162
  140.4873  143.2359  151.8869 LP  0  0  0  0  0  0  0  0  0  0  0  0  # atno 17343 bound_to 10162
  156.4063  130.3925  149.6923 LP  0  0  0  0  0  0  0  0  0  0  0  0  # atno 17370 bound_to 10713
  156.4222  130.7774  151.2792 LP  0  0  0  0  0  0  0  0  0  0  0  0  # atno 17371 bound_to 10713
  139.8709  134.9530  156.4131 LP  0  0  0  0  0  0  0  0  0  0  0  0  # atno 17394 bound_to 11000
  140.9109  133.7712  155.9791 LP  0  0  0  0  0  0  0  0  0  0  0  0  # atno 17395 bound_to 11000

$$$$
