#       Name:                AV-unprocessed.smi:1701
#       Creating user name   scv26
#       Creation time:       Fri Mar 27 08:01:55 2020


#       File generated by GOLD software.
#

@<TRIPOS>MOLECULE
AV-unprocessed.smi:1701
    57    59     1
SMALL
NO_CHARGES


@<TRIPOS>ATOM
      1 ****        -6.4489  -2.9171  -0.4454 C.3            1 S1                 0.0000
      2 ****        -6.2952  -1.6808   0.4499 C.3            1 S1                 0.0000
      3 ****        -5.5361  -0.6185  -0.2046 N.pl3          1 S1                 0.0000
      4 ****        -6.2520   0.3765  -1.0019 C.3            1 S1                 0.0000
      5 ****        -6.7527   1.5508  -0.1506 C.3            1 S1                 0.0000
      6 ****        -4.1350  -0.5279  -0.0332 C.ar           1 S1                 0.0000
      7 ****        -3.3537  -1.5547   0.5531 C.ar           1 S1                 0.0000
      8 ****        -1.9607  -1.3876   0.6908 C.ar           1 S1                 0.0000
      9 ****        -1.3514  -0.1939   0.2548 C.ar           1 S1                 0.0000
     10 ****         0.0578  -0.0790   0.3939 N.am           1 S1                 0.0000
     11 ****         0.8241   1.0362   0.4769 C.2            1 S1                 0.0000
     12 ****         0.2759   2.1364   0.5049 O.2            1 S1                 0.0000
     13 ****         2.1843   0.9228   0.5566 N.pl3          1 S1                -1.0000
     14 ****         3.0242  -0.2897   0.5290 C.3            1 S1                 0.0000
     15 ****         3.5443  -0.5834   1.9496 C.3            1 S1                 0.0000
     16 ****         4.8987   0.1480   2.0670 C.3            1 S1                 0.0000
     17 ****         5.1450   0.7478   0.7401 N.4            1 S1                 1.0000
     18 ****         6.5556   0.9068   0.3217 C.3            1 S1                 0.0000
     19 ****         6.6107   1.6067  -1.0515 C.3            1 S1                 0.0000
     20 ****         5.7483   0.8784  -2.1027 C.3            1 S1                 0.0000
     21 ****         4.3061   0.6821  -1.5969 C.3            1 S1                 0.0000
     22 ****         4.3394  -0.0222  -0.2219 C.3            1 S1                 0.0000
     23 ****        -2.1683   0.7959  -0.3394 C.ar           1 S1                 0.0000
     24 ****        -3.4985   0.5930  -0.4533 N.pl3          1 S1                 1.0000
     25 ****        -7.0298  -3.6889   0.0597 H              1 S1                 0.0000
     26 ****        -5.4807  -3.3467  -0.7028 H              1 S1                 0.0000
     27 ****        -6.9635  -2.6708  -1.3747 H              1 S1                 0.0000
     28 ****        -7.2857  -1.2968   0.6963 H              1 S1                 0.0000
     29 ****        -5.8443  -1.9482   1.4052 H              1 S1                 0.0000
     30 ****        -5.6304   0.7380  -1.8216 H              1 S1                 0.0000
     31 ****        -7.1058  -0.1095  -1.4753 H              1 S1                 0.0000
     32 ****        -7.2950   2.2690  -0.7657 H              1 S1                 0.0000
     33 ****        -5.9248   2.0790   0.3235 H              1 S1                 0.0000
     34 ****        -7.4283   1.2117   0.6353 H              1 S1                 0.0000
     35 ****        -3.7956  -2.4785   0.8936 H              1 S1                 0.0000
     36 ****        -1.3662  -2.1736   1.1336 H              1 S1                 0.0000
     37 ****         0.5563  -0.9521   0.4847 H              1 S1                 0.0000
     38 ****         2.5111  -1.1557   0.1091 H              1 S1                 0.0000
     39 ****         2.8434  -0.2846   2.7307 H              1 S1                 0.0000
     40 ****         3.7051  -1.6562   2.0630 H              1 S1                 0.0000
     41 ****         4.8804   0.9277   2.8294 H              1 S1                 0.0000
     42 ****         5.6891  -0.5583   2.3268 H              1 S1                 0.0000
     43 ****         7.0925   1.4949   1.0666 H              1 S1                 0.0000
     44 ****         7.0388  -0.0701   0.2707 H              1 S1                 0.0000
     45 ****         6.2571   2.6334  -0.9466 H              1 S1                 0.0000
     46 ****         7.6432   1.6708  -1.3961 H              1 S1                 0.0000
     47 ****         5.7443   1.4387  -3.0379 H              1 S1                 0.0000
     48 ****         6.1909  -0.0932  -2.3257 H              1 S1                 0.0000
     49 ****         3.8200   1.6573  -1.5302 H              1 S1                 0.0000
     50 ****         3.7368   0.0965  -2.3204 H              1 S1                 0.0000
     51 ****         4.8291  -0.9891  -0.3596 H              1 S1                 0.0000
     52 ****        -1.8146   1.7343  -0.7393 H              1 S1                 0.0000
     53 ****         4.7244   1.6663   0.7651 H              1 S1                 0.0000
     54 ****        -4.0572   1.3304  -0.8827 H              1 S1                 0.0000
     55 ****        -0.7214   2.1992   0.4666 LP             1 S1                 0.0000
     56 ****         0.8273   2.9683   0.5660 LP             1 S1                 0.0000
     57 ****         2.6812   1.7858   0.6465 LP             1 S1                 0.0000
@<TRIPOS>BOND
    1    1    2 1     
    2    1   25 1     
    3    1   26 1     
    4    1   27 1     
    5    2    3 1     
    6    2   28 1     
    7    2   29 1     
    8    3    4 1     
    9    3    6 1     
   10    4    5 1     
   11    4   30 1     
   12    4   31 1     
   13    5   32 1     
   14    5   33 1     
   15    5   34 1     
   16    6   24 ar    
   17    6    7 ar    
   18    7    8 ar    
   19    7   35 1     
   20    8    9 ar    
   21    8   36 1     
   22    9   10 1     
   23    9   23 ar    
   24   10   11 am    
   25   10   37 1     
   26   11   12 2     
   27   11   13 1     
   28   13   14 1     
   29   14   22 1     
   30   14   15 1     
   31   14   38 1     
   32   15   16 1     
   33   15   39 1     
   34   15   40 1     
   35   16   17 1     
   36   16   41 1     
   37   16   42 1     
   38   17   22 1     
   39   17   18 1     
   40   17   53 1     
   41   18   19 1     
   42   18   43 1     
   43   18   44 1     
   44   19   20 1     
   45   19   45 1     
   46   19   46 1     
   47   20   21 1     
   48   20   47 1     
   49   20   48 1     
   50   21   22 1     
   51   21   49 1     
   52   21   50 1     
   53   22   51 1     
   54   23   24 ar    
   55   23   52 1     
   56   24   54 1     
   57   12   55 1     
   58   12   56 1     
   59   13   57 1     
@<TRIPOS>SUBSTRUCTURE
      1 S1             1
@<TRIPOS>SET
LONE_PAIRS      STATIC     ATOMS    <user>   **** ""
3 55 56 57
DONOR_HYDROGENS      STATIC     ATOMS    <user>   **** ""
3 37 53 54
ATOM$BLUE        STATIC     ATOMS    COLORGROUP SYSTEM
3 55 56 57
ATOM$RED        STATIC     ATOMS    COLORGROUP SYSTEM
3 37 53 54
