#       Name:                AV-unprocessed.smi:66
#       Creating user name   scv26
#       Creation time:       Thu Mar 26 16:52:07 2020


#       File generated by GOLD software.
#

@<TRIPOS>MOLECULE
AV-unprocessed.smi:66
    37    39     1
SMALL
NO_CHARGES


@<TRIPOS>ATOM
      1 ****        -2.1341   1.7976   2.5327 O.co2          1 S1                 0.0000
      2 ****        -1.6819   0.6695   2.2379 C.2            1 S1                 0.0000
      3 ****        -2.3009  -0.4112   2.3618 O.co2          1 S1                -1.0000
      4 ****        -0.2442   0.6197   1.6946 C.3            1 S1                 0.0000
      5 ****         0.7008  -0.1780   2.6097 C.3            1 S1                 0.0000
      6 ****         0.7265  -1.5698   1.9797 C.3            1 S1                 0.0000
      7 ****         1.9028  -2.2848   2.2964 O.3            1 S1                 0.0000
      8 ****         0.6070  -1.2758   0.4833 C.3            1 S1                 0.0000
      9 ****        -0.1837  -0.0554   0.3948 N.pl3          1 S1                 0.0000
     10 ****        -0.3929   0.6409  -0.8207 C.ar           1 S1                 0.0000
     11 ****        -0.8818   1.9053  -0.7351 N.ar           1 S1                 0.0000
     12 ****        -1.0908   2.5837  -1.8673 C.ar           1 S1                 0.0000
     13 ****        -0.8652   2.1571  -3.1119 N.ar           1 S1                 0.0000
     14 ****        -0.3801   0.9042  -3.2221 C.ar           1 S1                 0.0000
     15 ****        -0.0522   0.1757  -4.2770 N.pl3          1 S1                -1.0000
     16 ****         0.3815  -1.0249  -3.8188 C.2            1 S1                 0.0000
     17 ****         0.3570  -1.1272  -2.4751 N.2            1 S1                 0.0000
     18 ****        -0.1251   0.0993  -2.1096 C.ar           1 S1                 0.0000
     19 ****         0.1323   1.6404   1.6128 H              1 S1                 0.0000
     20 ****         1.6948   0.2701   2.5707 H              1 S1                 0.0000
     21 ****         0.3909  -0.1959   3.6556 H              1 S1                 0.0000
     22 ****        -0.1413  -2.1401   2.3138 H              1 S1                 0.0000
     23 ****         2.6428  -1.7938   1.9742 H              1 S1                 0.0000
     24 ****         1.5873  -1.0985   0.0378 H              1 S1                 0.0000
     25 ****         0.1301  -2.1083  -0.0343 H              1 S1                 0.0000
     26 ****        -1.4810   3.5854  -1.7638 H              1 S1                 0.0000
     27 ****         0.7012  -1.7856  -4.5204 H              1 S1                 0.0000
     28 ****        -3.0603   1.8848   2.8996 LP             1 S1                 0.0000
     29 ****        -1.5695   2.6125   2.4015 LP             1 S1                 0.0000
     30 ****        -3.2339  -0.4146   2.7217 LP             1 S1                 0.0000
     31 ****        -1.8625  -1.2713   2.1009 LP             1 S1                 0.0000
     32 ****         1.8789  -3.1851   1.8619 LP             1 S1                 0.0000
     33 ****         1.9754  -2.3949   3.2877 LP             1 S1                 0.0000
     34 ****        -1.0805   2.3185   0.1536 LP             1 S1                 0.0000
     35 ****        -1.0446   2.7303  -3.9114 LP             1 S1                 0.0000
     36 ****        -0.1129   0.4580  -5.2344 LP             1 S1                 0.0000
     37 ****         0.6221  -1.8985  -1.8965 LP             1 S1                 0.0000
@<TRIPOS>BOND
    1    1    2 ar    
    2    2    3 ar    
    3    2    4 1     
    4    4    5 1     
    5    4   19 1     
    6    4    9 1     
    7    5    6 1     
    8    5   20 1     
    9    5   21 1     
   10    6    7 1     
   11    6    8 1     
   12    6   22 1     
   13    7   23 1     
   14    8   24 1     
   15    8   25 1     
   16    8    9 1     
   17    9   10 1     
   18   10   11 ar    
   19   10   18 ar    
   20   11   12 ar    
   21   12   26 1     
   22   12   13 ar    
   23   13   14 ar    
   24   14   15 1     
   25   14   18 ar    
   26   15   16 1     
   27   16   17 2     
   28   16   27 1     
   29   17   18 1     
   30    1   28 1     
   31    1   29 1     
   32    3   30 1     
   33    3   31 1     
   34    7   32 1     
   35    7   33 1     
   36   11   34 1     
   37   13   35 1     
   38   15   36 1     
   39   17   37 1     
@<TRIPOS>SUBSTRUCTURE
      1 S1             1
@<TRIPOS>SET
LONE_PAIRS      STATIC     ATOMS    <user>   **** ""
10 28 29 30 31 32 33 34 35 36 37
DONOR_HYDROGENS      STATIC     ATOMS    <user>   **** ""
1 23
ATOM$BLUE        STATIC     ATOMS    COLORGROUP SYSTEM
10 28 29 30 31 32 33 34 35 36 37
ATOM$RED        STATIC     ATOMS    COLORGROUP SYSTEM
1 23
