AV-unprocessed.smi:2075|AV-procd|sdf|8456|dock8
  -GOLD-   2272011153D 1   1.00000     0.00000
 Structure written by MMmdl.
 37 38  0  0  0  0  0  0  0  0  1 V2000
  151.5045  136.3696  155.8237 O   0  0  0  0  0  0  0  0  0  0  0  0
  150.3292  136.3378  155.4583 C   0  0  0  0  0  0  0  0  0  0  0  0
  149.3827  135.2315  155.9405 C   0  0  0  0  0  0  0  0  0  0  0  0
  149.6813  133.8327  155.3640 C   0  0  0  0  0  0  0  0  0  0  0  0
  148.6842  133.0080  155.6828 F   0  0  0  0  0  0  0  0  0  0  0  0
  149.7877  133.8747  154.0352 F   0  0  0  0  0  0  0  0  0  0  0  0
  150.8147  133.3476  155.8728 F   0  0  0  0  0  0  0  0  0  0  0  0
  149.7958  137.2492  154.6296 N   0  0  0  0  0  0  0  0  0  0  0  0
  150.5142  138.3891  154.0680 C   0  0  0  0  0  0  0  0  0  0  0  0
  150.8955  139.4517  155.0889 C   0  0  0  0  0  0  0  0  0  0  0  0
  150.1240  140.6222  155.2193 C   0  0  0  0  0  0  0  0  0  0  0  0
  150.4968  141.5881  156.1735 C   0  0  0  0  0  0  0  0  0  0  0  0
  151.6395  141.3592  156.9824 C   0  0  0  0  0  0  0  0  0  0  0  0
  152.0673  142.2848  157.9627 N   0  0  0  0  0  0  0  0  0  0  0  0
  152.0989  141.8610  159.3606 C   0  0  0  0  0  0  0  0  0  0  0  0
  152.8873  142.8668  160.2167 C   0  0  0  0  0  0  0  0  0  0  0  0
  152.3508  144.1728  160.0431 O   0  0  0  0  0  0  0  0  0  0  0  0
  152.4642  144.6099  158.6938 C   0  0  0  0  0  0  0  0  0  0  0  0
  151.6589  143.6771  157.7733 C   0  0  0  0  0  0  0  0  0  0  0  0
  152.3709  140.2249  156.8574 N   0  0  0  0  0  0  0  0  0  0  0  0
  152.0092  139.3028  155.9414 C   0  0  0  0  0  0  0  0  0  0  0  0
  149.4324  135.1843  157.0296 H   0  0  0  0  0  0  0  0  0  0  0  0
  148.3616  135.5217  155.6905 H   0  0  0  0  0  0  0  0  0  0  0  0
  148.8239  137.1506  154.3741 H   0  0  0  0  0  0  0  0  0  0  0  0
  151.4057  138.0386  153.5448 H   0  0  0  0  0  0  0  0  0  0  0  0
  149.8778  138.8537  153.3148 H   0  0  0  0  0  0  0  0  0  0  0  0
  149.2583  140.7842  154.5939 H   0  0  0  0  0  0  0  0  0  0  0  0
  149.9031  142.4856  156.2539 H   0  0  0  0  0  0  0  0  0  0  0  0
  151.0773  141.7703  159.7322 H   0  0  0  0  0  0  0  0  0  0  0  0
  152.5733  140.8834  159.4512 H   0  0  0  0  0  0  0  0  0  0  0  0
  152.8231  142.5932  161.2698 H   0  0  0  0  0  0  0  0  0  0  0  0
  153.9456  142.8579  159.9504 H   0  0  0  0  0  0  0  0  0  0  0  0
  152.0844  145.6288  158.6179 H   0  0  0  0  0  0  0  0  0  0  0  0
  153.5135  144.6392  158.3953 H   0  0  0  0  0  0  0  0  0  0  0  0
  151.7989  144.0037  156.7430 H   0  0  0  0  0  0  0  0  0  0  0  0
  150.5941  143.7628  157.9934 H   0  0  0  0  0  0  0  0  0  0  0  0
  152.6305  138.4206  155.8938 H   0  0  0  0  0  0  0  0  0  0  0  0
  1  2  2  0  0  0  0
  2  3  1  0  0  0  0
  2  8  1  0  0  0  0
  3  4  1  0  0  0  0
  3 22  1  0  0  0  0
  3 23  1  0  0  0  0
  4  5  1  0  0  0  0
  4  6  1  0  0  0  0
  4  7  1  0  0  0  0
  8  9  1  0  0  0  0
  8 24  1  0  0  0  0
  9 10  1  0  0  0  0
  9 25  1  0  0  0  0
  9 26  1  0  0  0  0
 10 21  1  0  0  0  0
 10 11  2  0  0  0  0
 11 12  1  0  0  0  0
 11 27  1  0  0  0  0
 12 13  2  0  0  0  0
 12 28  1  0  0  0  0
 13 14  1  0  0  0  0
 13 20  1  0  0  0  0
 14 19  1  0  0  0  0
 14 15  1  0  0  0  0
 15 16  1  0  0  0  0
 15 29  1  0  0  0  0
 15 30  1  0  0  0  0
 16 17  1  0  0  0  0
 16 31  1  0  0  0  0
 16 32  1  0  0  0  0
 17 18  1  0  0  0  0
 18 19  1  0  0  0  0
 18 33  1  0  0  0  0
 18 34  1  0  0  0  0
 19 35  1  0  0  0  0
 19 36  1  0  0  0  0
 20 21  2  0  0  0  0
 21 37  1  0  0  0  0
M  END
> <s_m_source_file>
AV-unprocessed.smi

> <i_m_source_file_index>
2075

> <i_lp_mmshare_version>
43012

> <i_f3d_flags>
0

> <s_epik_input>
RkMoRikoRilbQ0gyXUMoPU8pW05IXVtDSDJdYzFbY0hdW2NIXWMobltjSF0xKU4yW0NIMl1bQ0gyXU9bQ0gyXVtDSDJdMg==

> <s_epik_cmdline>
J2VwaWtfcHl0aG9uJywgJy1waCcsICc3LjAnLCAnLXRuJywgJzgnLCAnLW1hJywgJzIwMCcsICctbWV0YWxfYmluZGluZycsICctaW1hZScsICc8aW5maWxlLm1hZT4nLCAnLW9tYWUnLCAnPG91dGZpbGUubWFlPic=

> <r_lp_tautomer_probability>
1

> <r_epik_Ionization_Penalty>
0.00347018

> <r_epik_Ionization_Penalty_Charging>
0

> <r_epik_Ionization_Penalty_Neutral>
0.00347018

> <r_epik_State_Penalty>
0.00246037

> <r_epik_Charging_Adjusted_Penalty>
0.00246037

> <i_epik_Tot_Q>
0

> <i_epik_Tot_abs_Q>
0

> <r_epik_Metal_State_Penalty>
-0

> <b_epik_Metal_Only>
0

> <s_lp_Force_Field>
OPLS_2005

> <r_lp_Energy>
11.9442

> <b_lp_Chiralities_Consistent>
1

> <s_lp_Variant>
AV-unprocessed.smi:2075-1

> <Gold.Version>
5.8.1

> <Gold.Id.Protein>
6NUR|6NUR_protein|mol2

> <Gold.PLP.Fitness>
45.2081

> <Gold.PLP.PLP>
-40.3595

> <Gold.PLP.part.hbond>
-2.8654

> <Gold.PLP.part.metal>
0.0000

> <Gold.PLP.part.buried>
-3.3531

> <Gold.PLP.part.nonpolar>
-33.4683

> <Gold.PLP.part.repulsive>
0.1148

> <Gold.PLP.ligand.clash>
0.0000

> <Gold.PLP.ligand.torsion>
0.8112

> <Gold.PLP.Chemscore.Hbond>
2.0000

> <Gold.PLP.Chemscore.CHOScore>
0.0000

> <Gold.PLP.Chemscore.Metal>
0.0000

> <Gold.Chemscore.Hbonds>
donor molecule, donor type, donor heavy atom, donor atom, acceptor molecule, acceptor atom, score
      P1  H  7997  8009       L1    20  0.95
      P1  H 10752 10764       L1     1  1.00

> <Gold.PLP.Chemscore.Internal.Correction>
0.4710

> <Gold.Rescore>
     Score         DG    S(hbond)    S(metal)    S(lipo)     H(rot)  DE(clash)    DE(int)     intcor
     15.36     -16.49       1.70        0.00      89.46       2.01       0.17       0.97       ----

> <Gold.Chemscore.Fitness>
15.3558

> <Gold.Chemscore.DG>
-16.4932

> <Gold.Chemscore.ZeroCoef>
-5.4800

> <Gold.Chemscore.Hbond>
1.7043

> <Gold.Chemscore.Metal>
0.0000

> <Gold.Chemscore.Lipo>
89.4594

> <Gold.Chemscore.Internal_Hbond>
0.0000

> <Gold.Chemscore.DEClash>
0.1662

> <Gold.Chemscore.DEInternal>
0.9712

> <Gold.Chemscore.Rot>
2.0101

> <Gold.Chemscore.Internal.Correction>
   9.000000E+99

> <Gold.Chemscore.Hbonds>
donor molecule, donor type, donor heavy atom, donor atom, acceptor molecule, acceptor atom, score
      P1  H  7997  8009       L1    20  0.19
      P1  H 10752 10764       L1     1  0.97

> <Gold.Chemscore.Hbond.Weighted>
-5.6922

> <Gold.Chemscore.Metal.Weighted>
-0.0000

> <Gold.Chemscore.Lipo.Weighted>
-10.4668

> <Gold.Chemscore.Internal_Hbond.Weighted>
0.0000

> <Gold.Chemscore.DEClash.Weighted>
0.1662

> <Gold.Chemscore.DEInternal.Weighted>
0.9712

> <Gold.Chemscore.Rot.Weighted>
5.1458

> <Gold.Chemscore.Internal.Correction.Weighted>
   9.000000E+99

> <Gold.Protein.RotatedTorsions>
[ 6907 6896 6895 6894 ] final   75.22 input  -60.11 | X-H torsion
[ 7974 7965 7964 7962 ] final  -67.82 input  175.53 | X-H torsion
[ 8008 7997 7996 7995 ] final  178.85 input   59.86 | X-H torsion
[ 10167 10162 10161 10158 ] final   77.79 input  -65.29 | X-H torsion
[ 10718 10713 10712 10709 ] final  -59.36 input   66.30 | X-H torsion
[ 10763 10752 10751 10750 ] final  -43.18 input  -60.55 | X-H torsion
[ 11005 11000 10999 10996 ] final   27.34 input  -57.11 | X-H torsion

> <Gold.Protein.ActiveResidues>
 VAL166  LYS551  ARG553  GLY616  TRP617  ASP618  TYR619  PRO620  LYS621  CYS622 
 ASP623  PHE694  ASN695  SER759  ASP760  ASP761  ALA762  ILE779  LEU786  VAL792 
 PHE793  MET794  SER795  GLU796  ALA797  LYS798  CYS799  TRP800  GLU811  SER814 

> <Gold.Protein.RotatedAtoms>
  152.5015  134.4154  159.9462 H   0  0  0  0  0  0  0  0  0  0  0  0  # atno 6907 bound_to 6896
  151.4124  133.3717  159.2753 H   0  0  0  0  0  0  0  0  0  0  0  0  # atno 6908 bound_to 6896
  150.9282  134.8720  159.7593 H   0  0  0  0  0  0  0  0  0  0  0  0  # atno 6909 bound_to 6896
  145.7243  140.9025  143.0614 H   0  0  0  0  0  0  0  0  0  0  0  0  # atno 7974 bound_to 7965
  156.0500  140.1323  157.0060 H   0  0  0  0  0  0  0  0  0  0  0  0  # atno 8008 bound_to 7997
  154.4430  140.1013  156.6433 H   0  0  0  0  0  0  0  0  0  0  0  0  # atno 8009 bound_to 7997
  155.5537  140.3463  155.4477 H   0  0  0  0  0  0  0  0  0  0  0  0  # atno 8010 bound_to 7997
  139.9778  144.5848  150.7927 H   0  0  0  0  0  0  0  0  0  0  0  0  # atno 10167 bound_to 10162
  156.1067  130.4179  150.0705 H   0  0  0  0  0  0  0  0  0  0  0  0  # atno 10718 bound_to 10713
  153.9913  135.6705  153.4754 H   0  0  0  0  0  0  0  0  0  0  0  0  # atno 10763 bound_to 10752
  153.0704  135.4977  154.8288 H   0  0  0  0  0  0  0  0  0  0  0  0  # atno 10764 bound_to 10752
  154.7107  135.3097  154.9163 H   0  0  0  0  0  0  0  0  0  0  0  0  # atno 10765 bound_to 10752
  140.3273  134.2477  155.7707 H   0  0  0  0  0  0  0  0  0  0  0  0  # atno 11005 bound_to 11000
  144.6909  139.9244  143.7469 LP  0  0  0  0  0  0  0  0  0  0  0  0  # atno 17320 bound_to 7965
  146.0597  139.3591  143.0589 LP  0  0  0  0  0  0  0  0  0  0  0  0  # atno 17321 bound_to 7965
  140.7500  143.2947  151.3236 LP  0  0  0  0  0  0  0  0  0  0  0  0  # atno 17342 bound_to 10162
  139.6432  144.0499  152.2571 LP  0  0  0  0  0  0  0  0  0  0  0  0  # atno 17343 bound_to 10162
  156.8678  130.9514  151.3612 LP  0  0  0  0  0  0  0  0  0  0  0  0  # atno 17370 bound_to 10713
  157.6245  130.8680  149.9165 LP  0  0  0  0  0  0  0  0  0  0  0  0  # atno 17371 bound_to 10713
  141.2072  133.7812  157.0132 LP  0  0  0  0  0  0  0  0  0  0  0  0  # atno 17394 bound_to 11000
  140.0891  134.9603  157.1747 LP  0  0  0  0  0  0  0  0  0  0  0  0  # atno 17395 bound_to 11000

$$$$
