AV-unprocessed.smi:1754|AV-procd|sdf|7069|dock7
  -GOLD-   22720 8283D 1   1.00000     0.00000
 Structure written by MMmdl.
 44 45  0  0  0  0  0  0  0  0  3 V2000
  150.5557  142.6551  157.8923 C   0  0  0  0  0  0  0  0  0  0  0  0
  151.1873  144.0071  158.2477 C   0  0  0  0  0  0  0  0  0  0  0  0
  151.1335  144.2800  159.6814 N   0  0  0  0  0  0  0  0  0  0  0  0
  150.3639  145.4286  160.1564 C   0  0  0  0  0  0  0  0  0  0  0  0
  148.8591  145.1341  160.2164 C   0  0  0  0  0  0  0  0  0  0  0  0
  151.8589  143.4777  160.5925 C   0  0  0  0  0  0  0  0  0  0  0  0
  152.2587  142.1474  160.3128 C   0  0  0  0  0  0  0  0  0  0  0  0
  152.9846  141.4144  161.2738 C   0  0  0  0  0  0  0  0  0  0  0  0
  153.3005  142.0043  162.5141 C   0  0  0  0  0  0  0  0  0  0  0  0
  154.0558  141.2366  163.4406 N   0  0  0  0  0  0  0  0  0  0  0  0
  154.4851  141.5659  164.6840 C   0  0  0  0  0  0  0  0  0  0  0  0
  154.1476  142.6462  165.1649 O   0  0  0  0  0  0  0  0  0  0  0  0
  155.2581  140.6859  165.3902 N   0  5  0  0  0  0  0  0  0  0  0  0
  155.2259  140.3607  166.8273 C   0  0  1  0  0  0  0  0  0  0  0  0
  156.6539  140.0142  167.3029 C   0  0  0  0  0  0  0  0  0  0  0  0
  157.4435  141.3078  167.5448 C   0  0  0  0  0  0  0  0  0  0  0  0
  156.2184  142.5100  168.1794 S   0  0  0  0  0  0  0  0  0  0  0  0
  156.2598  142.5115  169.6501 O   0  0  0  0  0  0  0  0  0  0  0  0
  156.3327  143.7671  167.4236 O   0  0  0  0  0  0  0  0  0  0  0  0
  154.7312  141.5795  167.6321 C   0  0  0  0  0  0  0  0  0  0  0  0
  152.8911  143.3381  162.7439 C   0  0  0  0  0  0  0  0  0  0  0  0
  152.1980  144.0033  161.7951 N   0  3  0  0  0  0  0  0  0  0  0  0
  150.5957  142.4819  156.8168 H   0  0  0  0  0  0  0  0  0  0  0  0
  149.5086  142.6159  158.1945 H   0  0  0  0  0  0  0  0  0  0  0  0
  151.0758  141.8306  158.3805 H   0  0  0  0  0  0  0  0  0  0  0  0
  152.2113  144.0644  157.8794 H   0  0  0  0  0  0  0  0  0  0  0  0
  150.6476  144.7972  157.7250 H   0  0  0  0  0  0  0  0  0  0  0  0
  150.7156  145.6917  161.1545 H   0  0  0  0  0  0  0  0  0  0  0  0
  150.5565  146.3058  159.5382 H   0  0  0  0  0  0  0  0  0  0  0  0
  148.3115  146.0003  160.5880 H   0  0  0  0  0  0  0  0  0  0  0  0
  148.6449  144.2970  160.8815 H   0  0  0  0  0  0  0  0  0  0  0  0
  148.4619  144.8892  159.2310 H   0  0  0  0  0  0  0  0  0  0  0  0
  152.0164  141.6687  159.3765 H   0  0  0  0  0  0  0  0  0  0  0  0
  153.2911  140.4012  161.0585 H   0  0  0  0  0  0  0  0  0  0  0  0
  154.2780  140.2971  163.1456 H   0  0  0  0  0  0  0  0  0  0  0  0
  154.5724  139.5095  167.0243 H   0  0  0  0  0  0  0  0  0  0  0  0
  156.5784  139.4785  168.2497 H   0  0  0  0  0  0  0  0  0  0  0  0
  157.1720  139.3475  166.6123 H   0  0  0  0  0  0  0  0  0  0  0  0
  158.2585  141.1856  168.2577 H   0  0  0  0  0  0  0  0  0  0  0  0
  157.8531  141.6984  166.6116 H   0  0  0  0  0  0  0  0  0  0  0  0
  154.0657  142.2362  167.0708 H   0  0  0  0  0  0  0  0  0  0  0  0
  154.2031  141.2518  168.5273 H   0  0  0  0  0  0  0  0  0  0  0  0
  153.1003  143.9066  163.6375 H   0  0  0  0  0  0  0  0  0  0  0  0
  151.9190  144.9636  161.9958 H   0  0  0  0  0  0  0  0  0  0  0  0
  1  2  1  0  0  0  0
  1 23  1  0  0  0  0
  1 24  1  0  0  0  0
  1 25  1  0  0  0  0
  2  3  1  0  0  0  0
  2 26  1  0  0  0  0
  2 27  1  0  0  0  0
  3  4  1  0  0  0  0
  3  6  1  0  0  0  0
  4  5  1  0  0  0  0
  4 28  1  0  0  0  0
  4 29  1  0  0  0  0
  5 30  1  0  0  0  0
  5 31  1  0  0  0  0
  5 32  1  0  0  0  0
  6 22  1  0  0  0  0
  6  7  2  0  0  0  0
  7  8  1  0  0  0  0
  7 33  1  0  0  0  0
  8  9  2  0  0  0  0
  8 34  1  0  0  0  0
  9 10  1  0  0  0  0
  9 21  1  0  0  0  0
 10 11  1  0  0  0  0
 10 35  1  0  0  0  0
 11 12  2  0  0  0  0
 11 13  1  0  0  0  0
 13 14  1  0  0  0  0
 14 20  1  0  0  0  0
 14 15  1  0  0  0  0
 14 36  1  0  0  0  0
 15 16  1  0  0  0  0
 15 37  1  0  0  0  0
 15 38  1  0  0  0  0
 16 17  1  0  0  0  0
 16 39  1  0  0  0  0
 16 40  1  0  0  0  0
 17 18  2  0  0  0  0
 17 19  2  0  0  0  0
 17 20  1  0  0  0  0
 20 41  1  0  0  0  0
 20 42  1  0  0  0  0
 21 22  2  0  0  0  0
 21 43  1  0  0  0  0
 22 44  1  0  0  0  0
M  CHG  1  13  -1
M  CHG  1  22   1
M  END
> <s_m_source_file>
AV-unprocessed.smi

> <i_m_source_file_index>
1754

> <i_lp_mmshare_version>
43012

> <i_f3d_flags>
0

> <s_epik_input>
W0NIM11bQ0gyXU4oW0NIMl1bQ0gzXSljMVtjSF1bY0hdYyhbY0hdbjEpW05IXUMoPU8pW05IXVtDQEBIXShbQ0gyXTIpW0NIMl1bQ0gyXVMyKD1PKT1P

> <s_epik_cmdline>
J2VwaWtfcHl0aG9uJywgJy1waCcsICc3LjAnLCAnLXRuJywgJzgnLCAnLW1hJywgJzIwMCcsICctbWV0YWxfYmluZGluZycsICctaW1hZScsICc8aW5maWxlLm1hZT4nLCAnLW9tYWUnLCAnPG91dGZpbGUubWFlPic=

> <r_lp_tautomer_probability>
0.999994

> <r_epik_Ionization_Penalty>
7.1175

> <r_epik_Ionization_Penalty_Charging>
7.11749

> <r_epik_Ionization_Penalty_Neutral>
3.13064e-06

> <r_epik_State_Penalty>
6.65299

> <r_epik_Charging_Adjusted_Penalty>
13.7705

> <i_epik_Tot_Q>
0

> <i_epik_Tot_abs_Q>
2

> <r_epik_Metal_State_Penalty>
2.60496

> <b_epik_Metal_Only>
1

> <s_lp_Force_Field>
OPLS_2005

> <r_lp_Energy>
22.4709

> <b_lp_Chiralities_Consistent>
1

> <s_lp_Variant>
AV-unprocessed.smi:1754-6

> <Gold.Version>
5.8.1

> <Gold.Id.Protein>
6NUR|6NUR_protein|mol2

> <Gold.PLP.Fitness>
44.1671

> <Gold.PLP.PLP>
-46.2684

> <Gold.PLP.part.hbond>
-3.5503

> <Gold.PLP.part.metal>
0.0000

> <Gold.PLP.part.buried>
-6.5424

> <Gold.PLP.part.nonpolar>
-34.7379

> <Gold.PLP.part.repulsive>
0.3527

> <Gold.PLP.ligand.clash>
0.0000

> <Gold.PLP.ligand.torsion>
1.1560

> <Gold.PLP.Chemscore.Hbond>
0.0000

> <Gold.PLP.Chemscore.CHOScore>
0.0000

> <Gold.PLP.Chemscore.Metal>
0.0000

> <Gold.PLP.Chemscore.Internal.Correction>
0.2107

> <Gold.Rescore>
     Score         DG    S(hbond)    S(metal)    S(lipo)     H(rot)  DE(clash)    DE(int)     intcor
      7.82     -11.89       0.00        0.00      85.11       1.39       0.29       3.77       ----

> <Gold.Chemscore.Fitness>
7.8199

> <Gold.Chemscore.DG>
-11.8857

> <Gold.Chemscore.ZeroCoef>
-5.4800

> <Gold.Chemscore.Hbond>
0.0000

> <Gold.Chemscore.Metal>
0.0000

> <Gold.Chemscore.Lipo>
85.1121

> <Gold.Chemscore.Internal_Hbond>
0.0000

> <Gold.Chemscore.DEClash>
0.2940

> <Gold.Chemscore.DEInternal>
3.7719

> <Gold.Chemscore.Rot>
1.3876

> <Gold.Chemscore.Internal.Correction>
   9.000000E+99

> <Gold.Chemscore.Hbond.Weighted>
-0.0000

> <Gold.Chemscore.Metal.Weighted>
-0.0000

> <Gold.Chemscore.Lipo.Weighted>
-9.9581

> <Gold.Chemscore.Internal_Hbond.Weighted>
0.0000

> <Gold.Chemscore.DEClash.Weighted>
0.2940

> <Gold.Chemscore.DEInternal.Weighted>
3.7719

> <Gold.Chemscore.Rot.Weighted>
3.5524

> <Gold.Chemscore.Internal.Correction.Weighted>
   9.000000E+99

> <Gold.Protein.RotatedTorsions>
[ 6907 6896 6895 6894 ] final   -9.47 input  -60.11 | X-H torsion
[ 7974 7965 7964 7962 ] final   65.91 input  175.53 | X-H torsion
[ 8008 7997 7996 7995 ] final   14.16 input   59.86 | X-H torsion
[ 10167 10162 10161 10158 ] final  107.82 input  -65.29 | X-H torsion
[ 10718 10713 10712 10709 ] final -123.13 input   66.30 | X-H torsion
[ 10763 10752 10751 10750 ] final -174.82 input  -60.55 | X-H torsion
[ 11005 11000 10999 10996 ] final  106.16 input  -57.11 | X-H torsion

> <Gold.Protein.ActiveResidues>
 VAL166  LYS551  ARG553  GLY616  TRP617  ASP618  TYR619  PRO620  LYS621  CYS622 
 ASP623  PHE694  ASN695  SER759  ASP760  ASP761  ALA762  ILE779  LEU786  VAL792 
 PHE793  MET794  SER795  GLU796  ALA797  LYS798  CYS799  TRP800  GLU811  SER814 

> <Gold.Protein.RotatedAtoms>
  151.4172  135.0993  159.9602 H   0  0  0  0  0  0  0  0  0  0  0  0  # atno 6907 bound_to 6896
  152.5000  133.8741  159.7324 H   0  0  0  0  0  0  0  0  0  0  0  0  # atno 6908 bound_to 6896
  150.9249  133.6778  159.2851 H   0  0  0  0  0  0  0  0  0  0  0  0  # atno 6909 bound_to 6896
  145.8329  139.3149  143.0977 H   0  0  0  0  0  0  0  0  0  0  0  0  # atno 7974 bound_to 7965
  154.8445  140.2920  155.5638 H   0  0  0  0  0  0  0  0  0  0  0  0  # atno 8008 bound_to 7997
  156.3013  140.2507  156.3325 H   0  0  0  0  0  0  0  0  0  0  0  0  # atno 8009 bound_to 7997
  154.9088  140.0389  157.1924 H   0  0  0  0  0  0  0  0  0  0  0  0  # atno 8010 bound_to 7997
  139.6896  144.7109  151.1372 H   0  0  0  0  0  0  0  0  0  0  0  0  # atno 10167 bound_to 10162
  156.1476  130.6511  150.9866 H   0  0  0  0  0  0  0  0  0  0  0  0  # atno 10718 bound_to 10713
  154.5917  135.2846  155.0628 H   0  0  0  0  0  0  0  0  0  0  0  0  # atno 10763 bound_to 10752
  154.1926  135.6438  153.5068 H   0  0  0  0  0  0  0  0  0  0  0  0  # atno 10764 bound_to 10752
  153.0124  135.5450  154.6605 H   0  0  0  0  0  0  0  0  0  0  0  0  # atno 10765 bound_to 10752
  139.8810  134.9360  156.5624 H   0  0  0  0  0  0  0  0  0  0  0  0  # atno 11005 bound_to 11000
  145.9551  140.8879  143.0239 LP  0  0  0  0  0  0  0  0  0  0  0  0  # atno 17320 bound_to 7965
  144.6738  140.1734  143.7412 LP  0  0  0  0  0  0  0  0  0  0  0  0  # atno 17321 bound_to 7965
  140.7678  143.5579  150.9131 LP  0  0  0  0  0  0  0  0  0  0  0  0  # atno 17342 bound_to 10162
  139.9256  143.6554  152.3087 LP  0  0  0  0  0  0  0  0  0  0  0  0  # atno 17343 bound_to 10162
  157.6630  131.0877  150.7794 LP  0  0  0  0  0  0  0  0  0  0  0  0  # atno 17370 bound_to 10713
  156.7865  130.4876  149.5392 LP  0  0  0  0  0  0  0  0  0  0  0  0  # atno 17371 bound_to 10713
  140.8159  133.8392  155.8852 LP  0  0  0  0  0  0  0  0  0  0  0  0  # atno 17394 bound_to 11000
  140.9463  134.1836  157.4761 LP  0  0  0  0  0  0  0  0  0  0  0  0  # atno 17395 bound_to 11000

$$$$
