AV-unprocessed.smi:2528|AV-procd|sdf|9950|dock4
  -GOLD-   2272013593D 1   1.00000     0.00000
 Structure written by MMmdl.
 44 46  0  0  0  0  0  0  0  0  2 V2000
  146.6410  139.5062  154.0379 O   0  0  0  0  0  0  0  0  0  0  0  0
  147.4417  138.7668  153.4650 C   0  0  0  0  0  0  0  0  0  0  0  0
  147.0759  137.8405  152.5672 N   0  0  0  0  0  0  0  0  0  0  0  0
  145.7048  137.5866  152.1344 C   0  0  0  0  0  0  0  0  0  0  0  0
  145.4035  136.0877  151.9375 C   0  0  2  0  0  0  0  0  0  0  0  0
  145.9115  135.5384  150.5829 C   0  0  0  0  0  0  0  0  0  0  0  0
  145.5012  134.1279  150.3804 N   0  3  1  0  0  0  0  0  0  0  0  0
  146.3214  133.1570  151.1556 C   0  0  0  0  0  0  0  0  0  0  0  0
  145.9003  131.7092  150.8637 C   0  0  0  0  0  0  0  0  0  0  0  0
  144.4087  131.5089  151.1535 C   0  0  0  0  0  0  0  0  0  0  0  0
  143.5813  132.5138  150.3409 C   0  0  0  0  0  0  0  0  0  0  0  0
  144.0325  133.9719  150.5704 C   0  0  1  0  0  0  0  0  0  0  0  0
  143.5935  134.5556  151.9301 C   0  0  0  0  0  0  0  0  0  0  0  0
  143.9911  135.9199  152.0060 O   0  0  0  0  0  0  0  0  0  0  0  0
  148.7737  138.7707  153.6470 N   0  0  0  0  0  0  0  0  0  0  0  0
  149.5362  139.5867  154.5247 C   0  0  0  0  0  0  0  0  0  0  0  0
  150.8399  139.1154  154.7992 C   0  0  0  0  0  0  0  0  0  0  0  0
  151.6771  139.8541  155.6576 C   0  0  0  0  0  0  0  0  0  0  0  0
  151.1874  141.0452  156.2221 C   0  0  0  0  0  0  0  0  0  0  0  0
  149.8764  141.4418  155.9000 C   0  0  0  0  0  0  0  0  0  0  0  0
  149.0724  140.7353  155.0775 N   0  0  0  0  0  0  0  0  0  0  0  0
  147.7986  137.2794  152.1404 H   0  0  0  0  0  0  0  0  0  0  0  0
  145.0112  138.0171  152.8585 H   0  0  0  0  0  0  0  0  0  0  0  0
  145.5436  138.1226  151.1985 H   0  0  0  0  0  0  0  0  0  0  0  0
  145.8553  135.5322  152.7599 H   0  0  0  0  0  0  0  0  0  0  0  0
  145.4972  136.1357  149.7695 H   0  0  0  0  0  0  0  0  0  0  0  0
  146.9962  135.6210  150.5044 H   0  0  0  0  0  0  0  0  0  0  0  0
  147.3727  133.2873  150.8968 H   0  0  0  0  0  0  0  0  0  0  0  0
  146.2383  133.3503  152.2250 H   0  0  0  0  0  0  0  0  0  0  0  0
  146.1098  131.4669  149.8211 H   0  0  0  0  0  0  0  0  0  0  0  0
  146.4922  131.0205  151.4674 H   0  0  0  0  0  0  0  0  0  0  0  0
  144.1115  130.4900  150.9033 H   0  0  0  0  0  0  0  0  0  0  0  0
  144.2151  131.6354  152.2192 H   0  0  0  0  0  0  0  0  0  0  0  0
  143.6818  132.2746  149.2814 H   0  0  0  0  0  0  0  0  0  0  0  0
  142.5217  132.4044  150.5744 H   0  0  0  0  0  0  0  0  0  0  0  0
  143.5504  134.5754  149.7995 H   0  0  0  0  0  0  0  0  0  0  0  0
  142.5087  134.5074  152.0264 H   0  0  0  0  0  0  0  0  0  0  0  0
  144.0085  133.9958  152.7690 H   0  0  0  0  0  0  0  0  0  0  0  0
  149.3056  138.1160  153.0931 H   0  0  0  0  0  0  0  0  0  0  0  0
  151.2009  138.1982  154.3569 H   0  0  0  0  0  0  0  0  0  0  0  0
  152.6773  139.5117  155.8782 H   0  0  0  0  0  0  0  0  0  0  0  0
  151.7998  141.6392  156.8843 H   0  0  0  0  0  0  0  0  0  0  0  0
  149.4618  142.3489  156.3139 H   0  0  0  0  0  0  0  0  0  0  0  0
  145.6845  133.9151  149.4101 H   0  0  0  0  0  0  0  0  0  0  0  0
  1  2  2  0  0  0  0
  2  3  1  0  0  0  0
  2 15  1  0  0  0  0
  3  4  1  0  0  0  0
  3 22  1  0  0  0  0
  4  5  1  0  0  0  0
  4 23  1  0  0  0  0
  4 24  1  0  0  0  0
  5 14  1  0  0  0  0
  5  6  1  0  0  0  0
  5 25  1  0  0  0  0
  6  7  1  0  0  0  0
  6 26  1  0  0  0  0
  6 27  1  0  0  0  0
  7 12  1  0  0  0  0
  7  8  1  0  0  0  0
  7 44  1  0  0  0  0
  8  9  1  0  0  0  0
  8 28  1  0  0  0  0
  8 29  1  0  0  0  0
  9 10  1  0  0  0  0
  9 30  1  0  0  0  0
  9 31  1  0  0  0  0
 10 11  1  0  0  0  0
 10 32  1  0  0  0  0
 10 33  1  0  0  0  0
 11 12  1  0  0  0  0
 11 34  1  0  0  0  0
 11 35  1  0  0  0  0
 12 13  1  0  0  0  0
 12 36  1  0  0  0  0
 13 14  1  0  0  0  0
 13 37  1  0  0  0  0
 13 38  1  0  0  0  0
 15 16  1  0  0  0  0
 15 39  1  0  0  0  0
 16 21  1  0  0  0  0
 16 17  2  0  0  0  0
 17 18  1  0  0  0  0
 17 40  1  0  0  0  0
 18 19  2  0  0  0  0
 18 41  1  0  0  0  0
 19 20  1  0  0  0  0
 19 42  1  0  0  0  0
 20 21  2  0  0  0  0
 20 43  1  0  0  0  0
M  CHG  1   7   1
M  END
> <s_m_source_file>
AV-unprocessed.smi

> <i_m_source_file_index>
2528

> <i_lp_mmshare_version>
43012

> <i_f3d_flags>
0

> <s_epik_input>
bjFbY0hdW2NIXVtjSF1bY0hdYzFbTkhdQyg9TylbTkhdW0NIMl1bQ0BIXShbQ0gyXTIpT1tDSDJdW0NAQEhdKE4yMylbQ0gyXVtDSDJdW0NIMl1bQ0gyXTM=

> <s_epik_cmdline>
J2VwaWtfcHl0aG9uJywgJy1waCcsICc3LjAnLCAnLXRuJywgJzgnLCAnLW1hJywgJzIwMCcsICctbWV0YWxfYmluZGluZycsICctaW1hZScsICc8aW5maWxlLm1hZT4nLCAnLW9tYWUnLCAnPG91dGZpbGUubWFlPic=

> <r_epik_Ionization_Penalty>
0.0932337

> <r_epik_Ionization_Penalty_Charging>
0.0931942

> <r_epik_Ionization_Penalty_Neutral>
3.9565e-05

> <r_epik_State_Penalty>
0.0834605

> <r_epik_Charging_Adjusted_Penalty>
0.176655

> <i_epik_Tot_Q>
1

> <i_epik_Tot_abs_Q>
1

> <r_epik_Metal_State_Penalty>
0.0834607

> <b_epik_Metal_Only>
0

> <s_lp_Force_Field>
OPLS_2005

> <r_lp_Energy>
27.0469

> <b_lp_Chiralities_Consistent>
1

> <s_lp_Variant>
AV-unprocessed.smi:2528-3

> <Gold.Version>
5.8.1

> <Gold.Id.Protein>
6NUR|6NUR_protein|mol2

> <Gold.PLP.Fitness>
48.4373

> <Gold.PLP.PLP>
-39.3998

> <Gold.PLP.part.hbond>
-3.9683

> <Gold.PLP.part.metal>
0.0000

> <Gold.PLP.part.buried>
-2.3710

> <Gold.PLP.part.nonpolar>
-33.8253

> <Gold.PLP.part.repulsive>
0.5886

> <Gold.PLP.ligand.clash>
0.0000

> <Gold.PLP.ligand.torsion>
0.4181

> <Gold.PLP.Chemscore.Hbond>
2.2939

> <Gold.PLP.Chemscore.CHOScore>
0.9970

> <Gold.PLP.Chemscore.Metal>
0.0000

> <Gold.Chemscore.Hbonds>
donor molecule, donor type, donor heavy atom, donor atom, acceptor molecule, acceptor atom, score
      L1  H     3    22       P1  7948  1.00
      L1  H     7    44       P1  7921  0.84
      L1  H    15    39       P1  7948  0.38
      L1  C    20    43       P1  8028  1.00

> <Gold.PLP.Chemscore.Internal.Correction>
0.0008

> <Gold.Rescore>
     Score         DG    S(hbond)    S(metal)    S(lipo)     H(rot)  DE(clash)    DE(int)     intcor
     18.09     -20.18       2.11        0.00      93.59       1.29       0.38       1.70       ----

> <Gold.Chemscore.Fitness>
18.0943

> <Gold.Chemscore.DG>
-20.1803

> <Gold.Chemscore.ZeroCoef>
-5.4800

> <Gold.Chemscore.Hbond>
2.1093

> <Gold.Chemscore.Metal>
0.0000

> <Gold.Chemscore.Lipo>
93.5895

> <Gold.Chemscore.Internal_Hbond>
0.0000

> <Gold.Chemscore.DEClash>
0.3834

> <Gold.Chemscore.DEInternal>
1.7026

> <Gold.Chemscore.Rot>
1.2870

> <Gold.Chemscore.Internal.Correction>
   9.000000E+99

> <Gold.Chemscore.Hbonds>
donor molecule, donor type, donor heavy atom, donor atom, acceptor molecule, acceptor atom, score
      L1  H     3    22       P1  7948  0.97
      L1  H     7    44       P1  7921  0.34
      L1  H    15    39       P1  7948  0.35

> <Gold.Chemscore.Hbond.Weighted>
-7.0452

> <Gold.Chemscore.Metal.Weighted>
-0.0000

> <Gold.Chemscore.Lipo.Weighted>
-10.9500

> <Gold.Chemscore.Internal_Hbond.Weighted>
0.0000

> <Gold.Chemscore.DEClash.Weighted>
0.3834

> <Gold.Chemscore.DEInternal.Weighted>
1.7026

> <Gold.Chemscore.Rot.Weighted>
3.2948

> <Gold.Chemscore.Internal.Correction.Weighted>
   9.000000E+99

> <Gold.Protein.RotatedTorsions>
[ 6907 6896 6895 6894 ] final  -61.57 input  -60.11 | X-H torsion
[ 7974 7965 7964 7962 ] final -163.69 input  175.53 | X-H torsion
[ 8008 7997 7996 7995 ] final -179.77 input   59.86 | X-H torsion
[ 10167 10162 10161 10158 ] final  121.22 input  -65.29 | X-H torsion
[ 10718 10713 10712 10709 ] final   15.79 input   66.30 | X-H torsion
[ 10763 10752 10751 10750 ] final  -48.88 input  -60.55 | X-H torsion
[ 11005 11000 10999 10996 ] final  -75.06 input  -57.11 | X-H torsion

> <Gold.Protein.ActiveResidues>
 VAL166  LYS551  ARG553  GLY616  TRP617  ASP618  TYR619  PRO620  LYS621  CYS622 
 ASP623  PHE694  ASN695  SER759  ASP760  ASP761  ALA762  ILE779  LEU786  VAL792 
 PHE793  MET794  SER795  GLU796  ALA797  LYS798  CYS799  TRP800  GLU811  SER814 

> <Gold.Protein.RotatedAtoms>
  150.7775  134.6687  159.6378 H   0  0  0  0  0  0  0  0  0  0  0  0  # atno 6907 bound_to 6896
  152.3850  134.6529  160.0138 H   0  0  0  0  0  0  0  0  0  0  0  0  # atno 6908 bound_to 6896
  151.6847  133.3275  159.3264 H   0  0  0  0  0  0  0  0  0  0  0  0  # atno 6909 bound_to 6896
  144.7318  140.3070  143.6194 H   0  0  0  0  0  0  0  0  0  0  0  0  # atno 7974 bound_to 7965
  156.0343  140.1289  157.0224 H   0  0  0  0  0  0  0  0  0  0  0  0  # atno 8008 bound_to 7997
  154.4363  140.1043  156.6215 H   0  0  0  0  0  0  0  0  0  0  0  0  # atno 8009 bound_to 7997
  155.5760  140.3467  155.4530 H   0  0  0  0  0  0  0  0  0  0  0  0  # atno 8010 bound_to 7997
  139.5933  144.7033  151.3237 H   0  0  0  0  0  0  0  0  0  0  0  0  # atno 10167 bound_to 10162
  157.0586  130.6299  149.5781 H   0  0  0  0  0  0  0  0  0  0  0  0  # atno 10718 bound_to 10713
  154.0851  135.6585  153.4843 H   0  0  0  0  0  0  0  0  0  0  0  0  # atno 10763 bound_to 10752
  153.0342  135.5189  154.7436 H   0  0  0  0  0  0  0  0  0  0  0  0  # atno 10764 bound_to 10752
  154.6543  135.3005  154.9916 H   0  0  0  0  0  0  0  0  0  0  0  0  # atno 10765 bound_to 10752
  141.1642  133.6933  156.7460 H   0  0  0  0  0  0  0  0  0  0  0  0  # atno 11005 bound_to 11000
  145.7703  139.1855  143.2216 LP  0  0  0  0  0  0  0  0  0  0  0  0  # atno 17320 bound_to 7965
  146.0916  140.7649  142.9592 LP  0  0  0  0  0  0  0  0  0  0  0  0  # atno 17321 bound_to 7965
  140.7191  143.7185  150.7714 LP  0  0  0  0  0  0  0  0  0  0  0  0  # atno 17342 bound_to 10162
  140.0746  143.5028  152.2562 LP  0  0  0  0  0  0  0  0  0  0  0  0  # atno 17343 bound_to 10162
  155.9985  130.5059  150.7574 LP  0  0  0  0  0  0  0  0  0  0  0  0  # atno 17370 bound_to 10713
  157.4973  131.0916  151.0357 LP  0  0  0  0  0  0  0  0  0  0  0  0  # atno 17371 bound_to 10713
  140.2639  134.8445  157.3784 LP  0  0  0  0  0  0  0  0  0  0  0  0  # atno 17394 bound_to 11000
  140.1585  134.4759  155.7911 LP  0  0  0  0  0  0  0  0  0  0  0  0  # atno 17395 bound_to 11000

$$$$
