#       Name:                AV-unprocessed.smi:2505
#       Creating user name   scv26
#       Creation time:       Fri Mar 27 13:48:35 2020


#       File generated by GOLD software.
#

@<TRIPOS>MOLECULE
AV-unprocessed.smi:2505
    54    58     1
SMALL
NO_CHARGES


@<TRIPOS>ATOM
      1 ****        -0.0521   2.9556  -0.6289 O.2            1 S1                 0.0000
      2 ****        -0.3765   1.7713  -0.6725 C.2            1 S1                 0.0000
      3 ****         0.4839   0.7364  -0.6428 N.am           1 S1                 0.0000
      4 ****         1.8958   0.7601  -0.4944 C.ar           1 S1                 0.0000
      5 ****         2.7250   1.8828  -0.7375 C.ar           1 S1                 0.0000
      6 ****         4.0656   1.8200  -0.5850 N.ar           1 S1                 0.0000
      7 ****         4.5794   0.6459  -0.2083 C.ar           1 S1                 0.0000
      8 ****         6.0612   0.5959   0.0000 C.3            1 S1                 0.0000
      9 ****         7.0149   1.0129  -1.1011 C.3            1 S1                 0.0000
     10 ****         6.9098  -0.4361  -0.7145 C.3            1 S1                 0.0000
     11 ****         3.8990  -0.4739   0.0512 N.ar           1 S1                 0.0000
     12 ****         2.5585  -0.4209  -0.0999 C.ar           1 S1                 0.0000
     13 ****        -1.6681   1.4063  -0.7381 N.am           1 S1                 0.0000
     14 ****        -2.8484   2.2712  -0.7849 C.3            1 S1                 0.0000
     15 ****        -4.1359   1.4603  -0.9404 C.3            1 S1                 0.0000
     16 ****        -5.3017   1.1790  -0.0608 C.3            1 S1                 0.0000
     17 ****        -6.4238   1.4563  -1.0963 C.3            1 S1                 0.0000
     18 ****        -5.7703   2.0666  -2.2356 O.3            1 S1                 0.0000
     19 ****        -4.6275   2.6854  -1.6804 C.3            1 S1                 0.0000
     20 ****        -3.1906   2.8414  -2.2178 C.3            1 S1                 0.0000
     21 ****        -2.7381   4.2746  -2.5298 C.3            1 S1                 0.0000
     22 ****        -1.8999   4.2647  -3.8135 C.3            1 S1                 0.0000
     23 ****        -1.6114   2.7974  -4.1057 C.3            1 S1                 0.0000
     24 ****        -2.7853   2.0537  -3.4768 C.3            1 S1                 0.0000
     25 ****         0.0634  -0.1815  -0.6372 H              1 S1                 0.0000
     26 ****         2.3408   2.8344  -1.0692 H              1 S1                 0.0000
     27 ****         6.3255   0.8496   1.0248 H              1 S1                 0.0000
     28 ****         6.5885   1.3076  -2.0582 H              1 S1                 0.0000
     29 ****         7.9154   1.5482  -0.8077 H              1 S1                 0.0000
     30 ****         7.7399  -0.8711  -0.1620 H              1 S1                 0.0000
     31 ****         6.4142  -1.1054  -1.4152 H              1 S1                 0.0000
     32 ****         2.0113  -1.3298   0.1025 H              1 S1                 0.0000
     33 ****        -1.8529   0.4137  -0.7546 H              1 S1                 0.0000
     34 ****        -2.8998   3.0075   0.0225 H              1 S1                 0.0000
     35 ****        -3.9709   0.6088  -1.6078 H              1 S1                 0.0000
     36 ****        -5.3168   0.1534   0.3085 H              1 S1                 0.0000
     37 ****        -5.3487   1.8648   0.7862 H              1 S1                 0.0000
     38 ****        -6.9240   0.5399  -1.4105 H              1 S1                 0.0000
     39 ****        -7.1762   2.1287  -0.6824 H              1 S1                 0.0000
     40 ****        -4.9159   3.5158  -1.0254 H              1 S1                 0.0000
     41 ****        -3.5929   4.9404  -2.6541 H              1 S1                 0.0000
     42 ****        -2.1556   4.6858  -1.7061 H              1 S1                 0.0000
     43 ****        -2.4823   4.6907  -4.6314 H              1 S1                 0.0000
     44 ****        -0.9865   4.8530  -3.7194 H              1 S1                 0.0000
     45 ****        -1.5045   2.5927  -5.1712 H              1 S1                 0.0000
     46 ****        -0.6830   2.5013  -3.6160 H              1 S1                 0.0000
     47 ****        -2.5186   1.0156  -3.2784 H              1 S1                 0.0000
     48 ****        -3.6172   2.0323  -4.1818 H              1 S1                 0.0000
     49 ****         0.9136   3.2076  -0.5665 LP             1 S1                 0.0000
     50 ****        -0.7538   3.6676  -0.6558 LP             1 S1                 0.0000
     51 ****         4.6475   2.6170  -0.7469 LP             1 S1                 0.0000
     52 ****         4.3605  -1.3115   0.3434 LP             1 S1                 0.0000
     53 ****        -6.3668   2.7431  -2.6676 LP             1 S1                 0.0000
     54 ****        -5.5088   1.3747  -2.9085 LP             1 S1                 0.0000
@<TRIPOS>BOND
    1    1    2 2     
    2    2    3 am    
    3    2   13 am    
    4    3    4 1     
    5    3   25 1     
    6    4   12 ar    
    7    4    5 ar    
    8    5    6 ar    
    9    5   26 1     
   10    6    7 ar    
   11    7    8 1     
   12    7   11 ar    
   13    8   10 1     
   14    8    9 1     
   15    8   27 1     
   16    9   10 1     
   17    9   28 1     
   18    9   29 1     
   19   10   30 1     
   20   10   31 1     
   21   11   12 ar    
   22   12   32 1     
   23   13   14 1     
   24   13   33 1     
   25   14   20 1     
   26   14   15 1     
   27   14   34 1     
   28   15   19 1     
   29   15   16 1     
   30   15   35 1     
   31   16   17 1     
   32   16   36 1     
   33   16   37 1     
   34   17   18 1     
   35   17   38 1     
   36   17   39 1     
   37   18   19 1     
   38   19   20 1     
   39   19   40 1     
   40   20   24 1     
   41   20   21 1     
   42   21   22 1     
   43   21   41 1     
   44   21   42 1     
   45   22   23 1     
   46   22   43 1     
   47   22   44 1     
   48   23   24 1     
   49   23   45 1     
   50   23   46 1     
   51   24   47 1     
   52   24   48 1     
   53    1   49 1     
   54    1   50 1     
   55    6   51 1     
   56   11   52 1     
   57   18   53 1     
   58   18   54 1     
@<TRIPOS>SUBSTRUCTURE
      1 S1             1
@<TRIPOS>SET
LONE_PAIRS      STATIC     ATOMS    <user>   **** ""
6 49 50 51 52 53 54
DONOR_HYDROGENS      STATIC     ATOMS    <user>   **** ""
2 25 33
ATOM$BLUE        STATIC     ATOMS    COLORGROUP SYSTEM
6 49 50 51 52 53 54
ATOM$RED        STATIC     ATOMS    COLORGROUP SYSTEM
2 25 33
