AV-unprocessed.smi:845|AV-procd|sdf|3934|dock3
  -GOLD-   22720 1393D 1   1.00000     0.00000
 Structure written by MMmdl.
 41 42  0  0  0  0  0  0  0  0  2 V2000
  151.2545  138.1396  154.4605 C   0  0  0  0  0  0  0  0  0  0  0  0
  151.6513  138.8255  155.7852 C   0  0  0  0  0  0  0  0  0  0  0  0
  152.9685  138.2522  156.3370 C   0  0  0  0  0  0  0  0  0  0  0  0
  150.5391  138.9387  156.8782 C   0  0  1  0  0  0  0  0  0  0  0  0
  150.2214  137.5933  157.5834 C   0  0  0  0  0  0  0  0  0  0  0  0
  149.3338  137.7811  158.7253 N   0  0  0  0  0  0  0  0  0  0  0  0
  148.8172  136.7977  159.4731 C   0  0  0  0  0  0  0  0  0  0  0  0
  149.0862  135.6225  159.2126 O   0  0  0  0  0  0  0  0  0  0  0  0
  148.0229  137.2370  160.4757 N   0  5  0  0  0  0  0  0  0  0  0  0
  147.3561  136.3569  161.2402 C   0  0  0  0  0  0  0  0  0  0  0  0
  147.7059  135.0695  161.3433 N   0  0  0  0  0  0  0  0  0  0  0  0
  146.8817  134.3368  162.1993 C   0  0  0  0  0  0  0  0  0  0  0  0
  145.8860  135.0858  162.7682 C   0  0  0  0  0  0  0  0  0  0  0  0
  145.9535  136.7435  162.2414 S   0  0  0  0  0  0  0  0  0  0  0  0
  150.6689  140.0988  157.7835 N   0  0  0  0  0  0  0  0  0  0  0  0
  151.9299  140.1135  158.5228 C   0  0  0  0  0  0  0  0  0  0  0  0
  151.9710  141.2509  159.5566 C   0  0  0  0  0  0  0  0  0  0  0  0
  151.7582  142.4956  158.8993 O   0  0  0  0  0  0  0  0  0  0  0  0
  150.5170  142.5420  158.2032 C   0  0  0  0  0  0  0  0  0  0  0  0
  150.4514  141.4057  157.1671 C   0  0  0  0  0  0  0  0  0  0  0  0
  151.0847  137.0713  154.5670 H   0  0  0  0  0  0  0  0  0  0  0  0
  152.0509  138.2550  153.7249 H   0  0  0  0  0  0  0  0  0  0  0  0
  150.3608  138.5800  154.0193 H   0  0  0  0  0  0  0  0  0  0  0  0
  151.8861  139.8528  155.5032 H   0  0  0  0  0  0  0  0  0  0  0  0
  152.8711  137.1963  156.5912 H   0  0  0  0  0  0  0  0  0  0  0  0
  153.2837  138.7853  157.2344 H   0  0  0  0  0  0  0  0  0  0  0  0
  153.7713  138.3398  155.6046 H   0  0  0  0  0  0  0  0  0  0  0  0
  149.6460  139.1480  156.2869 H   0  0  0  0  0  0  0  0  0  0  0  0
  149.7670  136.8882  156.8865 H   0  0  0  0  0  0  0  0  0  0  0  0
  151.1324  137.1231  157.9523 H   0  0  0  0  0  0  0  0  0  0  0  0
  149.0903  138.7302  158.9677 H   0  0  0  0  0  0  0  0  0  0  0  0
  147.0789  133.2855  162.3472 H   0  0  0  0  0  0  0  0  0  0  0  0
  145.1223  134.7668  163.4615 H   0  0  0  0  0  0  0  0  0  0  0  0
  152.0747  139.1604  159.0324 H   0  0  0  0  0  0  0  0  0  0  0  0
  152.7699  140.2364  157.8394 H   0  0  0  0  0  0  0  0  0  0  0  0
  151.2126  141.1013  160.3266 H   0  0  0  0  0  0  0  0  0  0  0  0
  152.9383  141.2730  160.0585 H   0  0  0  0  0  0  0  0  0  0  0  0
  149.6931  142.4611  158.9140 H   0  0  0  0  0  0  0  0  0  0  0  0
  150.4206  143.5096  157.7106 H   0  0  0  0  0  0  0  0  0  0  0  0
  151.1966  141.5851  156.3916 H   0  0  0  0  0  0  0  0  0  0  0  0
  149.4776  141.4458  156.6898 H   0  0  0  0  0  0  0  0  0  0  0  0
  1  2  1  0  0  0  0
  1 21  1  0  0  0  0
  1 22  1  0  0  0  0
  1 23  1  0  0  0  0
  2  3  1  0  0  0  0
  2  4  1  0  0  0  0
  2 24  1  0  0  0  0
  3 25  1  0  0  0  0
  3 26  1  0  0  0  0
  3 27  1  0  0  0  0
  4  5  1  0  0  0  0
  4 15  1  0  0  0  0
  4 28  1  0  0  0  0
  5  6  1  0  0  0  0
  5 29  1  0  0  0  0
  5 30  1  0  0  0  0
  6  7  1  0  0  0  0
  6 31  1  0  0  0  0
  7  8  2  0  0  0  0
  7  9  1  0  0  0  0
  9 10  1  0  0  0  0
 10 14  1  0  0  0  0
 10 11  2  0  0  0  0
 11 12  1  0  0  0  0
 12 13  2  0  0  0  0
 12 32  1  0  0  0  0
 13 14  1  0  0  0  0
 13 33  1  0  0  0  0
 15 20  1  0  0  0  0
 15 16  1  0  0  0  0
 16 17  1  0  0  0  0
 16 34  1  0  0  0  0
 16 35  1  0  0  0  0
 17 18  1  0  0  0  0
 17 36  1  0  0  0  0
 17 37  1  0  0  0  0
 18 19  1  0  0  0  0
 19 20  1  0  0  0  0
 19 38  1  0  0  0  0
 19 39  1  0  0  0  0
 20 40  1  0  0  0  0
 20 41  1  0  0  0  0
M  CHG  1   9  -1
M  END
> <s_m_source_file>
AV-unprocessed.smi

> <i_m_source_file_index>
845

> <i_lp_mmshare_version>
43012

> <i_f3d_flags>
0

> <s_epik_input>
W0NIMl0xW0NIMl1PW0NIMl1bQ0gyXU4xW0NASF0oW0NIXShbQ0gzXSlbQ0gzXSlbQ0gyXVtOSF1DKD1PKVtOSF1jMm5bY0hdW2NIXXMy

> <s_epik_cmdline>
J2VwaWtfcHl0aG9uJywgJy1waCcsICc3LjAnLCAnLXRuJywgJzgnLCAnLW1hJywgJzIwMCcsICctbWV0YWxfYmluZGluZycsICctaW1hZScsICc8aW5maWxlLm1hZT4nLCAnLW9tYWUnLCAnPG91dGZpbGUubWFlPic=

> <r_lp_tautomer_probability>
0.999

> <r_epik_Ionization_Penalty>
9.02543

> <r_epik_Ionization_Penalty_Charging>
6.76546

> <r_epik_Ionization_Penalty_Neutral>
2.25997

> <r_epik_State_Penalty>
7.18984

> <r_epik_Charging_Adjusted_Penalty>
13.9553

> <i_epik_Tot_Q>
-1

> <i_epik_Tot_abs_Q>
1

> <r_epik_Metal_State_Penalty>
3.11401

> <b_epik_Metal_Only>
1

> <s_lp_Force_Field>
OPLS_2005

> <r_lp_Energy>
34.4261

> <b_lp_Chiralities_Consistent>
1

> <s_lp_Variant>
AV-unprocessed.smi:845-8

> <Gold.Version>
5.8.1

> <Gold.Id.Protein>
6NUR|6NUR_protein|mol2

> <Gold.PLP.Fitness>
43.3273

> <Gold.PLP.PLP>
-32.3814

> <Gold.PLP.part.hbond>
-3.0000

> <Gold.PLP.part.metal>
0.0000

> <Gold.PLP.part.buried>
-5.4763

> <Gold.PLP.part.nonpolar>
-24.8825

> <Gold.PLP.part.repulsive>
0.1853

> <Gold.PLP.ligand.clash>
0.0000

> <Gold.PLP.ligand.torsion>
0.7535

> <Gold.PLP.Chemscore.Hbond>
3.9311

> <Gold.PLP.Chemscore.CHOScore>
0.0000

> <Gold.PLP.Chemscore.Metal>
0.0000

> <Gold.Chemscore.Hbonds>
donor molecule, donor type, donor heavy atom, donor atom, acceptor molecule, acceptor atom, score
      P1  H  6896  6909       L1     8  1.00
      P1  H  6931  6943       L1     9  1.47
      P1  H  6934  6947       L1     9  1.47

> <Gold.PLP.Chemscore.Internal.Correction>
0.6594

> <Gold.Rescore>
     Score         DG    S(hbond)    S(metal)    S(lipo)     H(rot)  DE(clash)    DE(int)     intcor
     13.96     -16.56       2.02        0.00      74.36       1.71       0.01       2.58       ----

> <Gold.Chemscore.Fitness>
13.9622

> <Gold.Chemscore.DG>
-16.5552

> <Gold.Chemscore.ZeroCoef>
-5.4800

> <Gold.Chemscore.Hbond>
2.0204

> <Gold.Chemscore.Metal>
0.0000

> <Gold.Chemscore.Lipo>
74.3581

> <Gold.Chemscore.Internal_Hbond>
0.0000

> <Gold.Chemscore.DEClash>
0.0137

> <Gold.Chemscore.DEInternal>
2.5793

> <Gold.Chemscore.Rot>
1.7081

> <Gold.Chemscore.Internal.Correction>
   9.000000E+99

> <Gold.Chemscore.Hbonds>
donor molecule, donor type, donor heavy atom, donor atom, acceptor molecule, acceptor atom, score
      P1  H  6896  6909       L1     8  1.00
      P1  H  6931  6943       L1     9  0.18
      P1  H  6934  6947       L1     9  0.35

> <Gold.Chemscore.Hbond.Weighted>
-6.7481

> <Gold.Chemscore.Metal.Weighted>
-0.0000

> <Gold.Chemscore.Lipo.Weighted>
-8.6999

> <Gold.Chemscore.Internal_Hbond.Weighted>
0.0000

> <Gold.Chemscore.DEClash.Weighted>
0.0137

> <Gold.Chemscore.DEInternal.Weighted>
2.5793

> <Gold.Chemscore.Rot.Weighted>
4.3728

> <Gold.Chemscore.Internal.Correction.Weighted>
   9.000000E+99

> <Gold.Protein.RotatedTorsions>
[ 6907 6896 6895 6894 ] final   51.05 input  -60.11 | X-H torsion
[ 7974 7965 7964 7962 ] final   14.30 input  175.53 | X-H torsion
[ 8008 7997 7996 7995 ] final   28.87 input   59.86 | X-H torsion
[ 10167 10162 10161 10158 ] final   23.44 input  -65.29 | X-H torsion
[ 10718 10713 10712 10709 ] final  -98.27 input   66.30 | X-H torsion
[ 10763 10752 10751 10750 ] final  161.43 input  -60.55 | X-H torsion
[ 11005 11000 10999 10996 ] final   30.48 input  -57.11 | X-H torsion

> <Gold.Protein.ActiveResidues>
 VAL166  LYS551  ARG553  GLY616  TRP617  ASP618  TYR619  PRO620  LYS621  CYS622 
 ASP623  PHE694  ASN695  SER759  ASP760  ASP761  ALA762  ILE779  LEU786  VAL792 
 PHE793  MET794  SER795  GLU796  ALA797  LYS798  CYS799  TRP800  GLU811  SER814 

> <Gold.Protein.RotatedAtoms>
  152.3085  134.7526  160.0341 H   0  0  0  0  0  0  0  0  0  0  0  0  # atno 6907 bound_to 6896
  151.8014  133.3365  159.3536 H   0  0  0  0  0  0  0  0  0  0  0  0  # atno 6908 bound_to 6896
  150.7308  134.5680  159.5920 H   0  0  0  0  0  0  0  0  0  0  0  0  # atno 6909 bound_to 6896
  146.2308  139.9062  142.8531 H   0  0  0  0  0  0  0  0  0  0  0  0  # atno 7974 bound_to 7965
  155.0655  140.3194  155.4647 H   0  0  0  0  0  0  0  0  0  0  0  0  # atno 8008 bound_to 7997
  156.2803  140.2121  156.5727 H   0  0  0  0  0  0  0  0  0  0  0  0  # atno 8009 bound_to 7997
  154.7097  140.0499  157.0526 H   0  0  0  0  0  0  0  0  0  0  0  0  # atno 8010 bound_to 7997
  140.5269  143.9908  150.6445 H   0  0  0  0  0  0  0  0  0  0  0  0  # atno 10167 bound_to 10162
  156.0103  130.5230  150.6497 H   0  0  0  0  0  0  0  0  0  0  0  0  # atno 10718 bound_to 10713
  154.2628  135.2768  155.2771 H   0  0  0  0  0  0  0  0  0  0  0  0  # atno 10763 bound_to 10752
  154.5369  135.5714  153.6809 H   0  0  0  0  0  0  0  0  0  0  0  0  # atno 10764 bound_to 10752
  152.9959  135.6241  154.2780 H   0  0  0  0  0  0  0  0  0  0  0  0  # atno 10765 bound_to 10752
  140.2940  134.2832  155.7769 H   0  0  0  0  0  0  0  0  0  0  0  0  # atno 11005 bound_to 11000
  145.2275  140.9960  143.4010 LP  0  0  0  0  0  0  0  0  0  0  0  0  # atno 17320 bound_to 7965
  144.9558  139.4033  143.6380 LP  0  0  0  0  0  0  0  0  0  0  0  0  # atno 17321 bound_to 7965
  140.3272  143.3100  152.0724 LP  0  0  0  0  0  0  0  0  0  0  0  0  # atno 17342 bound_to 10162
  139.4941  144.6534  151.6626 LP  0  0  0  0  0  0  0  0  0  0  0  0  # atno 17343 bound_to 10162
  157.4261  131.0843  151.1084 LP  0  0  0  0  0  0  0  0  0  0  0  0  # atno 17370 bound_to 10713
  157.1671  130.6251  149.5629 LP  0  0  0  0  0  0  0  0  0  0  0  0  # atno 17371 bound_to 10713
  141.2141  133.7603  156.9667 LP  0  0  0  0  0  0  0  0  0  0  0  0  # atno 17394 bound_to 11000
  140.1170  134.9441  157.2148 LP  0  0  0  0  0  0  0  0  0  0  0  0  # atno 17395 bound_to 11000

$$$$
