#       Name:                AV-unprocessed.smi:385
#       Creating user name   scv26
#       Creation time:       Thu Mar 26 22:41:04 2020


#       File generated by GOLD software.
#

@<TRIPOS>MOLECULE
AV-unprocessed.smi:385
    40    41     1
SMALL
NO_CHARGES


@<TRIPOS>ATOM
      1 ****         0.8945   2.1697  -0.4259 O.2            1 S1                 0.0000
      2 ****         0.4986   1.0903  -0.8663 C.2            1 S1                 0.0000
      3 ****         1.3237   0.1190  -1.2851 N.am           1 S1                 0.0000
      4 ****         2.7819   0.1751  -1.2408 C.3            1 S1                 0.0000
      5 ****         3.3475   0.0361   0.1876 C.3            1 S1                 0.0000
      6 ****         2.7736  -1.1407   0.9593 C.ar           1 S1                 0.0000
      7 ****         1.8099  -0.9392   1.9710 C.ar           1 S1                 0.0000
      8 ****         1.3038  -2.0646   2.6494 C.ar           1 S1                 0.0000
      9 ****         1.7774  -3.3415   2.2917 C.ar           1 S1                 0.0000
     10 ****         2.7417  -3.4362   1.2684 C.ar           1 S1                 0.0000
     11 ****         3.2333  -2.3636   0.6114 N.ar           1 S1                 0.0000
     12 ****        -1.0037   0.7895  -0.9419 C.3            1 S1                 0.0000
     13 ****        -1.7503   1.8618  -1.7622 C.3            1 S1                 0.0000
     14 ****        -3.2631   1.5849  -1.7872 C.3            1 S1                 0.0000
     15 ****        -3.8021   1.4926  -0.4129 N.4            1 S1                 1.0000
     16 ****        -3.1346   0.4521   0.3992 C.3            1 S1                 0.0000
     17 ****        -1.6188   0.7040   0.4702 C.3            1 S1                 0.0000
     18 ****         0.9142  -0.7357  -1.6338 H              1 S1                 0.0000
     19 ****         3.1531  -0.6452  -1.8560 H              1 S1                 0.0000
     20 ****         3.1405   1.0946  -1.7054 H              1 S1                 0.0000
     21 ****         4.4328  -0.0635   0.1441 H              1 S1                 0.0000
     22 ****         3.1562   0.9516   0.7485 H              1 S1                 0.0000
     23 ****         1.4632   0.0534   2.2195 H              1 S1                 0.0000
     24 ****         0.5652  -1.9504   3.4290 H              1 S1                 0.0000
     25 ****         1.4124  -4.2276   2.7898 H              1 S1                 0.0000
     26 ****         3.1273  -4.3994   0.9688 H              1 S1                 0.0000
     27 ****        -1.1393  -0.1749  -1.4354 H              1 S1                 0.0000
     28 ****        -1.5751   2.8527  -1.3399 H              1 S1                 0.0000
     29 ****        -1.3666   1.8896  -2.7830 H              1 S1                 0.0000
     30 ****        -3.7844   2.3802  -2.3205 H              1 S1                 0.0000
     31 ****        -3.4712   0.6552  -2.3187 H              1 S1                 0.0000
     32 ****        -3.6747   2.3854   0.0420 H              1 S1                 0.0000
     33 ****        -3.5655   0.4523   1.4004 H              1 S1                 0.0000
     34 ****        -3.3373  -0.5277  -0.0352 H              1 S1                 0.0000
     35 ****        -1.1427  -0.0955   1.0401 H              1 S1                 0.0000
     36 ****        -1.4322   1.6276   1.0210 H              1 S1                 0.0000
     37 ****        -4.7904   1.2890  -0.4604 H              1 S1                 0.0000
     38 ****         1.8752   2.3563  -0.3672 LP             1 S1                 0.0000
     39 ****         0.2354   2.8598  -0.1270 LP             1 S1                 0.0000
     40 ****         3.9168  -2.4707  -0.1107 LP             1 S1                 0.0000
@<TRIPOS>BOND
    1    1    2 2     
    2    2    3 am    
    3    2   12 1     
    4    3    4 1     
    5    3   18 1     
    6    4    5 1     
    7    4   19 1     
    8    4   20 1     
    9    5    6 1     
   10    5   21 1     
   11    5   22 1     
   12    6   11 ar    
   13    6    7 ar    
   14    7    8 ar    
   15    7   23 1     
   16    8    9 ar    
   17    8   24 1     
   18    9   10 ar    
   19    9   25 1     
   20   10   11 ar    
   21   10   26 1     
   22   12   17 1     
   23   12   13 1     
   24   12   27 1     
   25   13   14 1     
   26   13   28 1     
   27   13   29 1     
   28   14   15 1     
   29   14   30 1     
   30   14   31 1     
   31   15   16 1     
   32   15   32 1     
   33   15   37 1     
   34   16   17 1     
   35   16   33 1     
   36   16   34 1     
   37   17   35 1     
   38   17   36 1     
   39    1   38 1     
   40    1   39 1     
   41   11   40 1     
@<TRIPOS>SUBSTRUCTURE
      1 S1             1
@<TRIPOS>SET
LONE_PAIRS      STATIC     ATOMS    <user>   **** ""
3 38 39 40
DONOR_HYDROGENS      STATIC     ATOMS    <user>   **** ""
3 18 32 37
ATOM$BLUE        STATIC     ATOMS    COLORGROUP SYSTEM
3 38 39 40
ATOM$RED        STATIC     ATOMS    COLORGROUP SYSTEM
3 18 32 37
