AV-unprocessed.smi:41|AV-procd|sdf|385|dock9
  -GOLD-   2262016243D 1   1.00000     0.00000
 Structure written by MMmdl.
 26 27  0  0  0  0  0  0  0  0  1 V2000
  148.9829  139.3170  153.4001 N   0  0  0  0  0  0  0  0  0  0  0  0
  149.5985  139.9664  154.3990 C   0  0  0  0  0  0  0  0  0  0  0  0
  150.8005  139.5745  154.7733 N   0  0  0  0  0  0  0  0  0  0  0  0
  151.5073  140.1739  155.7830 C   0  0  0  0  0  0  0  0  0  0  0  0
  152.6371  139.7790  156.0682 O   0  0  0  0  0  0  0  0  0  0  0  0
  150.8868  141.2466  156.4735 N   0  0  0  0  0  0  0  0  0  0  0  0
  151.6077  141.9679  157.5213 C   0  0  2  0  0  0  0  0  0  0  0  0
  152.0409  141.1023  158.7190 C   0  0  0  0  0  0  0  0  0  0  0  0
  152.3004  142.2458  160.0822 S   0  0  0  0  0  0  0  0  0  0  0  0
  151.4149  143.5425  159.1817 C   0  0  1  0  0  0  0  0  0  0  0  0
  152.3545  144.7076  158.8155 C   0  0  0  0  0  0  0  0  0  0  0  0
  151.8861  145.9085  159.3910 O   0  0  0  0  0  0  0  0  0  0  0  0
  150.8133  143.0020  158.0104 O   0  0  0  0  0  0  0  0  0  0  0  0
  149.6365  141.6889  156.0565 C   0  0  0  0  0  0  0  0  0  0  0  0
  148.9632  141.0868  155.0528 C   0  0  0  0  0  0  0  0  0  0  0  0
  147.7492  141.5222  154.6736 F   0  0  0  0  0  0  0  0  0  0  0  0
  152.5030  142.4236  157.0978 H   0  0  0  0  0  0  0  0  0  0  0  0
  150.6259  143.9081  159.8400 H   0  0  0  0  0  0  0  0  0  0  0  0
  148.0652  139.6112  153.0985 H   0  0  0  0  0  0  0  0  0  0  0  0
  149.4371  138.5336  152.9533 H   0  0  0  0  0  0  0  0  0  0  0  0
  151.2678  140.4008  159.0224 H   0  0  0  0  0  0  0  0  0  0  0  0
  152.9442  140.5413  158.4785 H   0  0  0  0  0  0  0  0  0  0  0  0
  153.3498  144.5276  159.2230 H   0  0  0  0  0  0  0  0  0  0  0  0
  152.4690  144.8260  157.7383 H   0  0  0  0  0  0  0  0  0  0  0  0
  152.6307  146.4472  159.6110 H   0  0  0  0  0  0  0  0  0  0  0  0
  149.1706  142.5444  156.5205 H   0  0  0  0  0  0  0  0  0  0  0  0
  1  2  1  0  0  0  0
  1 19  1  0  0  0  0
  1 20  1  0  0  0  0
  2 15  1  0  0  0  0
  2  3  2  0  0  0  0
  3  4  1  0  0  0  0
  4  5  2  0  0  0  0
  4  6  1  0  0  0  0
  6  7  1  0  0  0  0
  6 14  1  0  0  0  0
  7 17  1  0  0  0  0
  7 13  1  0  0  0  0
  7  8  1  0  0  0  0
  8  9  1  0  0  0  0
  8 21  1  0  0  0  0
  8 22  1  0  0  0  0
  9 10  1  0  0  0  0
 10 18  1  0  0  0  0
 10 11  1  0  0  0  0
 10 13  1  0  0  0  0
 11 12  1  0  0  0  0
 11 23  1  0  0  0  0
 11 24  1  0  0  0  0
 12 25  1  0  0  0  0
 14 15  2  0  0  0  0
 14 26  1  0  0  0  0
 15 16  1  0  0  0  0
M  END
> <s_m_source_file>
AV-unprocessed.smi

> <i_m_source_file_index>
41

> <i_lp_mmshare_version>
43012

> <i_f3d_flags>
0

> <s_epik_input>
W05IMl1jMW5jKD1PKW4oW2NIXWMxRilbQ0BASF0yW0NIMl1TW0NAQEhdKE8yKVtDSDJdW09IXQ==

> <s_epik_cmdline>
J2VwaWtfcHl0aG9uJywgJy1waCcsICc3LjAnLCAnLXRuJywgJzgnLCAnLW1hJywgJzIwMCcsICctbWV0YWxfYmluZGluZycsICctaW1hZScsICc8aW5maWxlLm1hZT4nLCAnLW9tYWUnLCAnPG91dGZpbGUubWFlPic=

> <r_lp_tautomer_probability>
1

> <r_epik_Ionization_Penalty>
0.000101883

> <r_epik_Ionization_Penalty_Charging>
1.48607e-08

> <r_epik_Ionization_Penalty_Neutral>
0.000101868

> <r_epik_State_Penalty>
-0

> <r_epik_Charging_Adjusted_Penalty>
1.48607e-08

> <i_epik_Tot_Q>
0

> <i_epik_Tot_abs_Q>
0

> <r_epik_Metal_State_Penalty>
-0

> <b_epik_Metal_Only>
0

> <s_epik_Chemistry_Notes>
This compound contains an acetal/aminal-like group ( X-CH(R)-Y where X, Y are N, S, or O) that may be acid/base labile, releasing an aldehyde.

> <s_lp_Force_Field>
OPLS_2005

> <r_lp_Energy>
16.0015

> <b_lp_Chiralities_Consistent>
1

> <s_lp_Variant>
AV-unprocessed.smi:41-3

> <Gold.Version>
5.8.1

> <Gold.Id.Protein>
6NUR|6NUR_protein|mol2

> <Gold.PLP.Fitness>
39.9783

> <Gold.PLP.PLP>
-34.8068

> <Gold.PLP.part.hbond>
-3.6602

> <Gold.PLP.part.metal>
0.0000

> <Gold.PLP.part.buried>
-4.5637

> <Gold.PLP.part.nonpolar>
-27.3101

> <Gold.PLP.part.repulsive>
0.3139

> <Gold.PLP.ligand.clash>
0.0000

> <Gold.PLP.ligand.torsion>
0.7735

> <Gold.PLP.Chemscore.Hbond>
1.2250

> <Gold.PLP.Chemscore.CHOScore>
1.0000

> <Gold.PLP.Chemscore.Metal>
0.0000

> <Gold.Chemscore.Hbonds>
donor molecule, donor type, donor heavy atom, donor atom, acceptor molecule, acceptor atom, score
      P1  H  7989  7998       L1     3  0.22
      P1  H  7997  8008       L1     5  1.00
      L1  C    14    26       P1  8028  0.98

> <Gold.PLP.Chemscore.Internal.Correction>
0.0436

> <Gold.Rescore>
     Score         DG    S(hbond)    S(metal)    S(lipo)     H(rot)  DE(clash)    DE(int)     intcor
      8.61      -9.61       1.00        0.00      54.73       2.19       0.23       0.77       ----

> <Gold.Chemscore.Fitness>
8.6145

> <Gold.Chemscore.DG>
-9.6105

> <Gold.Chemscore.ZeroCoef>
-5.4800

> <Gold.Chemscore.Hbond>
1.0004

> <Gold.Chemscore.Metal>
0.0000

> <Gold.Chemscore.Lipo>
54.7254

> <Gold.Chemscore.Internal_Hbond>
0.0000

> <Gold.Chemscore.DEClash>
0.2310

> <Gold.Chemscore.DEInternal>
0.7650

> <Gold.Chemscore.Rot>
2.1929

> <Gold.Chemscore.Internal.Correction>
   9.000000E+99

> <Gold.Chemscore.Hbonds>
donor molecule, donor type, donor heavy atom, donor atom, acceptor molecule, acceptor atom, score
      P1  H  7997  8008       L1     5  1.00

> <Gold.Chemscore.Hbond.Weighted>
-3.3414

> <Gold.Chemscore.Metal.Weighted>
-0.0000

> <Gold.Chemscore.Lipo.Weighted>
-6.4029

> <Gold.Chemscore.Internal_Hbond.Weighted>
0.0000

> <Gold.Chemscore.DEClash.Weighted>
0.2310

> <Gold.Chemscore.DEInternal.Weighted>
0.7650

> <Gold.Chemscore.Rot.Weighted>
5.6137

> <Gold.Chemscore.Internal.Correction.Weighted>
   9.000000E+99

> <Gold.Protein.RotatedTorsions>
[ 6907 6896 6895 6894 ] final   28.02 input  -60.11 | X-H torsion
[ 7974 7965 7964 7962 ] final  142.28 input  175.53 | X-H torsion
[ 8008 7997 7996 7995 ] final  -49.63 input   59.86 | X-H torsion
[ 10167 10162 10161 10158 ] final  -82.10 input  -65.29 | X-H torsion
[ 10718 10713 10712 10709 ] final   77.50 input   66.30 | X-H torsion
[ 10763 10752 10751 10750 ] final   34.93 input  -60.55 | X-H torsion
[ 11005 11000 10999 10996 ] final  -74.15 input  -57.11 | X-H torsion

> <Gold.Protein.ActiveResidues>
 VAL166  LYS551  ARG553  GLY616  TRP617  ASP618  TYR619  PRO620  LYS621  CYS622 
 ASP623  PHE694  ASN695  SER759  ASP760  ASP761  ALA762  ILE779  LEU786  VAL792 
 PHE793  MET794  SER795  GLU796  ALA797  LYS798  CYS799  TRP800  GLU811  SER814 

> <Gold.Protein.RotatedAtoms>
  152.0108  134.9877  160.0567 H   0  0  0  0  0  0  0  0  0  0  0  0  # atno 6907 bound_to 6896
  152.1431  133.4471  159.4785 H   0  0  0  0  0  0  0  0  0  0  0  0  # atno 6908 bound_to 6896
  150.6867  134.2199  159.4436 H   0  0  0  0  0  0  0  0  0  0  0  0  # atno 6909 bound_to 6896
  144.9022  139.5408  143.5748 H   0  0  0  0  0  0  0  0  0  0  0  0  # atno 7974 bound_to 7965
  154.4047  140.1292  156.4533 H   0  0  0  0  0  0  0  0  0  0  0  0  # atno 8008 bound_to 7997
  155.7345  140.3491  155.5055 H   0  0  0  0  0  0  0  0  0  0  0  0  # atno 8009 bound_to 7997
  155.9097  140.1033  157.1279 H   0  0  0  0  0  0  0  0  0  0  0  0  # atno 8010 bound_to 7997
  140.4351  143.2534  151.8705 H   0  0  0  0  0  0  0  0  0  0  0  0  # atno 10167 bound_to 10162
  157.6712  130.9824  150.1650 H   0  0  0  0  0  0  0  0  0  0  0  0  # atno 10718 bound_to 10713
  153.0142  135.6347  154.1746 H   0  0  0  0  0  0  0  0  0  0  0  0  # atno 10763 bound_to 10752
  154.1486  135.2830  155.3143 H   0  0  0  0  0  0  0  0  0  0  0  0  # atno 10764 bound_to 10752
  154.6070  135.5568  153.7495 H   0  0  0  0  0  0  0  0  0  0  0  0  # atno 10765 bound_to 10752
  141.1631  133.6902  156.7320 H   0  0  0  0  0  0  0  0  0  0  0  0  # atno 11005 bound_to 11000
  146.3114  139.7761  142.9017 LP  0  0  0  0  0  0  0  0  0  0  0  0  # atno 17320 bound_to 7965
  145.3598  141.0323  143.3291 LP  0  0  0  0  0  0  0  0  0  0  0  0  # atno 17321 bound_to 7965
  139.4786  144.5291  151.8692 LP  0  0  0  0  0  0  0  0  0  0  0  0  # atno 17342 bound_to 10162
  140.4383  144.2022  150.5890 LP  0  0  0  0  0  0  0  0  0  0  0  0  # atno 17343 bound_to 10162
  156.2418  130.3691  149.8329 LP  0  0  0  0  0  0  0  0  0  0  0  0  # atno 17370 bound_to 10713
  156.6127  130.8593  151.3458 LP  0  0  0  0  0  0  0  0  0  0  0  0  # atno 17371 bound_to 10713
  140.2738  134.8371  157.3871 LP  0  0  0  0  0  0  0  0  0  0  0  0  # atno 17394 bound_to 11000
  140.1497  134.4866  155.7970 LP  0  0  0  0  0  0  0  0  0  0  0  0  # atno 17395 bound_to 11000

$$$$
