AV-unprocessed.smi:1247|AV-procd|sdf|5247|dock6
  -GOLD-   22720 4353D 1   1.00000     0.00000
 Structure written by MMmdl.
 47 48  0  0  0  0  0  0  0  0  2 V2000
  152.1786  141.1045  157.9476 C   0  0  0  0  0  0  0  0  0  0  0  0
  151.6359  140.4475  156.7129 C   0  0  0  0  0  0  0  0  0  0  0  0
  150.4260  140.7429  156.0198 C   0  0  0  0  0  0  0  0  0  0  0  0
  150.4430  139.8461  154.9867 C   0  0  0  0  0  0  0  0  0  0  0  0
  149.5328  139.6793  153.9903 N   0  0  0  0  0  0  0  0  0  0  0  0
  148.2666  139.2354  154.0747 C   0  0  0  0  0  0  0  0  0  0  0  0
  147.7089  138.8528  155.1035 O   0  0  0  0  0  0  0  0  0  0  0  0
  147.6678  139.2461  152.8750 N   0  0  0  0  0  0  0  0  0  0  0  0
  146.2949  138.8225  152.6259 C   0  0  0  0  0  0  0  0  0  0  0  0
  146.2268  137.7629  151.5099 C   0  0  0  0  0  0  0  0  0  0  0  0
  146.2776  136.3798  152.0446 N   0  3  1  0  0  0  0  0  0  0  0  0
  145.5671  136.2448  153.3385 C   0  0  0  0  0  0  0  0  0  0  0  0
  145.6958  134.8144  153.8986 C   0  0  2  0  0  0  0  0  0  0  0  0
  147.0927  134.4979  154.4619 C   0  0  0  0  0  0  0  0  0  0  0  0
  145.2793  133.8627  152.9194 O   0  0  0  0  0  0  0  0  0  0  0  0
  145.9653  133.9458  151.6727 C   0  0  1  0  0  0  0  0  0  0  0  0
  145.3938  132.8655  150.7477 C   0  0  0  0  0  0  0  0  0  0  0  0
  145.7937  135.3581  151.0854 C   0  0  0  0  0  0  0  0  0  0  0  0
  151.5913  139.0882  155.0745 N   0  0  0  0  0  0  0  0  0  0  0  0
  152.0727  138.0145  154.2262 C   0  0  0  0  0  0  0  0  0  0  0  0
  152.3222  139.4616  156.1465 N   0  0  0  0  0  0  0  0  0  0  0  0
  151.5745  141.9653  158.2343 H   0  0  0  0  0  0  0  0  0  0  0  0
  153.1997  141.4541  157.7917 H   0  0  0  0  0  0  0  0  0  0  0  0
  152.1874  140.4103  158.7884 H   0  0  0  0  0  0  0  0  0  0  0  0
  149.6870  141.4935  156.2565 H   0  0  0  0  0  0  0  0  0  0  0  0
  149.8603  139.9197  153.0662 H   0  0  0  0  0  0  0  0  0  0  0  0
  148.1967  139.5750  152.0801 H   0  0  0  0  0  0  0  0  0  0  0  0
  145.8574  138.4548  153.5546 H   0  0  0  0  0  0  0  0  0  0  0  0
  145.7167  139.7008  152.3384 H   0  0  0  0  0  0  0  0  0  0  0  0
  145.2899  137.9045  150.9689 H   0  0  0  0  0  0  0  0  0  0  0  0
  147.0268  137.9035  150.7809 H   0  0  0  0  0  0  0  0  0  0  0  0
  145.9586  136.9620  154.0613 H   0  0  0  0  0  0  0  0  0  0  0  0
  144.5136  136.4882  153.1915 H   0  0  0  0  0  0  0  0  0  0  0  0
  144.9942  134.7192  154.7279 H   0  0  0  0  0  0  0  0  0  0  0  0
  147.3302  135.1568  155.2975 H   0  0  0  0  0  0  0  0  0  0  0  0
  147.8793  134.6237  153.7185 H   0  0  0  0  0  0  0  0  0  0  0  0
  147.1405  133.4725  154.8292 H   0  0  0  0  0  0  0  0  0  0  0  0
  147.0250  133.7365  151.8202 H   0  0  0  0  0  0  0  0  0  0  0  0
  145.8876  132.8783  149.7757 H   0  0  0  0  0  0  0  0  0  0  0  0
  144.3259  133.0113  150.5826 H   0  0  0  0  0  0  0  0  0  0  0  0
  145.5316  131.8727  151.1765 H   0  0  0  0  0  0  0  0  0  0  0  0
  144.7440  135.5454  150.8520 H   0  0  0  0  0  0  0  0  0  0  0  0
  146.3439  135.4272  150.1474 H   0  0  0  0  0  0  0  0  0  0  0  0
  151.4528  137.9196  153.3349 H   0  0  0  0  0  0  0  0  0  0  0  0
  152.0465  137.0735  154.7767 H   0  0  0  0  0  0  0  0  0  0  0  0
  153.0987  138.2188  153.9187 H   0  0  0  0  0  0  0  0  0  0  0  0
  147.2491  136.1778  152.2328 H   0  0  0  0  0  0  0  0  0  0  0  0
  1  2  1  0  0  0  0
  1 22  1  0  0  0  0
  1 23  1  0  0  0  0
  1 24  1  0  0  0  0
  2 21  2  0  0  0  0
  2  3  1  0  0  0  0
  3  4  2  0  0  0  0
  3 25  1  0  0  0  0
  4  5  1  0  0  0  0
  4 19  1  0  0  0  0
  5  6  1  0  0  0  0
  5 26  1  0  0  0  0
  6  7  2  0  0  0  0
  6  8  1  0  0  0  0
  8  9  1  0  0  0  0
  8 27  1  0  0  0  0
  9 10  1  0  0  0  0
  9 28  1  0  0  0  0
  9 29  1  0  0  0  0
 10 11  1  0  0  0  0
 10 30  1  0  0  0  0
 10 31  1  0  0  0  0
 11 18  1  0  0  0  0
 11 12  1  0  0  0  0
 11 47  1  0  0  0  0
 12 13  1  0  0  0  0
 12 32  1  0  0  0  0
 12 33  1  0  0  0  0
 13 14  1  0  0  0  0
 13 15  1  0  0  0  0
 13 34  1  0  0  0  0
 14 35  1  0  0  0  0
 14 36  1  0  0  0  0
 14 37  1  0  0  0  0
 15 16  1  0  0  0  0
 16 17  1  0  0  0  0
 16 18  1  0  0  0  0
 16 38  1  0  0  0  0
 17 39  1  0  0  0  0
 17 40  1  0  0  0  0
 17 41  1  0  0  0  0
 18 42  1  0  0  0  0
 18 43  1  0  0  0  0
 19 20  1  0  0  0  0
 19 21  1  0  0  0  0
 20 44  1  0  0  0  0
 20 45  1  0  0  0  0
 20 46  1  0  0  0  0
M  CHG  1  11   1
M  END
> <s_m_source_file>
AV-unprocessed.smi

> <i_m_source_file_index>
1247

> <i_lp_mmshare_version>
43012

> <i_f3d_flags>
0

> <s_epik_input>
W0NIM11jMVtjSF1jKG4objEpW0NIM10pW05IXUMoPU8pW05IXVtDSDJdW0NIMl1OMltDSDJdW0NAQEhdKFtDSDNdKU9bQ0BASF0oW0NIM10pW0NIMl0y

> <s_epik_cmdline>
J2VwaWtfcHl0aG9uJywgJy1waCcsICc3LjAnLCAnLXRuJywgJzgnLCAnLW1hJywgJzIwMCcsICctbWV0YWxfYmluZGluZycsICctaW1hZScsICc8aW5maWxlLm1hZT4nLCAnLW9tYWUnLCAnPG91dGZpbGUubWFlPic=

> <r_lp_tautomer_probability>
1

> <r_epik_Ionization_Penalty>
0.663902

> <r_epik_Ionization_Penalty_Charging>
0.663826

> <r_epik_Ionization_Penalty_Neutral>
7.65444e-05

> <r_epik_State_Penalty>
0.683414

> <r_epik_Charging_Adjusted_Penalty>
1.34724

> <i_epik_Tot_Q>
1

> <i_epik_Tot_abs_Q>
1

> <r_epik_Metal_State_Penalty>
0.683419

> <b_epik_Metal_Only>
0

> <s_lp_Force_Field>
OPLS_2005

> <r_lp_Energy>
19.2404

> <b_lp_Chiralities_Consistent>
1

> <s_lp_Variant>
AV-unprocessed.smi:1247-5

> <Gold.Version>
5.8.1

> <Gold.Id.Protein>
6NUR|6NUR_protein|mol2

> <Gold.PLP.Fitness>
44.4492

> <Gold.PLP.PLP>
-32.5644

> <Gold.PLP.part.hbond>
-3.5714

> <Gold.PLP.part.metal>
0.0000

> <Gold.PLP.part.buried>
-0.3109

> <Gold.PLP.part.nonpolar>
-28.8612

> <Gold.PLP.part.repulsive>
0.4039

> <Gold.PLP.ligand.clash>
0.0000

> <Gold.PLP.ligand.torsion>
1.0777

> <Gold.PLP.Chemscore.Hbond>
4.6745

> <Gold.PLP.Chemscore.CHOScore>
0.0000

> <Gold.PLP.Chemscore.Metal>
0.0000

> <Gold.Chemscore.Hbonds>
donor molecule, donor type, donor heavy atom, donor atom, acceptor molecule, acceptor atom, score
      L1  H     5    26       P1  7957  1.00
      L1  H     8    27       P1  7957  1.00
      L1  H    11    47       P1  7948  2.00
      P1  H  7997  8010       L1    21  0.76

> <Gold.PLP.Chemscore.Internal.Correction>
0.0167

> <Gold.Rescore>
     Score         DG    S(hbond)    S(metal)    S(lipo)     H(rot)  DE(clash)    DE(int)     intcor
     19.72     -21.97       3.58        0.00      72.12       1.52       1.08       1.17       ----

> <Gold.Chemscore.Fitness>
19.7176

> <Gold.Chemscore.DG>
-21.9669

> <Gold.Chemscore.ZeroCoef>
-5.4800

> <Gold.Chemscore.Hbond>
3.5765

> <Gold.Chemscore.Metal>
0.0000

> <Gold.Chemscore.Lipo>
72.1194

> <Gold.Chemscore.Internal_Hbond>
0.0000

> <Gold.Chemscore.DEClash>
1.0835

> <Gold.Chemscore.DEInternal>
1.1657

> <Gold.Chemscore.Rot>
1.5221

> <Gold.Chemscore.Internal.Correction>
   9.000000E+99

> <Gold.Chemscore.Hbonds>
donor molecule, donor type, donor heavy atom, donor atom, acceptor molecule, acceptor atom, score
      L1  H     5    26       P1  7957  0.96
      L1  H     8    27       P1  7957  0.99
      L1  H    11    47       P1  7948  0.96
      P1  H  7997  8010       L1    21  0.30

> <Gold.Chemscore.Hbond.Weighted>
-11.9456

> <Gold.Chemscore.Metal.Weighted>
-0.0000

> <Gold.Chemscore.Lipo.Weighted>
-8.4380

> <Gold.Chemscore.Internal_Hbond.Weighted>
0.0000

> <Gold.Chemscore.DEClash.Weighted>
1.0835

> <Gold.Chemscore.DEInternal.Weighted>
1.1657

> <Gold.Chemscore.Rot.Weighted>
3.8967

> <Gold.Chemscore.Internal.Correction.Weighted>
   9.000000E+99

> <Gold.Protein.RotatedTorsions>
[ 6907 6896 6895 6894 ] final -110.92 input  -60.11 | X-H torsion
[ 7974 7965 7964 7962 ] final  -50.37 input  175.53 | X-H torsion
[ 8008 7997 7996 7995 ] final   79.93 input   59.86 | X-H torsion
[ 10167 10162 10161 10158 ] final  -51.32 input  -65.29 | X-H torsion
[ 10718 10713 10712 10709 ] final    3.13 input   66.30 | X-H torsion
[ 10763 10752 10751 10750 ] final  -90.70 input  -60.55 | X-H torsion
[ 11005 11000 10999 10996 ] final  -32.55 input  -57.11 | X-H torsion

> <Gold.Protein.ActiveResidues>
 VAL166  LYS551  ARG553  GLY616  TRP617  ASP618  TYR619  PRO620  LYS621  CYS622 
 ASP623  PHE694  ASN695  SER759  ASP760  ASP761  ALA762  ILE779  LEU786  VAL792 
 PHE793  MET794  SER795  GLU796  ALA797  LYS798  CYS799  TRP800  GLU811  SER814 

> <Gold.Protein.RotatedAtoms>
  150.7656  133.9311  159.3426 H   0  0  0  0  0  0  0  0  0  0  0  0  # atno 6907 bound_to 6896
  151.7210  135.0892  160.0293 H   0  0  0  0  0  0  0  0  0  0  0  0  # atno 6908 bound_to 6896
  152.3650  133.6307  159.6079 H   0  0  0  0  0  0  0  0  0  0  0  0  # atno 6909 bound_to 6896
  145.9306  140.7753  142.9602 H   0  0  0  0  0  0  0  0  0  0  0  0  # atno 7974 bound_to 7965
  155.8765  140.3446  155.5857 H   0  0  0  0  0  0  0  0  0  0  0  0  # atno 8008 bound_to 7997
  155.7769  140.0853  157.2098 H   0  0  0  0  0  0  0  0  0  0  0  0  # atno 8009 bound_to 7997
  154.4021  140.1508  156.2994 H   0  0  0  0  0  0  0  0  0  0  0  0  # atno 8010 bound_to 7997
  140.6594  143.2624  151.4487 H   0  0  0  0  0  0  0  0  0  0  0  0  # atno 10167 bound_to 10162
  156.8733  130.5627  149.5656 H   0  0  0  0  0  0  0  0  0  0  0  0  # atno 10718 bound_to 10713
  154.6685  135.5295  153.8107 H   0  0  0  0  0  0  0  0  0  0  0  0  # atno 10763 bound_to 10752
  153.0486  135.6523  154.0762 H   0  0  0  0  0  0  0  0  0  0  0  0  # atno 10764 bound_to 10752
  154.0663  135.2957  155.3296 H   0  0  0  0  0  0  0  0  0  0  0  0  # atno 10765 bound_to 10752
  140.9561  133.7192  156.1296 H   0  0  0  0  0  0  0  0  0  0  0  0  # atno 11005 bound_to 11000
  144.6764  140.2120  143.7376 LP  0  0  0  0  0  0  0  0  0  0  0  0  # atno 17320 bound_to 7965
  145.8431  139.2139  143.1815 LP  0  0  0  0  0  0  0  0  0  0  0  0  # atno 17321 bound_to 7965
  139.5824  144.1680  152.1985 LP  0  0  0  0  0  0  0  0  0  0  0  0  # atno 17342 bound_to 10162
  140.1009  144.5540  150.6989 LP  0  0  0  0  0  0  0  0  0  0  0  0  # atno 17343 bound_to 10162
  156.0715  130.5747  150.9393 LP  0  0  0  0  0  0  0  0  0  0  0  0  # atno 17370 bound_to 10713
  157.6183  131.0931  150.8669 LP  0  0  0  0  0  0  0  0  0  0  0  0  # atno 17371 bound_to 10713
  140.7533  134.4020  157.5538 LP  0  0  0  0  0  0  0  0  0  0  0  0  # atno 17394 bound_to 11000
  139.8863  134.8914  156.2594 LP  0  0  0  0  0  0  0  0  0  0  0  0  # atno 17395 bound_to 11000

$$$$
