#       Name:                AV-unprocessed.smi:2361
#       Creating user name   scv26
#       Creation time:       Fri Mar 27 13:04:54 2020


#       File generated by GOLD software.
#

@<TRIPOS>MOLECULE
AV-unprocessed.smi:2361
    31    32     1
SMALL
NO_CHARGES


@<TRIPOS>ATOM
      1 ****        -0.2531   1.3961   0.6128 O.2            1 S1                 0.0000
      2 ****         0.2147   0.3550   0.1514 C.2            1 S1                 0.0000
      3 ****        -0.5201  -0.6871  -0.2775 N.am           1 S1                 0.0000
      4 ****        -1.9364  -0.8216  -0.3060 C.ar           1 S1                 0.0000
      5 ****        -2.8220   0.2809  -0.3950 C.ar           1 S1                 0.0000
      6 ****        -4.1651   0.1567  -0.4442 N.ar           1 S1                 0.0000
      7 ****        -4.6878  -1.0862  -0.4134 C.ar           1 S1                 0.0000
      8 ****        -3.9038  -2.2538  -0.3425 C.ar           1 S1                 0.0000
      9 ****        -4.6652  -3.8046  -0.3195 Cl             1 S1                 0.0000
     10 ****        -2.4992  -2.1191  -0.2927 C.ar           1 S1                 0.0000
     11 ****        -1.4869  -3.5215  -0.2104 Cl             1 S1                 0.0000
     12 ****         1.7346   0.1818   0.0459 C.3            1 S1                 0.0000
     13 ****         2.5153   0.7030   1.2677 C.3            1 S1                 0.0000
     14 ****         3.2567   1.9131   0.7333 C.3            1 S1                 0.0000
     15 ****         3.4350   1.5492  -0.7334 C.3            1 S1                 0.0000
     16 ****         2.1922   0.9510  -1.0646 O.3            1 S1                 0.0000
     17 ****        -0.0011  -1.5092  -0.5509 H              1 S1                 0.0000
     18 ****        -2.4628   1.2967  -0.4524 H              1 S1                 0.0000
     19 ****        -5.7653  -1.1511  -0.4531 H              1 S1                 0.0000
     20 ****         1.9838  -0.8670  -0.1248 H              1 S1                 0.0000
     21 ****         1.8903   0.9540   2.1258 H              1 S1                 0.0000
     22 ****         3.2274  -0.0543   1.5973 H              1 S1                 0.0000
     23 ****         2.6342   2.8044   0.8234 H              1 S1                 0.0000
     24 ****         4.2004   2.0989   1.2466 H              1 S1                 0.0000
     25 ****         3.6461   2.4143  -1.3622 H              1 S1                 0.0000
     26 ****         4.2381   0.8217  -0.8615 H              1 S1                 0.0000
     27 ****        -1.2439   1.5086   0.6884 LP             1 S1                 0.0000
     28 ****         0.3577   2.1292   0.9120 LP             1 S1                 0.0000
     29 ****        -4.7550   0.9621  -0.5018 LP             1 S1                 0.0000
     30 ****         1.5235   1.6635  -1.2769 LP             1 S1                 0.0000
     31 ****         2.3083   0.3554  -1.8595 LP             1 S1                 0.0000
@<TRIPOS>BOND
    1    1    2 2     
    2    2    3 am    
    3    2   12 1     
    4    3    4 1     
    5    3   17 1     
    6    4   10 ar    
    7    4    5 ar    
    8    5    6 ar    
    9    5   18 1     
   10    6    7 ar    
   11    7    8 ar    
   12    7   19 1     
   13    8    9 1     
   14    8   10 ar    
   15   10   11 1     
   16   12   16 1     
   17   12   13 1     
   18   12   20 1     
   19   13   14 1     
   20   13   21 1     
   21   13   22 1     
   22   14   15 1     
   23   14   23 1     
   24   14   24 1     
   25   15   16 1     
   26   15   25 1     
   27   15   26 1     
   28    1   27 1     
   29    1   28 1     
   30    6   29 1     
   31   16   30 1     
   32   16   31 1     
@<TRIPOS>SUBSTRUCTURE
      1 S1             1
@<TRIPOS>SET
LONE_PAIRS      STATIC     ATOMS    <user>   **** ""
5 27 28 29 30 31
DONOR_HYDROGENS      STATIC     ATOMS    <user>   **** ""
1 17
ATOM$BLUE        STATIC     ATOMS    COLORGROUP SYSTEM
5 27 28 29 30 31
ATOM$RED        STATIC     ATOMS    COLORGROUP SYSTEM
1 17
