AV-unprocessed.smi:1052|AV-procd|sdf|4616|dock7
  -GOLD-   22720 3113D 1   1.00000     0.00000
 Structure written by MMmdl.
 40 41  0  0  0  0  0  0  0  0  1 V2000
  147.1006  142.2069  154.1936 C   0  0  0  0  0  0  0  0  0  0  0  0
  147.4694  140.7768  154.6264 C   0  0  0  0  0  0  0  0  0  0  0  0
  146.6335  140.3959  155.8659 C   0  0  0  0  0  0  0  0  0  0  0  0
  147.1805  139.8113  153.4572 C   0  0  0  0  0  0  0  0  0  0  0  0
  148.9002  140.7866  154.9535 N   0  0  0  0  0  0  0  0  0  0  0  0
  149.4937  141.1518  156.1039 C   0  0  0  0  0  0  0  0  0  0  0  0
  148.8830  141.5625  157.0913 O   0  0  0  0  0  0  0  0  0  0  0  0
  151.0259  141.0572  156.1237 C   0  0  0  0  0  0  0  0  0  0  0  0
  151.6218  141.5972  157.3546 N   0  0  0  0  0  0  0  0  0  0  0  0
  151.2386  142.8926  157.6445 N   0  0  0  0  0  0  0  0  0  0  0  0
  151.6747  143.4920  158.7010 C   0  0  0  0  0  0  0  0  0  0  0  0
  151.2028  144.8974  158.9436 C   0  0  0  0  0  0  0  0  0  0  0  0
  151.7907  145.7558  160.0392 C   0  0  0  0  0  0  0  0  0  0  0  0
  150.3634  145.2704  160.1444 C   0  0  0  0  0  0  0  0  0  0  0  0
  152.5839  142.7978  159.5909 C   0  0  0  0  0  0  0  0  0  0  0  0
  152.9692  141.5266  159.3212 C   0  0  0  0  0  0  0  0  0  0  0  0
  153.9349  140.7661  160.2266 C   0  0  0  0  0  0  0  0  0  0  0  0
  153.5106  139.5161  160.4127 F   0  0  0  0  0  0  0  0  0  0  0  0
  155.1526  140.7171  159.6852 F   0  0  0  0  0  0  0  0  0  0  0  0
  154.0464  141.3433  161.4240 F   0  0  0  0  0  0  0  0  0  0  0  0
  152.4676  140.8439  158.1191 C   0  0  0  0  0  0  0  0  0  0  0  0
  152.7716  139.6896  157.8147 O   0  0  0  0  0  0  0  0  0  0  0  0
  146.0441  142.2827  153.9333 H   0  0  0  0  0  0  0  0  0  0  0  0
  147.6758  142.5195  153.3211 H   0  0  0  0  0  0  0  0  0  0  0  0
  147.2934  142.9272  154.9899 H   0  0  0  0  0  0  0  0  0  0  0  0
  146.8488  141.0551  156.7077 H   0  0  0  0  0  0  0  0  0  0  0  0
  146.8247  139.3732  156.1908 H   0  0  0  0  0  0  0  0  0  0  0  0
  145.5659  140.4702  155.6571 H   0  0  0  0  0  0  0  0  0  0  0  0
  146.1374  139.8747  153.1453 H   0  0  0  0  0  0  0  0  0  0  0  0
  147.3682  138.7717  153.7255 H   0  0  0  0  0  0  0  0  0  0  0  0
  147.7968  140.0440  152.5881 H   0  0  0  0  0  0  0  0  0  0  0  0
  149.5126  140.4722  154.2147 H   0  0  0  0  0  0  0  0  0  0  0  0
  151.3366  140.0198  155.9841 H   0  0  0  0  0  0  0  0  0  0  0  0
  151.4058  141.5940  155.2525 H   0  0  0  0  0  0  0  0  0  0  0  0
  150.9620  145.3898  158.0032 H   0  0  0  0  0  0  0  0  0  0  0  0
  152.5230  145.3035  160.7055 H   0  0  0  0  0  0  0  0  0  0  0  0
  151.9484  146.8098  159.8200 H   0  0  0  0  0  0  0  0  0  0  0  0
  149.5721  146.0024  159.9953 H   0  0  0  0  0  0  0  0  0  0  0  0
  150.1537  144.5036  160.8878 H   0  0  0  0  0  0  0  0  0  0  0  0
  152.9426  143.3158  160.4677 H   0  0  0  0  0  0  0  0  0  0  0  0
  1  2  1  0  0  0  0
  1 23  1  0  0  0  0
  1 24  1  0  0  0  0
  1 25  1  0  0  0  0
  2  3  1  0  0  0  0
  2  4  1  0  0  0  0
  2  5  1  0  0  0  0
  3 26  1  0  0  0  0
  3 27  1  0  0  0  0
  3 28  1  0  0  0  0
  4 29  1  0  0  0  0
  4 30  1  0  0  0  0
  4 31  1  0  0  0  0
  5  6  1  0  0  0  0
  5 32  1  0  0  0  0
  6  7  2  0  0  0  0
  6  8  1  0  0  0  0
  8  9  1  0  0  0  0
  8 33  1  0  0  0  0
  8 34  1  0  0  0  0
  9 21  1  0  0  0  0
  9 10  1  0  0  0  0
 10 11  2  0  0  0  0
 11 12  1  0  0  0  0
 11 15  1  0  0  0  0
 12 14  1  0  0  0  0
 12 13  1  0  0  0  0
 12 35  1  0  0  0  0
 13 14  1  0  0  0  0
 13 36  1  0  0  0  0
 13 37  1  0  0  0  0
 14 38  1  0  0  0  0
 14 39  1  0  0  0  0
 15 16  2  0  0  0  0
 15 40  1  0  0  0  0
 16 17  1  0  0  0  0
 16 21  1  0  0  0  0
 17 18  1  0  0  0  0
 17 19  1  0  0  0  0
 17 20  1  0  0  0  0
 21 22  2  0  0  0  0
M  END
> <s_m_source_file>
AV-unprocessed.smi

> <i_m_source_file_index>
1052

> <i_lp_mmshare_version>
43012

> <i_f3d_flags>
0

> <s_epik_input>
W0NIM11DKFtDSDNdKShbQ0gzXSlbTkhdQyg9TylbQ0gyXW4xbmMoW0NIXTJbQ0gyXVtDSDJdMilbY0hdYyhDKEYpKEYpRiljMT1P

> <s_epik_cmdline>
J2VwaWtfcHl0aG9uJywgJy1waCcsICc3LjAnLCAnLXRuJywgJzgnLCAnLW1hJywgJzIwMCcsICctbWV0YWxfYmluZGluZycsICctaW1hZScsICc8aW5maWxlLm1hZT4nLCAnLW9tYWUnLCAnPG91dGZpbGUubWFlPic=

> <r_lp_tautomer_probability>
1

> <r_epik_Ionization_Penalty>
2.47799e-08

> <r_epik_Ionization_Penalty_Charging>
1.49243e-10

> <r_epik_Ionization_Penalty_Neutral>
2.46307e-08

> <r_epik_State_Penalty>
-0

> <r_epik_Charging_Adjusted_Penalty>
1.49243e-10

> <i_epik_Tot_Q>
0

> <i_epik_Tot_abs_Q>
0

> <r_epik_Metal_State_Penalty>
-0

> <b_epik_Metal_Only>
0

> <s_lp_Force_Field>
OPLS_2005

> <r_lp_Energy>
24.0208

> <b_lp_Chiralities_Consistent>
1

> <s_lp_Variant>
AV-unprocessed.smi:1052-1

> <Gold.Version>
5.8.1

> <Gold.Id.Protein>
6NUR|6NUR_protein|mol2

> <Gold.PLP.Fitness>
46.7925

> <Gold.PLP.PLP>
-45.7030

> <Gold.PLP.part.hbond>
-1.0000

> <Gold.PLP.part.metal>
0.0000

> <Gold.PLP.part.buried>
-5.1629

> <Gold.PLP.part.nonpolar>
-39.4683

> <Gold.PLP.part.repulsive>
0.3337

> <Gold.PLP.ligand.clash>
0.0000

> <Gold.PLP.ligand.torsion>
1.2598

> <Gold.PLP.Chemscore.Hbond>
1.0000

> <Gold.PLP.Chemscore.CHOScore>
0.0000

> <Gold.PLP.Chemscore.Metal>
0.0000

> <Gold.Chemscore.Hbonds>
donor molecule, donor type, donor heavy atom, donor atom, acceptor molecule, acceptor atom, score
      P1  H  7997  8009       L1    22  0.93

> <Gold.PLP.Chemscore.Internal.Correction>
0.6091

> <Gold.Rescore>
     Score         DG    S(hbond)    S(metal)    S(lipo)     H(rot)  DE(clash)    DE(int)     intcor
     10.36     -15.47       0.84        0.00      98.50       1.69       0.25       4.86       ----

> <Gold.Chemscore.Fitness>
10.3559

> <Gold.Chemscore.DG>
-15.4734

> <Gold.Chemscore.ZeroCoef>
-5.4800

> <Gold.Chemscore.Hbond>
0.8370

> <Gold.Chemscore.Metal>
0.0000

> <Gold.Chemscore.Lipo>
98.5025

> <Gold.Chemscore.Internal_Hbond>
0.0000

> <Gold.Chemscore.DEClash>
0.2529

> <Gold.Chemscore.DEInternal>
4.8646

> <Gold.Chemscore.Rot>
1.6903

> <Gold.Chemscore.Internal.Correction>
   9.000000E+99

> <Gold.Chemscore.Hbonds>
donor molecule, donor type, donor heavy atom, donor atom, acceptor molecule, acceptor atom, score
      P1  H  7997  8009       L1    22  0.19

> <Gold.Chemscore.Hbond.Weighted>
-2.7957

> <Gold.Chemscore.Metal.Weighted>
-0.0000

> <Gold.Chemscore.Lipo.Weighted>
-11.5248

> <Gold.Chemscore.Internal_Hbond.Weighted>
0.0000

> <Gold.Chemscore.DEClash.Weighted>
0.2529

> <Gold.Chemscore.DEInternal.Weighted>
4.8646

> <Gold.Chemscore.Rot.Weighted>
4.3272

> <Gold.Chemscore.Internal.Correction.Weighted>
   9.000000E+99

> <Gold.Protein.RotatedTorsions>
[ 6907 6896 6895 6894 ] final   55.64 input  -60.11 | X-H torsion
[ 7974 7965 7964 7962 ] final  -19.04 input  175.53 | X-H torsion
[ 8008 7997 7996 7995 ] final  149.61 input   59.86 | X-H torsion
[ 10167 10162 10161 10158 ] final  154.13 input  -65.29 | X-H torsion
[ 10718 10713 10712 10709 ] final  -27.48 input   66.30 | X-H torsion
[ 10763 10752 10751 10750 ] final   92.39 input  -60.55 | X-H torsion
[ 11005 11000 10999 10996 ] final  -86.02 input  -57.11 | X-H torsion

> <Gold.Protein.ActiveResidues>
 VAL166  LYS551  ARG553  GLY616  TRP617  ASP618  TYR619  PRO620  LYS621  CYS622 
 ASP623  PHE694  ASN695  SER759  ASP760  ASP761  ALA762  ILE779  LEU786  VAL792 
 PHE793  MET794  SER795  GLU796  ALA797  LYS798  CYS799  TRP800  GLU811  SER814 

> <Gold.Protein.RotatedAtoms>
  152.3558  134.6941  160.0222 H   0  0  0  0  0  0  0  0  0  0  0  0  # atno 6907 bound_to 6896
  151.7280  133.3311  159.3341 H   0  0  0  0  0  0  0  0  0  0  0  0  # atno 6908 bound_to 6896
  150.7571  134.6322  159.6237 H   0  0  0  0  0  0  0  0  0  0  0  0  # atno 6909 bound_to 6896
  146.1862  140.4006  142.8475 H   0  0  0  0  0  0  0  0  0  0  0  0  # atno 7974 bound_to 7965
  156.2748  140.2097  156.5885 H   0  0  0  0  0  0  0  0  0  0  0  0  # atno 8008 bound_to 7997
  154.7001  140.0522  157.0473 H   0  0  0  0  0  0  0  0  0  0  0  0  # atno 8009 bound_to 7997
  155.0747  140.3180  155.4623 H   0  0  0  0  0  0  0  0  0  0  0  0  # atno 8010 bound_to 7997
  139.4824  144.5213  151.7871 H   0  0  0  0  0  0  0  0  0  0  0  0  # atno 10167 bound_to 10162
  156.4376  130.4457  149.7075 H   0  0  0  0  0  0  0  0  0  0  0  0  # atno 10718 bound_to 10713
  153.2186  135.4363  155.0463 H   0  0  0  0  0  0  0  0  0  0  0  0  # atno 10763 bound_to 10752
  154.8238  135.3350  154.6961 H   0  0  0  0  0  0  0  0  0  0  0  0  # atno 10764 bound_to 10752
  153.7394  135.7005  153.5026 H   0  0  0  0  0  0  0  0  0  0  0  0  # atno 10765 bound_to 10752
  141.1635  133.7431  156.9100 H   0  0  0  0  0  0  0  0  0  0  0  0  # atno 11005 bound_to 11000
  144.8401  140.6843  143.6235 LP  0  0  0  0  0  0  0  0  0  0  0  0  # atno 17320 bound_to 7965
  145.3933  139.1612  143.4217 LP  0  0  0  0  0  0  0  0  0  0  0  0  # atno 17321 bound_to 7965
  140.4727  144.1563  150.5920 LP  0  0  0  0  0  0  0  0  0  0  0  0  # atno 17342 bound_to 10162
  140.4364  143.2545  151.9529 LP  0  0  0  0  0  0  0  0  0  0  0  0  # atno 17343 bound_to 10162
  156.3952  130.7647  151.2651 LP  0  0  0  0  0  0  0  0  0  0  0  0  # atno 17370 bound_to 10713
  157.7507  131.0256  150.3926 LP  0  0  0  0  0  0  0  0  0  0  0  0  # atno 17371 bound_to 10713
  140.1523  134.9221  157.2609 LP  0  0  0  0  0  0  0  0  0  0  0  0  # atno 17394 bound_to 11000
  140.2708  134.3462  155.7374 LP  0  0  0  0  0  0  0  0  0  0  0  0  # atno 17395 bound_to 11000

$$$$
