AV-unprocessed.smi:1641|AV-procd|sdf|6566|dock3
  -GOLD-   22720 7253D 1   1.00000     0.00000
 Structure written by MMmdl.
 41 42  0  0  0  0  0  0  0  0  3 V2000
  151.0471  141.3249  156.5379 C   0  0  0  0  0  0  0  0  0  0  0  0
  151.2327  139.9875  155.9075 C   0  0  0  0  0  0  0  0  0  0  0  0
  151.6411  139.8361  154.6454 N   0  0  0  0  0  0  0  0  0  0  0  0
  151.7385  138.5002  154.2840 N   0  0  0  0  0  0  0  0  0  0  0  0
  151.4115  137.6615  155.2773 C   0  0  0  0  0  0  0  0  0  0  0  0
  151.4371  136.3266  155.1290 N   0  5  0  0  0  0  0  0  0  0  0  0
  150.3163  135.6014  155.3417 C   0  0  0  0  0  0  0  0  0  0  0  0
  149.4918  135.7726  156.2424 O   0  0  0  0  0  0  0  0  0  0  0  0
  150.1369  134.6153  154.4539 N   0  0  0  0  0  0  0  0  0  0  0  0
  149.0139  133.6888  154.4483 C   0  0  0  0  0  0  0  0  0  0  0  0
  147.6886  134.4552  154.5785 C   0  0  0  0  0  0  0  0  0  0  0  0
  147.0702  134.7428  153.2605 N   0  3  1  0  0  0  0  0  0  0  0  0
  146.9506  133.5298  152.4174 C   0  0  0  0  0  0  0  0  0  0  0  0
  146.3654  133.8848  151.0377 C   0  0  1  0  0  0  0  0  0  0  0  0
  146.1551  132.6444  150.1625 C   0  0  0  0  0  0  0  0  0  0  0  0
  145.1046  134.5197  151.2183 O   0  0  0  0  0  0  0  0  0  0  0  0
  145.2059  135.7361  151.9506 C   0  0  1  0  0  0  0  0  0  0  0  0
  143.8155  136.3791  152.0032 C   0  0  0  0  0  0  0  0  0  0  0  0
  145.7613  135.4352  153.3555 C   0  0  0  0  0  0  0  0  0  0  0  0
  150.9284  138.4837  156.7611 S   0  0  0  0  0  0  0  0  0  0  0  0
  151.9735  141.8968  156.4823 H   0  0  0  0  0  0  0  0  0  0  0  0
  150.7665  141.2155  157.5856 H   0  0  0  0  0  0  0  0  0  0  0  0
  150.2611  141.8755  156.0209 H   0  0  0  0  0  0  0  0  0  0  0  0
  150.8348  134.5041  153.7331 H   0  0  0  0  0  0  0  0  0  0  0  0
  149.0461  133.1142  153.5223 H   0  0  0  0  0  0  0  0  0  0  0  0
  149.1221  132.9834  155.2736 H   0  0  0  0  0  0  0  0  0  0  0  0
  147.0018  133.8449  155.1672 H   0  0  0  0  0  0  0  0  0  0  0  0
  147.8299  135.3845  155.1331 H   0  0  0  0  0  0  0  0  0  0  0  0
  147.9321  133.0708  152.2914 H   0  0  0  0  0  0  0  0  0  0  0  0
  146.3162  132.7984  152.9211 H   0  0  0  0  0  0  0  0  0  0  0  0
  147.0395  134.5664  150.5156 H   0  0  0  0  0  0  0  0  0  0  0  0
  147.0978  132.1285  149.9787 H   0  0  0  0  0  0  0  0  0  0  0  0
  145.7326  132.9174  149.1952 H   0  0  0  0  0  0  0  0  0  0  0  0
  145.4731  131.9375  150.6357 H   0  0  0  0  0  0  0  0  0  0  0  0
  145.8807  136.4151  151.4261 H   0  0  0  0  0  0  0  0  0  0  0  0
  143.8394  137.3232  152.5480 H   0  0  0  0  0  0  0  0  0  0  0  0
  143.0957  135.7255  152.4969 H   0  0  0  0  0  0  0  0  0  0  0  0
  143.4436  136.5850  150.9992 H   0  0  0  0  0  0  0  0  0  0  0  0
  145.0593  134.8120  153.9124 H   0  0  0  0  0  0  0  0  0  0  0  0
  145.8654  136.3689  153.9071 H   0  0  0  0  0  0  0  0  0  0  0  0
  147.7016  135.3645  152.7759 H   0  0  0  0  0  0  0  0  0  0  0  0
  1  2  1  0  0  0  0
  1 21  1  0  0  0  0
  1 22  1  0  0  0  0
  1 23  1  0  0  0  0
  2 20  1  0  0  0  0
  2  3  2  0  0  0  0
  3  4  1  0  0  0  0
  4  5  2  0  0  0  0
  5  6  1  0  0  0  0
  5 20  1  0  0  0  0
  6  7  1  0  0  0  0
  7  8  2  0  0  0  0
  7  9  1  0  0  0  0
  9 10  1  0  0  0  0
  9 24  1  0  0  0  0
 10 11  1  0  0  0  0
 10 25  1  0  0  0  0
 10 26  1  0  0  0  0
 11 12  1  0  0  0  0
 11 27  1  0  0  0  0
 11 28  1  0  0  0  0
 12 19  1  0  0  0  0
 12 13  1  0  0  0  0
 12 41  1  0  0  0  0
 13 14  1  0  0  0  0
 13 29  1  0  0  0  0
 13 30  1  0  0  0  0
 14 15  1  0  0  0  0
 14 16  1  0  0  0  0
 14 31  1  0  0  0  0
 15 32  1  0  0  0  0
 15 33  1  0  0  0  0
 15 34  1  0  0  0  0
 16 17  1  0  0  0  0
 17 18  1  0  0  0  0
 17 19  1  0  0  0  0
 17 35  1  0  0  0  0
 18 36  1  0  0  0  0
 18 37  1  0  0  0  0
 18 38  1  0  0  0  0
 19 39  1  0  0  0  0
 19 40  1  0  0  0  0
M  CHG  1   6  -1
M  CHG  1  12   1
M  END
> <s_m_source_file>
AV-unprocessed.smi

> <i_m_source_file_index>
1641

> <i_lp_mmshare_version>
43012

> <i_f3d_flags>
0

> <s_epik_input>
W0NIM11jMW5uYyhzMSlbTkhdQyg9TylbTkhdW0NIMl1bQ0gyXU4yW0NIMl1bQ0BASF0oW0NIM10pT1tDQEBIXShbQ0gzXSlbQ0gyXTI=

> <s_epik_cmdline>
J2VwaWtfcHl0aG9uJywgJy1waCcsICc3LjAnLCAnLXRuJywgJzgnLCAnLW1hJywgJzIwMCcsICctbWV0YWxfYmluZGluZycsICctaW1hZScsICc8aW5maWxlLm1hZT4nLCAnLW9tYWUnLCAnPG91dGZpbGUubWFlPic=

> <r_lp_tautomer_probability>
1

> <r_epik_Ionization_Penalty>
3.5343

> <r_epik_Ionization_Penalty_Charging>
3.42778

> <r_epik_Ionization_Penalty_Neutral>
0.106519

> <r_epik_State_Penalty>
3.62118

> <r_epik_Charging_Adjusted_Penalty>
7.04896

> <i_epik_Tot_Q>
0

> <i_epik_Tot_abs_Q>
2

> <r_epik_Metal_State_Penalty>
1.13984

> <b_epik_Metal_Only>
1

> <s_lp_Force_Field>
OPLS_2005

> <r_lp_Energy>
7.34164

> <b_lp_Chiralities_Consistent>
1

> <s_lp_Variant>
AV-unprocessed.smi:1641-11

> <Gold.Version>
5.8.1

> <Gold.Id.Protein>
6NUR|6NUR_protein|mol2

> <Gold.PLP.Fitness>
40.7625

> <Gold.PLP.PLP>
-27.9978

> <Gold.PLP.part.hbond>
-3.3530

> <Gold.PLP.part.metal>
0.0000

> <Gold.PLP.part.buried>
-3.7557

> <Gold.PLP.part.nonpolar>
-20.9541

> <Gold.PLP.part.repulsive>
0.5882

> <Gold.PLP.ligand.clash>
0.0000

> <Gold.PLP.ligand.torsion>
1.1626

> <Gold.PLP.Chemscore.Hbond>
5.0000

> <Gold.PLP.Chemscore.CHOScore>
0.0000

> <Gold.PLP.Chemscore.Metal>
0.0000

> <Gold.Chemscore.Hbonds>
donor molecule, donor type, donor heavy atom, donor atom, acceptor molecule, acceptor atom, score
      L1  H    12    41       P1  7948  2.00
      P1  H  7989  7998       L1     3  1.00
      P1  H 10752 10763       L1     6  1.98

> <Gold.PLP.Chemscore.Internal.Correction>
0.0899

> <Gold.Rescore>
     Score         DG    S(hbond)    S(metal)    S(lipo)     H(rot)  DE(clash)    DE(int)     intcor
     15.19     -17.90       2.89        0.00      58.68       1.61       0.03       2.68       ----

> <Gold.Chemscore.Fitness>
15.1931

> <Gold.Chemscore.DG>
-17.8980

> <Gold.Chemscore.ZeroCoef>
-5.4800

> <Gold.Chemscore.Hbond>
2.8943

> <Gold.Chemscore.Metal>
0.0000

> <Gold.Chemscore.Lipo>
58.6761

> <Gold.Chemscore.Internal_Hbond>
0.0000

> <Gold.Chemscore.DEClash>
0.0263

> <Gold.Chemscore.DEInternal>
2.6786

> <Gold.Chemscore.Rot>
1.6070

> <Gold.Chemscore.Internal.Correction>
   9.000000E+99

> <Gold.Chemscore.Hbonds>
donor molecule, donor type, donor heavy atom, donor atom, acceptor molecule, acceptor atom, score
      L1  H    12    41       P1  7948  1.00
      P1  H  7989  7998       L1     3  0.85
      P1  H 10752 10763       L1     6  0.89

> <Gold.Chemscore.Hbond.Weighted>
-9.6668

> <Gold.Chemscore.Metal.Weighted>
-0.0000

> <Gold.Chemscore.Lipo.Weighted>
-6.8651

> <Gold.Chemscore.Internal_Hbond.Weighted>
0.0000

> <Gold.Chemscore.DEClash.Weighted>
0.0263

> <Gold.Chemscore.DEInternal.Weighted>
2.6786

> <Gold.Chemscore.Rot.Weighted>
4.1139

> <Gold.Chemscore.Internal.Correction.Weighted>
   9.000000E+99

> <Gold.Protein.RotatedTorsions>
[ 6907 6896 6895 6894 ] final -166.19 input  -60.11 | X-H torsion
[ 7974 7965 7964 7962 ] final  -49.58 input  175.53 | X-H torsion
[ 8008 7997 7996 7995 ] final  150.72 input   59.86 | X-H torsion
[ 10167 10162 10161 10158 ] final  -77.80 input  -65.29 | X-H torsion
[ 10718 10713 10712 10709 ] final  103.87 input   66.30 | X-H torsion
[ 10763 10752 10751 10750 ] final   83.74 input  -60.55 | X-H torsion
[ 11005 11000 10999 10996 ] final  -65.55 input  -57.11 | X-H torsion

> <Gold.Protein.ActiveResidues>
 VAL166  LYS551  ARG553  GLY616  TRP617  ASP618  TYR619  PRO620  LYS621  CYS622 
 ASP623  PHE694  ASN695  SER759  ASP760  ASP761  ALA762  ILE779  LEU786  VAL792 
 PHE793  MET794  SER795  GLU796  ALA797  LYS798  CYS799  TRP800  GLU811  SER814 

> <Gold.Protein.RotatedAtoms>
  151.4396  133.3647  159.2779 H   0  0  0  0  0  0  0  0  0  0  0  0  # atno 6907 bound_to 6896
  150.9167  134.8586  159.7472 H   0  0  0  0  0  0  0  0  0  0  0  0  # atno 6908 bound_to 6896
  152.4961  134.4330  159.9570 H   0  0  0  0  0  0  0  0  0  0  0  0  # atno 6909 bound_to 6896
  145.9391  140.7679  142.9561 H   0  0  0  0  0  0  0  0  0  0  0  0  # atno 7974 bound_to 7965
  156.2704  140.2067  156.6063 H   0  0  0  0  0  0  0  0  0  0  0  0  # atno 8008 bound_to 7997
  154.6867  140.0534  157.0345 H   0  0  0  0  0  0  0  0  0  0  0  0  # atno 8009 bound_to 7997
  155.0924  140.3198  155.4573 H   0  0  0  0  0  0  0  0  0  0  0  0  # atno 8010 bound_to 7997
  140.4738  143.2420  151.8164 H   0  0  0  0  0  0  0  0  0  0  0  0  # atno 10167 bound_to 10162
  157.6759  131.0789  150.5620 H   0  0  0  0  0  0  0  0  0  0  0  0  # atno 10718 bound_to 10713
  153.1319  135.4680  154.9361 H   0  0  0  0  0  0  0  0  0  0  0  0  # atno 10763 bound_to 10752
  154.7671  135.3148  154.8266 H   0  0  0  0  0  0  0  0  0  0  0  0  # atno 10764 bound_to 10752
  153.8807  135.6894  153.4821 H   0  0  0  0  0  0  0  0  0  0  0  0  # atno 10765 bound_to 10752
  141.1457  133.6683  156.6003 H   0  0  0  0  0  0  0  0  0  0  0  0  # atno 11005 bound_to 11000
  144.6776  140.2250  143.7362 LP  0  0  0  0  0  0  0  0  0  0  0  0  # atno 17320 bound_to 7965
  145.8324  139.2092  143.1875 LP  0  0  0  0  0  0  0  0  0  0  0  0  # atno 17321 bound_to 7965
  139.4822  144.4859  151.9248 LP  0  0  0  0  0  0  0  0  0  0  0  0  # atno 17342 bound_to 10162
  140.3944  144.2574  150.5897 LP  0  0  0  0  0  0  0  0  0  0  0  0  # atno 17343 bound_to 10162
  156.5922  130.4332  149.5931 LP  0  0  0  0  0  0  0  0  0  0  0  0  # atno 17370 bound_to 10713
  156.2574  130.6942  151.1700 LP  0  0  0  0  0  0  0  0  0  0  0  0  # atno 17371 bound_to 10713
  140.3694  134.7619  157.4588 LP  0  0  0  0  0  0  0  0  0  0  0  0  # atno 17394 bound_to 11000
  140.0723  134.5846  155.8629 LP  0  0  0  0  0  0  0  0  0  0  0  0  # atno 17395 bound_to 11000

$$$$
