AV-unprocessed.smi:671|AV-procd|sdf|3279|dock1
  -GOLD-   22720 0233D 1   1.00000     0.00000
 Structure written by MMmdl.
 49 50  0  0  0  0  0  0  0  0  1 V2000
  155.4521  139.2838  162.0265 C   0  0  0  0  0  0  0  0  0  0  0  0
  155.4672  137.7826  162.0822 C   0  0  0  0  0  0  0  0  0  0  0  0
  155.5377  137.1747  163.2547 N   0  0  0  0  0  0  0  0  0  0  0  0
  155.5312  135.8590  162.9604 N   0  0  0  0  0  0  0  0  0  0  0  0
  155.5981  134.8897  164.0369 C   0  0  0  0  0  0  0  0  0  0  0  0
  155.4520  135.6348  161.5994 C   0  0  0  0  0  0  0  0  0  0  0  0
  155.4228  134.2569  161.0205 C   0  0  0  0  0  0  0  0  0  0  0  0
  155.4077  136.8628  160.9951 C   0  0  0  0  0  0  0  0  0  0  0  0
  155.3165  137.2007  159.5301 C   0  0  0  0  0  0  0  0  0  0  0  0
  153.8615  137.4591  159.0817 C   0  0  2  0  0  0  0  0  0  0  0  0
  153.7367  137.6147  157.5583 C   0  0  0  0  0  0  0  0  0  0  0  0
  153.3391  138.6660  159.7268 N   0  0  0  0  0  0  0  0  0  0  0  0
  153.7854  139.9303  159.6073 C   0  0  0  0  0  0  0  0  0  0  0  0
  154.7454  140.2141  158.8937 O   0  0  0  0  0  0  0  0  0  0  0  0
  153.1004  140.8360  160.3259 N   0  0  0  0  0  0  0  0  0  0  0  0
  153.4024  142.2615  160.4092 C   0  0  1  0  0  0  0  0  0  0  0  0
  152.7111  143.0272  159.2641 C   0  0  0  0  0  0  0  0  0  0  0  0
  151.6725  143.9393  159.9195 C   0  0  0  0  0  0  0  0  0  0  0  0
  152.2282  144.2029  161.3148 C   0  0  0  0  0  0  0  0  0  0  0  0
  152.8623  142.8703  161.7222 C   0  0  2  0  0  0  0  0  0  0  0  0
  153.9195  143.0083  162.8263 C   0  0  0  0  0  0  0  0  0  0  0  0
  154.4489  139.6557  161.8186 H   0  0  0  0  0  0  0  0  0  0  0  0
  156.1109  139.6521  161.2400 H   0  0  0  0  0  0  0  0  0  0  0  0
  155.7831  139.7273  162.9662 H   0  0  0  0  0  0  0  0  0  0  0  0
  154.6420  134.3725  164.1225 H   0  0  0  0  0  0  0  0  0  0  0  0
  155.8209  135.3816  164.9850 H   0  0  0  0  0  0  0  0  0  0  0  0
  156.3810  134.1601  163.8281 H   0  0  0  0  0  0  0  0  0  0  0  0
  155.2372  134.2808  159.9470 H   0  0  0  0  0  0  0  0  0  0  0  0
  154.6343  133.6600  161.4792 H   0  0  0  0  0  0  0  0  0  0  0  0
  156.3729  133.7485  161.1852 H   0  0  0  0  0  0  0  0  0  0  0  0
  155.9240  138.0833  159.3276 H   0  0  0  0  0  0  0  0  0  0  0  0
  155.7543  136.4143  158.9147 H   0  0  0  0  0  0  0  0  0  0  0  0
  153.2403  136.6099  159.3715 H   0  0  0  0  0  0  0  0  0  0  0  0
  154.0523  136.7094  157.0392 H   0  0  0  0  0  0  0  0  0  0  0  0
  154.3484  138.4392  157.1908 H   0  0  0  0  0  0  0  0  0  0  0  0
  152.7040  137.8107  157.2678 H   0  0  0  0  0  0  0  0  0  0  0  0
  152.5285  138.5313  160.3135 H   0  0  0  0  0  0  0  0  0  0  0  0
  152.3216  140.5060  160.8770 H   0  0  0  0  0  0  0  0  0  0  0  0
  154.4787  142.4253  160.3255 H   0  0  0  0  0  0  0  0  0  0  0  0
  153.4502  143.6375  158.7434 H   0  0  0  0  0  0  0  0  0  0  0  0
  152.2575  142.3728  158.5182 H   0  0  0  0  0  0  0  0  0  0  0  0
  151.5039  144.8563  159.3543 H   0  0  0  0  0  0  0  0  0  0  0  0
  150.7184  143.4173  159.9971 H   0  0  0  0  0  0  0  0  0  0  0  0
  152.9893  144.9827  161.2618 H   0  0  0  0  0  0  0  0  0  0  0  0
  151.4604  144.5332  162.0152 H   0  0  0  0  0  0  0  0  0  0  0  0
  152.0565  142.2372  162.0991 H   0  0  0  0  0  0  0  0  0  0  0  0
  154.7492  143.6391  162.5058 H   0  0  0  0  0  0  0  0  0  0  0  0
  154.3275  142.0351  163.1004 H   0  0  0  0  0  0  0  0  0  0  0  0
  153.4899  143.4520  163.7247 H   0  0  0  0  0  0  0  0  0  0  0  0
  1  2  1  0  0  0  0
  1 22  1  0  0  0  0
  1 23  1  0  0  0  0
  1 24  1  0  0  0  0
  2  8  1  0  0  0  0
  2  3  2  0  0  0  0
  3  4  1  0  0  0  0
  4  5  1  0  0  0  0
  4  6  1  0  0  0  0
  5 25  1  0  0  0  0
  5 26  1  0  0  0  0
  5 27  1  0  0  0  0
  6  7  1  0  0  0  0
  6  8  2  0  0  0  0
  7 28  1  0  0  0  0
  7 29  1  0  0  0  0
  7 30  1  0  0  0  0
  8  9  1  0  0  0  0
  9 10  1  0  0  0  0
  9 31  1  0  0  0  0
  9 32  1  0  0  0  0
 10 11  1  0  0  0  0
 10 12  1  0  0  0  0
 10 33  1  0  0  0  0
 11 34  1  0  0  0  0
 11 35  1  0  0  0  0
 11 36  1  0  0  0  0
 12 13  1  0  0  0  0
 12 37  1  0  0  0  0
 13 14  2  0  0  0  0
 13 15  1  0  0  0  0
 15 16  1  0  0  0  0
 15 38  1  0  0  0  0
 16 20  1  0  0  0  0
 16 17  1  0  0  0  0
 16 39  1  0  0  0  0
 17 18  1  0  0  0  0
 17 40  1  0  0  0  0
 17 41  1  0  0  0  0
 18 19  1  0  0  0  0
 18 42  1  0  0  0  0
 18 43  1  0  0  0  0
 19 20  1  0  0  0  0
 19 44  1  0  0  0  0
 19 45  1  0  0  0  0
 20 21  1  0  0  0  0
 20 46  1  0  0  0  0
 21 47  1  0  0  0  0
 21 48  1  0  0  0  0
 21 49  1  0  0  0  0
M  END
> <s_m_source_file>
AV-unprocessed.smi

> <i_m_source_file_index>
671

> <i_lp_mmshare_version>
43012

> <i_f3d_flags>
0

> <s_epik_input>
W0NIM11jMW5uKFtDSDNdKWMoW0NIM10pYzFbQ0gyXVtDQEhdKFtDSDNdKVtOSF1DKD1PKVtOSF1bQ0BASF0yW0NIMl1bQ0gyXVtDSDJdW0NASF0yW0NIM10=

> <s_epik_cmdline>
J2VwaWtfcHl0aG9uJywgJy1waCcsICc3LjAnLCAnLXRuJywgJzgnLCAnLW1hJywgJzIwMCcsICctbWV0YWxfYmluZGluZycsICctaW1hZScsICc8aW5maWxlLm1hZT4nLCAnLW9tYWUnLCAnPG91dGZpbGUubWFlPic=

> <r_lp_tautomer_probability>
1

> <r_epik_Ionization_Penalty>
0.0126855

> <r_epik_Ionization_Penalty_Charging>
0

> <r_epik_Ionization_Penalty_Neutral>
0.0126855

> <r_epik_State_Penalty>
0.00977547

> <r_epik_Charging_Adjusted_Penalty>
0.00977547

> <i_epik_Tot_Q>
0

> <i_epik_Tot_abs_Q>
0

> <r_epik_Metal_State_Penalty>
0.00957132

> <b_epik_Metal_Only>
0

> <s_lp_Force_Field>
OPLS_2005

> <r_lp_Energy>
21.5891

> <b_lp_Chiralities_Consistent>
1

> <s_lp_Variant>
AV-unprocessed.smi:671-7

> <Gold.Version>
5.8.1

> <Gold.Id.Protein>
6NUR|6NUR_protein|mol2

> <Gold.PLP.Fitness>
43.5311

> <Gold.PLP.PLP>
-41.9840

> <Gold.PLP.part.hbond>
-1.0000

> <Gold.PLP.part.metal>
0.0000

> <Gold.PLP.part.buried>
-5.5164

> <Gold.PLP.part.nonpolar>
-34.9617

> <Gold.PLP.part.repulsive>
0.2127

> <Gold.PLP.ligand.clash>
0.0000

> <Gold.PLP.ligand.torsion>
0.7279

> <Gold.PLP.Chemscore.Hbond>
0.9920

> <Gold.PLP.Chemscore.CHOScore>
0.0000

> <Gold.PLP.Chemscore.Metal>
0.0000

> <Gold.Chemscore.Hbonds>
donor molecule, donor type, donor heavy atom, donor atom, acceptor molecule, acceptor atom, score
      P1  H  7997  8009       L1    14  0.80

> <Gold.PLP.Chemscore.Internal.Correction>
0.0268

> <Gold.Rescore>
     Score         DG    S(hbond)    S(metal)    S(lipo)     H(rot)  DE(clash)    DE(int)     intcor
     16.60     -18.27       0.91        0.00     114.96       1.45       0.02       1.65       ----

> <Gold.Chemscore.Fitness>
16.6022

> <Gold.Chemscore.DG>
-18.2685

> <Gold.Chemscore.ZeroCoef>
-5.4800

> <Gold.Chemscore.Hbond>
0.9131

> <Gold.Chemscore.Metal>
0.0000

> <Gold.Chemscore.Lipo>
114.9612

> <Gold.Chemscore.Internal_Hbond>
0.0000

> <Gold.Chemscore.DEClash>
0.0194

> <Gold.Chemscore.DEInternal>
1.6469

> <Gold.Chemscore.Rot>
1.4499

> <Gold.Chemscore.Internal.Correction>
   9.000000E+99

> <Gold.Chemscore.Hbonds>
donor molecule, donor type, donor heavy atom, donor atom, acceptor molecule, acceptor atom, score
      P1  H  7997  8009       L1    14  0.79

> <Gold.Chemscore.Hbond.Weighted>
-3.0499

> <Gold.Chemscore.Metal.Weighted>
-0.0000

> <Gold.Chemscore.Lipo.Weighted>
-13.4505

> <Gold.Chemscore.Internal_Hbond.Weighted>
0.0000

> <Gold.Chemscore.DEClash.Weighted>
0.0194

> <Gold.Chemscore.DEInternal.Weighted>
1.6469

> <Gold.Chemscore.Rot.Weighted>
3.7118

> <Gold.Chemscore.Internal.Correction.Weighted>
   9.000000E+99

> <Gold.Protein.RotatedTorsions>
[ 6907 6896 6895 6894 ] final  -82.48 input  -60.11 | X-H torsion
[ 7974 7965 7964 7962 ] final   78.45 input  175.53 | X-H torsion
[ 8008 7997 7996 7995 ] final  106.87 input   59.86 | X-H torsion
[ 10167 10162 10161 10158 ] final -127.33 input  -65.29 | X-H torsion
[ 10718 10713 10712 10709 ] final   74.98 input   66.30 | X-H torsion
[ 10763 10752 10751 10750 ] final   88.02 input  -60.55 | X-H torsion
[ 11005 11000 10999 10996 ] final  133.30 input  -57.11 | X-H torsion

> <Gold.Protein.ActiveResidues>
 VAL166  LYS551  ARG553  GLY616  TRP617  ASP618  TYR619  PRO620  LYS621  CYS622 
 ASP623  PHE694  ASN695  SER759  ASP760  ASP761  ALA762  ILE779  LEU786  VAL792 
 PHE793  MET794  SER795  GLU796  ALA797  LYS798  CYS799  TRP800  GLU811  SER814 

> <Gold.Protein.RotatedAtoms>
  150.6897  134.3658  159.4970 H   0  0  0  0  0  0  0  0  0  0  0  0  # atno 6907 bound_to 6896
  152.1481  134.9007  160.0559 H   0  0  0  0  0  0  0  0  0  0  0  0  # atno 6908 bound_to 6896
  152.0115  133.3828  159.4259 H   0  0  0  0  0  0  0  0  0  0  0  0  # atno 6909 bound_to 6896
  145.6769  139.2512  143.1836 H   0  0  0  0  0  0  0  0  0  0  0  0  # atno 7974 bound_to 7965
  156.1778  140.3105  155.9092 H   0  0  0  0  0  0  0  0  0  0  0  0  # atno 8008 bound_to 7997
  155.3449  140.0468  157.3062 H   0  0  0  0  0  0  0  0  0  0  0  0  # atno 8009 bound_to 7997
  154.5309  140.2230  155.8816 H   0  0  0  0  0  0  0  0  0  0  0  0  # atno 8010 bound_to 7997
  139.9620  143.5940  152.2442 H   0  0  0  0  0  0  0  0  0  0  0  0  # atno 10167 bound_to 10162
  157.6615  130.9704  150.1288 H   0  0  0  0  0  0  0  0  0  0  0  0  # atno 10718 bound_to 10713
  153.1727  135.4522  154.9923 H   0  0  0  0  0  0  0  0  0  0  0  0  # atno 10763 bound_to 10752
  154.7977  135.3243  154.7630 H   0  0  0  0  0  0  0  0  0  0  0  0  # atno 10764 bound_to 10752
  153.8104  135.6955  153.4896 H   0  0  0  0  0  0  0  0  0  0  0  0  # atno 10765 bound_to 10752
  139.9843  134.9537  156.9705 H   0  0  0  0  0  0  0  0  0  0  0  0  # atno 11005 bound_to 11000
  146.0997  140.7558  142.9555 LP  0  0  0  0  0  0  0  0  0  0  0  0  # atno 17320 bound_to 7965
  144.7038  140.3768  143.7134 LP  0  0  0  0  0  0  0  0  0  0  0  0  # atno 17321 bound_to 7965
  139.6547  144.7662  151.2079 LP  0  0  0  0  0  0  0  0  0  0  0  0  # atno 17342 bound_to 10162
  140.7550  143.6105  150.8610 LP  0  0  0  0  0  0  0  0  0  0  0  0  # atno 17343 bound_to 10162
  156.2140  130.3669  149.8635 LP  0  0  0  0  0  0  0  0  0  0  0  0  # atno 17370 bound_to 10713
  156.6506  130.8742  151.3530 LP  0  0  0  0  0  0  0  0  0  0  0  0  # atno 17371 bound_to 10713
  140.5034  134.1075  155.7255 LP  0  0  0  0  0  0  0  0  0  0  0  0  # atno 17394 bound_to 11000
  141.1510  133.8968  157.2096 LP  0  0  0  0  0  0  0  0  0  0  0  0  # atno 17395 bound_to 11000

$$$$
