#       Name:                AV-unprocessed.smi:169
#       Creating user name   scv26
#       Creation time:       Thu Mar 26 19:15:27 2020


#       File generated by GOLD software.
#

@<TRIPOS>MOLECULE
AV-unprocessed.smi:169
    64    68     1
SMALL
NO_CHARGES


@<TRIPOS>ATOM
      1 ****        -6.2653  -1.8702  -0.5010 C.3            1 S1                 0.0000
      2 ****        -4.9534  -1.5820   0.2444 C.3            1 S1                 0.0000
      3 ****        -3.8072  -1.3015  -0.6654 N.4            1 S1                 1.0000
      4 ****        -3.9720  -0.0579  -1.5063 C.3            1 S1                 0.0000
      5 ****        -3.9643   1.3291  -0.7529 C.3            1 S1                 0.0000
      6 ****        -2.5716   1.8493  -0.2402 C.3            1 S1                 0.0000
      7 ****        -2.4490   2.0181   1.3154 C.3            1 S1                 0.0000
      8 ****        -1.8600   0.6629   1.8382 C.3            1 S1                 0.0000
      9 ****        -1.8708  -0.1342   0.5316 C.3            1 S1                 0.0000
     10 ****        -2.4685  -1.4664   0.0233 C.3            1 S1                 0.0000
     11 ****        -1.5804   0.8248  -0.5188 N.3            1 S1                 0.0000
     12 ****        -0.2723   1.1477  -0.7217 C.ar           1 S1                 0.0000
     13 ****         0.0580   2.4286  -1.0355 N.ar           1 S1                 0.0000
     14 ****         1.3325   2.7752  -1.2339 C.ar           1 S1                 0.0000
     15 ****         2.4226   2.0100  -1.1748 N.ar           1 S1                 0.0000
     16 ****         2.1036   0.7193  -0.8734 C.ar           1 S1                 0.0000
     17 ****         0.7958   0.2053  -0.6390 C.ar           1 S1                 0.0000
     18 ****         0.8719  -1.1587  -0.3798 N.2            1 S1                 0.0000
     19 ****         2.1456  -1.4316  -0.4497 C.2            1 S1                 0.0000
     20 ****         2.9609  -0.3579  -0.7256 N.pl3          1 S1                 0.0000
     21 ****         4.4110  -0.3689  -0.8601 C.3            1 S1                 0.0000
     22 ****         5.1888  -0.2483   0.4729 C.3            1 S1                 0.0000
     23 ****         6.6678  -0.0095   0.1409 C.3            1 S1                 0.0000
     24 ****         7.2345  -1.1304  -0.5069 O.3            1 S1                 0.0000
     25 ****         4.5965   0.6817   1.5474 C.3            1 S1                 0.0000
     26 ****         4.0385  -0.4317   2.2768 O.3            1 S1                 0.0000
     27 ****         4.9027  -1.3201   1.5373 C.3            1 S1                 0.0000
     28 ****        -7.0287  -2.2202   0.1942 H              1 S1                 0.0000
     29 ****        -6.1305  -2.6441  -1.2575 H              1 S1                 0.0000
     30 ****        -6.6645  -0.9812  -0.9887 H              1 S1                 0.0000
     31 ****        -5.0920  -0.7683   0.9563 H              1 S1                 0.0000
     32 ****        -4.7209  -2.4671   0.8378 H              1 S1                 0.0000
     33 ****        -3.2126  -0.0653  -2.2893 H              1 S1                 0.0000
     34 ****        -4.9069  -0.1387  -2.0584 H              1 S1                 0.0000
     35 ****        -4.3436   2.0768  -1.4502 H              1 S1                 0.0000
     36 ****        -4.6940   1.3211   0.0564 H              1 S1                 0.0000
     37 ****        -2.3574   2.7948  -0.7387 H              1 S1                 0.0000
     38 ****        -1.7626   2.8309   1.5560 H              1 S1                 0.0000
     39 ****        -3.4077   2.2582   1.7761 H              1 S1                 0.0000
     40 ****        -0.8349   0.8035   2.1837 H              1 S1                 0.0000
     41 ****        -2.4286   0.2241   2.6638 H              1 S1                 0.0000
     42 ****        -2.9105  -0.0590   0.8236 H              1 S1                 0.0000
     43 ****        -2.5157  -2.2021   0.8276 H              1 S1                 0.0000
     44 ****        -1.7872  -1.8881  -0.7156 H              1 S1                 0.0000
     45 ****         1.5029   3.8147  -1.4723 H              1 S1                 0.0000
     46 ****         2.5255  -2.4314  -0.3000 H              1 S1                 0.0000
     47 ****         4.6828  -1.2901  -1.3771 H              1 S1                 0.0000
     48 ****         4.6860   0.4408  -1.5371 H              1 S1                 0.0000
     49 ****         6.7922   0.8678  -0.4946 H              1 S1                 0.0000
     50 ****         7.2448   0.1808   1.0465 H              1 S1                 0.0000
     51 ****         8.1470  -0.9506  -0.6756 H              1 S1                 0.0000
     52 ****         5.3477   1.2089   2.1380 H              1 S1                 0.0000
     53 ****         3.8401   1.3796   1.1919 H              1 S1                 0.0000
     54 ****         4.3882  -2.2042   1.1629 H              1 S1                 0.0000
     55 ****         5.7795  -1.6063   2.1211 H              1 S1                 0.0000
     56 ****        -3.8346  -2.0657  -1.3253 H              1 S1                 0.0000
     57 ****        -1.6750   0.4813  -1.4532 LP             1 S1                 0.0000
     58 ****        -0.6610   3.1186  -1.1186 LP             1 S1                 0.0000
     59 ****         3.3535   2.3400  -1.3312 LP             1 S1                 0.0000
     60 ****         0.1200  -1.7883  -0.1840 LP             1 S1                 0.0000
     61 ****         6.7585  -1.2971  -1.3704 LP             1 S1                 0.0000
     62 ****         7.1525  -1.9361   0.0799 LP             1 S1                 0.0000
     63 ****         3.0625  -0.5802   2.1176 LP             1 S1                 0.0000
     64 ****         4.2161  -0.4095   3.2607 LP             1 S1                 0.0000
@<TRIPOS>BOND
    1    1    2 1     
    2    1   28 1     
    3    1   29 1     
    4    1   30 1     
    5    2    3 1     
    6    2   31 1     
    7    2   32 1     
    8    3   10 1     
    9    3    4 1     
   10    3   56 1     
   11    4    5 1     
   12    4   33 1     
   13    4   34 1     
   14    5    6 1     
   15    5   35 1     
   16    5   36 1     
   17    6   11 1     
   18    6    7 1     
   19    6   37 1     
   20    7    8 1     
   21    7   38 1     
   22    7   39 1     
   23    8    9 1     
   24    8   40 1     
   25    8   41 1     
   26    9   10 1     
   27    9   11 1     
   28    9   42 1     
   29   10   43 1     
   30   10   44 1     
   31   11   12 1     
   32   12   17 ar    
   33   12   13 ar    
   34   13   14 ar    
   35   14   15 ar    
   36   14   45 1     
   37   15   16 ar    
   38   16   20 1     
   39   16   17 ar    
   40   17   18 1     
   41   18   19 2     
   42   19   20 1     
   43   19   46 1     
   44   20   21 1     
   45   21   22 1     
   46   21   47 1     
   47   21   48 1     
   48   22   27 1     
   49   22   23 1     
   50   22   25 1     
   51   23   24 1     
   52   23   49 1     
   53   23   50 1     
   54   24   51 1     
   55   25   26 1     
   56   25   52 1     
   57   25   53 1     
   58   26   27 1     
   59   27   54 1     
   60   27   55 1     
   61   11   57 1     
   62   13   58 1     
   63   15   59 1     
   64   18   60 1     
   65   24   61 1     
   66   24   62 1     
   67   26   63 1     
   68   26   64 1     
@<TRIPOS>SUBSTRUCTURE
      1 S1             1
@<TRIPOS>SET
LONE_PAIRS      STATIC     ATOMS    <user>   **** ""
8 57 58 59 60 61 62 63 64
DONOR_HYDROGENS      STATIC     ATOMS    <user>   **** ""
2 56 51
ATOM$BLUE        STATIC     ATOMS    COLORGROUP SYSTEM
8 57 58 59 60 61 62 63 64
ATOM$RED        STATIC     ATOMS    COLORGROUP SYSTEM
2 56 51
