#       Name:                AV-unprocessed.smi:1386
#       Creating user name   scv26
#       Creation time:       Fri Mar 27 05:25:47 2020


#       File generated by GOLD software.
#

@<TRIPOS>MOLECULE
AV-unprocessed.smi:1386
    38    39     1
SMALL
NO_CHARGES


@<TRIPOS>ATOM
      1 ****         0.2698  -3.2378  -1.6041 C.3            1 S1                 0.0000
      2 ****         0.4209  -2.2154  -0.4701 C.3            1 S1                 0.0000
      3 ****         1.8976  -1.8286  -0.2487 C.3            1 S1                 0.0000
      4 ****         2.0694  -0.8803   0.8377 N.pl3          1 S1                 0.0000
      5 ****         1.8517  -1.1030   2.1911 C.2            1 S1                 0.0000
      6 ****         2.1299   0.0820   2.8340 C.2            1 S1                 0.0000
      7 ****         2.5288   1.0384   1.9033 N.2            1 S1                 0.0000
      8 ****         2.4744   0.3938   0.7454 C.2            1 S1                 0.0000
      9 ****        -0.3739  -1.0281  -0.7831 N.am           1 S1                 0.0000
     10 ****        -1.2509  -0.4249   0.0393 C.2            1 S1                 0.0000
     11 ****        -1.5478  -0.8890   1.1411 O.2            1 S1                 0.0000
     12 ****        -1.7810   0.7263  -0.4454 N.am           1 S1                 0.0000
     13 ****        -1.2954   1.4693  -1.6199 C.3            1 S1                 0.0000
     14 ****        -0.3137   2.5574  -1.1533 C.3            1 S1                 0.0000
     15 ****        -1.1421   3.7624  -0.0693 S.3            1 S1                 0.0000
     16 ****        -1.9545   2.6226   1.0949 C.3            1 S1                 0.0000
     17 ****        -2.7267   1.5243   0.3436 C.3            1 S1                 0.0000
     18 ****         0.8329  -4.1465  -1.3895 H              1 S1                 0.0000
     19 ****         0.6319  -2.8380  -2.5520 H              1 S1                 0.0000
     20 ****        -0.7741  -3.5226  -1.7389 H              1 S1                 0.0000
     21 ****         0.0505  -2.6887   0.4407 H              1 S1                 0.0000
     22 ****         2.4885  -2.7155  -0.0170 H              1 S1                 0.0000
     23 ****         2.3197  -1.4001  -1.1591 H              1 S1                 0.0000
     24 ****         1.5160  -2.0561   2.5727 H              1 S1                 0.0000
     25 ****         2.0756   0.3175   3.8866 H              1 S1                 0.0000
     26 ****         2.7255   0.8637  -0.1943 H              1 S1                 0.0000
     27 ****        -0.2008  -0.5932  -1.6775 H              1 S1                 0.0000
     28 ****        -0.8192   0.8293  -2.3629 H              1 S1                 0.0000
     29 ****        -2.1355   1.9272  -2.1440 H              1 S1                 0.0000
     30 ****         0.5220   2.1112  -0.6143 H              1 S1                 0.0000
     31 ****         0.1040   3.0867  -2.0096 H              1 S1                 0.0000
     32 ****        -1.1989   2.1804   1.7457 H              1 S1                 0.0000
     33 ****        -2.6292   3.1947   1.7319 H              1 S1                 0.0000
     34 ****        -3.4801   1.9702  -0.3072 H              1 S1                 0.0000
     35 ****        -3.2850   0.9088   1.0508 H              1 S1                 0.0000
     36 ****         2.7940   1.9883   2.0692 LP             1 S1                 0.0000
     37 ****        -1.1322  -1.7436   1.4522 LP             1 S1                 0.0000
     38 ****        -2.2045  -0.4110   1.7245 LP             1 S1                 0.0000
@<TRIPOS>BOND
    1    1    2 1     
    2    1   18 1     
    3    1   19 1     
    4    1   20 1     
    5    2    3 1     
    6    2    9 1     
    7    2   21 1     
    8    3    4 1     
    9    3   22 1     
   10    3   23 1     
   11    4    8 1     
   12    4    5 1     
   13    5    6 2     
   14    5   24 1     
   15    6    7 1     
   16    6   25 1     
   17    7    8 2     
   18    8   26 1     
   19    9   10 am    
   20    9   27 1     
   21   10   11 2     
   22   10   12 am    
   23   12   17 1     
   24   12   13 1     
   25   13   14 1     
   26   13   28 1     
   27   13   29 1     
   28   14   15 1     
   29   14   30 1     
   30   14   31 1     
   31   15   16 1     
   32   16   17 1     
   33   16   32 1     
   34   16   33 1     
   35   17   34 1     
   36   17   35 1     
   37    7   36 1     
   38   11   37 1     
   39   11   38 1     
@<TRIPOS>SUBSTRUCTURE
      1 S1             1
@<TRIPOS>SET
LONE_PAIRS      STATIC     ATOMS    <user>   **** ""
3 36 37 38
DONOR_HYDROGENS      STATIC     ATOMS    <user>   **** ""
1 27
ATOM$BLUE        STATIC     ATOMS    COLORGROUP SYSTEM
3 36 37 38
ATOM$RED        STATIC     ATOMS    COLORGROUP SYSTEM
1 27
