#       Name:                AV-unprocessed.smi:610
#       Creating user name   scv26
#       Creation time:       Thu Mar 26 23:57:34 2020


#       File generated by GOLD software.
#

@<TRIPOS>MOLECULE
AV-unprocessed.smi:610
    41    42     1
SMALL
NO_CHARGES


@<TRIPOS>ATOM
      1 ****        -2.0950  -0.6078   2.8791 C.3            1 S1                 0.0000
      2 ****        -1.7985  -0.0978   1.4627 C.3            1 S1                 0.0000
      3 ****        -2.4569  -0.9987   0.3959 C.3            1 S1                 0.0000
      4 ****        -2.3456  -0.4556  -0.9627 N.pl3          1 S1                 0.0000
      5 ****        -2.9628   0.6621  -1.4637 C.2            1 S1                 0.0000
      6 ****        -2.5623   0.7778  -2.7699 C.2            1 S1                 0.0000
      7 ****        -1.7261  -0.2787  -3.0139 N.pl3          1 S1                 1.0000
      8 ****        -1.6010  -1.0313  -1.9159 C.2            1 S1                 0.0000
      9 ****        -0.3490  -0.0393   1.2766 N.am           1 S1                 0.0000
     10 ****         0.3273   0.9235   0.6261 C.2            1 S1                 0.0000
     11 ****        -0.2350   1.8926   0.1153 O.2            1 S1                 0.0000
     12 ****         1.8679   0.8054   0.5415 C.3            1 S1                 0.0000
     13 ****         2.4339   1.7937   1.4781 N.4            1 S1                 1.0000
     14 ****         2.4173  -0.6101   0.8158 C.3            1 S1                 0.0000
     15 ****         2.2358  -1.3756  -0.5017 C.3            1 S1                 0.0000
     16 ****         2.2390  -0.3092  -1.6084 C.3            1 S1                 0.0000
     17 ****         2.3694   1.0450  -0.8955 C.3            1 S1                 0.0000
     18 ****        -3.1683  -0.6365   3.0692 H              1 S1                 0.0000
     19 ****        -1.6469   0.0402   3.6331 H              1 S1                 0.0000
     20 ****        -1.7047  -1.6150   3.0300 H              1 S1                 0.0000
     21 ****        -2.2229   0.9050   1.3886 H              1 S1                 0.0000
     22 ****        -2.0235  -2.0003   0.4113 H              1 S1                 0.0000
     23 ****        -3.5215  -1.1132   0.6046 H              1 S1                 0.0000
     24 ****        -3.6191   1.2793  -0.8670 H              1 S1                 0.0000
     25 ****        -2.8055   1.5118  -3.5245 H              1 S1                 0.0000
     26 ****        -1.0094  -1.9243  -1.8187 H              1 S1                 0.0000
     27 ****         0.1843  -0.7993   1.6745 H              1 S1                 0.0000
     28 ****         3.4425   1.7630   1.4355 H              1 S1                 0.0000
     29 ****         2.1283   1.5835   2.4176 H              1 S1                 0.0000
     30 ****         3.4839  -0.5477   1.0391 H              1 S1                 0.0000
     31 ****         1.9595  -1.1213   1.6635 H              1 S1                 0.0000
     32 ****         3.0210  -2.1185  -0.6453 H              1 S1                 0.0000
     33 ****         1.2822  -1.9048  -0.5017 H              1 S1                 0.0000
     34 ****         3.0537  -0.4618  -2.3171 H              1 S1                 0.0000
     35 ****         1.3062  -0.3536  -2.1713 H              1 S1                 0.0000
     36 ****         1.8397   1.8369  -1.4267 H              1 S1                 0.0000
     37 ****         3.4216   1.3343  -0.8749 H              1 S1                 0.0000
     38 ****         2.1134   2.7168   1.2215 H              1 S1                 0.0000
     39 ****        -1.2731  -0.4689  -3.8992 H              1 S1                 0.0000
     40 ****        -1.2290   1.9834   0.1764 LP             1 S1                 0.0000
     41 ****         0.3023   2.5888  -0.3607 LP             1 S1                 0.0000
@<TRIPOS>BOND
    1    1    2 1     
    2    1   18 1     
    3    1   19 1     
    4    1   20 1     
    5    2    3 1     
    6    2    9 1     
    7    2   21 1     
    8    3    4 1     
    9    3   22 1     
   10    3   23 1     
   11    4    8 1     
   12    4    5 1     
   13    5    6 2     
   14    5   24 1     
   15    6    7 1     
   16    6   25 1     
   17    7    8 2     
   18    7   39 1     
   19    8   26 1     
   20    9   10 am    
   21    9   27 1     
   22   10   11 2     
   23   10   12 1     
   24   12   17 1     
   25   12   13 1     
   26   12   14 1     
   27   13   28 1     
   28   13   29 1     
   29   13   38 1     
   30   14   15 1     
   31   14   30 1     
   32   14   31 1     
   33   15   16 1     
   34   15   32 1     
   35   15   33 1     
   36   16   17 1     
   37   16   34 1     
   38   16   35 1     
   39   17   36 1     
   40   17   37 1     
   41   11   40 1     
   42   11   41 1     
@<TRIPOS>SUBSTRUCTURE
      1 S1             1
@<TRIPOS>SET
LONE_PAIRS      STATIC     ATOMS    <user>   **** ""
2 40 41
DONOR_HYDROGENS      STATIC     ATOMS    <user>   **** ""
5 39 27 28 29 38
ATOM$BLUE        STATIC     ATOMS    COLORGROUP SYSTEM
2 40 41
ATOM$RED        STATIC     ATOMS    COLORGROUP SYSTEM
5 39 27 28 29 38
