AV-unprocessed.smi:2888|AV-procd|sdf|11103|dock7
  -GOLD-   2272015573D 1   1.00000     0.00000
 Structure written by MMmdl.
 33 35  0  0  0  0  0  0  0  0  1 V2000
  152.0242  138.5660  155.0155 C   0  0  0  0  0  0  0  0  0  0  0  0
  150.9340  139.6158  155.0421 C   0  0  0  0  0  0  0  0  0  0  0  0
  149.7412  139.4618  154.3052 C   0  0  0  0  0  0  0  0  0  0  0  0
  148.8050  140.5115  154.4148 C   0  0  0  0  0  0  0  0  0  0  0  0
  147.4851  140.4759  153.6740 C   0  0  0  0  0  0  0  0  0  0  0  0
  149.0412  141.5996  155.1810 N   0  0  0  0  0  0  0  0  0  0  0  0
  150.2060  141.6425  155.8330 C   0  0  0  0  0  0  0  0  0  0  0  0
  150.4173  142.7738  156.5993 N   0  0  0  0  0  0  0  0  0  0  0  0
  151.5236  142.9394  157.5337 C   0  0  1  0  0  0  0  0  0  0  0  0
  151.7061  144.3913  157.9939 C   0  0  0  0  0  0  0  0  0  0  0  0
  151.6220  144.2523  159.5189 C   0  0  2  0  0  0  0  0  0  0  0  0
  152.8355  143.5166  160.1036 C   0  0  0  0  0  0  0  0  0  0  0  0
  152.5637  142.0752  159.6738 C   0  0  0  0  0  0  0  0  0  0  0  0
  151.2645  142.2243  158.8703 C   0  0  1  0  0  0  0  0  0  0  0  0
  150.6297  143.2467  159.6219 O   0  0  0  0  0  0  0  0  0  0  0  0
  151.1637  140.7076  155.8040 N   0  0  0  0  0  0  0  0  0  0  0  0
  151.7153  137.6916  154.4419 H   0  0  0  0  0  0  0  0  0  0  0  0
  152.2645  138.2411  156.0282 H   0  0  0  0  0  0  0  0  0  0  0  0
  152.9279  138.9717  154.5601 H   0  0  0  0  0  0  0  0  0  0  0  0
  149.5563  138.5919  153.6921 H   0  0  0  0  0  0  0  0  0  0  0  0
  147.3382  139.5162  153.1783 H   0  0  0  0  0  0  0  0  0  0  0  0
  147.4553  141.2597  152.9171 H   0  0  0  0  0  0  0  0  0  0  0  0
  146.6560  140.6320  154.3647 H   0  0  0  0  0  0  0  0  0  0  0  0
  149.8655  143.5886  156.3736 H   0  0  0  0  0  0  0  0  0  0  0  0
  152.4335  142.5501  157.0748 H   0  0  0  0  0  0  0  0  0  0  0  0
  152.6531  144.8202  157.6647 H   0  0  0  0  0  0  0  0  0  0  0  0
  150.9019  145.0334  157.6313 H   0  0  0  0  0  0  0  0  0  0  0  0
  151.3753  145.1809  160.0341 H   0  0  0  0  0  0  0  0  0  0  0  0
  153.7788  143.9043  159.7174 H   0  0  0  0  0  0  0  0  0  0  0  0
  152.8528  143.5945  161.1913 H   0  0  0  0  0  0  0  0  0  0  0  0
  153.3744  141.6483  159.0825 H   0  0  0  0  0  0  0  0  0  0  0  0
  152.4066  141.4400  160.5463 H   0  0  0  0  0  0  0  0  0  0  0  0
  150.6943  141.2980  158.7873 H   0  0  0  0  0  0  0  0  0  0  0  0
  1  2  1  0  0  0  0
  1 17  1  0  0  0  0
  1 18  1  0  0  0  0
  1 19  1  0  0  0  0
  2 16  1  0  0  0  0
  2  3  2  0  0  0  0
  3  4  1  0  0  0  0
  3 20  1  0  0  0  0
  4  5  1  0  0  0  0
  4  6  2  0  0  0  0
  5 21  1  0  0  0  0
  5 22  1  0  0  0  0
  5 23  1  0  0  0  0
  6  7  1  0  0  0  0
  7  8  1  0  0  0  0
  7 16  2  0  0  0  0
  8  9  1  0  0  0  0
  8 24  1  0  0  0  0
  9 14  1  0  0  0  0
  9 10  1  0  0  0  0
  9 25  1  0  0  0  0
 10 11  1  0  0  0  0
 10 26  1  0  0  0  0
 10 27  1  0  0  0  0
 11 15  1  0  0  0  0
 11 12  1  0  0  0  0
 11 28  1  0  0  0  0
 12 13  1  0  0  0  0
 12 29  1  0  0  0  0
 12 30  1  0  0  0  0
 13 14  1  0  0  0  0
 13 31  1  0  0  0  0
 13 32  1  0  0  0  0
 14 15  1  0  0  0  0
 14 33  1  0  0  0  0
M  END
> <s_m_source_file>
AV-unprocessed.smi

> <i_m_source_file_index>
2888

> <i_lp_mmshare_version>
43012

> <i_f3d_flags>
0

> <s_epik_input>
W0NIM11jMVtjSF1jKFtDSDNdKW5jKG4xKVtOSF1bQ0BIXShbQ0gyXVtDQEBIXTIzKVtDQEBIXShPMylbQ0gyXVtDSDJdMg==

> <s_epik_cmdline>
J2VwaWtfcHl0aG9uJywgJy1waCcsICc3LjAnLCAnLXRuJywgJzgnLCAnLW1hJywgJzIwMCcsICctbWV0YWxfYmluZGluZycsICctaW1hZScsICc8aW5maWxlLm1hZT4nLCAnLW9tYWUnLCAnPG91dGZpbGUubWFlPic=

> <r_lp_tautomer_probability>
1

> <r_epik_Ionization_Penalty>
0.00890508

> <r_epik_Ionization_Penalty_Charging>
0

> <r_epik_Ionization_Penalty_Neutral>
0.00890508

> <r_epik_State_Penalty>
0.0067342

> <r_epik_Charging_Adjusted_Penalty>
0.0067342

> <i_epik_Tot_Q>
0

> <i_epik_Tot_abs_Q>
0

> <r_epik_Metal_State_Penalty>
0.00663442

> <b_epik_Metal_Only>
0

> <s_lp_Force_Field>
OPLS_2005

> <r_lp_Energy>
31.5377

> <b_lp_Chiralities_Consistent>
1

> <s_lp_Variant>
AV-unprocessed.smi:2888-4

> <Gold.Version>
5.8.1

> <Gold.Id.Protein>
6NUR|6NUR_protein|mol2

> <Gold.PLP.Fitness>
41.6965

> <Gold.PLP.PLP>
-39.1534

> <Gold.PLP.part.hbond>
-2.4401

> <Gold.PLP.part.metal>
0.0000

> <Gold.PLP.part.buried>
-4.1322

> <Gold.PLP.part.nonpolar>
-33.6264

> <Gold.PLP.part.repulsive>
0.2671

> <Gold.PLP.ligand.clash>
0.0000

> <Gold.PLP.ligand.torsion>
0.2378

> <Gold.PLP.Chemscore.Hbond>
1.0000

> <Gold.PLP.Chemscore.CHOScore>
0.0000

> <Gold.PLP.Chemscore.Metal>
0.0000

> <Gold.Chemscore.Hbonds>
donor molecule, donor type, donor heavy atom, donor atom, acceptor molecule, acceptor atom, score
      L1  H     8    24       P1  8028  1.00

> <Gold.PLP.Chemscore.Internal.Correction>
0.0187

> <Gold.Rescore>
     Score         DG    S(hbond)    S(metal)    S(lipo)     H(rot)  DE(clash)    DE(int)     intcor
     18.14     -18.32       1.00        0.00     103.15       1.00       0.11       0.08       ----

> <Gold.Chemscore.Fitness>
18.1352

> <Gold.Chemscore.DG>
-18.3231

> <Gold.Chemscore.ZeroCoef>
-5.4800

> <Gold.Chemscore.Hbond>
0.9983

> <Gold.Chemscore.Metal>
0.0000

> <Gold.Chemscore.Lipo>
103.1528

> <Gold.Chemscore.Internal_Hbond>
0.0000

> <Gold.Chemscore.DEClash>
0.1123

> <Gold.Chemscore.DEInternal>
0.0756

> <Gold.Chemscore.Rot>
1.0000

> <Gold.Chemscore.Internal.Correction>
   9.000000E+99

> <Gold.Chemscore.Hbonds>
donor molecule, donor type, donor heavy atom, donor atom, acceptor molecule, acceptor atom, score
      L1  H     8    24       P1  8028  1.00

> <Gold.Chemscore.Hbond.Weighted>
-3.3342

> <Gold.Chemscore.Metal.Weighted>
-0.0000

> <Gold.Chemscore.Lipo.Weighted>
-12.0689

> <Gold.Chemscore.Internal_Hbond.Weighted>
0.0000

> <Gold.Chemscore.DEClash.Weighted>
0.1123

> <Gold.Chemscore.DEInternal.Weighted>
0.0756

> <Gold.Chemscore.Rot.Weighted>
2.5600

> <Gold.Chemscore.Internal.Correction.Weighted>
   9.000000E+99

> <Gold.Protein.RotatedTorsions>
[ 6907 6896 6895 6894 ] final   74.86 input  -60.11 | X-H torsion
[ 7974 7965 7964 7962 ] final  162.99 input  175.53 | X-H torsion
[ 8008 7997 7996 7995 ] final   55.43 input   59.86 | X-H torsion
[ 10167 10162 10161 10158 ] final  -32.04 input  -65.29 | X-H torsion
[ 10718 10713 10712 10709 ] final  110.54 input   66.30 | X-H torsion
[ 10763 10752 10751 10750 ] final   70.65 input  -60.55 | X-H torsion
[ 11005 11000 10999 10996 ] final   16.24 input  -57.11 | X-H torsion

> <Gold.Protein.ActiveResidues>
 VAL166  LYS551  ARG553  GLY616  TRP617  ASP618  TYR619  PRO620  LYS621  CYS622 
 ASP623  PHE694  ASN695  SER759  ASP760  ASP761  ALA762  ILE779  LEU786  VAL792 
 PHE793  MET794  SER795  GLU796  ALA797  LYS798  CYS799  TRP800  GLU811  SER814 

> <Gold.Protein.RotatedAtoms>
  152.4997  134.4207  159.9479 H   0  0  0  0  0  0  0  0  0  0  0  0  # atno 6907 bound_to 6896
  151.4180  133.3701  159.2760 H   0  0  0  0  0  0  0  0  0  0  0  0  # atno 6908 bound_to 6896
  150.9243  134.8683  159.7569 H   0  0  0  0  0  0  0  0  0  0  0  0  # atno 6909 bound_to 6896
  144.7611  139.8118  143.6332 H   0  0  0  0  0  0  0  0  0  0  0  0  # atno 7974 bound_to 7965
  155.5010  140.3474  155.4371 H   0  0  0  0  0  0  0  0  0  0  0  0  # atno 8008 bound_to 7997
  156.0914  140.1411  156.9615 H   0  0  0  0  0  0  0  0  0  0  0  0  # atno 8009 bound_to 7997
  154.4637  140.0925  156.6940 H   0  0  0  0  0  0  0  0  0  0  0  0  # atno 8010 bound_to 7997
  140.7227  143.3724  151.1752 H   0  0  0  0  0  0  0  0  0  0  0  0  # atno 10167 bound_to 10162
  157.6489  131.0934  150.6616 H   0  0  0  0  0  0  0  0  0  0  0  0  # atno 10718 bound_to 10713
  153.0353  135.5166  154.7473 H   0  0  0  0  0  0  0  0  0  0  0  0  # atno 10763 bound_to 10752
  154.6454  135.2918  155.0054 H   0  0  0  0  0  0  0  0  0  0  0  0  # atno 10764 bound_to 10752
  154.0957  135.6643  153.4912 H   0  0  0  0  0  0  0  0  0  0  0  0  # atno 10765 bound_to 10752
  140.4494  134.1240  155.7700 H   0  0  0  0  0  0  0  0  0  0  0  0  # atno 11005 bound_to 11000
  146.1674  139.4810  142.9950 LP  0  0  0  0  0  0  0  0  0  0  0  0  # atno 17320 bound_to 7965
  145.6618  141.0238  143.1705 LP  0  0  0  0  0  0  0  0  0  0  0  0  # atno 17321 bound_to 7965
  139.7298  143.9090  152.3015 LP  0  0  0  0  0  0  0  0  0  0  0  0  # atno 17342 bound_to 10162
  139.8875  144.6984  150.8807 LP  0  0  0  0  0  0  0  0  0  0  0  0  # atno 17343 bound_to 10162
  156.6930  130.4600  149.5594 LP  0  0  0  0  0  0  0  0  0  0  0  0  # atno 17370 bound_to 10713
  156.1848  130.6522  151.0994 LP  0  0  0  0  0  0  0  0  0  0  0  0  # atno 17371 bound_to 10713
  141.1671  133.8682  157.1682 LP  0  0  0  0  0  0  0  0  0  0  0  0  # atno 17394 bound_to 11000
  140.0017  135.0025  157.0204 LP  0  0  0  0  0  0  0  0  0  0  0  0  # atno 17395 bound_to 11000

$$$$
