AV-unprocessed.smi:301|AV-procd|sdf|2271|dock9
  -GOLD-   2262022163D 1   1.00000     0.00000
 Structure written by MMmdl.
 32 33  0  0  0  0  0  0  0  0  1 V2000
  147.7469  136.8532  154.8609 C   0  0  0  0  0  0  0  0  0  0  0  0
  147.6604  138.2357  154.3113 C   0  0  0  0  0  0  0  0  0  0  0  0
  148.4182  139.2484  154.7392 N   0  0  0  0  0  0  0  0  0  0  0  0
  148.1423  140.4481  154.0744 C   0  0  0  0  0  0  0  0  0  0  0  0
  148.9009  141.6952  154.4318 C   0  0  0  0  0  0  0  0  0  0  0  0
  150.0603  141.3896  155.3874 C   0  0  0  0  0  0  0  0  0  0  0  0
  150.7913  140.4158  155.2001 O   0  0  0  0  0  0  0  0  0  0  0  0
  150.2219  142.2398  156.4130 N   0  0  0  0  0  0  0  0  0  0  0  0
  151.2491  142.1255  157.4419 C   0  0  0  0  0  0  0  0  0  0  0  0
  151.0757  143.1951  158.5326 C   0  0  1  0  0  0  0  0  0  0  0  0
  152.0321  143.0292  159.7125 C   0  0  0  0  0  0  0  0  0  0  0  0
  152.1112  144.4426  160.2412 C   0  0  0  0  0  0  0  0  0  0  0  0
  152.1098  145.2545  158.9499 C   0  0  0  0  0  0  0  0  0  0  0  0
  151.3544  144.4935  158.0108 O   0  0  0  0  0  0  0  0  0  0  0  0
  147.1621  140.3228  153.1205 C   0  0  0  0  0  0  0  0  0  0  0  0
  146.5415  138.6971  153.0347 S   0  0  0  0  0  0  0  0  0  0  0  0
  148.6942  136.7063  155.3807 H   0  0  0  0  0  0  0  0  0  0  0  0
  147.6762  136.1240  154.0537 H   0  0  0  0  0  0  0  0  0  0  0  0
  146.9312  136.6807  155.5630 H   0  0  0  0  0  0  0  0  0  0  0  0
  149.3072  142.1716  153.5388 H   0  0  0  0  0  0  0  0  0  0  0  0
  148.2285  142.4224  154.8897 H   0  0  0  0  0  0  0  0  0  0  0  0
  149.5788  143.0139  156.4959 H   0  0  0  0  0  0  0  0  0  0  0  0
  151.2236  141.1278  157.8832 H   0  0  0  0  0  0  0  0  0  0  0  0
  152.2253  142.2284  156.9674 H   0  0  0  0  0  0  0  0  0  0  0  0
  150.0513  143.1971  158.9092 H   0  0  0  0  0  0  0  0  0  0  0  0
  151.6737  142.3139  160.4533 H   0  0  0  0  0  0  0  0  0  0  0  0
  153.0158  142.7041  159.3706 H   0  0  0  0  0  0  0  0  0  0  0  0
  151.2230  144.6718  160.8317 H   0  0  0  0  0  0  0  0  0  0  0  0
  152.9910  144.6233  160.8593 H   0  0  0  0  0  0  0  0  0  0  0  0
  151.6907  146.2517  159.0857 H   0  0  0  0  0  0  0  0  0  0  0  0
  153.1255  145.3633  158.5676 H   0  0  0  0  0  0  0  0  0  0  0  0
  146.7646  141.0880  152.4701 H   0  0  0  0  0  0  0  0  0  0  0  0
  1  2  1  0  0  0  0
  1 17  1  0  0  0  0
  1 18  1  0  0  0  0
  1 19  1  0  0  0  0
  2 16  1  0  0  0  0
  2  3  2  0  0  0  0
  3  4  1  0  0  0  0
  4  5  1  0  0  0  0
  4 15  2  0  0  0  0
  5  6  1  0  0  0  0
  5 20  1  0  0  0  0
  5 21  1  0  0  0  0
  6  7  2  0  0  0  0
  6  8  1  0  0  0  0
  8  9  1  0  0  0  0
  8 22  1  0  0  0  0
  9 10  1  0  0  0  0
  9 23  1  0  0  0  0
  9 24  1  0  0  0  0
 10 14  1  0  0  0  0
 10 11  1  0  0  0  0
 10 25  1  0  0  0  0
 11 12  1  0  0  0  0
 11 26  1  0  0  0  0
 11 27  1  0  0  0  0
 12 13  1  0  0  0  0
 12 28  1  0  0  0  0
 12 29  1  0  0  0  0
 13 14  1  0  0  0  0
 13 30  1  0  0  0  0
 13 31  1  0  0  0  0
 15 16  1  0  0  0  0
 15 32  1  0  0  0  0
M  END
> <s_m_source_file>
AV-unprocessed.smi

> <i_m_source_file_index>
301

> <i_lp_mmshare_version>
43012

> <i_f3d_flags>
0

> <s_epik_input>
W0NIM11jMW5jKFtjSF1zMSlbQ0gyXUMoPU8pW05IXVtDSDJdW0NAQEhdMltDSDJdW0NIMl1bQ0gyXU8y

> <s_epik_cmdline>
J2VwaWtfcHl0aG9uJywgJy1waCcsICc3LjAnLCAnLXRuJywgJzgnLCAnLW1hJywgJzIwMCcsICctbWV0YWxfYmluZGluZycsICctaW1hZScsICc8aW5maWxlLm1hZT4nLCAnLW9tYWUnLCAnPG91dGZpbGUubWFlPic=

> <r_lp_tautomer_probability>
1

> <r_epik_Ionization_Penalty>
6.06873e-05

> <r_epik_Ionization_Penalty_Charging>
0

> <r_epik_Ionization_Penalty_Neutral>
6.06873e-05

> <r_epik_State_Penalty>
-0

> <r_epik_Charging_Adjusted_Penalty>
0

> <i_epik_Tot_Q>
0

> <i_epik_Tot_abs_Q>
0

> <r_epik_Metal_State_Penalty>
-0

> <b_epik_Metal_Only>
0

> <s_lp_Force_Field>
OPLS_2005

> <r_lp_Energy>
16.0562

> <b_lp_Chiralities_Consistent>
1

> <s_lp_Variant>
AV-unprocessed.smi:301-2

> <Gold.Version>
5.8.1

> <Gold.Id.Protein>
6NUR|6NUR_protein|mol2

> <Gold.PLP.Fitness>
38.1169

> <Gold.PLP.PLP>
-32.9383

> <Gold.PLP.part.hbond>
-2.0000

> <Gold.PLP.part.metal>
0.0000

> <Gold.PLP.part.buried>
-3.2370

> <Gold.PLP.part.nonpolar>
-27.2610

> <Gold.PLP.part.repulsive>
0.3751

> <Gold.PLP.ligand.clash>
0.0000

> <Gold.PLP.ligand.torsion>
0.3296

> <Gold.PLP.Chemscore.Hbond>
1.9440

> <Gold.PLP.Chemscore.CHOScore>
0.0000

> <Gold.PLP.Chemscore.Metal>
0.0000

> <Gold.Chemscore.Hbonds>
donor molecule, donor type, donor heavy atom, donor atom, acceptor molecule, acceptor atom, score
      L1  H     8    22       P1  8028  0.93
      P1  H  7989  7998       L1     7  1.00

> <Gold.PLP.Chemscore.Internal.Correction>
0.0058

> <Gold.Rescore>
     Score         DG    S(hbond)    S(metal)    S(lipo)     H(rot)  DE(clash)    DE(int)     intcor
     15.24     -17.26       1.55        0.00      89.52       1.51       0.12       1.89       ----

> <Gold.Chemscore.Fitness>
15.2387

> <Gold.Chemscore.DG>
-17.2560

> <Gold.Chemscore.ZeroCoef>
-5.4800

> <Gold.Chemscore.Hbond>
1.5478

> <Gold.Chemscore.Metal>
0.0000

> <Gold.Chemscore.Lipo>
89.5156

> <Gold.Chemscore.Internal_Hbond>
0.0000

> <Gold.Chemscore.DEClash>
0.1230

> <Gold.Chemscore.DEInternal>
1.8942

> <Gold.Chemscore.Rot>
1.5106

> <Gold.Chemscore.Internal.Correction>
   9.000000E+99

> <Gold.Chemscore.Hbonds>
donor molecule, donor type, donor heavy atom, donor atom, acceptor molecule, acceptor atom, score
      L1  H     8    22       P1  8028  0.85
      P1  H  7989  7998       L1     7  0.29

> <Gold.Chemscore.Hbond.Weighted>
-5.1696

> <Gold.Chemscore.Metal.Weighted>
-0.0000

> <Gold.Chemscore.Lipo.Weighted>
-10.4733

> <Gold.Chemscore.Internal_Hbond.Weighted>
0.0000

> <Gold.Chemscore.DEClash.Weighted>
0.1230

> <Gold.Chemscore.DEInternal.Weighted>
1.8942

> <Gold.Chemscore.Rot.Weighted>
3.8670

> <Gold.Chemscore.Internal.Correction.Weighted>
   9.000000E+99

> <Gold.Protein.RotatedTorsions>
[ 6907 6896 6895 6894 ] final   94.88 input  -60.11 | X-H torsion
[ 7974 7965 7964 7962 ] final -158.25 input  175.53 | X-H torsion
[ 8008 7997 7996 7995 ] final  160.03 input   59.86 | X-H torsion
[ 10167 10162 10161 10158 ] final   35.48 input  -65.29 | X-H torsion
[ 10718 10713 10712 10709 ] final    6.40 input   66.30 | X-H torsion
[ 10763 10752 10751 10750 ] final  -63.22 input  -60.55 | X-H torsion
[ 11005 11000 10999 10996 ] final   76.76 input  -57.11 | X-H torsion

> <Gold.Protein.ActiveResidues>
 VAL166  LYS551  ARG553  GLY616  TRP617  ASP618  TYR619  PRO620  LYS621  CYS622 
 ASP623  PHE694  ASN695  SER759  ASP760  ASP761  ALA762  ILE779  LEU786  VAL792 
 PHE793  MET794  SER795  GLU796  ALA797  LYS798  CYS799  TRP800  GLU811  SER814 

> <Gold.Protein.RotatedAtoms>
  152.5447  134.1126  159.8364 H   0  0  0  0  0  0  0  0  0  0  0  0  # atno 6907 bound_to 6896
  151.1191  133.5110  159.2610 H   0  0  0  0  0  0  0  0  0  0  0  0  # atno 6908 bound_to 6896
  151.1799  135.0366  159.8842 H   0  0  0  0  0  0  0  0  0  0  0  0  # atno 6909 bound_to 6896
  144.7513  140.3854  143.6045 H   0  0  0  0  0  0  0  0  0  0  0  0  # atno 7974 bound_to 7965
  156.2200  140.1815  156.7499 H   0  0  0  0  0  0  0  0  0  0  0  0  # atno 8008 bound_to 7997
  154.5850  140.0660  156.9187 H   0  0  0  0  0  0  0  0  0  0  0  0  # atno 8009 bound_to 7997
  155.2435  140.3323  155.4292 H   0  0  0  0  0  0  0  0  0  0  0  0  # atno 8010 bound_to 7997
  140.4217  144.1450  150.6149 H   0  0  0  0  0  0  0  0  0  0  0  0  # atno 10167 bound_to 10162
  156.9216  130.5793  149.5648 H   0  0  0  0  0  0  0  0  0  0  0  0  # atno 10718 bound_to 10713
  154.3118  135.6214  153.5469 H   0  0  0  0  0  0  0  0  0  0  0  0  # atno 10763 bound_to 10752
  152.9829  135.5703  154.5168 H   0  0  0  0  0  0  0  0  0  0  0  0  # atno 10764 bound_to 10752
  154.4819  135.2863  155.1540 H   0  0  0  0  0  0  0  0  0  0  0  0  # atno 10765 bound_to 10752
  139.9284  134.7627  156.1436 H   0  0  0  0  0  0  0  0  0  0  0  0  # atno 11005 bound_to 11000
  145.6933  139.1644  143.2634 LP  0  0  0  0  0  0  0  0  0  0  0  0  # atno 17320 bound_to 7965
  146.1468  140.6982  142.9341 LP  0  0  0  0  0  0  0  0  0  0  0  0  # atno 17321 bound_to 7965
  140.4526  143.2481  151.9328 LP  0  0  0  0  0  0  0  0  0  0  0  0  # atno 17342 bound_to 10162
  139.4783  144.5547  151.8331 LP  0  0  0  0  0  0  0  0  0  0  0  0  # atno 17343 bound_to 10162
  156.0488  130.5561  150.8943 LP  0  0  0  0  0  0  0  0  0  0  0  0  # atno 17370 bound_to 10713
  157.5904  131.0944  150.9128 LP  0  0  0  0  0  0  0  0  0  0  0  0  # atno 17371 bound_to 10713
  141.0857  133.6735  156.2431 LP  0  0  0  0  0  0  0  0  0  0  0  0  # atno 17394 bound_to 11000
  140.6271  134.5302  157.5555 LP  0  0  0  0  0  0  0  0  0  0  0  0  # atno 17395 bound_to 11000

$$$$
