AV-unprocessed.smi:1682|AV-procd|sdf|6745|dock5
  -GOLD-   22720 7503D 1   1.00000     0.00000
 Structure written by MMmdl.
 39 40  0  0  0  0  0  0  0  0  2 V2000
  149.3215  141.7131  154.2073 O   0  0  0  0  0  0  0  0  0  0  0  0
  148.5191  141.4278  155.0956 C   0  0  0  0  0  0  0  0  0  0  0  0
  148.8966  141.0846  156.3375 N   0  0  0  0  0  0  0  0  0  0  0  0
  150.2799  141.0373  156.7890 C   0  0  0  0  0  0  0  0  0  0  0  0
  151.0021  142.3545  156.4744 C   0  0  0  0  0  0  0  0  0  0  0  0
  151.3500  143.1290  157.7312 C   0  0  0  0  0  0  0  0  0  0  0  0
  152.1768  142.5901  158.7411 C   0  0  0  0  0  0  0  0  0  0  0  0
  152.4506  143.3597  159.8911 C   0  0  0  0  0  0  0  0  0  0  0  0
  151.8933  144.6500  160.0071 C   0  0  0  0  0  0  0  0  0  0  0  0
  151.0752  145.1390  158.9684 C   0  0  0  0  0  0  0  0  0  0  0  0
  150.8360  144.3713  157.8823 N   0  3  0  0  0  0  0  0  0  0  0  0
  147.0101  141.4650  154.8028 C   0  0  2  0  0  0  0  0  0  0  0  0
  146.6950  142.1205  153.4445 C   0  0  0  0  0  0  0  0  0  0  0  0
  145.9480  143.3892  153.8225 C   0  0  0  0  0  0  0  0  0  0  0  0
  145.6434  144.2506  152.9996 O   0  0  0  0  0  0  0  0  0  0  0  0
  145.7010  143.4311  155.1369 N   0  0  0  0  0  0  0  0  0  0  0  0
  145.0250  144.5089  155.8577 C   0  0  0  0  0  0  0  0  0  0  0  0
  143.6309  144.8196  155.2828 C   0  0  0  0  0  0  0  0  0  0  0  0
  142.9740  143.6753  155.0981 F   0  0  0  0  0  0  0  0  0  0  0  0
  142.9223  145.5825  156.1147 F   0  0  0  0  0  0  0  0  0  0  0  0
  143.7427  145.4390  154.1077 F   0  0  0  0  0  0  0  0  0  0  0  0
  146.2016  142.2642  155.8468 C   0  0  0  0  0  0  0  0  0  0  0  0
  148.1790  140.8631  157.0127 H   0  0  0  0  0  0  0  0  0  0  0  0
  150.3028  140.8401  157.8620 H   0  0  0  0  0  0  0  0  0  0  0  0
  150.7893  140.2071  156.2968 H   0  0  0  0  0  0  0  0  0  0  0  0
  151.9172  142.1535  155.9152 H   0  0  0  0  0  0  0  0  0  0  0  0
  150.3803  142.9805  155.8328 H   0  0  0  0  0  0  0  0  0  0  0  0
  152.5946  141.5987  158.6402 H   0  0  0  0  0  0  0  0  0  0  0  0
  153.0793  142.9644  160.6756 H   0  0  0  0  0  0  0  0  0  0  0  0
  152.0896  145.2550  160.8802 H   0  0  0  0  0  0  0  0  0  0  0  0
  150.6070  146.1125  158.9737 H   0  0  0  0  0  0  0  0  0  0  0  0
  146.6513  140.4343  154.7925 H   0  0  0  0  0  0  0  0  0  0  0  0
  147.5807  142.3569  152.8525 H   0  0  0  0  0  0  0  0  0  0  0  0
  146.0467  141.4845  152.8410 H   0  0  0  0  0  0  0  0  0  0  0  0
  144.9319  144.2310  156.9083 H   0  0  0  0  0  0  0  0  0  0  0  0
  145.6457  145.4062  155.8368 H   0  0  0  0  0  0  0  0  0  0  0  0
  145.3596  141.6764  156.2150 H   0  0  0  0  0  0  0  0  0  0  0  0
  146.7970  142.5621  156.7116 H   0  0  0  0  0  0  0  0  0  0  0  0
  150.2385  144.7449  157.1445 H   0  0  0  0  0  0  0  0  0  0  0  0
  1  2  2  0  0  0  0
  2  3  1  0  0  0  0
  2 12  1  0  0  0  0
  3  4  1  0  0  0  0
  3 23  1  0  0  0  0
  4  5  1  0  0  0  0
  4 24  1  0  0  0  0
  4 25  1  0  0  0  0
  5  6  1  0  0  0  0
  5 26  1  0  0  0  0
  5 27  1  0  0  0  0
  6 11  1  0  0  0  0
  6  7  2  0  0  0  0
  7  8  1  0  0  0  0
  7 28  1  0  0  0  0
  8  9  2  0  0  0  0
  8 29  1  0  0  0  0
  9 10  1  0  0  0  0
  9 30  1  0  0  0  0
 10 11  2  0  0  0  0
 10 31  1  0  0  0  0
 11 39  1  0  0  0  0
 12 22  1  0  0  0  0
 12 13  1  0  0  0  0
 12 32  1  0  0  0  0
 13 14  1  0  0  0  0
 13 33  1  0  0  0  0
 13 34  1  0  0  0  0
 14 15  2  0  0  0  0
 14 16  1  0  0  0  0
 16 17  1  0  0  0  0
 16 22  1  0  0  0  0
 17 18  1  0  0  0  0
 17 35  1  0  0  0  0
 17 36  1  0  0  0  0
 18 19  1  0  0  0  0
 18 20  1  0  0  0  0
 18 21  1  0  0  0  0
 22 37  1  0  0  0  0
 22 38  1  0  0  0  0
M  CHG  1  11   1
M  END
> <s_m_source_file>
AV-unprocessed.smi

> <i_m_source_file_index>
1682

> <i_lp_mmshare_version>
43012

> <i_f3d_flags>
0

> <s_epik_input>
RkMoRikoRilbQ0gyXU4oW0NIMl0xKUMoPU8pW0NIMl1bQ0BIXTFDKD1PKVtOSF1bQ0gyXVtDSDJdYzJbY0hdW2NIXVtjSF1bY0hdbjI=

> <s_epik_cmdline>
J2VwaWtfcHl0aG9uJywgJy1waCcsICc3LjAnLCAnLXRuJywgJzgnLCAnLW1hJywgJzIwMCcsICctbWV0YWxfYmluZGluZycsICctaW1hZScsICc8aW5maWxlLm1hZT4nLCAnLW9tYWUnLCAnPG91dGZpbGUubWFlPic=

> <r_epik_Ionization_Penalty>
1.88249

> <r_epik_Ionization_Penalty_Charging>
1.88249

> <r_epik_Ionization_Penalty_Neutral>
2.8664e-08

> <r_epik_State_Penalty>
2.00238

> <r_epik_Charging_Adjusted_Penalty>
3.88487

> <i_epik_Tot_Q>
1

> <i_epik_Tot_abs_Q>
1

> <r_epik_Metal_State_Penalty>
2.02677

> <b_epik_Metal_Only>
0

> <s_lp_Force_Field>
OPLS_2005

> <r_lp_Energy>
22.1056

> <b_lp_Chiralities_Consistent>
1

> <s_lp_Variant>
AV-unprocessed.smi:1682-3

> <Gold.Version>
5.8.1

> <Gold.Id.Protein>
6NUR|6NUR_protein|mol2

> <Gold.PLP.Fitness>
50.6318

> <Gold.PLP.PLP>
-44.5095

> <Gold.PLP.part.hbond>
-3.2631

> <Gold.PLP.part.metal>
0.0000

> <Gold.PLP.part.buried>
-8.1721

> <Gold.PLP.part.nonpolar>
-33.5588

> <Gold.PLP.part.repulsive>
0.4866

> <Gold.PLP.ligand.clash>
0.0000

> <Gold.PLP.ligand.torsion>
0.7472

> <Gold.PLP.Chemscore.Hbond>
2.5127

> <Gold.PLP.Chemscore.CHOScore>
0.0000

> <Gold.PLP.Chemscore.Metal>
0.0000

> <Gold.Chemscore.Hbonds>
donor molecule, donor type, donor heavy atom, donor atom, acceptor molecule, acceptor atom, score
      L1  H    11    39       P1  8028  2.00
      P1  H  8011  8017       L1     1  0.50

> <Gold.PLP.Chemscore.Internal.Correction>
0.0787

> <Gold.Rescore>
     Score         DG    S(hbond)    S(metal)    S(lipo)     H(rot)  DE(clash)    DE(int)     intcor
     11.76     -15.46       1.37        0.00      94.02       2.19       0.07       3.63       ----

> <Gold.Chemscore.Fitness>
11.7577

> <Gold.Chemscore.DG>
-15.4564

> <Gold.Chemscore.ZeroCoef>
-5.4800

> <Gold.Chemscore.Hbond>
1.3746

> <Gold.Chemscore.Metal>
0.0000

> <Gold.Chemscore.Lipo>
94.0154

> <Gold.Chemscore.Internal_Hbond>
0.0000

> <Gold.Chemscore.DEClash>
0.0686

> <Gold.Chemscore.DEInternal>
3.6300

> <Gold.Chemscore.Rot>
2.1932

> <Gold.Chemscore.Internal.Correction>
   9.000000E+99

> <Gold.Chemscore.Hbonds>
donor molecule, donor type, donor heavy atom, donor atom, acceptor molecule, acceptor atom, score
      L1  H    11    39       P1  8028  0.39
      P1  H  8011  8017       L1     1  0.47

> <Gold.Chemscore.Hbond.Weighted>
-4.5911

> <Gold.Chemscore.Metal.Weighted>
-0.0000

> <Gold.Chemscore.Lipo.Weighted>
-10.9998

> <Gold.Chemscore.Internal_Hbond.Weighted>
0.0000

> <Gold.Chemscore.DEClash.Weighted>
0.0686

> <Gold.Chemscore.DEInternal.Weighted>
3.6300

> <Gold.Chemscore.Rot.Weighted>
5.6145

> <Gold.Chemscore.Internal.Correction.Weighted>
   9.000000E+99

> <Gold.Protein.RotatedTorsions>
[ 6907 6896 6895 6894 ] final  -30.48 input  -60.11 | X-H torsion
[ 7974 7965 7964 7962 ] final -174.09 input  175.53 | X-H torsion
[ 8008 7997 7996 7995 ] final   19.62 input   59.86 | X-H torsion
[ 10167 10162 10161 10158 ] final  -67.49 input  -65.29 | X-H torsion
[ 10718 10713 10712 10709 ] final  156.60 input   66.30 | X-H torsion
[ 10763 10752 10751 10750 ] final  -81.86 input  -60.55 | X-H torsion
[ 11005 11000 10999 10996 ] final  -44.47 input  -57.11 | X-H torsion

> <Gold.Protein.ActiveResidues>
 VAL166  LYS551  ARG553  GLY616  TRP617  ASP618  TYR619  PRO620  LYS621  CYS622 
 ASP623  PHE694  ASN695  SER759  ASP760  ASP761  ALA762  ILE779  LEU786  VAL792 
 PHE793  MET794  SER795  GLU796  ALA797  LYS798  CYS799  TRP800  GLU811  SER814 

> <Gold.Protein.RotatedAtoms>
  151.1050  134.9994  159.8466 H   0  0  0  0  0  0  0  0  0  0  0  0  # atno 6907 bound_to 6896
  152.5439  134.1904  159.8681 H   0  0  0  0  0  0  0  0  0  0  0  0  # atno 6908 bound_to 6896
  151.1950  133.4600  159.2628 H   0  0  0  0  0  0  0  0  0  0  0  0  # atno 6909 bound_to 6896
  144.7134  140.1524  143.6383 H   0  0  0  0  0  0  0  0  0  0  0  0  # atno 7974 bound_to 7965
  154.9235  140.3030  155.5204 H   0  0  0  0  0  0  0  0  0  0  0  0  # atno 8008 bound_to 7997
  156.3008  140.2367  156.4223 H   0  0  0  0  0  0  0  0  0  0  0  0  # atno 8009 bound_to 7997
  154.8308  140.0418  157.1464 H   0  0  0  0  0  0  0  0  0  0  0  0  # atno 8010 bound_to 7997
  140.5579  143.2312  151.6786 H   0  0  0  0  0  0  0  0  0  0  0  0  # atno 10167 bound_to 10162
  157.2027  131.0680  151.2015 H   0  0  0  0  0  0  0  0  0  0  0  0  # atno 10718 bound_to 10713
  154.5688  135.5611  153.7075 H   0  0  0  0  0  0  0  0  0  0  0  0  # atno 10763 bound_to 10752
  153.0041  135.6292  154.2143 H   0  0  0  0  0  0  0  0  0  0  0  0  # atno 10764 bound_to 10752
  154.2083  135.2875  155.2947 H   0  0  0  0  0  0  0  0  0  0  0  0  # atno 10765 bound_to 10752
  141.0452  133.6764  156.2877 H   0  0  0  0  0  0  0  0  0  0  0  0  # atno 11005 bound_to 11000
  145.9105  139.2484  143.1440 LP  0  0  0  0  0  0  0  0  0  0  0  0  # atno 17320 bound_to 7965
  145.9721  140.8751  143.0157 LP  0  0  0  0  0  0  0  0  0  0  0  0  # atno 17321 bound_to 7965
  139.5056  144.3711  152.0469 LP  0  0  0  0  0  0  0  0  0  0  0  0  # atno 17342 bound_to 10162
  140.2835  144.3834  150.6111 LP  0  0  0  0  0  0  0  0  0  0  0  0  # atno 17343 bound_to 10162
  157.3750  130.7201  149.6591 LP  0  0  0  0  0  0  0  0  0  0  0  0  # atno 17370 bound_to 10713
  155.9698  130.4188  150.4345 LP  0  0  0  0  0  0  0  0  0  0  0  0  # atno 17371 bound_to 10713
  140.6160  134.5410  157.5540 LP  0  0  0  0  0  0  0  0  0  0  0  0  # atno 17394 bound_to 11000
  139.9306  134.7970  156.0941 LP  0  0  0  0  0  0  0  0  0  0  0  0  # atno 17395 bound_to 11000

$$$$
