AV-unprocessed.smi:1982|AV-procd|sdf|8024|dock6
  -GOLD-   2272010213D 1   1.00000     0.00000
 Structure written by MMmdl.
 36 37  0  0  0  0  0  0  0  0  1 V2000
  152.4988  142.5905  161.7260 C   0  0  0  0  0  0  0  0  0  0  0  0
  153.0235  143.2587  160.4383 C   0  0  2  0  0  0  0  0  0  0  0  0
  152.2150  144.5240  160.0857 C   0  0  0  0  0  0  0  0  0  0  0  0
  150.8164  144.1876  159.5454 C   0  0  0  0  0  0  0  0  0  0  0  0
  150.9026  143.2483  158.3348 C   0  0  0  0  0  0  0  0  0  0  0  0
  151.6973  141.9676  158.6547 C   0  0  1  0  0  0  0  0  0  0  0  0
  151.7974  141.1659  157.4350 N   0  0  0  0  0  0  0  0  0  0  0  0
  150.7733  140.7806  156.6573 C   0  0  0  0  0  0  0  0  0  0  0  0
  149.5974  141.0570  156.8995 O   0  0  0  0  0  0  0  0  0  0  0  0
  151.1558  139.9526  155.4246 C   0  0  0  0  0  0  0  0  0  0  0  0
  151.8720  138.7347  155.7625 N   0  0  0  0  0  0  0  0  0  0  0  0
  151.5431  137.4508  155.6045 C   0  0  0  0  0  0  0  0  0  0  0  0
  152.4945  136.6440  156.0492 N   0  0  0  0  0  0  0  0  0  0  0  0
  153.4632  137.5220  156.5061 N   0  0  0  0  0  0  0  0  0  0  0  0
  153.0993  138.7639  156.3392 N   0  0  0  0  0  0  0  0  0  0  0  0
  153.1046  142.3066  159.2143 C   0  0  2  0  0  0  0  0  0  0  0  0
  153.9599  141.0565  159.5016 C   0  0  0  0  0  0  0  0  0  0  0  0
  151.4986  142.1779  161.5992 H   0  0  0  0  0  0  0  0  0  0  0  0
  152.4547  143.3090  162.5449 H   0  0  0  0  0  0  0  0  0  0  0  0
  153.1513  141.7809  162.0522 H   0  0  0  0  0  0  0  0  0  0  0  0
  154.0392  143.5885  160.6606 H   0  0  0  0  0  0  0  0  0  0  0  0
  152.1314  145.1750  160.9565 H   0  0  0  0  0  0  0  0  0  0  0  0
  152.7575  145.0980  159.3332 H   0  0  0  0  0  0  0  0  0  0  0  0
  150.2129  143.7260  160.3275 H   0  0  0  0  0  0  0  0  0  0  0  0
  150.2991  145.1050  159.2635 H   0  0  0  0  0  0  0  0  0  0  0  0
  149.8969  142.9891  158.0016 H   0  0  0  0  0  0  0  0  0  0  0  0
  151.3743  143.7777  157.5057 H   0  0  0  0  0  0  0  0  0  0  0  0
  151.1454  141.4150  159.4164 H   0  0  0  0  0  0  0  0  0  0  0  0
  152.7272  140.8884  157.1558 H   0  0  0  0  0  0  0  0  0  0  0  0
  150.2558  139.6942  154.8642 H   0  0  0  0  0  0  0  0  0  0  0  0
  151.7864  140.5519  154.7667 H   0  0  0  0  0  0  0  0  0  0  0  0
  150.6165  137.1117  155.1655 H   0  0  0  0  0  0  0  0  0  0  0  0
  153.6317  142.8583  158.4338 H   0  0  0  0  0  0  0  0  0  0  0  0
  153.4502  140.3680  160.1758 H   0  0  0  0  0  0  0  0  0  0  0  0
  154.9130  141.3283  159.9558 H   0  0  0  0  0  0  0  0  0  0  0  0
  154.1862  140.5087  158.5868 H   0  0  0  0  0  0  0  0  0  0  0  0
  1  2  1  0  0  0  0
  1 18  1  0  0  0  0
  1 19  1  0  0  0  0
  1 20  1  0  0  0  0
  2 16  1  0  0  0  0
  2  3  1  0  0  0  0
  2 21  1  0  0  0  0
  3  4  1  0  0  0  0
  3 22  1  0  0  0  0
  3 23  1  0  0  0  0
  4  5  1  0  0  0  0
  4 24  1  0  0  0  0
  4 25  1  0  0  0  0
  5  6  1  0  0  0  0
  5 26  1  0  0  0  0
  5 27  1  0  0  0  0
  6  7  1  0  0  0  0
  6 16  1  0  0  0  0
  6 28  1  0  0  0  0
  7  8  1  0  0  0  0
  7 29  1  0  0  0  0
  8  9  2  0  0  0  0
  8 10  1  0  0  0  0
 10 11  1  0  0  0  0
 10 30  1  0  0  0  0
 10 31  1  0  0  0  0
 11 15  1  0  0  0  0
 11 12  1  0  0  0  0
 12 13  2  0  0  0  0
 12 32  1  0  0  0  0
 13 14  1  0  0  0  0
 14 15  2  0  0  0  0
 16 17  1  0  0  0  0
 16 33  1  0  0  0  0
 17 34  1  0  0  0  0
 17 35  1  0  0  0  0
 17 36  1  0  0  0  0
M  END
> <s_m_source_file>
AV-unprocessed.smi

> <i_m_source_file_index>
1982

> <i_lp_mmshare_version>
43012

> <i_f3d_flags>
0

> <s_epik_input>
W0NIM11bQ0BASF0xW0NIMl1bQ0gyXVtDSDJdW0NASF0oW0NASF0xW0NIM10pW05IXUMoPU8pW0NIMl1uMltjSF1ubm4y

> <s_epik_cmdline>
J2VwaWtfcHl0aG9uJywgJy1waCcsICc3LjAnLCAnLXRuJywgJzgnLCAnLW1hJywgJzIwMCcsICctbWV0YWxfYmluZGluZycsICctaW1hZScsICc8aW5maWxlLm1hZT4nLCAnLW9tYWUnLCAnPG91dGZpbGUubWFlPic=

> <r_lp_tautomer_probability>
1

> <r_epik_Ionization_Penalty>
5.03816e-07

> <r_epik_Ionization_Penalty_Charging>
0

> <r_epik_Ionization_Penalty_Neutral>
5.03816e-07

> <r_epik_State_Penalty>
-0

> <r_epik_Charging_Adjusted_Penalty>
0

> <i_epik_Tot_Q>
0

> <i_epik_Tot_abs_Q>
0

> <r_epik_Metal_State_Penalty>
-0

> <b_epik_Metal_Only>
0

> <s_lp_Force_Field>
OPLS_2005

> <r_lp_Energy>
16.2726

> <b_lp_Chiralities_Consistent>
1

> <s_lp_Variant>
AV-unprocessed.smi:1982-5

> <Gold.Version>
5.8.1

> <Gold.Id.Protein>
6NUR|6NUR_protein|mol2

> <Gold.PLP.Fitness>
40.9285

> <Gold.PLP.PLP>
-35.0468

> <Gold.PLP.part.hbond>
-2.5739

> <Gold.PLP.part.metal>
0.0000

> <Gold.PLP.part.buried>
-3.9027

> <Gold.PLP.part.nonpolar>
-27.7301

> <Gold.PLP.part.repulsive>
0.1532

> <Gold.PLP.ligand.clash>
0.0000

> <Gold.PLP.ligand.torsion>
0.0611

> <Gold.PLP.Chemscore.Hbond>
2.0000

> <Gold.PLP.Chemscore.CHOScore>
0.0000

> <Gold.PLP.Chemscore.Metal>
0.0000

> <Gold.Chemscore.Hbonds>
donor molecule, donor type, donor heavy atom, donor atom, acceptor molecule, acceptor atom, score
      P1  H  7997  8009       L1    15  1.00
      P1  H 10752 10764       L1    13  1.00

> <Gold.PLP.Chemscore.Internal.Correction>
0.0038

> <Gold.Rescore>
     Score         DG    S(hbond)    S(metal)    S(lipo)     H(rot)  DE(clash)    DE(int)     intcor
     14.92     -17.23       1.79        0.00      91.13       1.91       0.01       2.30       ----

> <Gold.Chemscore.Fitness>
14.9170

> <Gold.Chemscore.DG>
-17.2275

> <Gold.Chemscore.ZeroCoef>
-5.4800

> <Gold.Chemscore.Hbond>
1.7858

> <Gold.Chemscore.Metal>
0.0000

> <Gold.Chemscore.Lipo>
91.1263

> <Gold.Chemscore.Internal_Hbond>
0.0000

> <Gold.Chemscore.DEClash>
0.0126

> <Gold.Chemscore.DEInternal>
2.2979

> <Gold.Chemscore.Rot>
1.9058

> <Gold.Chemscore.Internal.Correction>
   9.000000E+99

> <Gold.Chemscore.Hbonds>
donor molecule, donor type, donor heavy atom, donor atom, acceptor molecule, acceptor atom, score
      P1  H  7997  8009       L1    15  0.95
      P1  H 10752 10764       L1    13  0.75

> <Gold.Chemscore.Hbond.Weighted>
-5.9645

> <Gold.Chemscore.Metal.Weighted>
-0.0000

> <Gold.Chemscore.Lipo.Weighted>
-10.6618

> <Gold.Chemscore.Internal_Hbond.Weighted>
0.0000

> <Gold.Chemscore.DEClash.Weighted>
0.0126

> <Gold.Chemscore.DEInternal.Weighted>
2.2979

> <Gold.Chemscore.Rot.Weighted>
4.8788

> <Gold.Chemscore.Internal.Correction.Weighted>
   9.000000E+99

> <Gold.Protein.RotatedTorsions>
[ 6907 6896 6895 6894 ] final  100.27 input  -60.11 | X-H torsion
[ 7974 7965 7964 7962 ] final  175.29 input  175.53 | X-H torsion
[ 8008 7997 7996 7995 ] final -158.95 input   59.86 | X-H torsion
[ 10167 10162 10161 10158 ] final -150.31 input  -65.29 | X-H torsion
[ 10718 10713 10712 10709 ] final  -54.28 input   66.30 | X-H torsion
[ 10763 10752 10751 10750 ] final  -31.99 input  -60.55 | X-H torsion
[ 11005 11000 10999 10996 ] final  -42.81 input  -57.11 | X-H torsion

> <Gold.Protein.ActiveResidues>
 VAL166  LYS551  ARG553  GLY616  TRP617  ASP618  TYR619  PRO620  LYS621  CYS622 
 ASP623  PHE694  ASN695  SER759  ASP760  ASP761  ALA762  ILE779  LEU786  VAL792 
 PHE793  MET794  SER795  GLU796  ALA797  LYS798  CYS799  TRP800  GLU811  SER814 

> <Gold.Protein.RotatedAtoms>
  152.5375  134.0302  159.8021 H   0  0  0  0  0  0  0  0  0  0  0  0  # atno 6907 bound_to 6896
  151.0474  133.5645  159.2652 H   0  0  0  0  0  0  0  0  0  0  0  0  # atno 6908 bound_to 6896
  151.2592  135.0656  159.9145 H   0  0  0  0  0  0  0  0  0  0  0  0  # atno 6909 bound_to 6896
  144.7204  139.9924  143.6440 H   0  0  0  0  0  0  0  0  0  0  0  0  # atno 7974 bound_to 7965
  155.7552  140.0832  157.2182 H   0  0  0  0  0  0  0  0  0  0  0  0  # atno 8008 bound_to 7997
  154.4008  140.1553  156.2826 H   0  0  0  0  0  0  0  0  0  0  0  0  # atno 8009 bound_to 7997
  155.8892  140.3416  155.5946 H   0  0  0  0  0  0  0  0  0  0  0  0  # atno 8010 bound_to 7997
  139.7365  143.8727  152.2550 H   0  0  0  0  0  0  0  0  0  0  0  0  # atno 10167 bound_to 10162
  156.1464  130.4152  150.0016 H   0  0  0  0  0  0  0  0  0  0  0  0  # atno 10718 bound_to 10713
  153.8064  135.6886  153.4847 H   0  0  0  0  0  0  0  0  0  0  0  0  # atno 10763 bound_to 10752
  153.1656  135.4562  154.9831 H   0  0  0  0  0  0  0  0  0  0  0  0  # atno 10764 bound_to 10752
  154.7985  135.3328  154.7548 H   0  0  0  0  0  0  0  0  0  0  0  0  # atno 10765 bound_to 10752
  141.0341  133.6807  156.2646 H   0  0  0  0  0  0  0  0  0  0  0  0  # atno 11005 bound_to 11000
  146.0401  139.3414  143.0702 LP  0  0  0  0  0  0  0  0  0  0  0  0  # atno 17320 bound_to 7965
  145.8345  140.9613  143.0831 LP  0  0  0  0  0  0  0  0  0  0  0  0  # atno 17321 bound_to 7965
  139.8665  144.7090  150.9037 LP  0  0  0  0  0  0  0  0  0  0  0  0  # atno 17342 bound_to 10162
  140.7779  143.3773  151.1539 LP  0  0  0  0  0  0  0  0  0  0  0  0  # atno 17343 bound_to 10162
  156.7887  130.9248  151.3646 LP  0  0  0  0  0  0  0  0  0  0  0  0  # atno 17370 bound_to 10713
  157.6620  130.8974  149.9851 LP  0  0  0  0  0  0  0  0  0  0  0  0  # atno 17371 bound_to 10713
  140.6354  134.5221  157.5564 LP  0  0  0  0  0  0  0  0  0  0  0  0  # atno 17394 bound_to 11000
  139.9228  134.8115  156.1159 LP  0  0  0  0  0  0  0  0  0  0  0  0  # atno 17395 bound_to 11000

$$$$
