AV-unprocessed.smi:2061|AV-procd|sdf|8383|dock1
  -GOLD-   2272011 63D 1   1.00000     0.00000
 Structure written by MMmdl.
 45 46  0  0  0  0  0  0  0  0  3 V2000
  146.1714  133.8884  162.7995 C   0  0  0  0  0  0  0  0  0  0  0  0
  147.0134  134.7651  161.9374 C   0  0  0  0  0  0  0  0  0  0  0  0
  147.1792  136.1194  161.8699 C   0  0  0  0  0  0  0  0  0  0  0  0
  148.1267  136.2788  160.8219 C   0  0  0  0  0  0  0  0  0  0  0  0
  148.6281  137.4432  160.3818 N   0  5  0  0  0  0  0  0  0  0  0  0
  149.5553  137.4571  159.3977 C   0  0  0  0  0  0  0  0  0  0  0  0
  150.1740  136.4845  158.9592 O   0  0  0  0  0  0  0  0  0  0  0  0
  149.7763  138.6751  158.8831 N   0  0  0  0  0  0  0  0  0  0  0  0
  150.7058  138.9833  157.8008 C   0  0  0  0  0  0  0  0  0  0  0  0
  150.5731  140.4405  157.2877 C   0  0  1  0  0  0  0  0  0  0  0  0
  149.0942  140.7591  156.9601 C   0  0  0  0  0  0  0  0  0  0  0  0
  151.1923  141.3829  158.2749 N   0  3  1  0  0  0  0  0  0  0  0  0
  152.6467  141.1295  158.4583 C   0  0  0  0  0  0  0  0  0  0  0  0
  153.2435  142.0126  159.5697 C   0  0  2  0  0  0  0  0  0  0  0  0
  152.8276  141.5839  160.9884 C   0  0  0  0  0  0  0  0  0  0  0  0
  152.9587  143.3847  159.3078 O   0  0  0  0  0  0  0  0  0  0  0  0
  151.5751  143.6840  159.1583 C   0  0  1  0  0  0  0  0  0  0  0  0
  151.4486  145.1855  158.8770 C   0  0  0  0  0  0  0  0  0  0  0  0
  150.9727  142.8327  158.0248 C   0  0  0  0  0  0  0  0  0  0  0  0
  148.5134  135.1224  160.3097 N   0  0  0  0  0  0  0  0  0  0  0  0
  147.7998  134.1468  161.0161 O   0  0  0  0  0  0  0  0  0  0  0  0
  146.7492  133.5067  163.6414 H   0  0  0  0  0  0  0  0  0  0  0  0
  145.7911  133.0367  162.2349 H   0  0  0  0  0  0  0  0  0  0  0  0
  145.3177  134.4386  163.1958 H   0  0  0  0  0  0  0  0  0  0  0  0
  146.6983  136.8761  162.4714 H   0  0  0  0  0  0  0  0  0  0  0  0
  149.2520  139.4449  159.2728 H   0  0  0  0  0  0  0  0  0  0  0  0
  151.7167  138.8165  158.1739 H   0  0  0  0  0  0  0  0  0  0  0  0
  150.5578  138.2534  157.0054 H   0  0  0  0  0  0  0  0  0  0  0  0
  151.1249  140.5383  156.3512 H   0  0  0  0  0  0  0  0  0  0  0  0
  148.6768  140.0429  156.2524 H   0  0  0  0  0  0  0  0  0  0  0  0
  148.9805  141.7362  156.4908 H   0  0  0  0  0  0  0  0  0  0  0  0
  148.4715  140.7321  157.8548 H   0  0  0  0  0  0  0  0  0  0  0  0
  152.8439  140.0838  158.6893 H   0  0  0  0  0  0  0  0  0  0  0  0
  153.1612  141.3373  157.5184 H   0  0  0  0  0  0  0  0  0  0  0  0
  154.3287  141.9179  159.5195 H   0  0  0  0  0  0  0  0  0  0  0  0
  153.1775  140.5738  161.2039 H   0  0  0  0  0  0  0  0  0  0  0  0
  151.7464  141.5853  161.1228 H   0  0  0  0  0  0  0  0  0  0  0  0
  153.2598  142.2480  161.7372 H   0  0  0  0  0  0  0  0  0  0  0  0
  151.0515  143.4725  160.0907 H   0  0  0  0  0  0  0  0  0  0  0  0
  150.4047  145.4784  158.7628 H   0  0  0  0  0  0  0  0  0  0  0  0
  151.9760  145.4623  157.9635 H   0  0  0  0  0  0  0  0  0  0  0  0
  151.8695  145.7713  159.6946 H   0  0  0  0  0  0  0  0  0  0  0  0
  151.4106  143.1082  157.0639 H   0  0  0  0  0  0  0  0  0  0  0  0
  149.9084  143.0614  157.9789 H   0  0  0  0  0  0  0  0  0  0  0  0
  150.7454  141.1879  159.1593 H   0  0  0  0  0  0  0  0  0  0  0  0
  1  2  1  0  0  0  0
  1 22  1  0  0  0  0
  1 23  1  0  0  0  0
  1 24  1  0  0  0  0
  2 21  1  0  0  0  0
  2  3  2  0  0  0  0
  3  4  1  0  0  0  0
  3 25  1  0  0  0  0
  4  5  1  0  0  0  0
  4 20  2  0  0  0  0
  5  6  1  0  0  0  0
  6  7  2  0  0  0  0
  6  8  1  0  0  0  0
  8  9  1  0  0  0  0
  8 26  1  0  0  0  0
  9 10  1  0  0  0  0
  9 27  1  0  0  0  0
  9 28  1  0  0  0  0
 10 11  1  0  0  0  0
 10 12  1  0  0  0  0
 10 29  1  0  0  0  0
 11 30  1  0  0  0  0
 11 31  1  0  0  0  0
 11 32  1  0  0  0  0
 12 19  1  0  0  0  0
 12 13  1  0  0  0  0
 12 45  1  0  0  0  0
 13 14  1  0  0  0  0
 13 33  1  0  0  0  0
 13 34  1  0  0  0  0
 14 15  1  0  0  0  0
 14 16  1  0  0  0  0
 14 35  1  0  0  0  0
 15 36  1  0  0  0  0
 15 37  1  0  0  0  0
 15 38  1  0  0  0  0
 16 17  1  0  0  0  0
 17 18  1  0  0  0  0
 17 19  1  0  0  0  0
 17 39  1  0  0  0  0
 18 40  1  0  0  0  0
 18 41  1  0  0  0  0
 18 42  1  0  0  0  0
 19 43  1  0  0  0  0
 19 44  1  0  0  0  0
 20 21  1  0  0  0  0
M  CHG  1   5  -1
M  CHG  1  12   1
M  END
> <s_m_source_file>
AV-unprocessed.smi

> <i_m_source_file_index>
2061

> <i_lp_mmshare_version>
43012

> <i_f3d_flags>
0

> <s_epik_input>
W0NIM11jMVtjSF1jKG5vMSlbTkhdQyg9TylbTkhdW0NIMl1bQ0BIXShbQ0gzXSlOMltDSDJdW0NAQEhdKFtDSDNdKU9bQ0BASF0oW0NIM10pW0NIMl0y

> <s_epik_cmdline>
J2VwaWtfcHl0aG9uJywgJy1waCcsICc3LjAnLCAnLXRuJywgJzgnLCAnLW1hJywgJzIwMCcsICctbWV0YWxfYmluZGluZycsICctaW1hZScsICc8aW5maWxlLm1hZT4nLCAnLW9tYWUnLCAnPG91dGZpbGUubWFlPic=

> <r_epik_Ionization_Penalty>
6.73511

> <r_epik_Ionization_Penalty_Charging>
6.73502

> <r_epik_Ionization_Penalty_Neutral>
9.50841e-05

> <r_epik_State_Penalty>
6.93549

> <r_epik_Charging_Adjusted_Penalty>
13.6705

> <i_epik_Tot_Q>
0

> <i_epik_Tot_abs_Q>
2

> <r_epik_Metal_State_Penalty>
2.87211

> <b_epik_Metal_Only>
1

> <s_lp_Force_Field>
OPLS_2005

> <r_lp_Energy>
11.2328

> <b_lp_Chiralities_Consistent>
1

> <s_lp_Variant>
AV-unprocessed.smi:2061-24

> <Gold.Version>
5.8.1

> <Gold.Id.Protein>
6NUR|6NUR_protein|mol2

> <Gold.PLP.Fitness>
41.9777

> <Gold.PLP.PLP>
-34.6579

> <Gold.PLP.part.hbond>
-3.2693

> <Gold.PLP.part.metal>
0.0000

> <Gold.PLP.part.buried>
-5.4632

> <Gold.PLP.part.nonpolar>
-28.0907

> <Gold.PLP.part.repulsive>
0.3074

> <Gold.PLP.ligand.clash>
0.0000

> <Gold.PLP.ligand.torsion>
0.2117

> <Gold.PLP.Chemscore.Hbond>
2.5386

> <Gold.PLP.Chemscore.CHOScore>
0.0000

> <Gold.PLP.Chemscore.Metal>
0.0000

> <Gold.Chemscore.Hbonds>
donor molecule, donor type, donor heavy atom, donor atom, acceptor molecule, acceptor atom, score
      P1  H  6896  6907       L1     7  0.98
      P1  H  6931  6943       L1     5  1.09
      P1  H  6934  6947       L1     5  0.50

> <Gold.PLP.Chemscore.Internal.Correction>
0.1276

> <Gold.Rescore>
     Score         DG    S(hbond)    S(metal)    S(lipo)     H(rot)  DE(clash)    DE(int)     intcor
     15.42     -17.40       1.61        0.00      89.80       1.56       0.02       1.95       ----

> <Gold.Chemscore.Fitness>
15.4238

> <Gold.Chemscore.DG>
-17.3957

> <Gold.Chemscore.ZeroCoef>
-5.4800

> <Gold.Chemscore.Hbond>
1.6139

> <Gold.Chemscore.Metal>
0.0000

> <Gold.Chemscore.Lipo>
89.7958

> <Gold.Chemscore.Internal_Hbond>
0.0000

> <Gold.Chemscore.DEClash>
0.0223

> <Gold.Chemscore.DEInternal>
1.9496

> <Gold.Chemscore.Rot>
1.5550

> <Gold.Chemscore.Internal.Correction>
   9.000000E+99

> <Gold.Chemscore.Hbonds>
donor molecule, donor type, donor heavy atom, donor atom, acceptor molecule, acceptor atom, score
      P1  H  6896  6907       L1     7  0.92
      P1  H  6931  6943       L1     5  0.20
      P1  H  6934  6947       L1     5  0.17

> <Gold.Chemscore.Hbond.Weighted>
-5.3905

> <Gold.Chemscore.Metal.Weighted>
-0.0000

> <Gold.Chemscore.Lipo.Weighted>
-10.5061

> <Gold.Chemscore.Internal_Hbond.Weighted>
0.0000

> <Gold.Chemscore.DEClash.Weighted>
0.0223

> <Gold.Chemscore.DEInternal.Weighted>
1.9496

> <Gold.Chemscore.Rot.Weighted>
3.9809

> <Gold.Chemscore.Internal.Correction.Weighted>
   9.000000E+99

> <Gold.Protein.RotatedTorsions>
[ 6907 6896 6895 6894 ] final  -59.81 input  -60.11 | X-H torsion
[ 7974 7965 7964 7962 ] final  172.20 input  175.53 | X-H torsion
[ 8008 7997 7996 7995 ] final -167.39 input   59.86 | X-H torsion
[ 10167 10162 10161 10158 ] final   34.78 input  -65.29 | X-H torsion
[ 10718 10713 10712 10709 ] final   29.78 input   66.30 | X-H torsion
[ 10763 10752 10751 10750 ] final   77.52 input  -60.55 | X-H torsion
[ 11005 11000 10999 10996 ] final  -36.47 input  -57.11 | X-H torsion

> <Gold.Protein.ActiveResidues>
 VAL166  LYS551  ARG553  GLY616  TRP617  ASP618  TYR619  PRO620  LYS621  CYS622 
 ASP623  PHE694  ASN695  SER759  ASP760  ASP761  ALA762  ILE779  LEU786  VAL792 
 PHE793  MET794  SER795  GLU796  ALA797  LYS798  CYS799  TRP800  GLU811  SER814 

> <Gold.Protein.RotatedAtoms>
  150.7903  134.6920  159.6501 H   0  0  0  0  0  0  0  0  0  0  0  0  # atno 6907 bound_to 6896
  152.4007  134.6288  160.0080 H   0  0  0  0  0  0  0  0  0  0  0  0  # atno 6908 bound_to 6896
  151.6561  133.3282  159.3199 H   0  0  0  0  0  0  0  0  0  0  0  0  # atno 6909 bound_to 6896
  144.7274  139.9463  143.6430 H   0  0  0  0  0  0  0  0  0  0  0  0  # atno 7974 bound_to 7965
  155.8771  140.1003  157.1511 H   0  0  0  0  0  0  0  0  0  0  0  0  # atno 8008 bound_to 7997
  154.4002  140.1336  156.4213 H   0  0  0  0  0  0  0  0  0  0  0  0  # atno 8009 bound_to 7997
  155.7685  140.3461  155.5237 H   0  0  0  0  0  0  0  0  0  0  0  0  # atno 8010 bound_to 7997
  140.4283  144.1362  150.6156 H   0  0  0  0  0  0  0  0  0  0  0  0  # atno 10167 bound_to 10162
  157.2510  130.7115  149.6405 H   0  0  0  0  0  0  0  0  0  0  0  0  # atno 10718 bound_to 10713
  153.0805  135.4911  154.8492 H   0  0  0  0  0  0  0  0  0  0  0  0  # atno 10763 bound_to 10752
  154.7144  135.3026  154.9149 H   0  0  0  0  0  0  0  0  0  0  0  0  # atno 10764 bound_to 10752
  153.9833  135.6787  153.4804 H   0  0  0  0  0  0  0  0  0  0  0  0  # atno 10765 bound_to 10752
  140.9877  133.7022  156.1794 H   0  0  0  0  0  0  0  0  0  0  0  0  # atno 11005 bound_to 11000
  146.0746  139.3734  143.0502 LP  0  0  0  0  0  0  0  0  0  0  0  0  # atno 17320 bound_to 7965
  145.7923  140.9809  143.1042 LP  0  0  0  0  0  0  0  0  0  0  0  0  # atno 17321 bound_to 7965
  140.4456  143.2508  151.9415 LP  0  0  0  0  0  0  0  0  0  0  0  0  # atno 17342 bound_to 10162
  139.4784  144.5612  151.8236 LP  0  0  0  0  0  0  0  0  0  0  0  0  # atno 17343 bound_to 10162
  155.9666  130.4427  150.5394 LP  0  0  0  0  0  0  0  0  0  0  0  0  # atno 17370 bound_to 10713
  157.3278  131.0694  151.1884 LP  0  0  0  0  0  0  0  0  0  0  0  0  # atno 17371 bound_to 10713
  140.7089  134.4483  157.5582 LP  0  0  0  0  0  0  0  0  0  0  0  0  # atno 17394 bound_to 11000
  139.8978  134.8628  156.2029 LP  0  0  0  0  0  0  0  0  0  0  0  0  # atno 17395 bound_to 11000

$$$$
