AV-unprocessed.smi:1154|AV-procd|sdf|4902|dock5
  -GOLD-   22720 3473D 1   1.00000     0.00000
 Structure written by MMmdl.
 42 43  0  0  0  0  0  0  0  0  2 V2000
  148.0718  130.5617  153.3924 C   0  0  0  0  0  0  0  0  0  0  0  0
  147.2213  131.8191  153.1635 C   0  0  2  0  0  0  0  0  0  0  0  0
  146.2587  131.6341  151.9770 C   0  0  0  0  0  0  0  0  0  0  0  0
  145.4437  132.9141  151.7217 C   0  0  2  0  0  0  0  0  0  0  0  0
  144.5008  132.7481  150.5216 C   0  0  0  0  0  0  0  0  0  0  0  0
  146.3924  134.1158  151.5290 C   0  0  0  0  0  0  0  0  0  0  0  0
  147.3114  134.2954  152.6837 N   0  3  1  0  0  0  0  0  0  0  0  0
  146.6501  134.8840  153.8795 C   0  0  0  0  0  0  0  0  0  0  0  0
  147.6578  135.3286  154.9518 C   0  0  0  0  0  0  0  0  0  0  0  0
  148.4730  136.4296  154.4581 N   0  0  0  0  0  0  0  0  0  0  0  0
  148.9899  137.3954  155.2326 C   0  0  0  0  0  0  0  0  0  0  0  0
  148.8124  137.4516  156.4489 O   0  0  0  0  0  0  0  0  0  0  0  0
  149.8289  138.4658  154.5317 C   0  0  0  0  0  0  0  0  0  0  0  0
  151.2433  138.2959  154.8086 N   0  0  0  0  0  0  0  0  0  0  0  0
  152.0576  137.2578  154.6075 C   0  0  0  0  0  0  0  0  0  0  0  0
  153.2892  137.5152  155.0199 N   0  0  0  0  0  0  0  0  0  0  0  0
  153.1962  138.8112  155.4992 N   0  0  0  0  0  0  0  0  0  0  0  0
  151.9847  139.2799  155.3761 N   0  0  0  0  0  0  0  0  0  0  0  0
  148.1080  133.0653  152.9466 C   0  0  0  0  0  0  0  0  0  0  0  0
  148.6937  130.3387  152.5246 H   0  0  0  0  0  0  0  0  0  0  0  0
  147.4422  129.6919  153.5819 H   0  0  0  0  0  0  0  0  0  0  0  0
  148.7312  130.6833  154.2522 H   0  0  0  0  0  0  0  0  0  0  0  0
  146.6249  131.9665  154.0643 H   0  0  0  0  0  0  0  0  0  0  0  0
  146.8248  131.3744  151.0810 H   0  0  0  0  0  0  0  0  0  0  0  0
  145.5866  130.7971  152.1714 H   0  0  0  0  0  0  0  0  0  0  0  0
  144.8206  133.1011  152.5973 H   0  0  0  0  0  0  0  0  0  0  0  0
  145.0562  132.5563  149.6029 H   0  0  0  0  0  0  0  0  0  0  0  0
  143.9004  133.6451  150.3666 H   0  0  0  0  0  0  0  0  0  0  0  0
  143.8135  131.9155  150.6747 H   0  0  0  0  0  0  0  0  0  0  0  0
  146.9963  133.9644  150.6330 H   0  0  0  0  0  0  0  0  0  0  0  0
  145.8249  135.0315  151.3574 H   0  0  0  0  0  0  0  0  0  0  0  0
  146.0836  135.7638  153.5706 H   0  0  0  0  0  0  0  0  0  0  0  0
  145.9237  134.1896  154.3011 H   0  0  0  0  0  0  0  0  0  0  0  0
  147.1524  135.6622  155.8580 H   0  0  0  0  0  0  0  0  0  0  0  0
  148.2979  134.4888  155.2283 H   0  0  0  0  0  0  0  0  0  0  0  0
  148.6603  136.4590  153.4663 H   0  0  0  0  0  0  0  0  0  0  0  0
  149.6692  138.4130  153.4541 H   0  0  0  0  0  0  0  0  0  0  0  0
  149.5197  139.4607  154.8558 H   0  0  0  0  0  0  0  0  0  0  0  0
  151.7500  136.3201  154.1684 H   0  0  0  0  0  0  0  0  0  0  0  0
  148.7748  133.2117  153.7954 H   0  0  0  0  0  0  0  0  0  0  0  0
  148.7577  132.8992  152.0860 H   0  0  0  0  0  0  0  0  0  0  0  0
  147.9743  134.9974  152.3863 H   0  0  0  0  0  0  0  0  0  0  0  0
  1  2  1  0  0  0  0
  1 20  1  0  0  0  0
  1 21  1  0  0  0  0
  1 22  1  0  0  0  0
  2 19  1  0  0  0  0
  2  3  1  0  0  0  0
  2 23  1  0  0  0  0
  3  4  1  0  0  0  0
  3 24  1  0  0  0  0
  3 25  1  0  0  0  0
  4  5  1  0  0  0  0
  4  6  1  0  0  0  0
  4 26  1  0  0  0  0
  5 27  1  0  0  0  0
  5 28  1  0  0  0  0
  5 29  1  0  0  0  0
  6  7  1  0  0  0  0
  6 30  1  0  0  0  0
  6 31  1  0  0  0  0
  7  8  1  0  0  0  0
  7 19  1  0  0  0  0
  7 42  1  0  0  0  0
  8  9  1  0  0  0  0
  8 32  1  0  0  0  0
  8 33  1  0  0  0  0
  9 10  1  0  0  0  0
  9 34  1  0  0  0  0
  9 35  1  0  0  0  0
 10 11  1  0  0  0  0
 10 36  1  0  0  0  0
 11 12  2  0  0  0  0
 11 13  1  0  0  0  0
 13 14  1  0  0  0  0
 13 37  1  0  0  0  0
 13 38  1  0  0  0  0
 14 18  1  0  0  0  0
 14 15  1  0  0  0  0
 15 16  2  0  0  0  0
 15 39  1  0  0  0  0
 16 17  1  0  0  0  0
 17 18  2  0  0  0  0
 19 40  1  0  0  0  0
 19 41  1  0  0  0  0
M  CHG  1   7   1
M  END
> <s_m_source_file>
AV-unprocessed.smi

> <i_m_source_file_index>
1154

> <i_lp_mmshare_version>
43012

> <i_f3d_flags>
0

> <s_epik_input>
W0NIM11bQ0BASF0xW0NIMl1bQ0BASF0oW0NIM10pW0NIMl1OKFtDSDJdMSlbQ0gyXVtDSDJdW05IXUMoPU8pW0NIMl1uMltjSF1ubm4y

> <s_epik_cmdline>
J2VwaWtfcHl0aG9uJywgJy1waCcsICc3LjAnLCAnLXRuJywgJzgnLCAnLW1hJywgJzIwMCcsICctbWV0YWxfYmluZGluZycsICctaW1hZScsICc8aW5maWxlLm1hZT4nLCAnLW9tYWUnLCAnPG91dGZpbGUubWFlPic=

> <r_lp_tautomer_probability>
1

> <r_epik_Ionization_Penalty>
0.00217773

> <r_epik_Ionization_Penalty_Charging>
0.00217329

> <r_epik_Ionization_Penalty_Neutral>
4.43997e-06

> <r_epik_State_Penalty>
0.00149294

> <r_epik_Charging_Adjusted_Penalty>
0.00366623

> <i_epik_Tot_Q>
1

> <i_epik_Tot_abs_Q>
1

> <r_epik_Metal_State_Penalty>
-0

> <b_epik_Metal_Only>
0

> <s_lp_Force_Field>
OPLS_2005

> <r_lp_Energy>
22.2263

> <b_lp_Chiralities_Consistent>
1

> <s_lp_Variant>
AV-unprocessed.smi:1154-3

> <Gold.Version>
5.8.1

> <Gold.Id.Protein>
6NUR|6NUR_protein|mol2

> <Gold.PLP.Fitness>
49.9607

> <Gold.PLP.PLP>
-32.6682

> <Gold.PLP.part.hbond>
-5.7687

> <Gold.PLP.part.metal>
0.0000

> <Gold.PLP.part.buried>
-4.8140

> <Gold.PLP.part.nonpolar>
-23.1652

> <Gold.PLP.part.repulsive>
0.1251

> <Gold.PLP.ligand.clash>
0.0000

> <Gold.PLP.ligand.torsion>
0.3980

> <Gold.PLP.Chemscore.Hbond>
5.0000

> <Gold.PLP.Chemscore.CHOScore>
1.0000

> <Gold.PLP.Chemscore.Metal>
0.0000

> <Gold.Chemscore.Hbonds>
donor molecule, donor type, donor heavy atom, donor atom, acceptor molecule, acceptor atom, score
      L1  H     7    42       P1  7948  2.00
      L1  H    10    36       P1  7948  1.00
      P1  H  7997  8008       L1    17  1.00
      L1  C    15    39       P1  7949  0.39

> <Gold.PLP.Chemscore.Internal.Correction>
0.0886

> <Gold.Rescore>
     Score         DG    S(hbond)    S(metal)    S(lipo)     H(rot)  DE(clash)    DE(int)     intcor
     15.90     -16.64       3.50        0.00      53.93       2.67       0.07       0.66       ----

> <Gold.Chemscore.Fitness>
15.9017

> <Gold.Chemscore.DG>
-16.6355

> <Gold.Chemscore.ZeroCoef>
-5.4800

> <Gold.Chemscore.Hbond>
3.4951

> <Gold.Chemscore.Metal>
0.0000

> <Gold.Chemscore.Lipo>
53.9338

> <Gold.Chemscore.Internal_Hbond>
0.0000

> <Gold.Chemscore.DEClash>
0.0712

> <Gold.Chemscore.DEInternal>
0.6626

> <Gold.Chemscore.Rot>
2.6674

> <Gold.Chemscore.Internal.Correction>
   9.000000E+99

> <Gold.Chemscore.Hbonds>
donor molecule, donor type, donor heavy atom, donor atom, acceptor molecule, acceptor atom, score
      L1  H     7    42       P1  7948  0.81
      L1  H    10    36       P1  7948  1.00
      P1  H  7997  8008       L1    17  0.76

> <Gold.Chemscore.Hbond.Weighted>
-11.6738

> <Gold.Chemscore.Metal.Weighted>
-0.0000

> <Gold.Chemscore.Lipo.Weighted>
-6.3103

> <Gold.Chemscore.Internal_Hbond.Weighted>
0.0000

> <Gold.Chemscore.DEClash.Weighted>
0.0712

> <Gold.Chemscore.DEInternal.Weighted>
0.6626

> <Gold.Chemscore.Rot.Weighted>
6.8286

> <Gold.Chemscore.Internal.Correction.Weighted>
   9.000000E+99

> <Gold.Protein.RotatedTorsions>
[ 6907 6896 6895 6894 ] final  134.12 input  -60.11 | X-H torsion
[ 7974 7965 7964 7962 ] final -143.95 input  175.53 | X-H torsion
[ 8008 7997 7996 7995 ] final  -29.25 input   59.86 | X-H torsion
[ 10167 10162 10161 10158 ] final   -7.86 input  -65.29 | X-H torsion
[ 10718 10713 10712 10709 ] final -115.72 input   66.30 | X-H torsion
[ 10763 10752 10751 10750 ] final  156.56 input  -60.55 | X-H torsion
[ 11005 11000 10999 10996 ] final  146.93 input  -57.11 | X-H torsion

> <Gold.Protein.ActiveResidues>
 VAL166  LYS551  ARG553  GLY616  TRP617  ASP618  TYR619  PRO620  LYS621  CYS622 
 ASP623  PHE694  ASN695  SER759  ASP760  ASP761  ALA762  ILE779  LEU786  VAL792 
 PHE793  MET794  SER795  GLU796  ALA797  LYS798  CYS799  TRP800  GLU811  SER814 

> <Gold.Protein.RotatedAtoms>
  152.3147  133.5790  159.5703 H   0  0  0  0  0  0  0  0  0  0  0  0  # atno 6907 bound_to 6896
  150.7340  134.0100  159.3675 H   0  0  0  0  0  0  0  0  0  0  0  0  # atno 6908 bound_to 6896
  151.7990  135.0715  160.0448 H   0  0  0  0  0  0  0  0  0  0  0  0  # atno 6909 bound_to 6896
  144.8332  140.5770  143.5501 H   0  0  0  0  0  0  0  0  0  0  0  0  # atno 7974 bound_to 7965
  154.4298  140.1823  156.1218 H   0  0  0  0  0  0  0  0  0  0  0  0  # atno 8008 bound_to 7997
  156.0137  140.3348  155.6941 H   0  0  0  0  0  0  0  0  0  0  0  0  # atno 8009 bound_to 7997
  155.6075  140.0646  157.2706 H   0  0  0  0  0  0  0  0  0  0  0  0  # atno 8010 bound_to 7997
  140.7042  143.6034  150.8775 H   0  0  0  0  0  0  0  0  0  0  0  0  # atno 10167 bound_to 10162
  156.0914  130.6096  150.8942 H   0  0  0  0  0  0  0  0  0  0  0  0  # atno 10718 bound_to 10713
  154.1863  135.2797  155.3036 H   0  0  0  0  0  0  0  0  0  0  0  0  # atno 10763 bound_to 10752
  154.5963  135.5543  153.7333 H   0  0  0  0  0  0  0  0  0  0  0  0  # atno 10764 bound_to 10752
  153.0124  135.6381  154.2002 H   0  0  0  0  0  0  0  0  0  0  0  0  # atno 10765 bound_to 10752
  140.0834  134.9084  157.1537 H   0  0  0  0  0  0  0  0  0  0  0  0  # atno 11005 bound_to 11000
  145.4851  139.1492  143.3740 LP  0  0  0  0  0  0  0  0  0  0  0  0  # atno 17320 bound_to 7965
  146.2633  140.4988  142.8844 LP  0  0  0  0  0  0  0  0  0  0  0  0  # atno 17321 bound_to 7965
  139.9758  143.6006  152.2959 LP  0  0  0  0  0  0  0  0  0  0  0  0  # atno 17342 bound_to 10162
  139.6609  144.7662  151.1964 LP  0  0  0  0  0  0  0  0  0  0  0  0  # atno 17343 bound_to 10162
  157.6064  131.0939  150.8871 LP  0  0  0  0  0  0  0  0  0  0  0  0  # atno 17370 bound_to 10713
  156.9019  130.5249  149.5282 LP  0  0  0  0  0  0  0  0  0  0  0  0  # atno 17371 bound_to 10713
  140.3455  134.2656  155.7206 LP  0  0  0  0  0  0  0  0  0  0  0  0  # atno 17394 bound_to 11000
  141.2054  133.7860  157.0233 LP  0  0  0  0  0  0  0  0  0  0  0  0  # atno 17395 bound_to 11000

$$$$
