AV-unprocessed.smi:2593|AV-procd|sdf|10163|dock9
  -GOLD-   2272014173D 1   1.00000     0.00000
 Structure written by MMmdl.
 40 42  0  0  0  0  0  0  0  0  1 V2000
  149.7897  141.3592  155.4108 C   0  0  0  0  0  0  0  0  0  0  0  0
  150.7762  140.3465  155.3271 O   0  0  0  0  0  0  0  0  0  0  0  0
  151.8156  140.5194  156.2769 C   0  0  0  0  0  0  0  0  0  0  0  0
  151.2948  140.1755  157.6791 C   0  0  0  0  0  0  0  0  0  0  0  0
  151.9025  141.0074  158.7070 N   0  0  0  0  0  0  0  0  0  0  0  0
  152.8019  140.6382  159.6505 C   0  0  0  0  0  0  0  0  0  0  0  0
  153.4106  138.9913  159.7686 S   0  0  0  0  0  0  0  0  0  0  0  0
  154.8185  139.3422  160.8551 C   0  0  0  0  0  0  0  0  0  0  0  0
  154.6698  138.5667  162.1480 C   0  0  0  0  0  0  0  0  0  0  0  0
  153.7212  137.5277  162.2566 C   0  0  0  0  0  0  0  0  0  0  0  0
  153.6174  136.8410  163.4814 C   0  0  0  0  0  0  0  0  0  0  0  0
  154.4602  137.2185  164.5446 C   0  0  0  0  0  0  0  0  0  0  0  0
  155.3742  138.2717  164.3361 C   0  0  0  0  0  0  0  0  0  0  0  0
  156.2219  138.6742  165.3649 N   0  0  0  0  0  0  0  0  0  0  0  0
  155.4816  138.9351  163.1649 N   0  0  0  0  0  0  0  0  0  0  0  0
  153.1984  141.6010  160.4824 N   0  0  0  0  0  0  0  0  0  0  0  0
  152.4972  142.7015  160.0295 C   0  0  0  0  0  0  0  0  0  0  0  0
  152.4847  144.0369  160.4924 C   0  0  0  0  0  0  0  0  0  0  0  0
  151.6777  145.0044  159.8589 C   0  0  0  0  0  0  0  0  0  0  0  0
  150.8745  144.6520  158.7550 C   0  0  0  0  0  0  0  0  0  0  0  0
  150.8709  143.3268  158.2787 C   0  0  0  0  0  0  0  0  0  0  0  0
  151.6769  142.3643  158.9159 C   0  0  0  0  0  0  0  0  0  0  0  0
  149.0189  141.1823  154.6608 H   0  0  0  0  0  0  0  0  0  0  0  0
  150.2196  142.3445  155.2262 H   0  0  0  0  0  0  0  0  0  0  0  0
  149.3113  141.3629  156.3909 H   0  0  0  0  0  0  0  0  0  0  0  0
  152.6598  139.8748  156.0281 H   0  0  0  0  0  0  0  0  0  0  0  0
  152.1751  141.5493  156.2541 H   0  0  0  0  0  0  0  0  0  0  0  0
  150.2134  140.3081  157.7170 H   0  0  0  0  0  0  0  0  0  0  0  0
  151.4812  139.1264  157.9103 H   0  0  0  0  0  0  0  0  0  0  0  0
  155.7464  139.0588  160.3570 H   0  0  0  0  0  0  0  0  0  0  0  0
  154.8684  140.4135  161.0546 H   0  0  0  0  0  0  0  0  0  0  0  0
  153.0872  137.2648  161.4226 H   0  0  0  0  0  0  0  0  0  0  0  0
  152.9031  136.0404  163.6039 H   0  0  0  0  0  0  0  0  0  0  0  0
  154.4030  136.7096  165.4957 H   0  0  0  0  0  0  0  0  0  0  0  0
  156.2025  138.2283  166.2706 H   0  0  0  0  0  0  0  0  0  0  0  0
  156.8652  139.4432  165.2450 H   0  0  0  0  0  0  0  0  0  0  0  0
  153.0980  144.3174  161.3359 H   0  0  0  0  0  0  0  0  0  0  0  0
  151.6758  146.0222  160.2206 H   0  0  0  0  0  0  0  0  0  0  0  0
  150.2612  145.3996  158.2736 H   0  0  0  0  0  0  0  0  0  0  0  0
  150.2591  143.0544  157.4318 H   0  0  0  0  0  0  0  0  0  0  0  0
  1  2  1  0  0  0  0
  1 23  1  0  0  0  0
  1 24  1  0  0  0  0
  1 25  1  0  0  0  0
  2  3  1  0  0  0  0
  3  4  1  0  0  0  0
  3 26  1  0  0  0  0
  3 27  1  0  0  0  0
  4  5  1  0  0  0  0
  4 28  1  0  0  0  0
  4 29  1  0  0  0  0
  5 22  1  0  0  0  0
  5  6  1  0  0  0  0
  6  7  1  0  0  0  0
  6 16  2  0  0  0  0
  7  8  1  0  0  0  0
  8  9  1  0  0  0  0
  8 30  1  0  0  0  0
  8 31  1  0  0  0  0
  9 15  1  0  0  0  0
  9 10  2  0  0  0  0
 10 11  1  0  0  0  0
 10 32  1  0  0  0  0
 11 12  2  0  0  0  0
 11 33  1  0  0  0  0
 12 13  1  0  0  0  0
 12 34  1  0  0  0  0
 13 14  1  0  0  0  0
 13 15  2  0  0  0  0
 14 35  1  0  0  0  0
 14 36  1  0  0  0  0
 16 17  1  0  0  0  0
 17 22  2  0  0  0  0
 17 18  1  0  0  0  0
 18 19  2  0  0  0  0
 18 37  1  0  0  0  0
 19 20  1  0  0  0  0
 19 38  1  0  0  0  0
 20 21  2  0  0  0  0
 20 39  1  0  0  0  0
 21 22  1  0  0  0  0
 21 40  1  0  0  0  0
M  END
> <s_m_source_file>
AV-unprocessed.smi

> <i_m_source_file_index>
2593

> <i_lp_mmshare_version>
43012

> <i_f3d_flags>
0

> <s_epik_input>
W2NIXTFbY0hdW2NIXVtjSF1jKGMxMiluKFtDSDJdW0NIMl1PW0NIM10pYyhuMilTW0NIMl1jM1tjSF1bY0hdW2NIXWMobjMpW05IMl0=

> <s_epik_cmdline>
J2VwaWtfcHl0aG9uJywgJy1waCcsICc3LjAnLCAnLXRuJywgJzgnLCAnLW1hJywgJzIwMCcsICctbWV0YWxfYmluZGluZycsICctaW1hZScsICc8aW5maWxlLm1hZT4nLCAnLW9tYWUnLCAnPG91dGZpbGUubWFlPic=

> <r_lp_tautomer_probability>
1

> <r_epik_Ionization_Penalty>
0.0555631

> <r_epik_Ionization_Penalty_Charging>
0

> <r_epik_Ionization_Penalty_Neutral>
0.0555631

> <r_epik_State_Penalty>
0.0451694

> <r_epik_Charging_Adjusted_Penalty>
0.0451694

> <i_epik_Tot_Q>
0

> <i_epik_Tot_abs_Q>
0

> <r_epik_Metal_State_Penalty>
0.0431775

> <b_epik_Metal_Only>
0

> <s_lp_Force_Field>
OPLS_2005

> <r_lp_Energy>
6.83129

> <b_lp_Chiralities_Consistent>
1

> <s_lp_Variant>
AV-unprocessed.smi:2593-1

> <Gold.Version>
5.8.1

> <Gold.Id.Protein>
6NUR|6NUR_protein|mol2

> <Gold.PLP.Fitness>
49.4787

> <Gold.PLP.PLP>
-48.5927

> <Gold.PLP.part.hbond>
-1.0000

> <Gold.PLP.part.metal>
0.0000

> <Gold.PLP.part.buried>
-8.2010

> <Gold.PLP.part.nonpolar>
-39.1682

> <Gold.PLP.part.repulsive>
0.1099

> <Gold.PLP.ligand.clash>
0.0000

> <Gold.PLP.ligand.torsion>
1.0850

> <Gold.PLP.Chemscore.Hbond>
1.0000

> <Gold.PLP.Chemscore.CHOScore>
0.0000

> <Gold.PLP.Chemscore.Metal>
0.0000

> <Gold.Chemscore.Hbonds>
donor molecule, donor type, donor heavy atom, donor atom, acceptor molecule, acceptor atom, score
      P1  H  7989  7998       L1     2  0.82

> <Gold.PLP.Chemscore.Internal.Correction>
0.0559

> <Gold.Rescore>
     Score         DG    S(hbond)    S(metal)    S(lipo)     H(rot)  DE(clash)    DE(int)     intcor
     15.58     -16.63       0.51        0.00     127.16       2.13       0.17       0.88       ----

> <Gold.Chemscore.Fitness>
15.5840

> <Gold.Chemscore.DG>
-16.6279

> <Gold.Chemscore.ZeroCoef>
-5.4800

> <Gold.Chemscore.Hbond>
0.5127

> <Gold.Chemscore.Metal>
0.0000

> <Gold.Chemscore.Lipo>
127.1621

> <Gold.Chemscore.Internal_Hbond>
0.0000

> <Gold.Chemscore.DEClash>
0.1664

> <Gold.Chemscore.DEInternal>
0.8775

> <Gold.Chemscore.Rot>
2.1260

> <Gold.Chemscore.Internal.Correction>
   9.000000E+99

> <Gold.Chemscore.Hbonds>
donor molecule, donor type, donor heavy atom, donor atom, acceptor molecule, acceptor atom, score
      P1  H  7989  7998       L1     2  0.09

> <Gold.Chemscore.Hbond.Weighted>
-1.7125

> <Gold.Chemscore.Metal.Weighted>
-0.0000

> <Gold.Chemscore.Lipo.Weighted>
-14.8780

> <Gold.Chemscore.Internal_Hbond.Weighted>
0.0000

> <Gold.Chemscore.DEClash.Weighted>
0.1664

> <Gold.Chemscore.DEInternal.Weighted>
0.8775

> <Gold.Chemscore.Rot.Weighted>
5.4425

> <Gold.Chemscore.Internal.Correction.Weighted>
   9.000000E+99

> <Gold.Protein.RotatedTorsions>
[ 6907 6896 6895 6894 ] final -158.37 input  -60.11 | X-H torsion
[ 7974 7965 7964 7962 ] final  120.27 input  175.53 | X-H torsion
[ 8008 7997 7996 7995 ] final   74.08 input   59.86 | X-H torsion
[ 10167 10162 10161 10158 ] final  -18.16 input  -65.29 | X-H torsion
[ 10718 10713 10712 10709 ] final   88.00 input   66.30 | X-H torsion
[ 10763 10752 10751 10750 ] final  172.51 input  -60.55 | X-H torsion
[ 11005 11000 10999 10996 ] final -121.55 input  -57.11 | X-H torsion

> <Gold.Protein.ActiveResidues>
 VAL166  LYS551  ARG553  GLY616  TRP617  ASP618  TYR619  PRO620  LYS621  CYS622 
 ASP623  PHE694  ASN695  SER759  ASP760  ASP761  ALA762  ILE779  LEU786  VAL792 
 PHE793  MET794  SER795  GLU796  ALA797  LYS798  CYS799  TRP800  GLU811  SER814 

> <Gold.Protein.RotatedAtoms>
  151.3171  133.4056  159.2651 H   0  0  0  0  0  0  0  0  0  0  0  0  # atno 6907 bound_to 6896
  151.0066  134.9364  159.7994 H   0  0  0  0  0  0  0  0  0  0  0  0  # atno 6908 bound_to 6896
  152.5289  134.3136  159.9175 H   0  0  0  0  0  0  0  0  0  0  0  0  # atno 6909 bound_to 6896
  145.1332  139.3314  143.4654 H   0  0  0  0  0  0  0  0  0  0  0  0  # atno 7974 bound_to 7965
  155.7931  140.3478  155.5360 H   0  0  0  0  0  0  0  0  0  0  0  0  # atno 8008 bound_to 7997
  155.8614  140.0972  157.1631 H   0  0  0  0  0  0  0  0  0  0  0  0  # atno 8009 bound_to 7997
  154.4012  140.1358  156.3953 H   0  0  0  0  0  0  0  0  0  0  0  0  # atno 8010 bound_to 7997
  140.7255  143.4944  150.9950 H   0  0  0  0  0  0  0  0  0  0  0  0  # atno 10167 bound_to 10162
  157.6945  131.0277  150.3208 H   0  0  0  0  0  0  0  0  0  0  0  0  # atno 10718 bound_to 10713
  154.4271  135.2759  155.1937 H   0  0  0  0  0  0  0  0  0  0  0  0  # atno 10763 bound_to 10752
  154.3859  135.6077  153.5820 H   0  0  0  0  0  0  0  0  0  0  0  0  # atno 10764 bound_to 10752
  152.9835  135.5891  154.4576 H   0  0  0  0  0  0  0  0  0  0  0  0  # atno 10765 bound_to 10752
  141.0061  134.0332  157.3475 H   0  0  0  0  0  0  0  0  0  0  0  0  # atno 11005 bound_to 11000
  146.3512  140.1339  142.8596 LP  0  0  0  0  0  0  0  0  0  0  0  0  # atno 17320 bound_to 7965
  145.0613  140.9089  143.4937 LP  0  0  0  0  0  0  0  0  0  0  0  0  # atno 17321 bound_to 7965
  139.8650  143.7265  152.3171 LP  0  0  0  0  0  0  0  0  0  0  0  0  # atno 17342 bound_to 10162
  139.7494  144.7538  151.0529 LP  0  0  0  0  0  0  0  0  0  0  0  0  # atno 17343 bound_to 10162
  156.3696  130.3861  149.7186 LP  0  0  0  0  0  0  0  0  0  0  0  0  # atno 17370 bound_to 10713
  156.4605  130.7949  151.2970 LP  0  0  0  0  0  0  0  0  0  0  0  0  # atno 17371 bound_to 10713
  139.9064  135.0180  156.7505 LP  0  0  0  0  0  0  0  0  0  0  0  0  # atno 17394 bound_to 11000
  140.6810  133.9475  155.7910 LP  0  0  0  0  0  0  0  0  0  0  0  0  # atno 17395 bound_to 11000

$$$$
