#       Name:                AV-unprocessed.smi:290
#       Creating user name   scv26
#       Creation time:       Thu Mar 26 22:07:15 2020


#       File generated by GOLD software.
#

@<TRIPOS>MOLECULE
AV-unprocessed.smi:290
    69    72     1
SMALL
NO_CHARGES


@<TRIPOS>ATOM
      1 ****        -6.8604  -2.1712   0.4649 C.3            1 S1                 0.0000
      2 ****        -5.8616  -2.6314  -0.6074 C.3            1 S1                 0.0000
      3 ****        -5.6414  -4.0367  -0.5217 O.3            1 S1                 0.0000
      4 ****        -4.2980  -4.3468  -0.8814 C.3            1 S1                 0.0000
      5 ****        -3.6853  -3.0356  -1.3653 C.3            1 S1                 0.0000
      6 ****        -4.4603  -1.9920  -0.5704 C.3            1 S1                 0.0000
      7 ****        -4.4553  -0.7738  -1.2908 O.3            1 S1                 0.0000
      8 ****        -3.9096  -1.7582   0.8635 C.3            1 S1                 0.0000
      9 ****        -2.5380  -1.2767   0.9003 N.pl3          1 S1                 0.0000
     10 ****        -1.3968  -2.0376   1.0273 C.2            1 S1                 0.0000
     11 ****        -0.2768  -1.3665   1.0365 N.2            1 S1                 0.0000
     12 ****        -0.6806  -0.0427   0.9222 C.ar           1 S1                 0.0000
     13 ****         0.0089   1.1958   0.8704 C.ar           1 S1                 0.0000
     14 ****         1.3576   1.2552   0.9265 N.3            1 S1                 0.0000
     15 ****         1.8877   1.8916   2.1217 C.3            1 S1                 0.0000
     16 ****         3.3717   2.1412   1.8307 C.3            1 S1                 0.0000
     17 ****         3.4784   2.1284   0.2894 C.3            1 S1                 0.0000
     18 ****         4.4781   1.1648  -0.2687 N.4            1 S1                 1.0000
     19 ****         4.3894  -0.2238   0.2527 C.3            1 S1                 0.0000
     20 ****         5.8726   1.6767  -0.2512 C.3            1 S1                 0.0000
     21 ****         6.1561   2.6414  -1.4156 C.3            1 S1                 0.0000
     22 ****         6.0917   1.9473  -2.6435 O.3            1 S1                 0.0000
     23 ****         2.0319   1.8948  -0.1950 C.3            1 S1                 0.0000
     24 ****         1.8464   1.1708  -1.5441 C.3            1 S1                 0.0000
     25 ****        -0.7270   2.3323   0.7531 N.ar           1 S1                 0.0000
     26 ****        -2.0603   2.2582   0.6915 C.ar           1 S1                 0.0000
     27 ****        -2.8388   1.1740   0.7270 N.ar           1 S1                 0.0000
     28 ****        -2.0981   0.0338   0.8407 C.ar           1 S1                 0.0000
     29 ****         3.7554   3.1271  -0.0472 H              1 S1                 0.0000
     30 ****         1.5866   2.8848  -0.3099 H              1 S1                 0.0000
     31 ****        -7.0025  -1.0909   0.4300 H              1 S1                 0.0000
     32 ****        -6.5277  -2.4378   1.4680 H              1 S1                 0.0000
     33 ****        -7.8329  -2.6384   0.3100 H              1 S1                 0.0000
     34 ****        -6.3031  -2.4536  -1.5901 H              1 S1                 0.0000
     35 ****        -3.7750  -4.7129   0.0027 H              1 S1                 0.0000
     36 ****        -4.2606  -5.1259  -1.6428 H              1 S1                 0.0000
     37 ****        -2.6040  -2.9949  -1.2423 H              1 S1                 0.0000
     38 ****        -3.8907  -2.9251  -2.4316 H              1 S1                 0.0000
     39 ****        -4.9845  -0.1458  -0.8229 H              1 S1                 0.0000
     40 ****        -4.5271  -1.0319   1.3930 H              1 S1                 0.0000
     41 ****        -3.9596  -2.6789   1.4460 H              1 S1                 0.0000
     42 ****        -1.4217  -3.1150   1.1056 H              1 S1                 0.0000
     43 ****         1.3772   2.8372   2.3112 H              1 S1                 0.0000
     44 ****         1.7528   1.2554   2.9971 H              1 S1                 0.0000
     45 ****         3.6926   3.0967   2.2467 H              1 S1                 0.0000
     46 ****         3.9806   1.3763   2.3080 H              1 S1                 0.0000
     47 ****         4.8577  -0.3212   1.2321 H              1 S1                 0.0000
     48 ****         4.9082  -0.9035  -0.4237 H              1 S1                 0.0000
     49 ****         3.3601  -0.5706   0.3335 H              1 S1                 0.0000
     50 ****         6.0699   2.1638   0.7047 H              1 S1                 0.0000
     51 ****         6.5769   0.8455  -0.3169 H              1 S1                 0.0000
     52 ****         5.4642   3.4825  -1.4344 H              1 S1                 0.0000
     53 ****         7.1579   3.0590  -1.3125 H              1 S1                 0.0000
     54 ****         6.3226   2.5434  -3.3403 H              1 S1                 0.0000
     55 ****         2.4171   1.6634  -2.3315 H              1 S1                 0.0000
     56 ****         0.7998   1.1799  -1.8500 H              1 S1                 0.0000
     57 ****         2.1598   0.1283  -1.5032 H              1 S1                 0.0000
     58 ****        -2.5771   3.2022   0.5991 H              1 S1                 0.0000
     59 ****         4.2470   1.0867  -1.2493 H              1 S1                 0.0000
     60 ****        -6.2671  -4.5077  -1.1436 LP             1 S1                 0.0000
     61 ****        -5.8112  -4.3411   0.4155 LP             1 S1                 0.0000
     62 ****        -4.8350  -0.9207  -2.2042 LP             1 S1                 0.0000
     63 ****        -3.5186  -0.4328  -1.3701 LP             1 S1                 0.0000
     64 ****         0.6547  -1.7228   1.1089 LP             1 S1                 0.0000
     65 ****         1.5583   0.2757   0.9142 LP             1 S1                 0.0000
     66 ****         5.1636   1.6039  -2.7879 LP             1 S1                 0.0000
     67 ****         6.7328   1.1800  -2.6306 LP             1 S1                 0.0000
     68 ****        -0.2722   3.2220   0.7129 LP             1 S1                 0.0000
     69 ****        -3.8373   1.1950   0.6766 LP             1 S1                 0.0000
@<TRIPOS>BOND
    1    1    2 1     
    2    1   31 1     
    3    1   32 1     
    4    1   33 1     
    5    2    6 1     
    6    2    3 1     
    7    2   34 1     
    8    3    4 1     
    9    4    5 1     
   10    4   35 1     
   11    4   36 1     
   12    5    6 1     
   13    5   37 1     
   14    5   38 1     
   15    6    7 1     
   16    6    8 1     
   17    7   39 1     
   18    8    9 1     
   19    8   40 1     
   20    8   41 1     
   21    9   28 1     
   22    9   10 1     
   23   10   11 2     
   24   10   42 1     
   25   11   12 1     
   26   12   28 ar    
   27   12   13 ar    
   28   13   14 1     
   29   13   25 ar    
   30   14   23 1     
   31   14   15 1     
   32   15   16 1     
   33   15   43 1     
   34   15   44 1     
   35   16   17 1     
   36   16   45 1     
   37   16   46 1     
   38   17   29 1     
   39   17   18 1     
   40   17   23 1     
   41   18   19 1     
   42   18   20 1     
   43   18   59 1     
   44   19   47 1     
   45   19   48 1     
   46   19   49 1     
   47   20   21 1     
   48   20   50 1     
   49   20   51 1     
   50   21   22 1     
   51   21   52 1     
   52   21   53 1     
   53   22   54 1     
   54   23   30 1     
   55   23   24 1     
   56   24   55 1     
   57   24   56 1     
   58   24   57 1     
   59   25   26 ar    
   60   26   27 ar    
   61   26   58 1     
   62   27   28 ar    
   63    3   60 1     
   64    3   61 1     
   65    7   62 1     
   66    7   63 1     
   67   11   64 1     
   68   14   65 1     
   69   22   66 1     
   70   22   67 1     
   71   25   68 1     
   72   27   69 1     
@<TRIPOS>SUBSTRUCTURE
      1 S1             1
@<TRIPOS>SET
LONE_PAIRS      STATIC     ATOMS    <user>   **** ""
10 60 61 62 63 64 65 66 67 68 69
DONOR_HYDROGENS      STATIC     ATOMS    <user>   **** ""
3 39 59 54
ATOM$BLUE        STATIC     ATOMS    COLORGROUP SYSTEM
10 60 61 62 63 64 65 66 67 68 69
ATOM$RED        STATIC     ATOMS    COLORGROUP SYSTEM
3 39 59 54
