#       Name:                AV-unprocessed.smi:798
#       Creating user name   scv26
#       Creation time:       Fri Mar 27 01:21:28 2020


#       File generated by GOLD software.
#

@<TRIPOS>MOLECULE
AV-unprocessed.smi:798
    40    42     1
SMALL
NO_CHARGES


@<TRIPOS>ATOM
      1 ****        -0.6980   2.4317  -0.3566 O.2            1 S1                 0.0000
      2 ****        -1.1559   1.4852   0.2875 C.2            1 S1                 0.0000
      3 ****        -2.4391   1.3335   0.6862 N.pl3          1 S1                -1.0000
      4 ****        -3.3509   2.2736   0.3879 C.2            1 S1                 0.0000
      5 ****        -3.7354   3.2074   1.2729 N.2            1 S1                 0.0000
      6 ****        -4.6908   4.0785   0.7669 N.2            1 S1                 0.0000
      7 ****        -5.0097   3.7726  -0.4907 C.2            1 S1                 0.0000
      8 ****        -4.1740   2.3920  -1.1702 S.3            1 S1                 0.0000
      9 ****        -0.3572   0.4709   0.6485 N.am           1 S1                 0.0000
     10 ****         1.0740   0.3495   0.3608 C.3            1 S1                 0.0000
     11 ****         1.8243  -0.4691   1.4406 C.3            1 S1                 0.0000
     12 ****         1.1215  -1.8155   1.7167 C.3            1 S1                 0.0000
     13 ****         1.3938  -2.6067   0.4250 C.3            1 S1                 0.0000
     14 ****         2.2432  -1.6248  -0.4093 C.3            1 S1                 0.0000
     15 ****         3.0600  -0.9406   0.6805 C.3            1 S1                 0.0000
     16 ****         1.4056  -0.4361  -0.9420 C.3            1 S1                 0.0000
     17 ****         0.2279  -0.8032  -1.8732 C.3            1 S1                 0.0000
     18 ****         0.6976  -1.4909  -3.0138 O.3            1 S1                 0.0000
     19 ****        -5.7439   4.3611  -1.0202 H              1 S1                 0.0000
     20 ****        -0.7787  -0.2827   1.1711 H              1 S1                 0.0000
     21 ****         1.5240   1.3428   0.3067 H              1 S1                 0.0000
     22 ****         2.0362   0.1006   2.3459 H              1 S1                 0.0000
     23 ****         1.5823  -2.3164   2.5690 H              1 S1                 0.0000
     24 ****         0.0581  -1.7214   1.9365 H              1 S1                 0.0000
     25 ****         1.9647  -3.5085   0.6501 H              1 S1                 0.0000
     26 ****         0.4795  -2.9212  -0.0762 H              1 S1                 0.0000
     27 ****         2.8402  -2.1138  -1.1796 H              1 S1                 0.0000
     28 ****         3.6802  -0.1218   0.3113 H              1 S1                 0.0000
     29 ****         3.6849  -1.6296   1.2519 H              1 S1                 0.0000
     30 ****         2.0766   0.1935  -1.5295 H              1 S1                 0.0000
     31 ****        -0.5231  -1.4109  -1.3697 H              1 S1                 0.0000
     32 ****        -0.2765   0.1018  -2.2128 H              1 S1                 0.0000
     33 ****        -0.0407  -1.6812  -3.5721 H              1 S1                 0.0000
     34 ****        -1.2960   3.1839  -0.6336 LP             1 S1                 0.0000
     35 ****         0.2713   2.4471  -0.6020 LP             1 S1                 0.0000
     36 ****        -2.7093   0.5213   1.2032 LP             1 S1                 0.0000
     37 ****        -3.3707   3.2691   2.2020 LP             1 S1                 0.0000
     38 ****        -5.0890   4.8386   1.2805 LP             1 S1                 0.0000
     39 ****         1.1396  -2.3438  -2.7358 LP             1 S1                 0.0000
     40 ****         1.3548  -0.9198  -3.5057 LP             1 S1                 0.0000
@<TRIPOS>BOND
    1    1    2 2     
    2    2    3 1     
    3    2    9 am    
    4    3    4 1     
    5    4    8 1     
    6    4    5 2     
    7    5    6 1     
    8    6    7 2     
    9    7    8 1     
   10    7   19 1     
   11    9   10 1     
   12    9   20 1     
   13   10   16 1     
   14   10   11 1     
   15   10   21 1     
   16   11   15 1     
   17   11   12 1     
   18   11   22 1     
   19   12   13 1     
   20   12   23 1     
   21   12   24 1     
   22   13   14 1     
   23   13   25 1     
   24   13   26 1     
   25   14   15 1     
   26   14   16 1     
   27   14   27 1     
   28   15   28 1     
   29   15   29 1     
   30   16   17 1     
   31   16   30 1     
   32   17   18 1     
   33   17   31 1     
   34   17   32 1     
   35   18   33 1     
   36    1   34 1     
   37    1   35 1     
   38    3   36 1     
   39    5   37 1     
   40    6   38 1     
   41   18   39 1     
   42   18   40 1     
@<TRIPOS>SUBSTRUCTURE
      1 S1             1
@<TRIPOS>SET
LONE_PAIRS      STATIC     ATOMS    <user>   **** ""
7 34 35 36 37 38 39 40
DONOR_HYDROGENS      STATIC     ATOMS    <user>   **** ""
2 20 33
ATOM$BLUE        STATIC     ATOMS    COLORGROUP SYSTEM
7 34 35 36 37 38 39 40
ATOM$RED        STATIC     ATOMS    COLORGROUP SYSTEM
2 20 33
