AV-unprocessed.smi:2037|AV-procd|sdf|8278|dock3
  -GOLD-   2272010543D 1   1.00000     0.00000
 Structure written by MMmdl.
 38 39  0  0  0  0  0  0  0  0  3 V2000
  145.4104  132.6714  150.0929 C   0  0  0  0  0  0  0  0  0  0  0  0
  145.9559  132.9319  151.5038 C   0  0  2  0  0  0  0  0  0  0  0  0
  145.5076  134.2990  152.0458 C   0  0  0  0  0  0  0  0  0  0  0  0
  146.0786  134.5557  153.4505 C   0  0  0  0  0  0  0  0  0  0  0  0
  147.5618  134.4605  153.4591 N   0  3  1  0  0  0  0  0  0  0  0  0
  148.1321  134.8236  154.7809 C   0  0  0  0  0  0  0  0  0  0  0  0
  149.6652  134.9264  154.7565 C   0  0  0  0  0  0  0  0  0  0  0  0
  150.0728  136.2600  154.3377 N   0  0  0  0  0  0  0  0  0  0  0  0
  151.1171  136.9385  154.8297 C   0  0  0  0  0  0  0  0  0  0  0  0
  151.8184  136.4325  155.7087 O   0  0  0  0  0  0  0  0  0  0  0  0
  151.2812  138.1587  154.2716 N   0  5  0  0  0  0  0  0  0  0  0  0
  151.0643  139.2666  154.9992 C   0  0  0  0  0  0  0  0  0  0  0  0
  150.5276  140.3797  154.4867 N   0  0  0  0  0  0  0  0  0  0  0  0
  150.4002  141.4137  155.4161 C   0  0  0  0  0  0  0  0  0  0  0  0
  150.8571  141.0823  156.6640 C   0  0  0  0  0  0  0  0  0  0  0  0
  151.4666  139.4524  156.7089 S   0  0  0  0  0  0  0  0  0  0  0  0
  148.0257  133.1377  152.9609 C   0  0  0  0  0  0  0  0  0  0  0  0
  147.4908  132.8543  151.5466 C   0  0  0  0  0  0  0  0  0  0  0  0
  145.7673  133.4188  149.3837 H   0  0  0  0  0  0  0  0  0  0  0  0
  144.3202  132.6973  150.0833 H   0  0  0  0  0  0  0  0  0  0  0  0
  145.7184  131.6913  149.7277 H   0  0  0  0  0  0  0  0  0  0  0  0
  145.5576  132.1573  152.1610 H   0  0  0  0  0  0  0  0  0  0  0  0
  145.8330  135.0914  151.3699 H   0  0  0  0  0  0  0  0  0  0  0  0
  144.4186  134.3490  152.0786 H   0  0  0  0  0  0  0  0  0  0  0  0
  145.7708  135.5480  153.7830 H   0  0  0  0  0  0  0  0  0  0  0  0
  145.6634  133.8401  154.1619 H   0  0  0  0  0  0  0  0  0  0  0  0
  147.7362  135.7934  155.0866 H   0  0  0  0  0  0  0  0  0  0  0  0
  147.8042  134.1056  155.5346 H   0  0  0  0  0  0  0  0  0  0  0  0
  150.0864  134.7252  155.7416 H   0  0  0  0  0  0  0  0  0  0  0  0
  150.0831  134.1913  154.0670 H   0  0  0  0  0  0  0  0  0  0  0  0
  149.5244  136.7096  153.6191 H   0  0  0  0  0  0  0  0  0  0  0  0
  149.9730  142.3541  155.1013 H   0  0  0  0  0  0  0  0  0  0  0  0
  150.8741  141.6933  157.5536 H   0  0  0  0  0  0  0  0  0  0  0  0
  149.1138  133.1004  152.9342 H   0  0  0  0  0  0  0  0  0  0  0  0
  147.7005  132.3547  153.6477 H   0  0  0  0  0  0  0  0  0  0  0  0
  147.8240  131.8684  151.2208 H   0  0  0  0  0  0  0  0  0  0  0  0
  147.9187  133.5716  150.8447 H   0  0  0  0  0  0  0  0  0  0  0  0
  147.8933  135.1556  152.8055 H   0  0  0  0  0  0  0  0  0  0  0  0
  1  2  1  0  0  0  0
  1 19  1  0  0  0  0
  1 20  1  0  0  0  0
  1 21  1  0  0  0  0
  2 18  1  0  0  0  0
  2  3  1  0  0  0  0
  2 22  1  0  0  0  0
  3  4  1  0  0  0  0
  3 23  1  0  0  0  0
  3 24  1  0  0  0  0
  4  5  1  0  0  0  0
  4 25  1  0  0  0  0
  4 26  1  0  0  0  0
  5  6  1  0  0  0  0
  5 17  1  0  0  0  0
  5 38  1  0  0  0  0
  6  7  1  0  0  0  0
  6 27  1  0  0  0  0
  6 28  1  0  0  0  0
  7  8  1  0  0  0  0
  7 29  1  0  0  0  0
  7 30  1  0  0  0  0
  8  9  1  0  0  0  0
  8 31  1  0  0  0  0
  9 10  2  0  0  0  0
  9 11  1  0  0  0  0
 11 12  1  0  0  0  0
 12 16  1  0  0  0  0
 12 13  2  0  0  0  0
 13 14  1  0  0  0  0
 14 15  2  0  0  0  0
 14 32  1  0  0  0  0
 15 16  1  0  0  0  0
 15 33  1  0  0  0  0
 17 18  1  0  0  0  0
 17 34  1  0  0  0  0
 17 35  1  0  0  0  0
 18 36  1  0  0  0  0
 18 37  1  0  0  0  0
M  CHG  1   5   1
M  CHG  1  11  -1
M  END
> <s_m_source_file>
AV-unprocessed.smi

> <i_m_source_file_index>
2037

> <i_lp_mmshare_version>
43012

> <i_f3d_flags>
0

> <s_epik_input>
W0NIM11bQ0hdMVtDSDJdW0NIMl1OKFtDSDJdW0NIMl0xKVtDSDJdW0NIMl1bTkhdQyg9TylbTkhdYzJuW2NIXVtjSF1zMg==

> <s_epik_cmdline>
J2VwaWtfcHl0aG9uJywgJy1waCcsICc3LjAnLCAnLXRuJywgJzgnLCAnLW1hJywgJzIwMCcsICctbWV0YWxfYmluZGluZycsICctaW1hZScsICc8aW5maWxlLm1hZT4nLCAnLW9tYWUnLCAnPG91dGZpbGUubWFlPic=

> <r_lp_tautomer_probability>
0.999

> <r_epik_Ionization_Penalty>
6.22113

> <r_epik_Ionization_Penalty_Charging>
5.39005

> <r_epik_Ionization_Penalty_Neutral>
0.831074

> <r_epik_State_Penalty>
5.38997

> <r_epik_Charging_Adjusted_Penalty>
10.78

> <i_epik_Tot_Q>
0

> <i_epik_Tot_abs_Q>
2

> <r_epik_Metal_State_Penalty>
1.41601

> <b_epik_Metal_Only>
1

> <s_lp_Force_Field>
OPLS_2005

> <r_lp_Energy>
7.40316

> <b_lp_Chiralities_Consistent>
1

> <s_lp_Variant>
AV-unprocessed.smi:2037-3

> <Gold.Version>
5.8.1

> <Gold.Id.Protein>
6NUR|6NUR_protein|mol2

> <Gold.PLP.Fitness>
43.1070

> <Gold.PLP.PLP>
-28.6027

> <Gold.PLP.part.hbond>
-4.6357

> <Gold.PLP.part.metal>
0.0000

> <Gold.PLP.part.buried>
-0.8639

> <Gold.PLP.part.nonpolar>
-23.3965

> <Gold.PLP.part.repulsive>
0.3838

> <Gold.PLP.ligand.clash>
0.0000

> <Gold.PLP.ligand.torsion>
1.2418

> <Gold.PLP.Chemscore.Hbond>
4.6400

> <Gold.PLP.Chemscore.CHOScore>
1.0000

> <Gold.PLP.Chemscore.Metal>
0.0000

> <Gold.Chemscore.Hbonds>
donor molecule, donor type, donor heavy atom, donor atom, acceptor molecule, acceptor atom, score
      L1  H     5    38       P1  7948  2.00
      L1  H     8    31       P1  7948  0.69
      P1  H  7989  7998       L1    13  1.00
      P1  H 10752 10764       L1    10  1.00
      L1  C    14    32       P1  8028  0.69

> <Gold.PLP.Chemscore.Internal.Correction>
0.0680

> <Gold.Rescore>
     Score         DG    S(hbond)    S(metal)    S(lipo)     H(rot)  DE(clash)    DE(int)     intcor
     16.65     -18.23       3.00        0.00      57.74       1.57       0.36       1.23       ----

> <Gold.Chemscore.Fitness>
16.6471

> <Gold.Chemscore.DG>
-18.2331

> <Gold.Chemscore.ZeroCoef>
-5.4800

> <Gold.Chemscore.Hbond>
2.9971

> <Gold.Chemscore.Metal>
0.0000

> <Gold.Chemscore.Lipo>
57.7408

> <Gold.Chemscore.Internal_Hbond>
0.0000

> <Gold.Chemscore.DEClash>
0.3570

> <Gold.Chemscore.DEInternal>
1.2290

> <Gold.Chemscore.Rot>
1.5676

> <Gold.Chemscore.Internal.Correction>
   9.000000E+99

> <Gold.Chemscore.Hbonds>
donor molecule, donor type, donor heavy atom, donor atom, acceptor molecule, acceptor atom, score
      L1  H     5    38       P1  7948  0.99
      L1  H     8    31       P1  7948  0.53
      P1  H  7989  7998       L1    13  0.19
      P1  H 10752 10764       L1    10  0.25

> <Gold.Chemscore.Hbond.Weighted>
-10.0105

> <Gold.Chemscore.Metal.Weighted>
-0.0000

> <Gold.Chemscore.Lipo.Weighted>
-6.7557

> <Gold.Chemscore.Internal_Hbond.Weighted>
0.0000

> <Gold.Chemscore.DEClash.Weighted>
0.3570

> <Gold.Chemscore.DEInternal.Weighted>
1.2290

> <Gold.Chemscore.Rot.Weighted>
4.0130

> <Gold.Chemscore.Internal.Correction.Weighted>
   9.000000E+99

> <Gold.Protein.RotatedTorsions>
[ 6907 6896 6895 6894 ] final  114.98 input  -60.11 | X-H torsion
[ 7974 7965 7964 7962 ] final -118.31 input  175.53 | X-H torsion
[ 8008 7997 7996 7995 ] final  -92.26 input   59.86 | X-H torsion
[ 10167 10162 10161 10158 ] final  -11.74 input  -65.29 | X-H torsion
[ 10718 10713 10712 10709 ] final   49.38 input   66.30 | X-H torsion
[ 10763 10752 10751 10750 ] final  -53.73 input  -60.55 | X-H torsion
[ 11005 11000 10999 10996 ] final   38.00 input  -57.11 | X-H torsion

> <Gold.Protein.ActiveResidues>
 VAL166  LYS551  ARG553  GLY616  TRP617  ASP618  TYR619  PRO620  LYS621  CYS622 
 ASP623  PHE694  ASN695  SER759  ASP760  ASP761  ALA762  ILE779  LEU786  VAL792 
 PHE793  MET794  SER795  GLU796  ALA797  LYS798  CYS799  TRP800  GLU811  SER814 

> <Gold.Protein.RotatedAtoms>
  152.4769  133.8161  159.7028 H   0  0  0  0  0  0  0  0  0  0  0  0  # atno 6907 bound_to 6896
  150.8792  133.7386  159.2943 H   0  0  0  0  0  0  0  0  0  0  0  0  # atno 6908 bound_to 6896
  151.4895  135.1060  159.9852 H   0  0  0  0  0  0  0  0  0  0  0  0  # atno 6909 bound_to 6896
  145.0753  140.8388  143.4071 H   0  0  0  0  0  0  0  0  0  0  0  0  # atno 7974 bound_to 7965
  154.7209  140.0511  157.0638 H   0  0  0  0  0  0  0  0  0  0  0  0  # atno 8008 bound_to 7997
  155.0429  140.3170  155.4699 H   0  0  0  0  0  0  0  0  0  0  0  0  # atno 8009 bound_to 7997
  156.2816  140.2129  156.5553 H   0  0  0  0  0  0  0  0  0  0  0  0  # atno 8010 bound_to 7997
  140.7145  143.5607  150.9198 H   0  0  0  0  0  0  0  0  0  0  0  0  # atno 10167 bound_to 10162
  157.4781  130.8297  149.8062 H   0  0  0  0  0  0  0  0  0  0  0  0  # atno 10718 bound_to 10713
  154.1634  135.6471  153.4991 H   0  0  0  0  0  0  0  0  0  0  0  0  # atno 10763 bound_to 10752
  153.0104  135.5366  154.6687 H   0  0  0  0  0  0  0  0  0  0  0  0  # atno 10764 bound_to 10752
  154.6007  135.2943  155.0510 H   0  0  0  0  0  0  0  0  0  0  0  0  # atno 10765 bound_to 10752
  140.2170  134.3687  155.8022 H   0  0  0  0  0  0  0  0  0  0  0  0  # atno 11005 bound_to 11000
  145.1243  139.2673  143.5572 LP  0  0  0  0  0  0  0  0  0  0  0  0  # atno 17320 bound_to 7965
  146.3530  140.0876  142.8614 LP  0  0  0  0  0  0  0  0  0  0  0  0  # atno 17321 bound_to 7965
  139.9333  143.6468  152.3071 LP  0  0  0  0  0  0  0  0  0  0  0  0  # atno 17342 bound_to 10162
  139.6926  144.7645  151.1412 LP  0  0  0  0  0  0  0  0  0  0  0  0  # atno 17343 bound_to 10162
  156.0107  130.3834  150.2274 LP  0  0  0  0  0  0  0  0  0  0  0  0  # atno 17370 bound_to 10713
  157.0459  131.0049  151.3269 LP  0  0  0  0  0  0  0  0  0  0  0  0  # atno 17371 bound_to 10713
  141.2224  133.7173  156.8512 LP  0  0  0  0  0  0  0  0  0  0  0  0  # atno 17394 bound_to 11000
  140.1890  134.8979  157.3038 LP  0  0  0  0  0  0  0  0  0  0  0  0  # atno 17395 bound_to 11000

$$$$
