#       Name:                AV-unprocessed.smi:1434
#       Creating user name   scv26
#       Creation time:       Fri Mar 27 05:52:25 2020


#       File generated by GOLD software.
#

@<TRIPOS>MOLECULE
AV-unprocessed.smi:1434
    47    48     1
SMALL
NO_CHARGES


@<TRIPOS>ATOM
      1 ****        -4.9792   4.6841  -0.5485 C.3            1 S1                 0.0000
      2 ****        -4.2619   3.0922  -1.1184 S.o2           1 S1                 0.0000
      3 ****        -5.4081   2.2424  -1.4790 O.2            1 S1                 0.0000
      4 ****        -3.3193   3.4417  -2.1934 O.2            1 S1                 0.0000
      5 ****        -3.5174   2.6001   0.2359 N.pl3          1 S1                -1.0000
      6 ****        -2.7160   1.3851   0.2233 C.3            1 S1                 0.0000
      7 ****        -3.6140   0.1233   0.3312 C.3            1 S1                 0.0000
      8 ****        -2.8168  -1.1849   0.5838 C.3            1 S1                 0.0000
      9 ****        -1.8238  -1.0559   1.7613 C.3            1 S1                 0.0000
     10 ****        -0.9669   0.1201   1.4897 N.am           1 S1                 0.0000
     11 ****         0.3784   0.0922   1.2950 C.2            1 S1                 0.0000
     12 ****         1.0682   1.1074   1.1900 O.2            1 S1                 0.0000
     13 ****         0.9034  -1.1383   1.1658 N.am           1 S1                 0.0000
     14 ****         2.3023  -1.4290   0.8740 C.3            1 S1                 0.0000
     15 ****         2.6124  -1.2557  -0.6224 C.3            1 S1                 0.0000
     16 ****         4.0579  -1.5759  -0.9512 C.ar           1 S1                 0.0000
     17 ****         4.4108  -2.8215  -1.5131 C.ar           1 S1                 0.0000
     18 ****         5.7682  -3.0691  -1.7958 C.ar           1 S1                 0.0000
     19 ****         6.7153  -2.0681  -1.5057 C.ar           1 S1                 0.0000
     20 ****         6.2609  -0.8585  -0.9431 C.ar           1 S1                 0.0000
     21 ****         4.9620  -0.6109  -0.6686 N.ar           1 S1                 0.0000
     22 ****        -1.7375   1.3839   1.4305 C.3            1 S1                 0.0000
     23 ****        -5.5258   5.1472  -1.3693 H              1 S1                 0.0000
     24 ****        -4.1781   5.3480  -0.2252 H              1 S1                 0.0000
     25 ****        -5.6586   4.4998   0.2831 H              1 S1                 0.0000
     26 ****        -2.1194   1.3085  -0.6867 H              1 S1                 0.0000
     27 ****        -4.3210   0.2553   1.1519 H              1 S1                 0.0000
     28 ****        -4.2152   0.0097  -0.5709 H              1 S1                 0.0000
     29 ****        -3.5120  -2.0017   0.7790 H              1 S1                 0.0000
     30 ****        -2.2711  -1.4669  -0.3190 H              1 S1                 0.0000
     31 ****        -2.3689  -0.8888   2.6915 H              1 S1                 0.0000
     32 ****        -1.2840  -1.9921   1.9015 H              1 S1                 0.0000
     33 ****         0.2788  -1.9273   1.2460 H              1 S1                 0.0000
     34 ****         2.9502  -0.7915   1.4782 H              1 S1                 0.0000
     35 ****         2.5053  -2.4561   1.1780 H              1 S1                 0.0000
     36 ****         1.9588  -1.8974  -1.2150 H              1 S1                 0.0000
     37 ****         2.4019  -0.2325  -0.9372 H              1 S1                 0.0000
     38 ****         3.6614  -3.5705  -1.7228 H              1 S1                 0.0000
     39 ****         6.0771  -4.0098  -2.2272 H              1 S1                 0.0000
     40 ****         7.7645  -2.2228  -1.7092 H              1 S1                 0.0000
     41 ****         6.9590  -0.0690  -0.7073 H              1 S1                 0.0000
     42 ****        -1.0913   2.2614   1.3731 H              1 S1                 0.0000
     43 ****        -2.2921   1.4932   2.3641 H              1 S1                 0.0000
     44 ****        -3.6088   3.1307   1.0786 LP             1 S1                 0.0000
     45 ****         0.6415   2.0099   1.2473 LP             1 S1                 0.0000
     46 ****         2.0549   1.0289   1.0475 LP             1 S1                 0.0000
     47 ****         4.6773   0.2601  -0.2682 LP             1 S1                 0.0000
@<TRIPOS>BOND
    1    1    2 1     
    2    1   23 1     
    3    1   24 1     
    4    1   25 1     
    5    2    3 2     
    6    2    4 2     
    7    2    5 1     
    8    5    6 1     
    9    6   22 1     
   10    6    7 1     
   11    6   26 1     
   12    7    8 1     
   13    7   27 1     
   14    7   28 1     
   15    8    9 1     
   16    8   29 1     
   17    8   30 1     
   18    9   10 1     
   19    9   31 1     
   20    9   32 1     
   21   10   11 am    
   22   10   22 1     
   23   11   12 2     
   24   11   13 am    
   25   13   14 1     
   26   13   33 1     
   27   14   15 1     
   28   14   34 1     
   29   14   35 1     
   30   15   16 1     
   31   15   36 1     
   32   15   37 1     
   33   16   21 ar    
   34   16   17 ar    
   35   17   18 ar    
   36   17   38 1     
   37   18   19 ar    
   38   18   39 1     
   39   19   20 ar    
   40   19   40 1     
   41   20   21 ar    
   42   20   41 1     
   43   22   42 1     
   44   22   43 1     
   45    5   44 1     
   46   12   45 1     
   47   12   46 1     
   48   21   47 1     
@<TRIPOS>SUBSTRUCTURE
      1 S1             1
@<TRIPOS>SET
LONE_PAIRS      STATIC     ATOMS    <user>   **** ""
6 3 4 44 45 46 47
DONOR_HYDROGENS      STATIC     ATOMS    <user>   **** ""
1 33
ATOM$BLUE        STATIC     ATOMS    COLORGROUP SYSTEM
6 3 4 44 45 46 47
ATOM$RED        STATIC     ATOMS    COLORGROUP SYSTEM
1 33
