AV-unprocessed.smi:3248|AV-procd|sdf|12415|dock6
  -GOLD-   2272018293D 1   1.00000     0.00000
 Structure written by MMmdl.
 38 39  0  0  0  0  0  0  0  0  1 V2000
  149.8589  139.6385  157.2224 C   0  0  0  0  0  0  0  0  0  0  0  0
  149.9392  141.1656  157.0789 C   0  0  2  0  0  0  0  0  0  0  0  0
  150.0951  141.5891  155.6057 C   0  0  0  0  0  0  0  0  0  0  0  0
  148.9745  141.1579  154.7877 N   0  0  0  0  0  0  0  0  0  0  0  0
  148.0456  141.9362  154.1297 C   0  0  0  0  0  0  0  0  0  0  0  0
  147.1918  141.0896  153.4825 C   0  0  0  0  0  0  0  0  0  0  0  0
  147.6866  139.7958  153.8083 C   0  0  0  0  0  0  0  0  0  0  0  0
  148.7534  139.8397  154.5904 N   0  0  0  0  0  0  0  0  0  0  0  0
  151.0574  141.6788  157.8670 N   0  0  0  0  0  0  0  0  0  0  0  0
  150.9715  142.5788  158.8606 C   0  0  0  0  0  0  0  0  0  0  0  0
  149.9015  143.0777  159.2090 O   0  0  0  0  0  0  0  0  0  0  0  0
  152.1812  142.9662  159.3349 N   0  0  0  0  0  0  0  0  0  0  0  0
  153.2717  141.9966  159.5181 C   0  0  0  0  0  0  0  0  0  0  0  0
  153.2553  141.5199  160.9840 C   0  0  0  0  0  0  0  0  0  0  0  0
  153.3938  142.6364  161.8602 O   0  0  0  0  0  0  0  0  0  0  0  0
  152.3865  143.6296  161.6772 C   0  0  0  0  0  0  0  0  0  0  0  0
  152.4195  144.1250  160.2175 C   0  0  2  0  0  0  0  0  0  0  0  0
  151.5029  145.3437  159.9799 C   0  0  0  0  0  0  0  0  0  0  0  0
  149.0216  139.2351  156.6524 H   0  0  0  0  0  0  0  0  0  0  0  0
  149.7171  139.3470  158.2637 H   0  0  0  0  0  0  0  0  0  0  0  0
  150.7689  139.1576  156.8623 H   0  0  0  0  0  0  0  0  0  0  0  0
  149.0056  141.5909  157.4522 H   0  0  0  0  0  0  0  0  0  0  0  0
  150.2037  142.6721  155.5242 H   0  0  0  0  0  0  0  0  0  0  0  0
  151.0025  141.1538  155.1852 H   0  0  0  0  0  0  0  0  0  0  0  0
  148.0718  143.0152  154.1743 H   0  0  0  0  0  0  0  0  0  0  0  0
  146.3435  141.3538  152.8685 H   0  0  0  0  0  0  0  0  0  0  0  0
  147.3053  138.8329  153.5020 H   0  0  0  0  0  0  0  0  0  0  0  0
  151.9781  141.3552  157.6075 H   0  0  0  0  0  0  0  0  0  0  0  0
  153.1979  141.1333  158.8557 H   0  0  0  0  0  0  0  0  0  0  0  0
  154.2278  142.4666  159.2837 H   0  0  0  0  0  0  0  0  0  0  0  0
  152.3310  140.9851  161.2089 H   0  0  0  0  0  0  0  0  0  0  0  0
  154.0770  140.8266  161.1644 H   0  0  0  0  0  0  0  0  0  0  0  0
  151.4067  143.2247  161.9356 H   0  0  0  0  0  0  0  0  0  0  0  0
  152.5841  144.4532  162.3638 H   0  0  0  0  0  0  0  0  0  0  0  0
  153.4302  144.4812  160.0096 H   0  0  0  0  0  0  0  0  0  0  0  0
  151.8805  146.2130  160.5187 H   0  0  0  0  0  0  0  0  0  0  0  0
  150.4851  145.1768  160.3309 H   0  0  0  0  0  0  0  0  0  0  0  0
  151.4626  145.6088  158.9229 H   0  0  0  0  0  0  0  0  0  0  0  0
  1  2  1  0  0  0  0
  1 19  1  0  0  0  0
  1 20  1  0  0  0  0
  1 21  1  0  0  0  0
  2  3  1  0  0  0  0
  2  9  1  0  0  0  0
  2 22  1  0  0  0  0
  3  4  1  0  0  0  0
  3 23  1  0  0  0  0
  3 24  1  0  0  0  0
  4  8  1  0  0  0  0
  4  5  1  0  0  0  0
  5  6  2  0  0  0  0
  5 25  1  0  0  0  0
  6  7  1  0  0  0  0
  6 26  1  0  0  0  0
  7  8  2  0  0  0  0
  7 27  1  0  0  0  0
  9 10  1  0  0  0  0
  9 28  1  0  0  0  0
 10 11  2  0  0  0  0
 10 12  1  0  0  0  0
 12 17  1  0  0  0  0
 12 13  1  0  0  0  0
 13 14  1  0  0  0  0
 13 29  1  0  0  0  0
 13 30  1  0  0  0  0
 14 15  1  0  0  0  0
 14 31  1  0  0  0  0
 14 32  1  0  0  0  0
 15 16  1  0  0  0  0
 16 17  1  0  0  0  0
 16 33  1  0  0  0  0
 16 34  1  0  0  0  0
 17 18  1  0  0  0  0
 17 35  1  0  0  0  0
 18 36  1  0  0  0  0
 18 37  1  0  0  0  0
 18 38  1  0  0  0  0
M  END
> <s_m_source_file>
AV-unprocessed.smi

> <i_m_source_file_index>
3248

> <i_lp_mmshare_version>
43012

> <i_f3d_flags>
0

> <s_epik_input>
bjFbY0hdW2NIXVtjSF1uMVtDSDJdW0NAQEhdKFtDSDNdKVtOSF1DKD1PKU4yW0NIMl1bQ0gyXU9bQ0gyXVtDQEhdMltDSDNd

> <s_epik_cmdline>
J2VwaWtfcHl0aG9uJywgJy1waCcsICc3LjAnLCAnLXRuJywgJzgnLCAnLW1hJywgJzIwMCcsICctbWV0YWxfYmluZGluZycsICctaW1hZScsICc8aW5maWxlLm1hZT4nLCAnLW9tYWUnLCAnPG91dGZpbGUubWFlPic=

> <r_lp_tautomer_probability>
1

> <r_epik_Ionization_Penalty>
4.45233e-05

> <r_epik_Ionization_Penalty_Charging>
0

> <r_epik_Ionization_Penalty_Neutral>
4.45233e-05

> <r_epik_State_Penalty>
-0

> <r_epik_Charging_Adjusted_Penalty>
0

> <i_epik_Tot_Q>
0

> <i_epik_Tot_abs_Q>
0

> <r_epik_Metal_State_Penalty>
-0

> <b_epik_Metal_Only>
0

> <s_lp_Force_Field>
OPLS_2005

> <r_lp_Energy>
31.9687

> <b_lp_Chiralities_Consistent>
1

> <s_lp_Variant>
AV-unprocessed.smi:3248-3

> <Gold.Version>
5.8.1

> <Gold.Id.Protein>
6NUR|6NUR_protein|mol2

> <Gold.PLP.Fitness>
44.3626

> <Gold.PLP.PLP>
-41.5861

> <Gold.PLP.part.hbond>
-1.0000

> <Gold.PLP.part.metal>
0.0000

> <Gold.PLP.part.buried>
-4.4794

> <Gold.PLP.part.nonpolar>
-35.8556

> <Gold.PLP.part.repulsive>
0.2918

> <Gold.PLP.ligand.clash>
0.0000

> <Gold.PLP.ligand.torsion>
0.3396

> <Gold.PLP.Chemscore.Hbond>
0.0000

> <Gold.PLP.Chemscore.CHOScore>
1.0000

> <Gold.PLP.Chemscore.Metal>
0.0000

> <Gold.Chemscore.Hbonds>
donor molecule, donor type, donor heavy atom, donor atom, acceptor molecule, acceptor atom, score
      L1  C     5    25       P1  8028  1.00

> <Gold.PLP.Chemscore.Internal.Correction>
0.4558

> <Gold.Rescore>
     Score         DG    S(hbond)    S(metal)    S(lipo)     H(rot)  DE(clash)    DE(int)     intcor
     10.03     -13.02       0.00        0.00      95.46       1.42       0.08       2.91       ----

> <Gold.Chemscore.Fitness>
10.0324

> <Gold.Chemscore.DG>
-13.0154

> <Gold.Chemscore.ZeroCoef>
-5.4800

> <Gold.Chemscore.Hbond>
0.0000

> <Gold.Chemscore.Metal>
0.0000

> <Gold.Chemscore.Lipo>
95.4565

> <Gold.Chemscore.Internal_Hbond>
0.0000

> <Gold.Chemscore.DEClash>
0.0750

> <Gold.Chemscore.DEInternal>
2.9080

> <Gold.Chemscore.Rot>
1.4191

> <Gold.Chemscore.Internal.Correction>
   9.000000E+99

> <Gold.Chemscore.Hbond.Weighted>
-0.0000

> <Gold.Chemscore.Metal.Weighted>
-0.0000

> <Gold.Chemscore.Lipo.Weighted>
-11.1684

> <Gold.Chemscore.Internal_Hbond.Weighted>
0.0000

> <Gold.Chemscore.DEClash.Weighted>
0.0750

> <Gold.Chemscore.DEInternal.Weighted>
2.9080

> <Gold.Chemscore.Rot.Weighted>
3.6330

> <Gold.Chemscore.Internal.Correction.Weighted>
   9.000000E+99

> <Gold.Protein.RotatedTorsions>
[ 6907 6896 6895 6894 ] final  -99.37 input  -60.11 | X-H torsion
[ 7974 7965 7964 7962 ] final  -60.68 input  175.53 | X-H torsion
[ 8008 7997 7996 7995 ] final  -62.29 input   59.86 | X-H torsion
[ 10167 10162 10161 10158 ] final   -9.21 input  -65.29 | X-H torsion
[ 10718 10713 10712 10709 ] final  -60.99 input   66.30 | X-H torsion
[ 10763 10752 10751 10750 ] final   74.03 input  -60.55 | X-H torsion
[ 11005 11000 10999 10996 ] final  -12.36 input  -57.11 | X-H torsion

> <Gold.Protein.ActiveResidues>
 VAL166  LYS551  ARG553  GLY616  TRP617  ASP618  TYR619  PRO620  LYS621  CYS622 
 ASP623  PHE694  ASN695  SER759  ASP760  ASP761  ALA762  ILE779  LEU786  VAL792 
 PHE793  MET794  SER795  GLU796  ALA797  LYS798  CYS799  TRP800  GLU811  SER814 

> <Gold.Protein.RotatedAtoms>
  150.7078  134.1051  159.3979 H   0  0  0  0  0  0  0  0  0  0  0  0  # atno 6907 bound_to 6896
  151.9038  135.0365  160.0518 H   0  0  0  0  0  0  0  0  0  0  0  0  # atno 6908 bound_to 6896
  152.2392  133.5086  159.5297 H   0  0  0  0  0  0  0  0  0  0  0  0  # atno 6909 bound_to 6896
  145.8126  140.8589  143.0174 H   0  0  0  0  0  0  0  0  0  0  0  0  # atno 7974 bound_to 7965
  154.4492  140.0999  156.6565 H   0  0  0  0  0  0  0  0  0  0  0  0  # atno 8008 bound_to 7997
  155.5341  140.3482  155.4414 H   0  0  0  0  0  0  0  0  0  0  0  0  # atno 8009 bound_to 7997
  156.0644  140.1334  156.9892 H   0  0  0  0  0  0  0  0  0  0  0  0  # atno 8010 bound_to 7997
  140.7081  143.5883  150.8920 H   0  0  0  0  0  0  0  0  0  0  0  0  # atno 10167 bound_to 10162
  156.0952  130.4194  150.0931 H   0  0  0  0  0  0  0  0  0  0  0  0  # atno 10718 bound_to 10713
  153.0560  135.5041  154.7981 H   0  0  0  0  0  0  0  0  0  0  0  0  # atno 10763 bound_to 10752
  154.6807  135.2968  154.9619 H   0  0  0  0  0  0  0  0  0  0  0  0  # atno 10764 bound_to 10752
  154.0407  135.6717  153.4842 H   0  0  0  0  0  0  0  0  0  0  0  0  # atno 10765 bound_to 10752
  140.7649  133.8485  155.9157 H   0  0  0  0  0  0  0  0  0  0  0  0  # atno 11005 bound_to 11000
  144.6756  140.0417  143.7481 LP  0  0  0  0  0  0  0  0  0  0  0  0  # atno 17320 bound_to 7965
  145.9761  139.2906  143.1070 LP  0  0  0  0  0  0  0  0  0  0  0  0  # atno 17321 bound_to 7965
  139.9608  143.6165  152.3002 LP  0  0  0  0  0  0  0  0  0  0  0  0  # atno 17342 bound_to 10162
  139.6718  144.7660  151.1770 LP  0  0  0  0  0  0  0  0  0  0  0  0  # atno 17343 bound_to 10162
  156.8931  130.9595  151.3586 LP  0  0  0  0  0  0  0  0  0  0  0  0  # atno 17370 bound_to 10713
  157.6112  130.8584  149.8954 LP  0  0  0  0  0  0  0  0  0  0  0  0  # atno 17371 bound_to 10713
  140.9628  134.1633  157.4640 LP  0  0  0  0  0  0  0  0  0  0  0  0  # atno 17394 bound_to 11000
  139.8765  134.9951  156.5726 LP  0  0  0  0  0  0  0  0  0  0  0  0  # atno 17395 bound_to 11000

$$$$
