AV-unprocessed.smi:286|AV-procd|sdf|2175|dock2
  -GOLD-   2262021533D 1   1.00000     0.00000
 Structure written by MMmdl.
 46 48  0  0  0  0  0  0  0  0  1 V2000
  152.5576  135.0326  157.5845 O   0  0  0  0  0  0  0  0  0  0  0  0
  152.4284  136.1476  157.0760 C   0  0  0  0  0  0  0  0  0  0  0  0
  151.3175  136.5065  156.2021 C   0  0  0  0  0  0  0  0  0  0  0  0
  150.3488  135.6087  155.9546 F   0  0  0  0  0  0  0  0  0  0  0  0
  151.2434  137.7307  155.6367 C   0  0  0  0  0  0  0  0  0  0  0  0
  152.1988  138.7132  155.8255 N   0  0  0  0  0  0  0  0  0  0  0  0
  152.0007  140.0605  155.1650 C   0  0  2  0  0  0  0  0  0  0  0  0
  151.7294  141.2025  156.1559 C   0  0  0  0  0  0  0  0  0  0  0  0
  150.7628  142.0558  155.3634 C   0  0  0  0  0  0  0  0  0  0  0  0
  149.9731  141.0065  154.5882 C   0  0  0  0  0  0  0  0  0  0  0  0
  150.9188  139.9850  154.2822 O   0  0  0  0  0  0  0  0  0  0  0  0
  153.2903  138.4675  156.6921 C   0  0  0  0  0  0  0  0  0  0  0  0
  154.1414  139.3316  156.9084 O   0  0  0  0  0  0  0  0  0  0  0  0
  153.3658  137.1876  157.2921 N   0  0  0  0  0  0  0  0  0  0  0  0
  154.5043  136.9014  158.1504 C   0  0  0  0  0  0  0  0  0  0  0  0
  154.5237  137.7677  159.4361 C   0  0  1  0  0  0  0  0  0  0  0  0
  153.2304  137.6602  160.0013 O   0  0  0  0  0  0  0  0  0  0  0  0
  155.5650  137.3101  160.4946 C   0  0  0  0  0  0  0  0  0  0  0  0
  155.6083  135.7667  160.6377 C   0  0  0  0  0  0  0  0  0  0  0  0
  156.6267  135.3049  161.6928 C   0  0  0  0  0  0  0  0  0  0  0  0
  156.3388  135.9414  163.0578 C   0  0  0  0  0  0  0  0  0  0  0  0
  156.3069  137.4706  162.9445 C   0  0  0  0  0  0  0  0  0  0  0  0
  155.2900  137.9314  161.8876 C   0  0  0  0  0  0  0  0  0  0  0  0
  150.3959  137.9414  155.0010 H   0  0  0  0  0  0  0  0  0  0  0  0
  152.9007  140.2430  154.5766 H   0  0  0  0  0  0  0  0  0  0  0  0
  151.2613  140.8400  157.0702 H   0  0  0  0  0  0  0  0  0  0  0  0
  152.6529  141.7192  156.4183 H   0  0  0  0  0  0  0  0  0  0  0  0
  150.1331  142.6865  155.9914 H   0  0  0  0  0  0  0  0  0  0  0  0
  151.3104  142.6979  154.6724 H   0  0  0  0  0  0  0  0  0  0  0  0
  149.1771  140.5914  155.2066 H   0  0  0  0  0  0  0  0  0  0  0  0
  149.5186  141.4099  153.6831 H   0  0  0  0  0  0  0  0  0  0  0  0
  154.5219  135.8308  158.3640 H   0  0  0  0  0  0  0  0  0  0  0  0
  155.3897  137.0397  157.5322 H   0  0  0  0  0  0  0  0  0  0  0  0
  154.7059  138.8155  159.1925 H   0  0  0  0  0  0  0  0  0  0  0  0
  152.9528  138.5196  160.2808 H   0  0  0  0  0  0  0  0  0  0  0  0
  156.5505  137.6422  160.1636 H   0  0  0  0  0  0  0  0  0  0  0  0
  154.6176  135.3954  160.9032 H   0  0  0  0  0  0  0  0  0  0  0  0
  155.8663  135.2972  159.6884 H   0  0  0  0  0  0  0  0  0  0  0  0
  156.6065  134.2181  161.7785 H   0  0  0  0  0  0  0  0  0  0  0  0
  157.6339  135.5707  161.3694 H   0  0  0  0  0  0  0  0  0  0  0  0
  155.3816  135.5811  163.4367 H   0  0  0  0  0  0  0  0  0  0  0  0
  157.0954  135.6352  163.7809 H   0  0  0  0  0  0  0  0  0  0  0  0
  156.0606  137.9087  163.9121 H   0  0  0  0  0  0  0  0  0  0  0  0
  157.2991  137.8394  162.6820 H   0  0  0  0  0  0  0  0  0  0  0  0
  155.3179  139.0184  161.8487 H   0  0  0  0  0  0  0  0  0  0  0  0
  154.2834  137.6662  162.2141 H   0  0  0  0  0  0  0  0  0  0  0  0
  1  2  2  0  0  0  0
  2 14  1  0  0  0  0
  2  3  1  0  0  0  0
  3  4  1  0  0  0  0
  3  5  2  0  0  0  0
  5  6  1  0  0  0  0
  5 24  1  0  0  0  0
  6  7  1  0  0  0  0
  6 12  1  0  0  0  0
  7 11  1  0  0  0  0
  7  8  1  0  0  0  0
  7 25  1  0  0  0  0
  8  9  1  0  0  0  0
  8 26  1  0  0  0  0
  8 27  1  0  0  0  0
  9 10  1  0  0  0  0
  9 28  1  0  0  0  0
  9 29  1  0  0  0  0
 10 11  1  0  0  0  0
 10 30  1  0  0  0  0
 10 31  1  0  0  0  0
 12 13  2  0  0  0  0
 12 14  1  0  0  0  0
 14 15  1  0  0  0  0
 15 16  1  0  0  0  0
 15 32  1  0  0  0  0
 15 33  1  0  0  0  0
 16 17  1  0  0  0  0
 16 18  1  0  0  0  0
 16 34  1  0  0  0  0
 17 35  1  0  0  0  0
 18 23  1  0  0  0  0
 18 19  1  0  0  0  0
 18 36  1  0  0  0  0
 19 20  1  0  0  0  0
 19 37  1  0  0  0  0
 19 38  1  0  0  0  0
 20 21  1  0  0  0  0
 20 39  1  0  0  0  0
 20 40  1  0  0  0  0
 21 22  1  0  0  0  0
 21 41  1  0  0  0  0
 21 42  1  0  0  0  0
 22 23  1  0  0  0  0
 22 43  1  0  0  0  0
 22 44  1  0  0  0  0
 23 45  1  0  0  0  0
 23 46  1  0  0  0  0
M  END
> <s_m_source_file>
AV-unprocessed.smi

> <i_m_source_file_index>
286

> <i_lp_mmshare_version>
43012

> <i_f3d_flags>
0

> <s_epik_input>
TzFbQ0gyXVtDSDJdW0NIMl1bQ0BIXTFuKFtjSF1jKEYpYzI9TyljKD1PKW4yW0NIMl1bQ0BIXShbT0hdKVtDSF0zW0NIMl1bQ0gyXVtDSDJdW0NIMl1bQ0gyXTM=

> <s_epik_cmdline>
J2VwaWtfcHl0aG9uJywgJy1waCcsICc3LjAnLCAnLXRuJywgJzgnLCAnLW1hJywgJzIwMCcsICctbWV0YWxfYmluZGluZycsICctaW1hZScsICc8aW5maWxlLm1hZT4nLCAnLW9tYWUnLCAnPG91dGZpbGUubWFlPic=

> <r_lp_tautomer_probability>
1

> <r_epik_Ionization_Penalty>
3.15564e-07

> <r_epik_Ionization_Penalty_Charging>
2.06416e-08

> <r_epik_Ionization_Penalty_Neutral>
2.94923e-07

> <r_epik_State_Penalty>
-0

> <r_epik_Charging_Adjusted_Penalty>
2.06416e-08

> <i_epik_Tot_Q>
0

> <i_epik_Tot_abs_Q>
0

> <r_epik_Metal_State_Penalty>
-0

> <b_epik_Metal_Only>
0

> <s_epik_Chemistry_Notes>
This compound contains an acetal/aminal-like group ( X-CH(R)-Y where X, Y are N, S, or O) that may be acid/base labile, releasing an aldehyde.

> <s_lp_Force_Field>
OPLS_2005

> <r_lp_Energy>
37.1896

> <b_lp_Chiralities_Consistent>
1

> <s_lp_Variant>
AV-unprocessed.smi:286-3

> <Gold.Version>
5.8.1

> <Gold.Id.Protein>
6NUR|6NUR_protein|mol2

> <Gold.PLP.Fitness>
44.4695

> <Gold.PLP.PLP>
-36.2613

> <Gold.PLP.part.hbond>
-4.0000

> <Gold.PLP.part.metal>
0.0000

> <Gold.PLP.part.buried>
-1.2672

> <Gold.PLP.part.nonpolar>
-30.6595

> <Gold.PLP.part.repulsive>
0.0946

> <Gold.PLP.ligand.clash>
0.0000

> <Gold.PLP.ligand.torsion>
0.4196

> <Gold.PLP.Chemscore.Hbond>
3.0000

> <Gold.PLP.Chemscore.CHOScore>
0.0000

> <Gold.PLP.Chemscore.Metal>
0.0000

> <Gold.Chemscore.Hbonds>
donor molecule, donor type, donor heavy atom, donor atom, acceptor molecule, acceptor atom, score
      P1  H  7989  7998       L1    11  0.10

> <Gold.PLP.Chemscore.Internal.Correction>
0.0476

> <Gold.Rescore>
     Score         DG    S(hbond)    S(metal)    S(lipo)     H(rot)  DE(clash)    DE(int)     intcor
     15.47     -16.61       2.57        0.00      71.72       2.28       0.12       1.02       ----

> <Gold.Chemscore.Fitness>
15.4661

> <Gold.Chemscore.DG>
-16.6141

> <Gold.Chemscore.ZeroCoef>
-5.4800

> <Gold.Chemscore.Hbond>
2.5652

> <Gold.Chemscore.Metal>
0.0000

> <Gold.Chemscore.Lipo>
71.7249

> <Gold.Chemscore.Internal_Hbond>
0.0000

> <Gold.Chemscore.DEClash>
0.1245

> <Gold.Chemscore.DEInternal>
1.0235

> <Gold.Chemscore.Rot>
2.2756

> <Gold.Chemscore.Internal.Correction>
   9.000000E+99

> <Gold.Chemscore.Hbond.Weighted>
-8.5677

> <Gold.Chemscore.Metal.Weighted>
-0.0000

> <Gold.Chemscore.Lipo.Weighted>
-8.3918

> <Gold.Chemscore.Internal_Hbond.Weighted>
0.0000

> <Gold.Chemscore.DEClash.Weighted>
0.1245

> <Gold.Chemscore.DEInternal.Weighted>
1.0235

> <Gold.Chemscore.Rot.Weighted>
5.8254

> <Gold.Chemscore.Internal.Correction.Weighted>
   9.000000E+99

> <Gold.Protein.RotatedTorsions>
[ 6907 6896 6895 6894 ] final   -3.50 input  -60.11 | X-H torsion
[ 7974 7965 7964 7962 ] final   35.59 input  175.53 | X-H torsion
[ 8008 7997 7996 7995 ] final  -78.51 input   59.86 | X-H torsion
[ 10167 10162 10161 10158 ] final  -19.14 input  -65.29 | X-H torsion
[ 10718 10713 10712 10709 ] final  152.58 input   66.30 | X-H torsion
[ 10763 10752 10751 10750 ] final   84.50 input  -60.55 | X-H torsion
[ 11005 11000 10999 10996 ] final  -26.95 input  -57.11 | X-H torsion

> <Gold.Protein.ActiveResidues>
 VAL166  LYS551  ARG553  GLY616  TRP617  ASP618  TYR619  PRO620  LYS621  CYS622 
 ASP623  PHE694  ASN695  SER759  ASP760  ASP761  ALA762  ILE779  LEU786  VAL792 
 PHE793  MET794  SER795  GLU796  ALA797  LYS798  CYS799  TRP800  GLU811  SER814 

> <Gold.Protein.RotatedAtoms>
  151.5127  135.1065  159.9857 H   0  0  0  0  0  0  0  0  0  0  0  0  # atno 6907 bound_to 6896
  152.4654  133.7908  159.6911 H   0  0  0  0  0  0  0  0  0  0  0  0  # atno 6908 bound_to 6896
  150.8636  133.7544  159.3009 H   0  0  0  0  0  0  0  0  0  0  0  0  # atno 6909 bound_to 6896
  146.1272  139.6123  142.9251 H   0  0  0  0  0  0  0  0  0  0  0  0  # atno 7974 bound_to 7965
  154.5697  140.0693  156.8945 H   0  0  0  0  0  0  0  0  0  0  0  0  # atno 8008 bound_to 7997
  155.2658  140.3361  155.4251 H   0  0  0  0  0  0  0  0  0  0  0  0  # atno 8009 bound_to 7997
  156.2108  140.1758  156.7684 H   0  0  0  0  0  0  0  0  0  0  0  0  # atno 8010 bound_to 7997
  140.7265  143.4848  151.0070 H   0  0  0  0  0  0  0  0  0  0  0  0  # atno 10167 bound_to 10162
  157.2560  131.0788  151.1698 H   0  0  0  0  0  0  0  0  0  0  0  0  # atno 10718 bound_to 10713
  153.1387  135.4652  154.9462 H   0  0  0  0  0  0  0  0  0  0  0  0  # atno 10763 bound_to 10752
  154.7728  135.3164  154.8156 H   0  0  0  0  0  0  0  0  0  0  0  0  # atno 10764 bound_to 10752
  153.8683  135.6906  153.4830 H   0  0  0  0  0  0  0  0  0  0  0  0  # atno 10765 bound_to 10752
  140.9076  133.7482  156.0626 H   0  0  0  0  0  0  0  0  0  0  0  0  # atno 11005 bound_to 11000
  145.5340  141.0425  143.2367 LP  0  0  0  0  0  0  0  0  0  0  0  0  # atno 17320 bound_to 7965
  144.7654  139.6858  143.7217 LP  0  0  0  0  0  0  0  0  0  0  0  0  # atno 17321 bound_to 7965
  139.8548  143.7391  152.3176 LP  0  0  0  0  0  0  0  0  0  0  0  0  # atno 17342 bound_to 10162
  139.7585  144.7513  151.0399 LP  0  0  0  0  0  0  0  0  0  0  0  0  # atno 17343 bound_to 10162
  157.3227  130.6945  149.6278 LP  0  0  0  0  0  0  0  0  0  0  0  0  # atno 17370 bound_to 10713
  155.9665  130.4330  150.4990 LP  0  0  0  0  0  0  0  0  0  0  0  0  # atno 17371 bound_to 10713
  140.8152  134.3353  157.5399 LP  0  0  0  0  0  0  0  0  0  0  0  0  # atno 17394 bound_to 11000
  139.8752  134.9277  156.3432 LP  0  0  0  0  0  0  0  0  0  0  0  0  # atno 17395 bound_to 11000

$$$$
