AV-unprocessed.smi:3163|AV-procd|sdf|12078|dock4
  -GOLD-   2272017503D 1   1.00000     0.00000
 Structure written by MMmdl.
 37 38  0  0  0  0  0  0  0  0  3 V2000
  143.7101  132.3790  149.2596 C   0  0  0  0  0  0  0  0  0  0  0  0
  144.8047  133.3209  149.5731 N   0  3  2  0  0  0  0  0  0  0  0  0
  146.0177  132.6867  150.1411 C   0  0  0  0  0  0  0  0  0  0  0  0
  146.4170  133.5166  151.3674 C   0  0  0  0  0  0  0  0  0  0  0  0
  145.7066  134.8552  151.1636 C   0  0  2  0  0  0  0  0  0  0  0  0
  145.4816  135.6714  152.4511 C   0  0  0  0  0  0  0  0  0  0  0  0
  146.6099  136.5462  152.7533 N   0  0  0  0  0  0  0  0  0  0  0  0
  146.5098  137.7925  153.2372 C   0  0  0  0  0  0  0  0  0  0  0  0
  145.4341  138.3381  153.4807 O   0  0  0  0  0  0  0  0  0  0  0  0
  147.7233  138.3405  153.4242 N   0  0  0  0  0  0  0  0  0  0  0  0
  148.0556  139.6343  153.9132 C   0  0  0  0  0  0  0  0  0  0  0  0
  147.0681  140.6394  153.8098 C   0  0  0  0  0  0  0  0  0  0  0  0
  147.3398  141.9362  154.2912 C   0  0  0  0  0  0  0  0  0  0  0  0
  148.5367  142.2071  154.8540 N   0  3  0  0  0  0  0  0  0  0  0  0
  149.5073  141.2780  154.9868 C   0  0  0  0  0  0  0  0  0  0  0  0
  149.2932  139.9633  154.5245 C   0  0  0  0  0  0  0  0  0  0  0  0
  144.4141  134.4302  150.4674 C   0  0  0  0  0  0  0  0  0  0  0  0
  143.3571  131.8725  150.1588 H   0  0  0  0  0  0  0  0  0  0  0  0
  144.0504  131.6231  148.5510 H   0  0  0  0  0  0  0  0  0  0  0  0
  142.8689  132.9082  148.8106 H   0  0  0  0  0  0  0  0  0  0  0  0
  145.8540  131.6430  150.4140 H   0  0  0  0  0  0  0  0  0  0  0  0
  146.8035  132.7104  149.3856 H   0  0  0  0  0  0  0  0  0  0  0  0
  146.0460  133.0320  152.2719 H   0  0  0  0  0  0  0  0  0  0  0  0
  147.4978  133.6226  151.4670 H   0  0  0  0  0  0  0  0  0  0  0  0
  146.2895  135.4485  150.4567 H   0  0  0  0  0  0  0  0  0  0  0  0
  144.5668  136.2610  152.3704 H   0  0  0  0  0  0  0  0  0  0  0  0
  145.3399  135.0014  153.2998 H   0  0  0  0  0  0  0  0  0  0  0  0
  147.5324  136.1701  152.5887 H   0  0  0  0  0  0  0  0  0  0  0  0
  148.5109  137.7366  153.2389 H   0  0  0  0  0  0  0  0  0  0  0  0
  146.1089  140.4237  153.3611 H   0  0  0  0  0  0  0  0  0  0  0  0
  146.6403  142.7580  154.2442 H   0  0  0  0  0  0  0  0  0  0  0  0
  150.4193  141.6099  155.4611 H   0  0  0  0  0  0  0  0  0  0  0  0
  150.0792  139.2368  154.6599 H   0  0  0  0  0  0  0  0  0  0  0  0
  143.9491  135.2457  149.9126 H   0  0  0  0  0  0  0  0  0  0  0  0
  143.6944  134.0721  151.2057 H   0  0  0  0  0  0  0  0  0  0  0  0
  145.0937  133.7460  148.7034 H   0  0  0  0  0  0  0  0  0  0  0  0
  148.7138  143.1517  155.1972 H   0  0  0  0  0  0  0  0  0  0  0  0
  1  2  1  0  0  0  0
  1 18  1  0  0  0  0
  1 19  1  0  0  0  0
  1 20  1  0  0  0  0
  2 17  1  0  0  0  0
  2  3  1  0  0  0  0
  2 36  1  0  0  0  0
  3  4  1  0  0  0  0
  3 21  1  0  0  0  0
  3 22  1  0  0  0  0
  4  5  1  0  0  0  0
  4 23  1  0  0  0  0
  4 24  1  0  0  0  0
  5  6  1  0  0  0  0
  5 17  1  0  0  0  0
  5 25  1  0  0  0  0
  6  7  1  0  0  0  0
  6 26  1  0  0  0  0
  6 27  1  0  0  0  0
  7  8  1  0  0  0  0
  7 28  1  0  0  0  0
  8  9  2  0  0  0  0
  8 10  1  0  0  0  0
 10 11  1  0  0  0  0
 10 29  1  0  0  0  0
 11 16  1  0  0  0  0
 11 12  2  0  0  0  0
 12 13  1  0  0  0  0
 12 30  1  0  0  0  0
 13 14  2  0  0  0  0
 13 31  1  0  0  0  0
 14 15  1  0  0  0  0
 14 37  1  0  0  0  0
 15 16  2  0  0  0  0
 15 32  1  0  0  0  0
 16 33  1  0  0  0  0
 17 34  1  0  0  0  0
 17 35  1  0  0  0  0
M  CHG  1   2   1
M  CHG  1  14   1
M  END
> <s_m_source_file>
AV-unprocessed.smi

> <i_m_source_file_index>
3163

> <i_lp_mmshare_version>
43012

> <i_f3d_flags>
0

> <s_epik_input>
W0NIM11OMVtDSDJdW0NIMl1bQ0BIXShbQ0gyXTEpW0NIMl1bTkhdQyg9TylbTkhdYzJbY0hdW2NIXW5bY0hdW2NIXTI=

> <s_epik_cmdline>
J2VwaWtfcHl0aG9uJywgJy1waCcsICc3LjAnLCAnLXRuJywgJzgnLCAnLW1hJywgJzIwMCcsICctbWV0YWxfYmluZGluZycsICctaW1hZScsICc8aW5maWxlLm1hZT4nLCAnLW9tYWUnLCAnPG91dGZpbGUubWFlPic=

> <r_epik_Ionization_Penalty>
1.09034

> <r_epik_Ionization_Penalty_Charging>
1.09032

> <r_epik_Ionization_Penalty_Neutral>
1.86664e-05

> <r_epik_State_Penalty>
1.14521

> <r_epik_Charging_Adjusted_Penalty>
2.23553

> <i_epik_Tot_Q>
2

> <i_epik_Tot_abs_Q>
2

> <r_epik_Metal_State_Penalty>
1.23399

> <b_epik_Metal_Only>
0

> <s_lp_Force_Field>
OPLS_2005

> <r_lp_Energy>
38.5846

> <b_lp_Chiralities_Consistent>
1

> <s_lp_Variant>
AV-unprocessed.smi:3163-8

> <Gold.Version>
5.8.1

> <Gold.Id.Protein>
6NUR|6NUR_protein|mol2

> <Gold.PLP.Fitness>
45.3263

> <Gold.PLP.PLP>
-32.5210

> <Gold.PLP.part.hbond>
-4.0672

> <Gold.PLP.part.metal>
0.0000

> <Gold.PLP.part.buried>
-3.7625

> <Gold.PLP.part.nonpolar>
-27.9194

> <Gold.PLP.part.repulsive>
2.5236

> <Gold.PLP.ligand.clash>
0.0000

> <Gold.PLP.ligand.torsion>
0.5854

> <Gold.PLP.Chemscore.Hbond>
4.6578

> <Gold.PLP.Chemscore.CHOScore>
0.0000

> <Gold.PLP.Chemscore.Metal>
0.0000

> <Gold.Chemscore.Hbonds>
donor molecule, donor type, donor heavy atom, donor atom, acceptor molecule, acceptor atom, score
      L1  H     2    36       P1  7921  1.00
      L1  H     7    28       P1  7948  1.00
      L1  H    10    29       P1  7948  0.64
      L1  H    14    37       P1  8028  2.00

> <Gold.PLP.Chemscore.Internal.Correction>
0.0027

> <Gold.Rescore>
     Score         DG    S(hbond)    S(metal)    S(lipo)     H(rot)  DE(clash)    DE(int)     intcor
     21.57     -24.00       3.78        0.00      78.33       1.27       0.48       1.95       ----

> <Gold.Chemscore.Fitness>
21.5673

> <Gold.Chemscore.DG>
-24.0009

> <Gold.Chemscore.ZeroCoef>
-5.4800

> <Gold.Chemscore.Hbond>
3.7762

> <Gold.Chemscore.Metal>
0.0000

> <Gold.Chemscore.Lipo>
78.3321

> <Gold.Chemscore.Internal_Hbond>
0.0000

> <Gold.Chemscore.DEClash>
0.4808

> <Gold.Chemscore.DEInternal>
1.9528

> <Gold.Chemscore.Rot>
1.2721

> <Gold.Chemscore.Internal.Correction>
   9.000000E+99

> <Gold.Chemscore.Hbonds>
donor molecule, donor type, donor heavy atom, donor atom, acceptor molecule, acceptor atom, score
      L1  H     2    36       P1  7921  0.87
      L1  H     7    28       P1  7948  0.94
      L1  H    10    29       P1  7948  0.63
      L1  H    14    37       P1  8028  0.99

> <Gold.Chemscore.Hbond.Weighted>
-12.6125

> <Gold.Chemscore.Metal.Weighted>
-0.0000

> <Gold.Chemscore.Lipo.Weighted>
-9.1649

> <Gold.Chemscore.Internal_Hbond.Weighted>
0.0000

> <Gold.Chemscore.DEClash.Weighted>
0.4808

> <Gold.Chemscore.DEInternal.Weighted>
1.9528

> <Gold.Chemscore.Rot.Weighted>
3.2565

> <Gold.Chemscore.Internal.Correction.Weighted>
   9.000000E+99

> <Gold.Protein.RotatedTorsions>
[ 6907 6896 6895 6894 ] final  179.65 input  -60.11 | X-H torsion
[ 7974 7965 7964 7962 ] final   94.99 input  175.53 | X-H torsion
[ 8008 7997 7996 7995 ] final  -90.22 input   59.86 | X-H torsion
[ 10167 10162 10161 10158 ] final  136.66 input  -65.29 | X-H torsion
[ 10718 10713 10712 10709 ] final  143.84 input   66.30 | X-H torsion
[ 10763 10752 10751 10750 ] final  -99.34 input  -60.55 | X-H torsion
[ 11005 11000 10999 10996 ] final  -90.09 input  -57.11 | X-H torsion

> <Gold.Protein.ActiveResidues>
 VAL166  LYS551  ARG553  GLY616  TRP617  ASP618  TYR619  PRO620  LYS621  CYS622 
 ASP623  PHE694  ASN695  SER759  ASP760  ASP761  ALA762  ILE779  LEU786  VAL792 
 PHE793  MET794  SER795  GLU796  ALA797  LYS798  CYS799  TRP800  GLU811  SER814 

> <Gold.Protein.RotatedAtoms>
  151.6682  133.3314  159.3189 H   0  0  0  0  0  0  0  0  0  0  0  0  # atno 6907 bound_to 6896
  150.7880  134.6885  159.6493 H   0  0  0  0  0  0  0  0  0  0  0  0  # atno 6908 bound_to 6896
  152.3954  134.6377  160.0143 H   0  0  0  0  0  0  0  0  0  0  0  0  # atno 6909 bound_to 6896
  145.4582  139.2288  143.3002 H   0  0  0  0  0  0  0  0  0  0  0  0  # atno 7974 bound_to 7965
  154.6959  140.0533  157.0410 H   0  0  0  0  0  0  0  0  0  0  0  0  # atno 8008 bound_to 7997
  155.0751  140.3203  155.4599 H   0  0  0  0  0  0  0  0  0  0  0  0  # atno 8009 bound_to 7997
  156.2744  140.2075  156.5879 H   0  0  0  0  0  0  0  0  0  0  0  0  # atno 8010 bound_to 7997
  139.5172  144.6453  151.5458 H   0  0  0  0  0  0  0  0  0  0  0  0  # atno 10167 bound_to 10162
  157.3643  131.0969  151.0887 H   0  0  0  0  0  0  0  0  0  0  0  0  # atno 10718 bound_to 10713
  154.7490  135.4976  153.9255 H   0  0  0  0  0  0  0  0  0  0  0  0  # atno 10763 bound_to 10752
  153.1122  135.6712  153.9487 H   0  0  0  0  0  0  0  0  0  0  0  0  # atno 10764 bound_to 10752
  153.9243  135.3085  155.3426 H   0  0  0  0  0  0  0  0  0  0  0  0  # atno 10765 bound_to 10752
  141.1572  133.7671  156.9688 H   0  0  0  0  0  0  0  0  0  0  0  0  # atno 11005 bound_to 11000
  146.2466  140.5348  142.8911 LP  0  0  0  0  0  0  0  0  0  0  0  0  # atno 17320 bound_to 7965
  144.8019  140.6229  143.6472 LP  0  0  0  0  0  0  0  0  0  0  0  0  # atno 17321 bound_to 7965
  140.6235  143.9213  150.6545 LP  0  0  0  0  0  0  0  0  0  0  0  0  # atno 17342 bound_to 10162
  140.2494  143.3604  152.1418 LP  0  0  0  0  0  0  0  0  0  0  0  0  # atno 17343 bound_to 10162
  157.2015  130.6397  149.5740 LP  0  0  0  0  0  0  0  0  0  0  0  0  # atno 17370 bound_to 10713
  155.9743  130.4689  150.6377 LP  0  0  0  0  0  0  0  0  0  0  0  0  # atno 17371 bound_to 10713
  140.1143  134.9457  157.2111 LP  0  0  0  0  0  0  0  0  0  0  0  0  # atno 17394 bound_to 11000
  140.3153  134.2977  155.7257 LP  0  0  0  0  0  0  0  0  0  0  0  0  # atno 17395 bound_to 11000

$$$$
