AV-unprocessed.smi:3350|AV-procd|sdf|12945|dock3
  -GOLD-   2272019383D 1   1.00000     0.00000
 Structure written by MMmdl.
 41 42  0  0  0  0  0  0  0  0  1 V2000
  145.6183  136.8195  150.9230 C   0  0  0  0  0  0  0  0  0  0  0  0
  144.7988  136.3441  152.1303 C   0  0  2  0  0  0  0  0  0  0  0  0
  143.8180  135.2187  151.7346 C   0  0  0  0  0  0  0  0  0  0  0  0
  144.4793  134.0834  151.1156 N   0  0  0  0  0  0  0  0  0  0  0  0
  143.9082  132.9925  150.4949 C   0  0  0  0  0  0  0  0  0  0  0  0
  144.9253  132.1808  150.0821 C   0  0  0  0  0  0  0  0  0  0  0  0
  146.0978  132.8733  150.4943 C   0  0  0  0  0  0  0  0  0  0  0  0
  145.8280  134.0144  151.1074 N   0  0  0  0  0  0  0  0  0  0  0  0
  144.0810  137.4867  152.6951 N   0  0  0  0  0  0  0  0  0  0  0  0
  143.2909  137.4544  153.7780 C   0  0  0  0  0  0  0  0  0  0  0  0
  143.0825  136.4458  154.4521 O   0  0  0  0  0  0  0  0  0  0  0  0
  142.7376  138.6511  154.0223 N   0  0  0  0  0  0  0  0  0  0  0  0
  141.7991  138.9531  155.1022 C   0  0  1  0  0  0  0  0  0  0  0  0
  141.7219  140.4768  155.2779 C   0  0  0  0  0  0  0  0  0  0  0  0
  140.4143  138.3383  154.8069 C   0  0  1  0  0  0  0  0  0  0  0  0
  139.8498  138.6445  153.4168 C   0  0  0  0  0  0  0  0  0  0  0  0
  138.9193  137.4759  153.1938 C   0  0  0  0  0  0  0  0  0  0  0  0
  139.7155  136.3328  153.8125 C   0  0  0  0  0  0  0  0  0  0  0  0
  140.4761  136.9140  154.8682 O   0  0  0  0  0  0  0  0  0  0  0  0
  146.1932  135.9988  150.4926 H   0  0  0  0  0  0  0  0  0  0  0  0
  146.3247  137.5990  151.2099 H   0  0  0  0  0  0  0  0  0  0  0  0
  144.9758  137.2224  150.1393 H   0  0  0  0  0  0  0  0  0  0  0  0
  145.5070  135.9530  152.8632 H   0  0  0  0  0  0  0  0  0  0  0  0
  143.2653  134.8684  152.6075 H   0  0  0  0  0  0  0  0  0  0  0  0
  143.0760  135.5984  151.0305 H   0  0  0  0  0  0  0  0  0  0  0  0
  142.8374  132.8813  150.4084 H   0  0  0  0  0  0  0  0  0  0  0  0
  144.8441  131.2356  149.5665 H   0  0  0  0  0  0  0  0  0  0  0  0
  147.1303  132.5833  150.3665 H   0  0  0  0  0  0  0  0  0  0  0  0
  144.1850  138.3677  152.2136 H   0  0  0  0  0  0  0  0  0  0  0  0
  142.9745  139.4145  153.4059 H   0  0  0  0  0  0  0  0  0  0  0  0
  142.1692  138.5340  156.0397 H   0  0  0  0  0  0  0  0  0  0  0  0
  141.0605  140.7458  156.1018 H   0  0  0  0  0  0  0  0  0  0  0  0
  141.3448  140.9631  154.3775 H   0  0  0  0  0  0  0  0  0  0  0  0
  142.7040  140.8966  155.4977 H   0  0  0  0  0  0  0  0  0  0  0  0
  139.6923  138.6662  155.5567 H   0  0  0  0  0  0  0  0  0  0  0  0
  139.3423  139.6077  153.3677 H   0  0  0  0  0  0  0  0  0  0  0  0
  140.6411  138.6348  152.6659 H   0  0  0  0  0  0  0  0  0  0  0  0
  137.9875  137.6281  153.7402 H   0  0  0  0  0  0  0  0  0  0  0  0
  138.6801  137.3108  152.1430 H   0  0  0  0  0  0  0  0  0  0  0  0
  139.0764  135.5284  154.1767 H   0  0  0  0  0  0  0  0  0  0  0  0
  140.4068  135.9126  153.0814 H   0  0  0  0  0  0  0  0  0  0  0  0
  1  2  1  0  0  0  0
  1 20  1  0  0  0  0
  1 21  1  0  0  0  0
  1 22  1  0  0  0  0
  2  3  1  0  0  0  0
  2  9  1  0  0  0  0
  2 23  1  0  0  0  0
  3  4  1  0  0  0  0
  3 24  1  0  0  0  0
  3 25  1  0  0  0  0
  4  8  1  0  0  0  0
  4  5  1  0  0  0  0
  5  6  2  0  0  0  0
  5 26  1  0  0  0  0
  6  7  1  0  0  0  0
  6 27  1  0  0  0  0
  7  8  2  0  0  0  0
  7 28  1  0  0  0  0
  9 10  1  0  0  0  0
  9 29  1  0  0  0  0
 10 11  2  0  0  0  0
 10 12  1  0  0  0  0
 12 13  1  0  0  0  0
 12 30  1  0  0  0  0
 13 14  1  0  0  0  0
 13 15  1  0  0  0  0
 13 31  1  0  0  0  0
 14 32  1  0  0  0  0
 14 33  1  0  0  0  0
 14 34  1  0  0  0  0
 15 19  1  0  0  0  0
 15 16  1  0  0  0  0
 15 35  1  0  0  0  0
 16 17  1  0  0  0  0
 16 36  1  0  0  0  0
 16 37  1  0  0  0  0
 17 18  1  0  0  0  0
 17 38  1  0  0  0  0
 17 39  1  0  0  0  0
 18 19  1  0  0  0  0
 18 40  1  0  0  0  0
 18 41  1  0  0  0  0
M  END
> <s_m_source_file>
AV-unprocessed.smi

> <i_m_source_file_index>
3350

> <i_lp_mmshare_version>
43012

> <i_f3d_flags>
0

> <s_epik_input>
bjFbY0hdW2NIXVtjSF1uMVtDSDJdW0NAQEhdKFtDSDNdKVtOSF1DKD1PKVtOSF1bQ0BIXShbQ0gzXSlbQ0BASF0yW0NIMl1bQ0gyXVtDSDJdTzI=

> <s_epik_cmdline>
J2VwaWtfcHl0aG9uJywgJy1waCcsICc3LjAnLCAnLXRuJywgJzgnLCAnLW1hJywgJzIwMCcsICctbWV0YWxfYmluZGluZycsICctaW1hZScsICc8aW5maWxlLm1hZT4nLCAnLW9tYWUnLCAnPG91dGZpbGUubWFlPic=

> <r_lp_tautomer_probability>
1

> <r_epik_Ionization_Penalty>
6.42349e-05

> <r_epik_Ionization_Penalty_Charging>
0

> <r_epik_Ionization_Penalty_Neutral>
6.42349e-05

> <r_epik_State_Penalty>
-0

> <r_epik_Charging_Adjusted_Penalty>
0

> <i_epik_Tot_Q>
0

> <i_epik_Tot_abs_Q>
0

> <r_epik_Metal_State_Penalty>
-0

> <b_epik_Metal_Only>
0

> <s_lp_Force_Field>
OPLS_2005

> <r_lp_Energy>
14.6241

> <b_lp_Chiralities_Consistent>
1

> <s_lp_Variant>
AV-unprocessed.smi:3350-7

> <Gold.Version>
5.8.1

> <Gold.Id.Protein>
6NUR|6NUR_protein|mol2

> <Gold.PLP.Fitness>
41.9688

> <Gold.PLP.PLP>
-31.9761

> <Gold.PLP.part.hbond>
-3.0729

> <Gold.PLP.part.metal>
0.0000

> <Gold.PLP.part.buried>
-2.6067

> <Gold.PLP.part.nonpolar>
-27.2276

> <Gold.PLP.part.repulsive>
0.2328

> <Gold.PLP.ligand.clash>
0.0000

> <Gold.PLP.ligand.torsion>
0.3527

> <Gold.PLP.Chemscore.Hbond>
1.5633

> <Gold.PLP.Chemscore.CHOScore>
1.9931

> <Gold.PLP.Chemscore.Metal>
0.0000

> <Gold.Chemscore.Hbonds>
donor molecule, donor type, donor heavy atom, donor atom, acceptor molecule, acceptor atom, score
      L1  H     9    29       P1 10175  0.56
      L1  H    12    30       P1 10175  0.98
      L1  C     5    26       P1 10186  0.98
      L1  C     7    28       P1 10747  1.00

> <Gold.PLP.Chemscore.Internal.Correction>
0.0291

> <Gold.Rescore>
     Score         DG    S(hbond)    S(metal)    S(lipo)     H(rot)  DE(clash)    DE(int)     intcor
     13.25     -15.55       1.94        0.00      70.58       1.82       0.28       2.03       ----

> <Gold.Chemscore.Fitness>
13.2479

> <Gold.Chemscore.DG>
-15.5491

> <Gold.Chemscore.ZeroCoef>
-5.4800

> <Gold.Chemscore.Hbond>
1.9370

> <Gold.Chemscore.Metal>
0.0000

> <Gold.Chemscore.Lipo>
70.5789

> <Gold.Chemscore.Internal_Hbond>
0.0000

> <Gold.Chemscore.DEClash>
0.2757

> <Gold.Chemscore.DEInternal>
2.0255

> <Gold.Chemscore.Rot>
1.8197

> <Gold.Chemscore.Internal.Correction>
   9.000000E+99

> <Gold.Chemscore.Hbonds>
donor molecule, donor type, donor heavy atom, donor atom, acceptor molecule, acceptor atom, score
      L1  H     9    29       P1 10175  0.56
      L1  H    12    30       P1 10175  0.92

> <Gold.Chemscore.Hbond.Weighted>
-6.4697

> <Gold.Chemscore.Metal.Weighted>
-0.0000

> <Gold.Chemscore.Lipo.Weighted>
-8.2577

> <Gold.Chemscore.Internal_Hbond.Weighted>
0.0000

> <Gold.Chemscore.DEClash.Weighted>
0.2757

> <Gold.Chemscore.DEInternal.Weighted>
2.0255

> <Gold.Chemscore.Rot.Weighted>
4.6583

> <Gold.Chemscore.Internal.Correction.Weighted>
   9.000000E+99

> <Gold.Protein.RotatedTorsions>
[ 6907 6896 6895 6894 ] final  175.04 input  -60.11 | X-H torsion
[ 7974 7965 7964 7962 ] final  147.16 input  175.53 | X-H torsion
[ 8008 7997 7996 7995 ] final   15.07 input   59.86 | X-H torsion
[ 10167 10162 10161 10158 ] final  -43.42 input  -65.29 | X-H torsion
[ 10718 10713 10712 10709 ] final  -92.02 input   66.30 | X-H torsion
[ 10763 10752 10751 10750 ] final -154.23 input  -60.55 | X-H torsion
[ 11005 11000 10999 10996 ] final   64.25 input  -57.11 | X-H torsion

> <Gold.Protein.ActiveResidues>
 VAL166  LYS551  ARG553  GLY616  TRP617  ASP618  TYR619  PRO620  LYS621  CYS622 
 ASP623  PHE694  ASN695  SER759  ASP760  ASP761  ALA762  ILE779  LEU786  VAL792 
 PHE793  MET794  SER795  GLU796  ALA797  LYS798  CYS799  TRP800  GLU811  SER814 

> <Gold.Protein.RotatedAtoms>
  151.7427  133.3323  159.3369 H   0  0  0  0  0  0  0  0  0  0  0  0  # atno 6907 bound_to 6896
  150.7567  134.6264  159.6172 H   0  0  0  0  0  0  0  0  0  0  0  0  # atno 6908 bound_to 6896
  152.3520  134.6994  160.0285 H   0  0  0  0  0  0  0  0  0  0  0  0  # atno 6909 bound_to 6896
  144.8614  139.5994  143.5929 H   0  0  0  0  0  0  0  0  0  0  0  0  # atno 7974 bound_to 7965
  154.8575  140.2939  155.5560 H   0  0  0  0  0  0  0  0  0  0  0  0  # atno 8008 bound_to 7997
  156.3018  140.2484  156.3476 H   0  0  0  0  0  0  0  0  0  0  0  0  # atno 8009 bound_to 7997
  154.8955  140.0393  157.1852 H   0  0  0  0  0  0  0  0  0  0  0  0  # atno 8010 bound_to 7997
  140.6934  143.2984  151.3349 H   0  0  0  0  0  0  0  0  0  0  0  0  # atno 10167 bound_to 10162
  155.9998  130.4971  150.5562 H   0  0  0  0  0  0  0  0  0  0  0  0  # atno 10718 bound_to 10713
  154.7873  135.3195  154.7857 H   0  0  0  0  0  0  0  0  0  0  0  0  # atno 10763 bound_to 10752
  153.8554  135.6858  153.4792 H   0  0  0  0  0  0  0  0  0  0  0  0  # atno 10764 bound_to 10752
  153.1530  135.4692  154.9603 H   0  0  0  0  0  0  0  0  0  0  0  0  # atno 10765 bound_to 10752
  139.9971  134.6500  155.9992 H   0  0  0  0  0  0  0  0  0  0  0  0  # atno 11005 bound_to 11000
  146.2863  139.7013  142.9193 LP  0  0  0  0  0  0  0  0  0  0  0  0  # atno 17320 bound_to 7965
  145.4305  141.0414  143.2913 LP  0  0  0  0  0  0  0  0  0  0  0  0  # atno 17321 bound_to 7965
  139.6362  144.0625  152.2518 LP  0  0  0  0  0  0  0  0  0  0  0  0  # atno 17342 bound_to 10162
  140.0116  144.6219  150.7642 LP  0  0  0  0  0  0  0  0  0  0  0  0  # atno 17343 bound_to 10162
  157.3478  131.0728  151.1737 LP  0  0  0  0  0  0  0  0  0  0  0  0  # atno 17370 bound_to 10713
  157.2564  130.6638  149.5954 LP  0  0  0  0  0  0  0  0  0  0  0  0  # atno 17371 bound_to 10713
  141.1613  133.6539  156.4328 LP  0  0  0  0  0  0  0  0  0  0  0  0  # atno 17394 bound_to 11000
  140.4797  134.6676  157.5165 LP  0  0  0  0  0  0  0  0  0  0  0  0  # atno 17395 bound_to 11000

$$$$
