AV-unprocessed.smi:3178|AV-procd|sdf|12131|dock4
  -GOLD-   2272017573D 1   1.00000     0.00000
 Structure written by MMmdl.
 35 35  0  0  0  0  0  0  0  0  1 V2000
  145.3153  137.4119  161.6164 C   0  0  0  0  0  0  0  0  0  0  0  0
  146.5222  137.2699  160.8760 O   0  0  0  0  0  0  0  0  0  0  0  0
  147.4238  136.2210  161.2468 C   0  0  0  0  0  0  0  0  0  0  0  0
  147.7073  136.4653  162.7418 C   0  0  0  0  0  0  0  0  0  0  0  0
  146.7515  134.8423  161.0856 C   0  0  0  0  0  0  0  0  0  0  0  0
  148.7352  136.2845  160.4257 C   0  0  0  0  0  0  0  0  0  0  0  0
  148.4822  136.0811  159.0038 N   0  0  0  0  0  0  0  0  0  0  0  0
  148.5297  134.9045  158.3603 C   0  0  0  0  0  0  0  0  0  0  0  0
  148.7318  133.8299  158.9248 O   0  0  0  0  0  0  0  0  0  0  0  0
  148.3118  134.9420  156.8454 C   0  0  0  0  0  0  0  0  0  0  0  0
  149.4241  135.6605  156.1467 C   0  0  0  0  0  0  0  0  0  0  0  0
  149.4235  136.7670  155.3438 C   0  0  0  0  0  0  0  0  0  0  0  0
  150.7905  136.9379  154.9769 C   0  0  0  0  0  0  0  0  0  0  0  0
  151.3866  137.9972  154.0974 C   0  0  0  0  0  0  0  0  0  0  0  0
  151.5771  136.0170  155.5137 N   0  0  0  0  0  0  0  0  0  0  0  0
  150.7345  135.2454  156.2246 N   0  0  0  0  0  0  0  0  0  0  0  0
  151.0633  134.4480  156.7502 H   0  0  0  0  0  0  0  0  0  0  0  0
  144.7436  138.2404  161.1988 H   0  0  0  0  0  0  0  0  0  0  0  0
  145.4996  137.6459  162.6642 H   0  0  0  0  0  0  0  0  0  0  0  0
  144.6857  136.5248  161.5553 H   0  0  0  0  0  0  0  0  0  0  0  0
  148.4158  135.7357  163.1353 H   0  0  0  0  0  0  0  0  0  0  0  0
  146.7937  136.3894  163.3323 H   0  0  0  0  0  0  0  0  0  0  0  0
  148.1233  137.4578  162.9195 H   0  0  0  0  0  0  0  0  0  0  0  0
  147.3745  134.0526  161.5066 H   0  0  0  0  0  0  0  0  0  0  0  0
  146.5824  134.5874  160.0397 H   0  0  0  0  0  0  0  0  0  0  0  0
  145.7892  134.8097  161.5974 H   0  0  0  0  0  0  0  0  0  0  0  0
  149.2128  137.2516  160.5931 H   0  0  0  0  0  0  0  0  0  0  0  0
  149.4515  135.5359  160.7638 H   0  0  0  0  0  0  0  0  0  0  0  0
  148.3078  136.9115  158.4563 H   0  0  0  0  0  0  0  0  0  0  0  0
  148.2367  133.9231  156.4642 H   0  0  0  0  0  0  0  0  0  0  0  0
  147.3556  135.4241  156.6385 H   0  0  0  0  0  0  0  0  0  0  0  0
  148.5704  137.3629  155.0549 H   0  0  0  0  0  0  0  0  0  0  0  0
  150.6322  138.4350  153.4435 H   0  0  0  0  0  0  0  0  0  0  0  0
  152.1763  137.5908  153.4645 H   0  0  0  0  0  0  0  0  0  0  0  0
  151.8168  138.8020  154.6935 H   0  0  0  0  0  0  0  0  0  0  0  0
  1  2  1  0  0  0  0
  1 18  1  0  0  0  0
  1 19  1  0  0  0  0
  1 20  1  0  0  0  0
  2  3  1  0  0  0  0
  3  4  1  0  0  0  0
  3  5  1  0  0  0  0
  3  6  1  0  0  0  0
  4 21  1  0  0  0  0
  4 22  1  0  0  0  0
  4 23  1  0  0  0  0
  5 24  1  0  0  0  0
  5 25  1  0  0  0  0
  5 26  1  0  0  0  0
  6  7  1  0  0  0  0
  6 27  1  0  0  0  0
  6 28  1  0  0  0  0
  7  8  1  0  0  0  0
  7 29  1  0  0  0  0
  8  9  2  0  0  0  0
  8 10  1  0  0  0  0
 10 30  1  0  0  0  0
 10 31  1  0  0  0  0
 10 11  1  0  0  0  0
 11 16  1  0  0  0  0
 11 12  2  0  0  0  0
 12 13  1  0  0  0  0
 12 32  1  0  0  0  0
 13 14  1  0  0  0  0
 13 15  2  0  0  0  0
 14 33  1  0  0  0  0
 14 34  1  0  0  0  0
 14 35  1  0  0  0  0
 15 16  1  0  0  0  0
 16 17  1  0  0  0  0
M  END
> <s_m_source_file>
AV-unprocessed.smi

> <i_m_source_file_index>
3178

> <i_lp_mmshare_version>
43012

> <i_f3d_flags>
0

> <s_epik_input>
W0NIM11PQyhbQ0gzXSkoW0NIM10pW0NIMl1bTkhdQyg9TylbQ0gyXWMxW2NIXWMoW0NIM10pW25IXW4x

> <s_epik_cmdline>
J2VwaWtfcHl0aG9uJywgJy1waCcsICc3LjAnLCAnLXRuJywgJzgnLCAnLW1hJywgJzIwMCcsICctbWV0YWxfYmluZGluZycsICctaW1hZScsICc8aW5maWxlLm1hZT4nLCAnLW9tYWUnLCAnPG91dGZpbGUubWFlPic=

> <r_lp_tautomer_probability>
0.5

> <r_epik_Ionization_Penalty>
0.000125824

> <r_epik_Ionization_Penalty_Charging>
0

> <r_epik_Ionization_Penalty_Neutral>
0.000125824

> <r_epik_State_Penalty>
0.41068

> <r_epik_Charging_Adjusted_Penalty>
0.41068

> <i_epik_Tot_Q>
0

> <i_epik_Tot_abs_Q>
0

> <r_epik_Metal_State_Penalty>
0.410657

> <b_epik_Metal_Only>
0

> <s_lp_Force_Field>
OPLS_2005

> <r_lp_Energy>
5.55187

> <b_lp_Chiralities_Consistent>
1

> <s_lp_Variant>
AV-unprocessed.smi:3178-2

> <Gold.Version>
5.8.1

> <Gold.Id.Protein>
6NUR|6NUR_protein|mol2

> <Gold.PLP.Fitness>
32.0172

> <Gold.PLP.PLP>
-23.4551

> <Gold.PLP.part.hbond>
-3.0000

> <Gold.PLP.part.metal>
0.0000

> <Gold.PLP.part.buried>
-4.1386

> <Gold.PLP.part.nonpolar>
-16.6519

> <Gold.PLP.part.repulsive>
0.3277

> <Gold.PLP.ligand.clash>
0.0000

> <Gold.PLP.ligand.torsion>
0.2358

> <Gold.PLP.Chemscore.Hbond>
3.0000

> <Gold.PLP.Chemscore.CHOScore>
0.0000

> <Gold.PLP.Chemscore.Metal>
0.0000

> <Gold.Chemscore.Hbonds>
donor molecule, donor type, donor heavy atom, donor atom, acceptor molecule, acceptor atom, score
      P1  H  6896  6908       L1     9  1.00
      P1  H  6934  6947       L1     2  1.00
      P1  H 10752 10764       L1    15  1.00

> <Gold.PLP.Chemscore.Internal.Correction>
0.0338

> <Gold.Rescore>
     Score         DG    S(hbond)    S(metal)    S(lipo)     H(rot)  DE(clash)    DE(int)     intcor
     15.48     -15.98       2.59        0.00      57.15       1.89       0.04       0.45       ----

> <Gold.Chemscore.Fitness>
15.4806

> <Gold.Chemscore.DG>
-15.9793

> <Gold.Chemscore.ZeroCoef>
-5.4800

> <Gold.Chemscore.Hbond>
2.5884

> <Gold.Chemscore.Metal>
0.0000

> <Gold.Chemscore.Lipo>
57.1500

> <Gold.Chemscore.Internal_Hbond>
0.0000

> <Gold.Chemscore.DEClash>
0.0441

> <Gold.Chemscore.DEInternal>
0.4546

> <Gold.Chemscore.Rot>
1.8877

> <Gold.Chemscore.Internal.Correction>
   9.000000E+99

> <Gold.Chemscore.Hbonds>
donor molecule, donor type, donor heavy atom, donor atom, acceptor molecule, acceptor atom, score
      P1  H  6896  6908       L1     9  0.32
      P1  H  6934  6947       L1     2  0.24
      P1  H 10752 10764       L1    15  0.89

> <Gold.Chemscore.Hbond.Weighted>
-8.6453

> <Gold.Chemscore.Metal.Weighted>
-0.0000

> <Gold.Chemscore.Lipo.Weighted>
-6.6865

> <Gold.Chemscore.Internal_Hbond.Weighted>
0.0000

> <Gold.Chemscore.DEClash.Weighted>
0.0441

> <Gold.Chemscore.DEInternal.Weighted>
0.4546

> <Gold.Chemscore.Rot.Weighted>
4.8325

> <Gold.Chemscore.Internal.Correction.Weighted>
   9.000000E+99

> <Gold.Protein.RotatedTorsions>
[ 6907 6896 6895 6894 ] final  128.11 input  -60.11 | X-H torsion
[ 7974 7965 7964 7962 ] final    4.28 input  175.53 | X-H torsion
[ 8008 7997 7996 7995 ] final   98.73 input   59.86 | X-H torsion
[ 10167 10162 10161 10158 ] final  -90.32 input  -65.29 | X-H torsion
[ 10718 10713 10712 10709 ] final -173.72 input   66.30 | X-H torsion
[ 10763 10752 10751 10750 ] final  -63.35 input  -60.55 | X-H torsion
[ 11005 11000 10999 10996 ] final  -19.09 input  -57.11 | X-H torsion

> <Gold.Protein.ActiveResidues>
 VAL166  LYS551  ARG553  GLY616  TRP617  ASP618  TYR619  PRO620  LYS621  CYS622 
 ASP623  PHE694  ASN695  SER759  ASP760  ASP761  ALA762  ILE779  LEU786  VAL792 
 PHE793  MET794  SER795  GLU796  ALA797  LYS798  CYS799  TRP800  GLU811  SER814 

> <Gold.Protein.RotatedAtoms>
  152.3750  133.6469  159.6116 H   0  0  0  0  0  0  0  0  0  0  0  0  # atno 6907 bound_to 6896
  150.7697  133.9207  159.3406 H   0  0  0  0  0  0  0  0  0  0  0  0  # atno 6908 bound_to 6896
  151.7023  135.0929  160.0304 H   0  0  0  0  0  0  0  0  0  0  0  0  # atno 6909 bound_to 6896
  146.2444  140.0558  142.8372 H   0  0  0  0  0  0  0  0  0  0  0  0  # atno 7974 bound_to 7965
  156.1034  140.3239  155.7973 H   0  0  0  0  0  0  0  0  0  0  0  0  # atno 8008 bound_to 7997
  155.4798  140.0553  157.2986 H   0  0  0  0  0  0  0  0  0  0  0  0  # atno 8009 bound_to 7997
  154.4712  140.2012  156.0006 H   0  0  0  0  0  0  0  0  0  0  0  0  # atno 8010 bound_to 7997
  140.3561  143.2866  151.9670 H   0  0  0  0  0  0  0  0  0  0  0  0  # atno 10167 bound_to 10162
  156.7745  130.9460  151.3120 H   0  0  0  0  0  0  0  0  0  0  0  0  # atno 10718 bound_to 10713
  154.3136  135.6210  153.5476 H   0  0  0  0  0  0  0  0  0  0  0  0  # atno 10763 bound_to 10752
  152.9827  135.5707  154.5149 H   0  0  0  0  0  0  0  0  0  0  0  0  # atno 10764 bound_to 10752
  154.4803  135.2863  155.1552 H   0  0  0  0  0  0  0  0  0  0  0  0  # atno 10765 bound_to 10752
  140.8332  133.7981  155.9781 H   0  0  0  0  0  0  0  0  0  0  0  0  # atno 11005 bound_to 11000
  145.0944  140.9305  143.4750 LP  0  0  0  0  0  0  0  0  0  0  0  0  # atno 17320 bound_to 7965
  145.0737  139.3012  143.5819 LP  0  0  0  0  0  0  0  0  0  0  0  0  # atno 17321 bound_to 7965
  139.4820  144.6034  151.7565 LP  0  0  0  0  0  0  0  0  0  0  0  0  # atno 17342 bound_to 10162
  140.5173  144.0934  150.6012 LP  0  0  0  0  0  0  0  0  0  0  0  0  # atno 17343 bound_to 10162
  157.6676  130.9021  149.9966 LP  0  0  0  0  0  0  0  0  0  0  0  0  # atno 17370 bound_to 10713
  156.1257  130.3644  149.9813 LP  0  0  0  0  0  0  0  0  0  0  0  0  # atno 17371 bound_to 10713
  140.8975  134.2419  157.5060 LP  0  0  0  0  0  0  0  0  0  0  0  0  # atno 17394 bound_to 11000
  139.8704  134.9691  156.4654 LP  0  0  0  0  0  0  0  0  0  0  0  0  # atno 17395 bound_to 11000

$$$$
