#       Name:                AV-unprocessed.smi:1648
#       Creating user name   scv26
#       Creation time:       Fri Mar 27 07:32:35 2020


#       File generated by GOLD software.
#

@<TRIPOS>MOLECULE
AV-unprocessed.smi:1648
    46    46     1
SMALL
NO_CHARGES


@<TRIPOS>ATOM
      1 ****        -1.9937   0.4275  -2.1656 C.3            1 S1                 0.0000
      2 ****        -1.7195  -1.0624  -1.9521 C.2            1 S1                 0.0000
      3 ****        -1.7051  -1.8170  -2.9215 O.2            1 S1                 0.0000
      4 ****        -1.5018  -1.5208  -0.7073 N.am           1 S1                 0.0000
      5 ****        -1.2245  -2.9022  -0.3056 C.3            1 S1                 0.0000
      6 ****        -2.5814  -3.5856  -0.0571 C.2            1 S1                 0.0000
      7 ****        -3.3778  -3.1124   0.7550 O.2            1 S1                 0.0000
      8 ****        -2.8343  -4.6900  -0.7774 N.am           1 S1                 0.0000
      9 ****        -4.0731  -5.4663  -0.7403 C.3            1 S1                 0.0000
     10 ****        -3.7306  -6.9534  -0.9002 C.3            1 S1                 0.0000
     11 ****        -5.0556  -4.9965  -1.8367 C.3            1 S1                 0.0000
     12 ****        -5.5459  -3.6294  -1.6236 N.pl3          1 S1                 0.0000
     13 ****        -6.3885  -3.1941  -0.6327 C.2            1 S1                 0.0000
     14 ****        -6.5517  -1.8460  -0.8221 C.2            1 S1                 0.0000
     15 ****        -5.8121  -1.5170  -1.9260 N.pl3          1 S1                 1.0000
     16 ****        -5.2106  -2.6044  -2.4185 C.2            1 S1                 0.0000
     17 ****        -0.3854  -2.8887   1.0058 C.3            1 S1                 0.0000
     18 ****         0.9431  -2.1283   0.8265 C.3            1 S1                 0.0000
     19 ****        -0.0879  -4.3049   1.5416 C.3            1 S1                 0.0000
     20 ****        -2.9503   0.7046  -1.7220 H              1 S1                 0.0000
     21 ****        -2.0361   0.6613  -3.2299 H              1 S1                 0.0000
     22 ****        -1.2125   1.0423  -1.7198 H              1 S1                 0.0000
     23 ****        -1.5863  -0.8534   0.0458 H              1 S1                 0.0000
     24 ****        -0.6663  -3.4313  -1.0800 H              1 S1                 0.0000
     25 ****        -2.1171  -5.0117  -1.4115 H              1 S1                 0.0000
     26 ****        -4.5498  -5.3505   0.2348 H              1 S1                 0.0000
     27 ****        -4.6276  -7.5708  -0.8435 H              1 S1                 0.0000
     28 ****        -3.0529  -7.2873  -0.1136 H              1 S1                 0.0000
     29 ****        -3.2512  -7.1513  -1.8595 H              1 S1                 0.0000
     30 ****        -4.5927  -5.0535  -2.8235 H              1 S1                 0.0000
     31 ****        -5.9310  -5.6465  -1.8615 H              1 S1                 0.0000
     32 ****        -6.7892  -3.8566   0.1207 H              1 S1                 0.0000
     33 ****        -7.1232  -1.1155  -0.2682 H              1 S1                 0.0000
     34 ****        -4.5704  -2.6414  -3.2814 H              1 S1                 0.0000
     35 ****        -0.9499  -2.3630   1.7781 H              1 S1                 0.0000
     36 ****         1.5537  -2.5795   0.0437 H              1 S1                 0.0000
     37 ****         1.5274  -2.1360   1.7472 H              1 S1                 0.0000
     38 ****         0.7833  -1.0829   0.5623 H              1 S1                 0.0000
     39 ****         0.4422  -4.9041   0.8004 H              1 S1                 0.0000
     40 ****        -0.9963  -4.8412   1.8163 H              1 S1                 0.0000
     41 ****         0.5336  -4.2620   2.4365 H              1 S1                 0.0000
     42 ****        -5.7313  -0.5860  -2.3159 H              1 S1                 0.0000
     43 ****        -1.8716  -1.4557  -3.8390 LP             1 S1                 0.0000
     44 ****        -1.5268  -2.7926  -2.7932 LP             1 S1                 0.0000
     45 ****        -3.1445  -2.2797   1.2572 LP             1 S1                 0.0000
     46 ****        -4.2577  -3.5609   0.9120 LP             1 S1                 0.0000
@<TRIPOS>BOND
    1    1    2 1     
    2    1   20 1     
    3    1   21 1     
    4    1   22 1     
    5    2    3 2     
    6    2    4 am    
    7    4    5 1     
    8    4   23 1     
    9    5    6 1     
   10    5   17 1     
   11    5   24 1     
   12    6    7 2     
   13    6    8 am    
   14    8    9 1     
   15    8   25 1     
   16    9   10 1     
   17    9   11 1     
   18    9   26 1     
   19   10   27 1     
   20   10   28 1     
   21   10   29 1     
   22   11   12 1     
   23   11   30 1     
   24   11   31 1     
   25   12   16 1     
   26   12   13 1     
   27   13   14 2     
   28   13   32 1     
   29   14   15 1     
   30   14   33 1     
   31   15   16 2     
   32   15   42 1     
   33   16   34 1     
   34   17   18 1     
   35   17   19 1     
   36   17   35 1     
   37   18   36 1     
   38   18   37 1     
   39   18   38 1     
   40   19   39 1     
   41   19   40 1     
   42   19   41 1     
   43    3   43 1     
   44    3   44 1     
   45    7   45 1     
   46    7   46 1     
@<TRIPOS>SUBSTRUCTURE
      1 S1             1
@<TRIPOS>SET
LONE_PAIRS      STATIC     ATOMS    <user>   **** ""
4 43 44 45 46
DONOR_HYDROGENS      STATIC     ATOMS    <user>   **** ""
3 23 25 42
ATOM$BLUE        STATIC     ATOMS    COLORGROUP SYSTEM
4 43 44 45 46
ATOM$RED        STATIC     ATOMS    COLORGROUP SYSTEM
3 23 25 42
