#       Name:                AV-unprocessed.smi:1794
#       Creating user name   scv26
#       Creation time:       Fri Mar 27 08:47:59 2020


#       File generated by GOLD software.
#

@<TRIPOS>MOLECULE
AV-unprocessed.smi:1794
    61    63     1
SMALL
NO_CHARGES


@<TRIPOS>ATOM
      1 ****        -2.0078  -0.8962   4.4211 C.3            1 S1                 0.0000
      2 ****        -1.4556  -0.3320   3.0902 C.3            1 S1                 0.0000
      3 ****        -1.9046   1.1498   3.0008 C.3            1 S1                 0.0000
      4 ****         0.0980  -0.3123   3.2020 C.3            1 S1                 0.0000
      5 ****         0.7313   0.2333   2.0019 N.am           1 S1                 0.0000
      6 ****         1.5035  -0.4459   1.1429 C.2            1 S1                 0.0000
      7 ****         1.8567  -1.6131   1.3090 O.2            1 S1                 0.0000
      8 ****         1.8095   0.3054   0.0731 N.am           1 S1                 0.0000
      9 ****         2.4985  -0.1006  -1.1035 C.ar           1 S1                 0.0000
     10 ****         3.5649  -1.0341  -1.0622 C.ar           1 S1                 0.0000
     11 ****         4.2196  -1.4002  -2.2539 C.ar           1 S1                 0.0000
     12 ****         3.8047  -0.8204  -3.4663 C.ar           1 S1                 0.0000
     13 ****         2.7968   0.0768  -3.4692 N.pl3          1 S1                 1.0000
     14 ****         2.1293   0.4642  -2.3542 C.ar           1 S1                 0.0000
     15 ****         1.1050   1.4269  -2.4699 N.3            1 S1                 0.0000
     16 ****         1.4667   2.7437  -1.9519 C.3            1 S1                 0.0000
     17 ****         0.8142   3.7695  -2.8814 C.3            1 S1                 0.0000
     18 ****         0.7053   3.0186  -4.2029 C.3            1 S1                 0.0000
     19 ****         0.4099   1.5917  -3.7454 C.3            1 S1                 0.0000
     20 ****        -1.9084  -1.1053   1.8998 N.3            1 S1                 0.0000
     21 ****        -3.3468  -1.0352   1.6193 C.3            1 S1                 0.0000
     22 ****        -3.7135  -1.7504   0.3068 C.3            1 S1                 0.0000
     23 ****        -3.2725  -3.1024   0.3512 O.3            1 S1                 0.0000
     24 ****        -1.8716  -3.2116   0.5720 C.3            1 S1                 0.0000
     25 ****        -1.5055  -2.5166   1.8931 C.3            1 S1                 0.0000
     26 ****        -1.6833  -0.2897   5.2675 H              1 S1                 0.0000
     27 ****        -1.6601  -1.9112   4.6129 H              1 S1                 0.0000
     28 ****        -3.0973  -0.9094   4.4425 H              1 S1                 0.0000
     29 ****        -1.4319   1.7590   3.7720 H              1 S1                 0.0000
     30 ****        -2.9793   1.2632   3.1442 H              1 S1                 0.0000
     31 ****        -1.6535   1.5926   2.0362 H              1 S1                 0.0000
     32 ****         0.4027   0.3188   4.0378 H              1 S1                 0.0000
     33 ****         0.4927  -1.2984   3.4488 H              1 S1                 0.0000
     34 ****         0.5027   1.1900   1.7753 H              1 S1                 0.0000
     35 ****         1.3769   1.2164   0.0338 H              1 S1                 0.0000
     36 ****         3.8974  -1.4677  -0.1310 H              1 S1                 0.0000
     37 ****         5.0314  -2.1125  -2.2359 H              1 S1                 0.0000
     38 ****         4.2500  -1.0389  -4.4260 H              1 S1                 0.0000
     39 ****         1.1262   2.8702  -0.9237 H              1 S1                 0.0000
     40 ****         2.5511   2.8680  -1.9633 H              1 S1                 0.0000
     41 ****        -0.1834   4.0178  -2.5164 H              1 S1                 0.0000
     42 ****         1.3855   4.6949  -2.9604 H              1 S1                 0.0000
     43 ****        -0.0634   3.4215  -4.8628 H              1 S1                 0.0000
     44 ****         1.6598   3.0519  -4.7302 H              1 S1                 0.0000
     45 ****         0.6750   0.8580  -4.5066 H              1 S1                 0.0000
     46 ****        -0.6581   1.4777  -3.5558 H              1 S1                 0.0000
     47 ****        -3.9134  -1.4819   2.4365 H              1 S1                 0.0000
     48 ****        -3.6768  -0.0017   1.5320 H              1 S1                 0.0000
     49 ****        -4.7928  -1.7334   0.1555 H              1 S1                 0.0000
     50 ****        -3.2627  -1.2428  -0.5474 H              1 S1                 0.0000
     51 ****        -1.5986  -4.2660   0.6100 H              1 S1                 0.0000
     52 ****        -1.3254  -2.7680  -0.2620 H              1 S1                 0.0000
     53 ****        -0.4340  -2.6224   2.0419 H              1 S1                 0.0000
     54 ****        -1.9883  -3.0495   2.7126 H              1 S1                 0.0000
     55 ****         2.5241   0.4896  -4.3614 H              1 S1                 0.0000
     56 ****         1.5658  -2.1122   2.1253 LP             1 S1                 0.0000
     57 ****         2.4346  -2.0624   0.6277 LP             1 S1                 0.0000
     58 ****         0.4319   0.9789  -1.8814 LP             1 S1                 0.0000
     59 ****        -1.4214  -0.6270   1.1690 LP             1 S1                 0.0000
     60 ****        -3.4951  -3.5410  -0.5195 LP             1 S1                 0.0000
     61 ****        -3.7516  -3.5718   1.0930 LP             1 S1                 0.0000
@<TRIPOS>BOND
    1    1    2 1     
    2    1   26 1     
    3    1   27 1     
    4    1   28 1     
    5    2    3 1     
    6    2    4 1     
    7    2   20 1     
    8    3   29 1     
    9    3   30 1     
   10    3   31 1     
   11    4    5 1     
   12    4   32 1     
   13    4   33 1     
   14    5    6 am    
   15    5   34 1     
   16    6    7 2     
   17    6    8 am    
   18    8    9 1     
   19    8   35 1     
   20    9   14 ar    
   21    9   10 ar    
   22   10   11 ar    
   23   10   36 1     
   24   11   12 ar    
   25   11   37 1     
   26   12   13 ar    
   27   12   38 1     
   28   13   14 ar    
   29   13   55 1     
   30   14   15 1     
   31   15   19 1     
   32   15   16 1     
   33   16   17 1     
   34   16   39 1     
   35   16   40 1     
   36   17   18 1     
   37   17   41 1     
   38   17   42 1     
   39   18   19 1     
   40   18   43 1     
   41   18   44 1     
   42   19   45 1     
   43   19   46 1     
   44   20   25 1     
   45   20   21 1     
   46   21   22 1     
   47   21   47 1     
   48   21   48 1     
   49   22   23 1     
   50   22   49 1     
   51   22   50 1     
   52   23   24 1     
   53   24   25 1     
   54   24   51 1     
   55   24   52 1     
   56   25   53 1     
   57   25   54 1     
   58    7   56 1     
   59    7   57 1     
   60   15   58 1     
   61   20   59 1     
   62   23   60 1     
   63   23   61 1     
@<TRIPOS>SUBSTRUCTURE
      1 S1             1
@<TRIPOS>SET
LONE_PAIRS      STATIC     ATOMS    <user>   **** ""
6 56 57 58 59 60 61
DONOR_HYDROGENS      STATIC     ATOMS    <user>   **** ""
3 34 35 55
ATOM$BLUE        STATIC     ATOMS    COLORGROUP SYSTEM
6 56 57 58 59 60 61
ATOM$RED        STATIC     ATOMS    COLORGROUP SYSTEM
3 34 35 55
