AV-unprocessed.smi:240|AV-procd|sdf|1830|dock9
  -GOLD-   2262020433D 1   1.00000     0.00000
 Structure written by MMmdl.
 55 59  0  0  0  0  0  0  0  0  1 V2000
  149.1438  138.5464  153.2956 O   0  0  0  0  0  0  0  0  0  0  0  0
  148.2245  138.8750  154.3212 C   0  0  2  0  0  0  0  0  0  0  0  0
  147.1044  139.7272  153.7154 C   0  0  0  0  0  0  0  0  0  0  0  0
  147.5699  141.1832  153.8313 C   0  0  0  0  0  0  0  0  0  0  0  0
  148.8423  141.1588  154.6869 C   0  0  0  0  0  0  0  0  0  0  0  0
  148.8712  139.7872  155.3875 C   0  0  2  0  0  0  0  0  0  0  0  0
  150.2657  139.3630  155.9626 C   0  0  1  0  0  0  0  0  0  0  0  0
  151.1782  140.6055  156.1439 C   0  0  0  0  0  0  0  0  0  0  0  0
  152.4352  140.2493  156.7054 O   0  0  0  0  0  0  0  0  0  0  0  0
  152.2911  139.6870  158.0000 C   0  0  0  0  0  0  0  0  0  0  0  0
  151.4766  138.3960  157.8767 C   0  0  0  0  0  0  0  0  0  0  0  0
  150.1815  138.6663  157.2586 N   0  0  0  0  0  0  0  0  0  0  0  0
  149.4008  137.5665  157.3223 C   0  0  0  0  0  0  0  0  0  0  0  0
  149.0546  136.9864  156.1471 N   0  0  0  0  0  0  0  0  0  0  0  0
  148.2919  135.8890  156.1447 C   0  0  0  0  0  0  0  0  0  0  0  0
  147.7782  135.2264  157.1836 N   0  0  0  0  0  0  0  0  0  0  0  0
  148.1123  135.8185  158.3662 C   0  0  0  0  0  0  0  0  0  0  0  0
  148.9100  136.9859  158.5260 C   0  0  0  0  0  0  0  0  0  0  0  0
  149.0384  137.2932  159.8749 N   0  0  0  0  0  0  0  0  0  0  0  0
  148.3590  136.3567  160.4790 C   0  0  0  0  0  0  0  0  0  0  0  0
  147.7677  135.4305  159.6492 N   0  0  0  0  0  0  0  0  0  0  0  0
  146.9659  134.2868  160.0568 C   0  0  0  0  0  0  0  0  0  0  0  0
  145.8604  134.6400  161.0785 C   0  0  1  0  0  0  0  0  0  0  0  0
  145.0501  135.6729  160.5436 O   0  0  0  0  0  0  0  0  0  0  0  0
  144.9635  133.4659  161.4602 C   0  0  0  0  0  0  0  0  0  0  0  0
  144.5897  133.7786  162.9023 C   0  0  0  0  0  0  0  0  0  0  0  0
  145.7988  134.2961  163.4299 O   0  0  0  0  0  0  0  0  0  0  0  0
  146.4141  135.1120  162.4380 C   0  0  0  0  0  0  0  0  0  0  0  0
  148.9224  137.6929  152.9545 H   0  0  0  0  0  0  0  0  0  0  0  0
  147.8125  137.9567  154.7355 H   0  0  0  0  0  0  0  0  0  0  0  0
  146.8627  139.4441  152.6899 H   0  0  0  0  0  0  0  0  0  0  0  0
  146.1956  139.5964  154.3045 H   0  0  0  0  0  0  0  0  0  0  0  0
  147.7744  141.6150  152.8510 H   0  0  0  0  0  0  0  0  0  0  0  0
  146.7959  141.7912  154.3012 H   0  0  0  0  0  0  0  0  0  0  0  0
  149.7111  141.2600  154.0348 H   0  0  0  0  0  0  0  0  0  0  0  0
  148.8644  141.9889  155.3939 H   0  0  0  0  0  0  0  0  0  0  0  0
  148.1761  139.8545  156.2265 H   0  0  0  0  0  0  0  0  0  0  0  0
  150.7612  138.7022  155.2509 H   0  0  0  0  0  0  0  0  0  0  0  0
  151.3863  141.0802  155.1856 H   0  0  0  0  0  0  0  0  0  0  0  0
  150.6939  141.3563  156.7709 H   0  0  0  0  0  0  0  0  0  0  0  0
  153.2787  139.4731  158.4084 H   0  0  0  0  0  0  0  0  0  0  0  0
  151.8093  140.3959  158.6753 H   0  0  0  0  0  0  0  0  0  0  0  0
  152.0316  137.6728  157.2780 H   0  0  0  0  0  0  0  0  0  0  0  0
  151.3362  137.9556  158.8651 H   0  0  0  0  0  0  0  0  0  0  0  0
  148.0619  135.4822  155.1710 H   0  0  0  0  0  0  0  0  0  0  0  0
  148.2679  136.3159  161.5549 H   0  0  0  0  0  0  0  0  0  0  0  0
  146.5240  133.8432  159.1636 H   0  0  0  0  0  0  0  0  0  0  0  0
  147.6348  133.5319  160.4725 H   0  0  0  0  0  0  0  0  0  0  0  0
  144.8806  135.4796  159.6341 H   0  0  0  0  0  0  0  0  0  0  0  0
  144.0994  133.3381  160.8068 H   0  0  0  0  0  0  0  0  0  0  0  0
  145.5326  132.5358  161.4445 H   0  0  0  0  0  0  0  0  0  0  0  0
  143.8087  134.5389  162.9514 H   0  0  0  0  0  0  0  0  0  0  0  0
  144.2544  132.8993  163.4528 H   0  0  0  0  0  0  0  0  0  0  0  0
  147.4964  134.9971  162.5072 H   0  0  0  0  0  0  0  0  0  0  0  0
  146.1854  136.1608  162.6338 H   0  0  0  0  0  0  0  0  0  0  0  0
  1  2  1  0  0  0  0
  1 29  1  0  0  0  0
  2  6  1  0  0  0  0
  2  3  1  0  0  0  0
  2 30  1  0  0  0  0
  3  4  1  0  0  0  0
  3 31  1  0  0  0  0
  3 32  1  0  0  0  0
  4  5  1  0  0  0  0
  4 33  1  0  0  0  0
  4 34  1  0  0  0  0
  5  6  1  0  0  0  0
  5 35  1  0  0  0  0
  5 36  1  0  0  0  0
  6  7  1  0  0  0  0
  6 37  1  0  0  0  0
  7 12  1  0  0  0  0
  7  8  1  0  0  0  0
  7 38  1  0  0  0  0
  8  9  1  0  0  0  0
  8 39  1  0  0  0  0
  8 40  1  0  0  0  0
  9 10  1  0  0  0  0
 10 11  1  0  0  0  0
 10 41  1  0  0  0  0
 10 42  1  0  0  0  0
 11 12  1  0  0  0  0
 11 43  1  0  0  0  0
 11 44  1  0  0  0  0
 12 13  1  0  0  0  0
 13 18  1  0  0  0  0
 13 14  2  0  0  0  0
 14 15  1  0  0  0  0
 15 16  2  0  0  0  0
 15 45  1  0  0  0  0
 16 17  1  0  0  0  0
 17 21  1  0  0  0  0
 17 18  2  0  0  0  0
 18 19  1  0  0  0  0
 19 20  2  0  0  0  0
 20 21  1  0  0  0  0
 20 46  1  0  0  0  0
 21 22  1  0  0  0  0
 22 23  1  0  0  0  0
 22 47  1  0  0  0  0
 22 48  1  0  0  0  0
 23 28  1  0  0  0  0
 23 24  1  0  0  0  0
 23 25  1  0  0  0  0
 24 49  1  0  0  0  0
 25 26  1  0  0  0  0
 25 50  1  0  0  0  0
 25 51  1  0  0  0  0
 26 27  1  0  0  0  0
 26 52  1  0  0  0  0
 26 53  1  0  0  0  0
 27 28  1  0  0  0  0
 28 54  1  0  0  0  0
 28 55  1  0  0  0  0
M  END
> <s_m_source_file>
AV-unprocessed.smi

> <i_m_source_file_index>
240

> <i_lp_mmshare_version>
43012

> <i_f3d_flags>
0

> <s_epik_input>
W09IXVtDQEBIXTFbQ0gyXVtDSDJdW0NIMl1bQ0BIXTFbQ0BASF0yW0NIMl1PW0NIMl1bQ0gyXU4yYyhuW2NIXW4zKWMoYzM0KW5bY0hdbjRbQ0gyXVtDQEBdNShbT0hdKVtDSDJdW0NIMl1PW0NIMl01

> <s_epik_cmdline>
J2VwaWtfcHl0aG9uJywgJy1waCcsICc3LjAnLCAnLXRuJywgJzgnLCAnLW1hJywgJzIwMCcsICctbWV0YWxfYmluZGluZycsICctaW1hZScsICc8aW5maWxlLm1hZT4nLCAnLW9tYWUnLCAnPG91dGZpbGUubWFlPic=

> <r_lp_tautomer_probability>
1

> <r_epik_Ionization_Penalty>
0.000130618

> <r_epik_Ionization_Penalty_Charging>
0

> <r_epik_Ionization_Penalty_Neutral>
0.000130618

> <r_epik_State_Penalty>
-0

> <r_epik_Charging_Adjusted_Penalty>
0

> <i_epik_Tot_Q>
0

> <i_epik_Tot_abs_Q>
0

> <r_epik_Metal_State_Penalty>
-0

> <b_epik_Metal_Only>
0

> <s_lp_Force_Field>
OPLS_2005

> <r_lp_Energy>
63.9037

> <b_lp_Chiralities_Consistent>
1

> <s_lp_Variant>
AV-unprocessed.smi:240-7

> <Gold.Version>
5.8.1

> <Gold.Id.Protein>
6NUR|6NUR_protein|mol2

> <Gold.PLP.Fitness>
38.8221

> <Gold.PLP.PLP>
-35.4346

> <Gold.PLP.part.hbond>
-5.0000

> <Gold.PLP.part.metal>
0.0000

> <Gold.PLP.part.buried>
-2.5332

> <Gold.PLP.part.nonpolar>
-28.1069

> <Gold.PLP.part.repulsive>
0.0759

> <Gold.PLP.ligand.clash>
0.0000

> <Gold.PLP.ligand.torsion>
1.4947

> <Gold.PLP.Chemscore.Hbond>
2.0183

> <Gold.PLP.Chemscore.CHOScore>
0.0000

> <Gold.PLP.Chemscore.Metal>
0.0000

> <Gold.Chemscore.Hbonds>
donor molecule, donor type, donor heavy atom, donor atom, acceptor molecule, acceptor atom, score
      L1  H     1    29       P1  7948  1.00
      P1  H  6931  6943       L1    19  0.05
      P1  H  7997  8009       L1     9  0.95

> <Gold.PLP.Chemscore.Internal.Correction>
0.3219

> <Gold.Rescore>
     Score         DG    S(hbond)    S(metal)    S(lipo)     H(rot)  DE(clash)    DE(int)     intcor
      8.96     -12.93       1.94        0.00      73.90       3.00       0.00       3.97       ----

> <Gold.Chemscore.Fitness>
8.9641

> <Gold.Chemscore.DG>
-12.9298

> <Gold.Chemscore.ZeroCoef>
-5.4800

> <Gold.Chemscore.Hbond>
1.9440

> <Gold.Chemscore.Metal>
0.0000

> <Gold.Chemscore.Lipo>
73.9047

> <Gold.Chemscore.Internal_Hbond>
0.0000

> <Gold.Chemscore.DEClash>
0.0000

> <Gold.Chemscore.DEInternal>
3.9658

> <Gold.Chemscore.Rot>
3.0039

> <Gold.Chemscore.Internal.Correction>
   9.000000E+99

> <Gold.Chemscore.Hbonds>
donor molecule, donor type, donor heavy atom, donor atom, acceptor molecule, acceptor atom, score
      L1  H     1    29       P1  7948  0.99
      P1  H  7997  8009       L1     9  0.21

> <Gold.Chemscore.Hbond.Weighted>
-6.4929

> <Gold.Chemscore.Metal.Weighted>
-0.0000

> <Gold.Chemscore.Lipo.Weighted>
-8.6468

> <Gold.Chemscore.Internal_Hbond.Weighted>
0.0000

> <Gold.Chemscore.DEClash.Weighted>
0.0000

> <Gold.Chemscore.DEInternal.Weighted>
3.9658

> <Gold.Chemscore.Rot.Weighted>
7.6899

> <Gold.Chemscore.Internal.Correction.Weighted>
   9.000000E+99

> <Gold.Protein.RotatedTorsions>
[ 6907 6896 6895 6894 ] final  -46.71 input  -60.11 | X-H torsion
[ 7974 7965 7964 7962 ] final  106.74 input  175.53 | X-H torsion
[ 8008 7997 7996 7995 ] final -174.32 input   59.86 | X-H torsion
[ 10167 10162 10161 10158 ] final  -50.35 input  -65.29 | X-H torsion
[ 10718 10713 10712 10709 ] final   -3.47 input   66.30 | X-H torsion
[ 10763 10752 10751 10750 ] final  179.33 input  -60.55 | X-H torsion
[ 11005 11000 10999 10996 ] final   13.16 input  -57.11 | X-H torsion

> <Gold.Protein.ActiveResidues>
 VAL166  LYS551  ARG553  GLY616  TRP617  ASP618  TYR619  PRO620  LYS621  CYS622 
 ASP623  PHE694  ASN695  SER759  ASP760  ASP761  ALA762  ILE779  LEU786  VAL792 
 PHE793  MET794  SER795  GLU796  ALA797  LYS798  CYS799  TRP800  GLU811  SER814 

> <Gold.Protein.RotatedAtoms>
  150.9084  134.8500  159.7407 H   0  0  0  0  0  0  0  0  0  0  0  0  # atno 6907 bound_to 6896
  152.4931  134.4397  159.9549 H   0  0  0  0  0  0  0  0  0  0  0  0  # atno 6908 bound_to 6896
  151.4441  133.3596  159.2821 H   0  0  0  0  0  0  0  0  0  0  0  0  # atno 6909 bound_to 6896
  145.3026  139.2565  143.3805 H   0  0  0  0  0  0  0  0  0  0  0  0  # atno 7974 bound_to 7965
  155.9687  140.1158  157.0832 H   0  0  0  0  0  0  0  0  0  0  0  0  # atno 8008 bound_to 7997
  154.4150  140.1167  156.5344 H   0  0  0  0  0  0  0  0  0  0  0  0  # atno 8009 bound_to 7997
  155.6626  140.3473  155.4790 H   0  0  0  0  0  0  0  0  0  0  0  0  # atno 8010 bound_to 7997
  140.6641  143.2661  151.4347 H   0  0  0  0  0  0  0  0  0  0  0  0  # atno 10167 bound_to 10162
  156.7755  130.5314  149.5760 H   0  0  0  0  0  0  0  0  0  0  0  0  # atno 10718 bound_to 10713
  154.5193  135.2793  155.1276 H   0  0  0  0  0  0  0  0  0  0  0  0  # atno 10763 bound_to 10752
  154.2840  135.6280  153.5362 H   0  0  0  0  0  0  0  0  0  0  0  0  # atno 10764 bound_to 10752
  152.9933  135.5658  154.5677 H   0  0  0  0  0  0  0  0  0  0  0  0  # atno 10765 bound_to 10752
  140.4838  134.0909  155.7756 H   0  0  0  0  0  0  0  0  0  0  0  0  # atno 11005 bound_to 11000
  146.3146  140.3544  142.8659 LP  0  0  0  0  0  0  0  0  0  0  0  0  # atno 17320 bound_to 7965
  144.9081  140.7724  143.5825 LP  0  0  0  0  0  0  0  0  0  0  0  0  # atno 17321 bound_to 7965
  139.5884  144.1552  152.2058 LP  0  0  0  0  0  0  0  0  0  0  0  0  # atno 17342 bound_to 10162
  140.0899  144.5629  150.7062 LP  0  0  0  0  0  0  0  0  0  0  0  0  # atno 17343 bound_to 10162
  156.1251  130.6138  151.0251 LP  0  0  0  0  0  0  0  0  0  0  0  0  # atno 17370 bound_to 10713
  157.6671  131.0869  150.7702 LP  0  0  0  0  0  0  0  0  0  0  0  0  # atno 17371 bound_to 10713
  141.1518  133.8955  157.2078 LP  0  0  0  0  0  0  0  0  0  0  0  0  # atno 17394 bound_to 11000
  139.9810  135.0098  156.9750 LP  0  0  0  0  0  0  0  0  0  0  0  0  # atno 17395 bound_to 11000

$$$$
