AV-unprocessed.smi:97|AV-procd|sdf|861|dock9
  -GOLD-   2262017313D 1   1.00000     0.00000
 Structure written by MMmdl.
 46 49  0  0  0  0  0  0  0  0  1 V2000
  147.6584  140.2309  155.2215 O   0  0  0  0  0  0  0  0  0  0  0  0
  148.1741  141.3476  155.2926 C   0  0  0  0  0  0  0  0  0  0  0  0
  149.6575  141.5597  154.9543 C   0  0  0  0  0  0  0  0  0  0  0  0
  150.5765  140.8688  155.8852 N   0  0  0  0  0  0  0  0  0  0  0  0
  151.3129  139.7568  155.4057 C   0  0  0  0  0  0  0  0  0  0  0  0
  151.1802  139.3539  154.2489 O   0  0  0  0  0  0  0  0  0  0  0  0
  152.2292  139.1483  156.3633 C   0  0  0  0  0  0  0  0  0  0  0  0
  152.9809  138.0983  155.9916 F   0  0  0  0  0  0  0  0  0  0  0  0
  152.3382  139.6267  157.6196 C   0  0  0  0  0  0  0  0  0  0  0  0
  151.5982  140.6973  158.0818 N   0  0  0  0  0  0  0  0  0  0  0  0
  151.8229  141.1963  159.4905 C   0  0  2  0  0  0  0  0  0  0  0  0
  151.9723  142.7264  159.5864 C   0  0  0  0  0  0  0  0  0  0  0  0
  153.3453  142.8954  160.2161 C   0  0  0  0  0  0  0  0  0  0  0  0
  153.5788  141.5471  160.8885 C   0  0  0  0  0  0  0  0  0  0  0  0
  152.9946  140.6234  159.9834 O   0  0  0  0  0  0  0  0  0  0  0  0
  150.7160  141.3673  157.2027 C   0  0  0  0  0  0  0  0  0  0  0  0
  150.0904  142.3635  157.5690 O   0  0  0  0  0  0  0  0  0  0  0  0
  147.4973  142.4441  155.6645 N   0  0  0  0  0  0  0  0  0  0  0  0
  146.0957  142.4595  156.0701 C   0  0  0  0  0  0  0  0  0  0  0  0
  145.2424  143.4643  155.3075 C   0  0  0  0  0  0  0  0  0  0  0  0
  145.5789  143.7862  153.9664 C   0  0  0  0  0  0  0  0  0  0  0  0
  144.8107  144.7147  153.2277 C   0  0  0  0  0  0  0  0  0  0  0  0
  143.7103  145.3084  153.8664 C   0  0  0  0  0  0  0  0  0  0  0  0
  143.3811  145.0051  155.1710 C   0  0  0  0  0  0  0  0  0  0  0  0
  144.1284  144.0871  155.9260 C   0  0  0  0  0  0  0  0  0  0  0  0
  142.2846  145.7146  155.5403 O   0  0  0  0  0  0  0  0  0  0  0  0
  141.9270  146.4800  154.4186 C   0  0  0  0  0  0  0  0  0  0  0  0
  142.8303  146.2179  153.3754 O   0  0  0  0  0  0  0  0  0  0  0  0
  149.8221  141.2447  153.9228 H   0  0  0  0  0  0  0  0  0  0  0  0
  149.8644  142.6313  154.9389 H   0  0  0  0  0  0  0  0  0  0  0  0
  153.0359  139.1434  158.2877 H   0  0  0  0  0  0  0  0  0  0  0  0
  150.9748  140.8376  160.0757 H   0  0  0  0  0  0  0  0  0  0  0  0
  151.8835  143.2186  158.6175 H   0  0  0  0  0  0  0  0  0  0  0  0
  151.1902  143.1107  160.2418 H   0  0  0  0  0  0  0  0  0  0  0  0
  154.0962  143.0598  159.4429 H   0  0  0  0  0  0  0  0  0  0  0  0
  153.3934  143.7310  160.9147 H   0  0  0  0  0  0  0  0  0  0  0  0
  154.6352  141.3349  161.0532 H   0  0  0  0  0  0  0  0  0  0  0  0
  153.0615  141.4960  161.8480 H   0  0  0  0  0  0  0  0  0  0  0  0
  147.9917  143.3241  155.6915 H   0  0  0  0  0  0  0  0  0  0  0  0
  145.6826  141.4646  155.9040 H   0  0  0  0  0  0  0  0  0  0  0  0
  146.0271  142.6467  157.1431 H   0  0  0  0  0  0  0  0  0  0  0  0
  146.4302  143.3153  153.4970 H   0  0  0  0  0  0  0  0  0  0  0  0
  145.0615  144.9596  152.2062 H   0  0  0  0  0  0  0  0  0  0  0  0
  143.8524  143.8685  156.9470 H   0  0  0  0  0  0  0  0  0  0  0  0
  140.9173  146.2156  154.1030 H   0  0  0  0  0  0  0  0  0  0  0  0
  141.9605  147.5396  154.6739 H   0  0  0  0  0  0  0  0  0  0  0  0
  1  2  2  0  0  0  0
  2  3  1  0  0  0  0
  2 18  1  0  0  0  0
  3  4  1  0  0  0  0
  3 29  1  0  0  0  0
  3 30  1  0  0  0  0
  4 16  1  0  0  0  0
  4  5  1  0  0  0  0
  5  6  2  0  0  0  0
  5  7  1  0  0  0  0
  7  8  1  0  0  0  0
  7  9  2  0  0  0  0
  9 10  1  0  0  0  0
  9 31  1  0  0  0  0
 10 11  1  0  0  0  0
 10 16  1  0  0  0  0
 11 15  1  0  0  0  0
 11 12  1  0  0  0  0
 11 32  1  0  0  0  0
 12 13  1  0  0  0  0
 12 33  1  0  0  0  0
 12 34  1  0  0  0  0
 13 14  1  0  0  0  0
 13 35  1  0  0  0  0
 13 36  1  0  0  0  0
 14 15  1  0  0  0  0
 14 37  1  0  0  0  0
 14 38  1  0  0  0  0
 16 17  2  0  0  0  0
 18 19  1  0  0  0  0
 18 39  1  0  0  0  0
 19 20  1  0  0  0  0
 19 40  1  0  0  0  0
 19 41  1  0  0  0  0
 20 25  1  0  0  0  0
 20 21  2  0  0  0  0
 21 22  1  0  0  0  0
 21 42  1  0  0  0  0
 22 23  2  0  0  0  0
 22 43  1  0  0  0  0
 23 28  1  0  0  0  0
 23 24  1  0  0  0  0
 24 25  2  0  0  0  0
 24 26  1  0  0  0  0
 25 44  1  0  0  0  0
 26 27  1  0  0  0  0
 27 28  1  0  0  0  0
 27 45  1  0  0  0  0
 27 46  1  0  0  0  0
M  END
> <s_m_source_file>
AV-unprocessed.smi

> <i_m_source_file_index>
97

> <i_lp_mmshare_version>
43012

> <i_f3d_flags>
0

> <s_epik_input>
TzFbQ0gyXU9jKGMxMilbY0hdYyhbY0hdW2NIXTIpW0NIMl1bTkhdQyg9TylbQ0gyXW4zYyg9TyljKEYpW2NIXW4oYzM9TylbQ0BASF00W0NIMl1bQ0gyXVtDSDJdTzQ=

> <s_epik_cmdline>
J2VwaWtfcHl0aG9uJywgJy1waCcsICc3LjAnLCAnLXRuJywgJzgnLCAnLW1hJywgJzIwMCcsICctbWV0YWxfYmluZGluZycsICctaW1hZScsICc8aW5maWxlLm1hZT4nLCAnLW9tYWUnLCAnPG91dGZpbGUubWFlPic=

> <r_lp_tautomer_probability>
1

> <r_epik_Ionization_Penalty>
3.79042e-08

> <r_epik_Ionization_Penalty_Charging>
3.81036e-09

> <r_epik_Ionization_Penalty_Neutral>
3.40938e-08

> <r_epik_State_Penalty>
-0

> <r_epik_Charging_Adjusted_Penalty>
3.81036e-09

> <i_epik_Tot_Q>
0

> <i_epik_Tot_abs_Q>
0

> <r_epik_Metal_State_Penalty>
-0

> <b_epik_Metal_Only>
0

> <s_epik_Chemistry_Notes>
This compound contains an acetal/aminal-like group ( X-CH(R)-Y where X, Y are N, S, or O) that may be acid/base labile, releasing an aldehyde.

> <s_lp_Force_Field>
OPLS_2005

> <r_lp_Energy>
33.0069

> <b_lp_Chiralities_Consistent>
1

> <s_lp_Variant>
AV-unprocessed.smi:97-1

> <Gold.Version>
5.8.1

> <Gold.Id.Protein>
6NUR|6NUR_protein|mol2

> <Gold.PLP.Fitness>
54.0178

> <Gold.PLP.PLP>
-50.3932

> <Gold.PLP.part.hbond>
-3.0000

> <Gold.PLP.part.metal>
0.0000

> <Gold.PLP.part.buried>
-5.4974

> <Gold.PLP.part.nonpolar>
-43.4782

> <Gold.PLP.part.repulsive>
0.4969

> <Gold.PLP.ligand.clash>
0.0000

> <Gold.PLP.ligand.torsion>
0.9113

> <Gold.PLP.Chemscore.Hbond>
1.8000

> <Gold.PLP.Chemscore.CHOScore>
0.0000

> <Gold.PLP.Chemscore.Metal>
0.0000

> <Gold.Chemscore.Hbonds>
donor molecule, donor type, donor heavy atom, donor atom, acceptor molecule, acceptor atom, score
      L1  H    18    39       P1  8028  1.00
      P1  H  7989  7998       L1     6  0.80

> <Gold.PLP.Chemscore.Internal.Correction>
0.0472

> <Gold.Rescore>
     Score         DG    S(hbond)    S(metal)    S(lipo)     H(rot)  DE(clash)    DE(int)     intcor
     10.30     -14.18       1.46        0.00      89.04       2.58       1.60       2.27       ----

> <Gold.Chemscore.Fitness>
10.3015

> <Gold.Chemscore.DG>
-14.1769

> <Gold.Chemscore.ZeroCoef>
-5.4800

> <Gold.Chemscore.Hbond>
1.4623

> <Gold.Chemscore.Metal>
0.0000

> <Gold.Chemscore.Lipo>
89.0414

> <Gold.Chemscore.Internal_Hbond>
0.0000

> <Gold.Chemscore.DEClash>
1.6026

> <Gold.Chemscore.DEInternal>
2.2728

> <Gold.Chemscore.Rot>
2.5801

> <Gold.Chemscore.Internal.Correction>
   9.000000E+99

> <Gold.Chemscore.Hbonds>
donor molecule, donor type, donor heavy atom, donor atom, acceptor molecule, acceptor atom, score
      L1  H    18    39       P1  8028  0.50
      P1  H  7989  7998       L1     6  0.12

> <Gold.Chemscore.Hbond.Weighted>
-4.8841

> <Gold.Chemscore.Metal.Weighted>
-0.0000

> <Gold.Chemscore.Lipo.Weighted>
-10.4178

> <Gold.Chemscore.Internal_Hbond.Weighted>
0.0000

> <Gold.Chemscore.DEClash.Weighted>
1.6026

> <Gold.Chemscore.DEInternal.Weighted>
2.2728

> <Gold.Chemscore.Rot.Weighted>
6.6050

> <Gold.Chemscore.Internal.Correction.Weighted>
   9.000000E+99

> <Gold.Protein.RotatedTorsions>
[ 6907 6896 6895 6894 ] final  -52.23 input  -60.11 | X-H torsion
[ 7974 7965 7964 7962 ] final   32.80 input  175.53 | X-H torsion
[ 8008 7997 7996 7995 ] final    2.42 input   59.86 | X-H torsion
[ 10167 10162 10161 10158 ] final  134.79 input  -65.29 | X-H torsion
[ 10718 10713 10712 10709 ] final  143.56 input   66.30 | X-H torsion
[ 10763 10752 10751 10750 ] final   98.46 input  -60.55 | X-H torsion
[ 11005 11000 10999 10996 ] final  -25.62 input  -57.11 | X-H torsion

> <Gold.Protein.ActiveResidues>
 VAL166  LYS551  ARG553  GLY616  TRP617  ASP618  TYR619  PRO620  LYS621  CYS622 
 ASP623  PHE694  ASN695  SER759  ASP760  ASP761  ALA762  ILE779  LEU786  VAL792 
 PHE793  MET794  SER795  GLU796  ALA797  LYS798  CYS799  TRP800  GLU811  SER814 

> <Gold.Protein.RotatedAtoms>
  150.8537  134.7869  159.7028 H   0  0  0  0  0  0  0  0  0  0  0  0  # atno 6907 bound_to 6896
  152.4595  134.5214  159.9793 H   0  0  0  0  0  0  0  0  0  0  0  0  # atno 6908 bound_to 6896
  151.5330  133.3407  159.2957 H   0  0  0  0  0  0  0  0  0  0  0  0  # atno 6909 bound_to 6896
  146.1462  139.6478  142.9129 H   0  0  0  0  0  0  0  0  0  0  0  0  # atno 7974 bound_to 7965
  154.6914  140.2654  155.6808 H   0  0  0  0  0  0  0  0  0  0  0  0  # atno 8008 bound_to 7997
  156.2733  140.2790  156.1417 H   0  0  0  0  0  0  0  0  0  0  0  0  # atno 8009 bound_to 7997
  155.0891  140.0373  157.2653 H   0  0  0  0  0  0  0  0  0  0  0  0  # atno 8010 bound_to 7997
  139.5242  144.6550  151.5190 H   0  0  0  0  0  0  0  0  0  0  0  0  # atno 10167 bound_to 10162
  157.3675  131.0974  151.0859 H   0  0  0  0  0  0  0  0  0  0  0  0  # atno 10718 bound_to 10713
  153.2894  135.4147  155.1153 H   0  0  0  0  0  0  0  0  0  0  0  0  # atno 10763 bound_to 10752
  154.8515  135.3514  154.6002 H   0  0  0  0  0  0  0  0  0  0  0  0  # atno 10764 bound_to 10752
  153.6424  135.7056  153.5295 H   0  0  0  0  0  0  0  0  0  0  0  0  # atno 10765 bound_to 10752
  140.8954  133.7560  156.0474 H   0  0  0  0  0  0  0  0  0  0  0  0  # atno 11005 bound_to 11000
  145.4931  141.0438  143.2582 LP  0  0  0  0  0  0  0  0  0  0  0  0  # atno 17320 bound_to 7965
  144.7849  139.6447  143.7138 LP  0  0  0  0  0  0  0  0  0  0  0  0  # atno 17321 bound_to 7965
  140.6371  143.8962  150.6657 LP  0  0  0  0  0  0  0  0  0  0  0  0  # atno 17342 bound_to 10162
  140.2285  143.3754  152.1585 LP  0  0  0  0  0  0  0  0  0  0  0  0  # atno 17343 bound_to 10162
  157.1976  130.6380  149.5727 LP  0  0  0  0  0  0  0  0  0  0  0  0  # atno 17370 bound_to 10713
  155.9749  130.4701  150.6420 LP  0  0  0  0  0  0  0  0  0  0  0  0  # atno 17371 bound_to 10713
  140.8296  134.3194  157.5353 LP  0  0  0  0  0  0  0  0  0  0  0  0  # atno 17394 bound_to 11000
  139.8735  134.9355  156.3636 LP  0  0  0  0  0  0  0  0  0  0  0  0  # atno 17395 bound_to 11000

$$$$
