AV-unprocessed.smi:2087|AV-procd|sdf|8521|dock4
  -GOLD-   2272011233D 1   1.00000     0.00000
 Structure written by MMmdl.
 51 52  0  0  0  0  0  0  0  0  2 V2000
  145.7547  131.4629  152.0681 C   0  0  0  0  0  0  0  0  0  0  0  0
  144.4188  132.1634  151.7773 C   0  0  0  0  0  0  0  0  0  0  0  0
  144.0498  132.0179  150.2912 C   0  0  0  0  0  0  0  0  0  0  0  0
  144.4755  133.6433  152.2152 C   0  0  0  0  0  0  0  0  0  0  0  0
  144.5804  133.8112  153.6905 N   0  3  2  0  0  0  0  0  0  0  0  0
  144.1034  135.1294  154.1734 C   0  0  0  0  0  0  0  0  0  0  0  0
  145.1518  136.2260  153.9178 C   0  0  0  0  0  0  0  0  0  0  0  0
  146.3736  135.8640  154.5486 O   0  0  0  0  0  0  0  0  0  0  0  0
  146.9228  134.6568  154.0309 C   0  0  1  0  0  0  0  0  0  0  0  0
  148.2685  134.4234  154.7353 C   0  0  0  0  0  0  0  0  0  0  0  0
  149.2276  135.4726  154.4124 N   0  0  0  0  0  0  0  0  0  0  0  0
  150.1095  135.9876  155.2802 C   0  0  0  0  0  0  0  0  0  0  0  0
  150.2054  135.6075  156.4478 O   0  0  0  0  0  0  0  0  0  0  0  0
  151.0332  137.0830  154.7302 C   0  0  0  0  0  0  0  0  0  0  0  0
  150.3810  138.3956  154.6374 N   0  0  0  0  0  0  0  0  0  0  0  0
  149.1921  138.5207  153.9416 C   0  0  0  0  0  0  0  0  0  0  0  0
  148.5346  139.6915  153.7946 C   0  0  0  0  0  0  0  0  0  0  0  0
  149.0570  140.9196  154.3802 C   0  0  0  0  0  0  0  0  0  0  0  0
  148.5034  142.0141  154.2649 O   0  0  0  0  0  0  0  0  0  0  0  0
  150.2672  140.7635  155.0945 N   0  0  0  0  0  0  0  0  0  0  0  0
  150.8306  141.9605  155.6834 C   0  0  0  0  0  0  0  0  0  0  0  0
  150.9581  139.5372  155.2357 C   0  0  0  0  0  0  0  0  0  0  0  0
  152.0251  139.4459  155.8471 O   0  0  0  0  0  0  0  0  0  0  0  0
  145.9169  133.5029  154.2622 C   0  0  0  0  0  0  0  0  0  0  0  0
  146.5723  131.9154  151.5059 H   0  0  0  0  0  0  0  0  0  0  0  0
  145.7117  130.4068  151.7996 H   0  0  0  0  0  0  0  0  0  0  0  0
  146.0074  131.5202  153.1273 H   0  0  0  0  0  0  0  0  0  0  0  0
  143.6611  131.6436  152.3623 H   0  0  0  0  0  0  0  0  0  0  0  0
  144.7734  132.5234  149.6506 H   0  0  0  0  0  0  0  0  0  0  0  0
  143.0663  132.4385  150.0798 H   0  0  0  0  0  0  0  0  0  0  0  0
  144.0222  130.9687  149.9956 H   0  0  0  0  0  0  0  0  0  0  0  0
  145.3026  134.1539  151.7221 H   0  0  0  0  0  0  0  0  0  0  0  0
  143.5684  134.1343  151.8599 H   0  0  0  0  0  0  0  0  0  0  0  0
  143.1485  135.3880  153.7143 H   0  0  0  0  0  0  0  0  0  0  0  0
  143.9157  135.0546  155.2453 H   0  0  0  0  0  0  0  0  0  0  0  0
  145.3078  136.3871  152.8500 H   0  0  0  0  0  0  0  0  0  0  0  0
  144.8103  137.1738  154.3341 H   0  0  0  0  0  0  0  0  0  0  0  0
  147.1124  134.7865  152.9644 H   0  0  0  0  0  0  0  0  0  0  0  0
  148.1236  134.4075  155.8165 H   0  0  0  0  0  0  0  0  0  0  0  0
  148.6679  133.4475  154.4540 H   0  0  0  0  0  0  0  0  0  0  0  0
  149.2129  135.8407  153.4724 H   0  0  0  0  0  0  0  0  0  0  0  0
  151.9068  137.1475  155.3802 H   0  0  0  0  0  0  0  0  0  0  0  0
  151.4162  136.7864  153.7520 H   0  0  0  0  0  0  0  0  0  0  0  0
  148.7669  137.6385  153.4854 H   0  0  0  0  0  0  0  0  0  0  0  0
  147.6119  139.7204  153.2338 H   0  0  0  0  0  0  0  0  0  0  0  0
  151.6397  141.7173  156.3716 H   0  0  0  0  0  0  0  0  0  0  0  0
  150.0381  142.4649  156.2396 H   0  0  0  0  0  0  0  0  0  0  0  0
  151.1958  142.5777  154.8611 H   0  0  0  0  0  0  0  0  0  0  0  0
  145.7926  133.3453  155.3344 H   0  0  0  0  0  0  0  0  0  0  0  0
  146.3007  132.5647  153.8648 H   0  0  0  0  0  0  0  0  0  0  0  0
  143.9391  133.1315  154.0743 H   0  0  0  0  0  0  0  0  0  0  0  0
  1  2  1  0  0  0  0
  1 25  1  0  0  0  0
  1 26  1  0  0  0  0
  1 27  1  0  0  0  0
  2  3  1  0  0  0  0
  2  4  1  0  0  0  0
  2 28  1  0  0  0  0
  3 29  1  0  0  0  0
  3 30  1  0  0  0  0
  3 31  1  0  0  0  0
  4  5  1  0  0  0  0
  4 32  1  0  0  0  0
  4 33  1  0  0  0  0
  5 24  1  0  0  0  0
  5  6  1  0  0  0  0
  5 51  1  0  0  0  0
  6  7  1  0  0  0  0
  6 34  1  0  0  0  0
  6 35  1  0  0  0  0
  7  8  1  0  0  0  0
  7 36  1  0  0  0  0
  7 37  1  0  0  0  0
  8  9  1  0  0  0  0
  9 10  1  0  0  0  0
  9 24  1  0  0  0  0
  9 38  1  0  0  0  0
 10 11  1  0  0  0  0
 10 39  1  0  0  0  0
 10 40  1  0  0  0  0
 11 12  1  0  0  0  0
 11 41  1  0  0  0  0
 12 13  2  0  0  0  0
 12 14  1  0  0  0  0
 14 15  1  0  0  0  0
 14 42  1  0  0  0  0
 14 43  1  0  0  0  0
 15 22  1  0  0  0  0
 15 16  1  0  0  0  0
 16 17  2  0  0  0  0
 16 44  1  0  0  0  0
 17 18  1  0  0  0  0
 17 45  1  0  0  0  0
 18 19  2  0  0  0  0
 18 20  1  0  0  0  0
 20 21  1  0  0  0  0
 20 22  1  0  0  0  0
 21 46  1  0  0  0  0
 21 47  1  0  0  0  0
 21 48  1  0  0  0  0
 22 23  2  0  0  0  0
 24 49  1  0  0  0  0
 24 50  1  0  0  0  0
M  CHG  1   5   1
M  END
> <s_m_source_file>
AV-unprocessed.smi

> <i_m_source_file_index>
2087

> <i_lp_mmshare_version>
43012

> <i_f3d_flags>
0

> <s_epik_input>
W0NIM11bQ0hdKFtDSDNdKVtDSDJdTjFbQ0gyXVtDSDJdT1tDQEhdKFtDSDJdMSlbQ0gyXVtOSF1DKD1PKVtDSDJdbjJbY0hdW2NIXWMoPU8pbihbQ0gzXSljMj1P

> <s_epik_cmdline>
J2VwaWtfcHl0aG9uJywgJy1waCcsICc3LjAnLCAnLXRuJywgJzgnLCAnLW1hJywgJzIwMCcsICctbWV0YWxfYmluZGluZycsICctaW1hZScsICc8aW5maWxlLm1hZT4nLCAnLW9tYWUnLCAnPG91dGZpbGUubWFlPic=

> <r_lp_tautomer_probability>
1

> <r_epik_Ionization_Penalty>
0.097593

> <r_epik_Ionization_Penalty_Charging>
0.097593

> <r_epik_Ionization_Penalty_Neutral>
6.27044e-08

> <r_epik_State_Penalty>
0.0877056

> <r_epik_Charging_Adjusted_Penalty>
0.185299

> <i_epik_Tot_Q>
1

> <i_epik_Tot_abs_Q>
1

> <r_epik_Metal_State_Penalty>
0.0877109

> <b_epik_Metal_Only>
0

> <s_lp_Force_Field>
OPLS_2005

> <r_lp_Energy>
29.4179

> <b_lp_Chiralities_Consistent>
1

> <s_lp_Variant>
AV-unprocessed.smi:2087-2

> <Gold.Version>
5.8.1

> <Gold.Id.Protein>
6NUR|6NUR_protein|mol2

> <Gold.PLP.Fitness>
45.3934

> <Gold.PLP.PLP>
-34.5806

> <Gold.PLP.part.hbond>
-2.2817

> <Gold.PLP.part.metal>
0.0000

> <Gold.PLP.part.buried>
-3.9735

> <Gold.PLP.part.nonpolar>
-29.5389

> <Gold.PLP.part.repulsive>
1.3517

> <Gold.PLP.ligand.clash>
0.0000

> <Gold.PLP.ligand.torsion>
0.6678

> <Gold.PLP.Chemscore.Hbond>
3.0000

> <Gold.PLP.Chemscore.CHOScore>
1.0000

> <Gold.PLP.Chemscore.Metal>
0.0000

> <Gold.Chemscore.Hbonds>
donor molecule, donor type, donor heavy atom, donor atom, acceptor molecule, acceptor atom, score
      L1  H     5    51       P1 10957  2.00
      L1  H    11    41       P1  7948  1.00
      P1  H  8011  8017       L1    19  0.04
      L1  C    16    44       P1  7948  1.00

> <Gold.PLP.Chemscore.Internal.Correction>
0.1485

> <Gold.Rescore>
     Score         DG    S(hbond)    S(metal)    S(lipo)     H(rot)  DE(clash)    DE(int)     intcor
     12.78     -13.66       1.80        0.00      67.27       2.22       0.08       0.79       ----

> <Gold.Chemscore.Fitness>
12.7828

> <Gold.Chemscore.DG>
-13.6578

> <Gold.Chemscore.ZeroCoef>
-5.4800

> <Gold.Chemscore.Hbond>
1.7972

> <Gold.Chemscore.Metal>
0.0000

> <Gold.Chemscore.Lipo>
67.2725

> <Gold.Chemscore.Internal_Hbond>
0.0000

> <Gold.Chemscore.DEClash>
0.0807

> <Gold.Chemscore.DEInternal>
0.7943

> <Gold.Chemscore.Rot>
2.2249

> <Gold.Chemscore.Internal.Correction>
   9.000000E+99

> <Gold.Chemscore.Hbonds>
donor molecule, donor type, donor heavy atom, donor atom, acceptor molecule, acceptor atom, score
      L1  H     5    51       P1 10957  0.96
      L1  H    11    41       P1  7948  0.70

> <Gold.Chemscore.Hbond.Weighted>
-6.0026

> <Gold.Chemscore.Metal.Weighted>
-0.0000

> <Gold.Chemscore.Lipo.Weighted>
-7.8709

> <Gold.Chemscore.Internal_Hbond.Weighted>
0.0000

> <Gold.Chemscore.DEClash.Weighted>
0.0807

> <Gold.Chemscore.DEInternal.Weighted>
0.7943

> <Gold.Chemscore.Rot.Weighted>
5.6957

> <Gold.Chemscore.Internal.Correction.Weighted>
   9.000000E+99

> <Gold.Protein.RotatedTorsions>
[ 6907 6896 6895 6894 ] final   44.81 input  -60.11 | X-H torsion
[ 7974 7965 7964 7962 ] final  -38.36 input  175.53 | X-H torsion
[ 8008 7997 7996 7995 ] final  115.70 input   59.86 | X-H torsion
[ 10167 10162 10161 10158 ] final  -20.63 input  -65.29 | X-H torsion
[ 10718 10713 10712 10709 ] final  -96.70 input   66.30 | X-H torsion
[ 10763 10752 10751 10750 ] final -150.85 input  -60.55 | X-H torsion
[ 11005 11000 10999 10996 ] final -117.47 input  -57.11 | X-H torsion

> <Gold.Protein.ActiveResidues>
 VAL166  LYS551  ARG553  GLY616  TRP617  ASP618  TYR619  PRO620  LYS621  CYS622 
 ASP623  PHE694  ASN695  SER759  ASP760  ASP761  ALA762  ILE779  LEU786  VAL792 
 PHE793  MET794  SER795  GLU796  ALA797  LYS798  CYS799  TRP800  GLU811  SER814 

> <Gold.Protein.RotatedAtoms>
  152.2370  134.8266  160.0465 H   0  0  0  0  0  0  0  0  0  0  0  0  # atno 6907 bound_to 6896
  151.8994  133.3529  159.3834 H   0  0  0  0  0  0  0  0  0  0  0  0  # atno 6908 bound_to 6896
  150.7042  134.4769  159.5496 H   0  0  0  0  0  0  0  0  0  0  0  0  # atno 6909 bound_to 6896
  146.0493  140.6503  142.9050 H   0  0  0  0  0  0  0  0  0  0  0  0  # atno 7974 bound_to 7965
  156.2397  140.2933  156.0409 H   0  0  0  0  0  0  0  0  0  0  0  0  # atno 8008 bound_to 7997
  155.1988  140.0409  157.2931 H   0  0  0  0  0  0  0  0  0  0  0  0  # atno 8009 bound_to 7997
  154.6144  140.2460  155.7635 H   0  0  0  0  0  0  0  0  0  0  0  0  # atno 8010 bound_to 7997
  140.7277  143.4704  151.0255 H   0  0  0  0  0  0  0  0  0  0  0  0  # atno 10167 bound_to 10162
  156.0068  130.5163  150.6265 H   0  0  0  0  0  0  0  0  0  0  0  0  # atno 10718 bound_to 10713
  154.8094  135.3274  154.7346 H   0  0  0  0  0  0  0  0  0  0  0  0  # atno 10763 bound_to 10752
  153.7998  135.6904  153.4862 H   0  0  0  0  0  0  0  0  0  0  0  0  # atno 10764 bound_to 10752
  153.1861  135.4568  155.0036 H   0  0  0  0  0  0  0  0  0  0  0  0  # atno 10765 bound_to 10752
  141.0352  133.9920  157.3081 H   0  0  0  0  0  0  0  0  0  0  0  0  # atno 11005 bound_to 11000
  144.7114  140.4052  143.7077 LP  0  0  0  0  0  0  0  0  0  0  0  0  # atno 17320 bound_to 7965
  145.6752  139.1607  143.2732 LP  0  0  0  0  0  0  0  0  0  0  0  0  # atno 17321 bound_to 7965
  139.8395  143.7582  152.3180 LP  0  0  0  0  0  0  0  0  0  0  0  0  # atno 17342 bound_to 10162
  139.7726  144.7471  151.0202 LP  0  0  0  0  0  0  0  0  0  0  0  0  # atno 17343 bound_to 10162
  157.4071  131.0818  151.1255 LP  0  0  0  0  0  0  0  0  0  0  0  0  # atno 17370 bound_to 10713
  157.1898  130.6347  149.5700 LP  0  0  0  0  0  0  0  0  0  0  0  0  # atno 17371 bound_to 10713
  139.9236  135.0201  156.8153 LP  0  0  0  0  0  0  0  0  0  0  0  0  # atno 17394 bound_to 11000
  140.6335  133.9884  155.7673 LP  0  0  0  0  0  0  0  0  0  0  0  0  # atno 17395 bound_to 11000

$$$$
