AV-unprocessed.smi:1157|AV-procd|sdf|4910|dock2
  -GOLD-   22720 3483D 1   1.00000     0.00000
 Structure written by MMmdl.
 55 57  0  0  0  0  0  0  0  0  4 V2000
  148.6920  134.1533  154.6489 C   0  0  0  0  0  0  0  0  0  0  0  0
  147.4289  135.0600  154.5614 C   0  0  0  0  0  0  0  0  0  0  0  0
  146.4017  134.4407  155.5549 C   0  0  0  0  0  0  0  0  0  0  0  0
  147.7792  136.5431  154.9766 C   0  0  0  0  0  0  0  0  0  0  0  0
  149.0706  136.9780  154.4328 N   0  5  0  0  0  0  0  0  0  0  0  0
  149.9609  137.7791  155.0767 C   0  0  0  0  0  0  0  0  0  0  0  0
  151.1353  137.5223  155.3641 O   0  0  0  0  0  0  0  0  0  0  0  0
  149.4188  138.9619  155.4182 N   0  0  0  0  0  0  0  0  0  0  0  0
  150.0024  140.0414  156.1344 C   0  0  0  0  0  0  0  0  0  0  0  0
  150.9107  139.7303  157.1675 C   0  0  0  0  0  0  0  0  0  0  0  0
  151.5084  140.7683  157.9110 C   0  0  0  0  0  0  0  0  0  0  0  0
  151.1800  142.1140  157.6236 C   0  0  0  0  0  0  0  0  0  0  0  0
  151.7464  143.2016  158.3147 N   0  0  0  0  0  0  0  0  0  0  0  0
  151.3083  144.5687  158.0852 C   0  0  0  0  0  0  0  0  0  0  0  0
  152.0788  145.3953  159.1138 C   0  0  0  0  0  0  0  0  0  0  0  0
  152.2207  144.4345  160.2951 C   0  0  0  0  0  0  0  0  0  0  0  0
  152.3233  143.0503  159.6428 C   0  0  0  0  0  0  0  0  0  0  0  0
  150.2896  142.3658  156.6346 N   0  3  0  0  0  0  0  0  0  0  0  0
  149.6953  141.4021  155.8979 C   0  0  0  0  0  0  0  0  0  0  0  0
  146.8603  134.9540  153.1561 N   0  3  0  0  0  0  0  0  0  0  0  0
  146.6805  133.5843  152.5836 C   0  0  0  0  0  0  0  0  0  0  0  0
  146.3843  133.6649  151.0773 C   0  0  0  0  0  0  0  0  0  0  0  0
  145.2277  134.4597  150.8562 O   0  0  0  0  0  0  0  0  0  0  0  0
  145.4125  135.7935  151.3086 C   0  0  0  0  0  0  0  0  0  0  0  0
  145.6713  135.7984  152.8241 C   0  0  0  0  0  0  0  0  0  0  0  0
  149.0249  134.0049  155.6780 H   0  0  0  0  0  0  0  0  0  0  0  0
  149.5530  134.5450  154.1044 H   0  0  0  0  0  0  0  0  0  0  0  0
  148.4842  133.1596  154.2502 H   0  0  0  0  0  0  0  0  0  0  0  0
  146.8309  134.2758  156.5453 H   0  0  0  0  0  0  0  0  0  0  0  0
  146.0627  133.4652  155.2042 H   0  0  0  0  0  0  0  0  0  0  0  0
  145.5129  135.0553  155.7082 H   0  0  0  0  0  0  0  0  0  0  0  0
  146.9841  137.2009  154.6261 H   0  0  0  0  0  0  0  0  0  0  0  0
  147.7425  136.6178  156.0638 H   0  0  0  0  0  0  0  0  0  0  0  0
  148.4346  139.0564  155.2141 H   0  0  0  0  0  0  0  0  0  0  0  0
  151.1593  138.7014  157.3839 H   0  0  0  0  0  0  0  0  0  0  0  0
  152.2167  140.5183  158.6866 H   0  0  0  0  0  0  0  0  0  0  0  0
  151.5183  144.8956  157.0663 H   0  0  0  0  0  0  0  0  0  0  0  0
  150.2338  144.6409  158.2594 H   0  0  0  0  0  0  0  0  0  0  0  0
  153.0663  145.6452  158.7230 H   0  0  0  0  0  0  0  0  0  0  0  0
  151.5739  146.3256  159.3755 H   0  0  0  0  0  0  0  0  0  0  0  0
  153.0744  144.6668  160.9321 H   0  0  0  0  0  0  0  0  0  0  0  0
  151.3215  144.4823  160.9111 H   0  0  0  0  0  0  0  0  0  0  0  0
  151.8022  142.2987  160.2371 H   0  0  0  0  0  0  0  0  0  0  0  0
  153.3659  142.7471  159.5414 H   0  0  0  0  0  0  0  0  0  0  0  0
  148.9949  141.7604  155.1583 H   0  0  0  0  0  0  0  0  0  0  0  0
  147.5697  132.9710  152.7134 H   0  0  0  0  0  0  0  0  0  0  0  0
  145.8596  133.0666  153.0814 H   0  0  0  0  0  0  0  0  0  0  0  0
  147.2360  134.0777  150.5341 H   0  0  0  0  0  0  0  0  0  0  0  0
  146.2058  132.6668  150.6768 H   0  0  0  0  0  0  0  0  0  0  0  0
  146.2367  136.2642  150.7701 H   0  0  0  0  0  0  0  0  0  0  0  0
  144.5152  136.3686  151.0803 H   0  0  0  0  0  0  0  0  0  0  0  0
  144.7838  135.4276  153.3380 H   0  0  0  0  0  0  0  0  0  0  0  0
  145.8099  136.8321  153.1337 H   0  0  0  0  0  0  0  0  0  0  0  0
  147.5981  135.3516  152.5930 H   0  0  0  0  0  0  0  0  0  0  0  0
  150.0517  143.3369  156.4335 H   0  0  0  0  0  0  0  0  0  0  0  0
  1  2  1  0  0  0  0
  1 26  1  0  0  0  0
  1 27  1  0  0  0  0
  1 28  1  0  0  0  0
  2  3  1  0  0  0  0
  2  4  1  0  0  0  0
  2 20  1  0  0  0  0
  3 29  1  0  0  0  0
  3 30  1  0  0  0  0
  3 31  1  0  0  0  0
  4  5  1  0  0  0  0
  4 32  1  0  0  0  0
  4 33  1  0  0  0  0
  5  6  1  0  0  0  0
  6  7  2  0  0  0  0
  6  8  1  0  0  0  0
  8  9  1  0  0  0  0
  8 34  1  0  0  0  0
  9 19  1  0  0  0  0
  9 10  2  0  0  0  0
 10 11  1  0  0  0  0
 10 35  1  0  0  0  0
 11 12  2  0  0  0  0
 11 36  1  0  0  0  0
 12 13  1  0  0  0  0
 12 18  1  0  0  0  0
 13 17  1  0  0  0  0
 13 14  1  0  0  0  0
 14 15  1  0  0  0  0
 14 37  1  0  0  0  0
 14 38  1  0  0  0  0
 15 16  1  0  0  0  0
 15 39  1  0  0  0  0
 15 40  1  0  0  0  0
 16 17  1  0  0  0  0
 16 41  1  0  0  0  0
 16 42  1  0  0  0  0
 17 43  1  0  0  0  0
 17 44  1  0  0  0  0
 18 19  2  0  0  0  0
 18 55  1  0  0  0  0
 19 45  1  0  0  0  0
 20 25  1  0  0  0  0
 20 21  1  0  0  0  0
 20 54  1  0  0  0  0
 21 22  1  0  0  0  0
 21 46  1  0  0  0  0
 21 47  1  0  0  0  0
 22 23  1  0  0  0  0
 22 48  1  0  0  0  0
 22 49  1  0  0  0  0
 23 24  1  0  0  0  0
 24 25  1  0  0  0  0
 24 50  1  0  0  0  0
 24 51  1  0  0  0  0
 25 52  1  0  0  0  0
 25 53  1  0  0  0  0
M  CHG  1   5  -1
M  CHG  1  18   1
M  CHG  1  20   1
M  END
> <s_m_source_file>
AV-unprocessed.smi

> <i_m_source_file_index>
1157

> <i_lp_mmshare_version>
43012

> <i_f3d_flags>
0

> <s_epik_input>
W0NIMl0xW0NIMl1PW0NIMl1bQ0gyXU4xQyhbQ0gzXSkoW0NIM10pW0NIMl1bTkhdQyg9TylbTkhdYzJbY0hdW2NIXWMobltjSF0yKU4zW0NIMl1bQ0gyXVtDSDJdW0NIMl0z

> <s_epik_cmdline>
J2VwaWtfcHl0aG9uJywgJy1waCcsICc3LjAnLCAnLXRuJywgJzgnLCAnLW1hJywgJzIwMCcsICctbWV0YWxfYmluZGluZycsICctaW1hZScsICc8aW5maWxlLm1hZT4nLCAnLW9tYWUnLCAnPG91dGZpbGUubWFlPic=

> <r_lp_tautomer_probability>
0.999994

> <r_epik_Ionization_Penalty>
8.57565

> <r_epik_Ionization_Penalty_Charging>
8.57565

> <r_epik_Ionization_Penalty_Neutral>
3.57932e-06

> <r_epik_State_Penalty>
8.56988

> <r_epik_Charging_Adjusted_Penalty>
17.1455

> <i_epik_Tot_Q>
1

> <i_epik_Tot_abs_Q>
3

> <r_epik_Metal_State_Penalty>
4.56714

> <b_epik_Metal_Only>
1

> <s_lp_Force_Field>
OPLS_2005

> <r_lp_Energy>
57.9076

> <b_lp_Chiralities_Consistent>
1

> <s_lp_Variant>
AV-unprocessed.smi:1157-5

> <Gold.Version>
5.8.1

> <Gold.Id.Protein>
6NUR|6NUR_protein|mol2

> <Gold.PLP.Fitness>
49.0866

> <Gold.PLP.PLP>
-39.4659

> <Gold.PLP.part.hbond>
-2.0000

> <Gold.PLP.part.metal>
0.0000

> <Gold.PLP.part.buried>
-6.7799

> <Gold.PLP.part.nonpolar>
-34.7833

> <Gold.PLP.part.repulsive>
3.6461

> <Gold.PLP.ligand.clash>
0.0000

> <Gold.PLP.ligand.torsion>
1.4420

> <Gold.PLP.Chemscore.Hbond>
4.0000

> <Gold.PLP.Chemscore.CHOScore>
0.0000

> <Gold.PLP.Chemscore.Metal>
0.0000

> <Gold.Chemscore.Hbonds>
donor molecule, donor type, donor heavy atom, donor atom, acceptor molecule, acceptor atom, score
      L1  H    18    55       P1  8028  2.00
      L1  H    20    54       P1  7948  2.00

> <Gold.PLP.Chemscore.Internal.Correction>
0.5047

> <Gold.Rescore>
     Score         DG    S(hbond)    S(metal)    S(lipo)     H(rot)  DE(clash)    DE(int)     intcor
     16.08     -20.36       1.98        0.00     101.91       1.42       1.51       2.77       ----

> <Gold.Chemscore.Fitness>
16.0788

> <Gold.Chemscore.DG>
-20.3607

> <Gold.Chemscore.ZeroCoef>
-5.4800

> <Gold.Chemscore.Hbond>
1.9770

> <Gold.Chemscore.Metal>
0.0000

> <Gold.Chemscore.Lipo>
101.9124

> <Gold.Chemscore.Internal_Hbond>
0.0000

> <Gold.Chemscore.DEClash>
1.5146

> <Gold.Chemscore.DEInternal>
2.7673

> <Gold.Chemscore.Rot>
1.4243

> <Gold.Chemscore.Internal.Correction>
   9.000000E+99

> <Gold.Chemscore.Hbonds>
donor molecule, donor type, donor heavy atom, donor atom, acceptor molecule, acceptor atom, score
      L1  H    18    55       P1  8028  0.96
      L1  H    20    54       P1  7948  1.00

> <Gold.Chemscore.Hbond.Weighted>
-6.6031

> <Gold.Chemscore.Metal.Weighted>
-0.0000

> <Gold.Chemscore.Lipo.Weighted>
-11.9237

> <Gold.Chemscore.Internal_Hbond.Weighted>
0.0000

> <Gold.Chemscore.DEClash.Weighted>
1.5146

> <Gold.Chemscore.DEInternal.Weighted>
2.7673

> <Gold.Chemscore.Rot.Weighted>
3.6462

> <Gold.Chemscore.Internal.Correction.Weighted>
   9.000000E+99

> <Gold.Protein.RotatedTorsions>
[ 6907 6896 6895 6894 ] final  -21.90 input  -60.11 | X-H torsion
[ 7974 7965 7964 7962 ] final -119.23 input  175.53 | X-H torsion
[ 8008 7997 7996 7995 ] final  122.06 input   59.86 | X-H torsion
[ 10167 10162 10161 10158 ] final   78.74 input  -65.29 | X-H torsion
[ 10718 10713 10712 10709 ] final   -1.51 input   66.30 | X-H torsion
[ 10763 10752 10751 10750 ] final   57.70 input  -60.55 | X-H torsion
[ 11005 11000 10999 10996 ] final -179.08 input  -57.11 | X-H torsion

> <Gold.Protein.ActiveResidues>
 VAL166  LYS551  ARG553  GLY616  TRP617  ASP618  TYR619  PRO620  LYS621  CYS622 
 ASP623  PHE694  ASN695  SER759  ASP760  ASP761  ALA762  ILE779  LEU786  VAL792 
 PHE793  MET794  SER795  GLU796  ALA797  LYS798  CYS799  TRP800  GLU811  SER814 

> <Gold.Protein.RotatedAtoms>
  151.2265  135.0538  159.8970 H   0  0  0  0  0  0  0  0  0  0  0  0  # atno 6907 bound_to 6896
  152.5409  134.0583  159.8151 H   0  0  0  0  0  0  0  0  0  0  0  0  # atno 6908 bound_to 6896
  151.0757  133.5382  159.2655 H   0  0  0  0  0  0  0  0  0  0  0  0  # atno 6909 bound_to 6896
  145.0649  140.8317  143.4130 H   0  0  0  0  0  0  0  0  0  0  0  0  # atno 7974 bound_to 7965
  156.2712  140.2794  156.1407 H   0  0  0  0  0  0  0  0  0  0  0  0  # atno 8008 bound_to 7997
  155.0956  140.0389  157.2699 H   0  0  0  0  0  0  0  0  0  0  0  0  # atno 8009 bound_to 7997
  154.6855  140.2618  155.6871 H   0  0  0  0  0  0  0  0  0  0  0  0  # atno 8010 bound_to 7997
  139.9677  144.5917  150.8014 H   0  0  0  0  0  0  0  0  0  0  0  0  # atno 10167 bound_to 10162
  156.8045  130.5404  149.5717 H   0  0  0  0  0  0  0  0  0  0  0  0  # atno 10718 bound_to 10713
  152.9855  135.5632  154.5433 H   0  0  0  0  0  0  0  0  0  0  0  0  # atno 10763 bound_to 10752
  154.4883  135.2791  155.1518 H   0  0  0  0  0  0  0  0  0  0  0  0  # atno 10764 bound_to 10752
  154.2998  135.6309  153.5473 H   0  0  0  0  0  0  0  0  0  0  0  0  # atno 10765 bound_to 10752
  140.4226  134.6592  157.4671 H   0  0  0  0  0  0  0  0  0  0  0  0  # atno 11005 bound_to 11000
  145.1364  139.2600  143.5513 LP  0  0  0  0  0  0  0  0  0  0  0  0  # atno 17320 bound_to 7965
  146.3526  140.1029  142.8607 LP  0  0  0  0  0  0  0  0  0  0  0  0  # atno 17321 bound_to 7965
  140.7532  143.3005  151.3094 LP  0  0  0  0  0  0  0  0  0  0  0  0  # atno 17342 bound_to 10162
  139.6505  144.0371  152.2623 LP  0  0  0  0  0  0  0  0  0  0  0  0  # atno 17343 bound_to 10162
  156.1081  130.6019  151.0003 LP  0  0  0  0  0  0  0  0  0  0  0  0  # atno 17370 bound_to 10713
  157.6537  131.0893  150.7995 LP  0  0  0  0  0  0  0  0  0  0  0  0  # atno 17371 bound_to 10713
  140.0190  134.6576  155.9268 LP  0  0  0  0  0  0  0  0  0  0  0  0  # atno 17394 bound_to 11000
  141.1778  133.6542  156.4898 LP  0  0  0  0  0  0  0  0  0  0  0  0  # atno 17395 bound_to 11000

$$$$
