AV-unprocessed.smi:2442|AV-procd|sdf|9625|dock5
  -GOLD-   2272013253D 1   1.00000     0.00000
 Structure written by MMmdl.
 46 47  0  0  0  0  0  0  0  0  1 V2000
  146.9644  141.6566  153.3685 C   0  0  0  0  0  0  0  0  0  0  0  0
  147.7381  140.4806  153.5454 O   0  0  0  0  0  0  0  0  0  0  0  0
  147.8114  140.0221  154.8925 C   0  0  2  0  0  0  0  0  0  0  0  0
  148.4608  141.0910  155.7973 C   0  0  0  0  0  0  0  0  0  0  0  0
  149.9300  141.3416  155.4194 C   0  0  0  0  0  0  0  0  0  0  0  0
  150.7418  140.0376  155.4489 C   0  0  0  0  0  0  0  0  0  0  0  0
  150.1088  138.9654  154.5480 C   0  0  0  0  0  0  0  0  0  0  0  0
  148.6347  138.7122  154.9214 C   0  0  2  0  0  0  0  0  0  0  0  0
  148.0606  137.7090  154.0280 N   0  0  0  0  0  0  0  0  0  0  0  0
  146.8111  137.2302  154.1027 C   0  0  0  0  0  0  0  0  0  0  0  0
  145.9935  137.5613  154.9615 O   0  0  0  0  0  0  0  0  0  0  0  0
  146.5545  136.3567  153.1210 N   0  0  0  0  0  0  0  0  0  0  0  0
  145.2681  135.7053  152.9181 C   0  0  0  0  0  0  0  0  0  0  0  0
  145.0166  135.4627  151.4235 C   0  0  0  0  0  0  0  0  0  0  0  0
  144.8741  133.9844  151.0965 C   0  0  0  0  0  0  0  0  0  0  0  0
  143.6684  133.5120  150.5369 C   0  0  0  0  0  0  0  0  0  0  0  0
  143.5517  132.1413  150.2351 C   0  0  0  0  0  0  0  0  0  0  0  0
  144.5387  131.2482  150.4544 N   0  0  0  0  0  0  0  0  0  0  0  0
  145.6920  131.7025  150.9882 C   0  0  0  0  0  0  0  0  0  0  0  0
  145.9180  133.0543  151.3276 C   0  0  0  0  0  0  0  0  0  0  0  0
  147.2526  133.4687  151.9213 C   0  0  0  0  0  0  0  0  0  0  0  0
  146.9508  141.9252  152.3124 H   0  0  0  0  0  0  0  0  0  0  0  0
  147.3751  142.5017  153.9202 H   0  0  0  0  0  0  0  0  0  0  0  0
  145.9326  141.4993  153.6851 H   0  0  0  0  0  0  0  0  0  0  0  0
  146.8059  139.8084  155.2598 H   0  0  0  0  0  0  0  0  0  0  0  0
  147.9021  142.0253  155.7605 H   0  0  0  0  0  0  0  0  0  0  0  0
  148.4123  140.7562  156.8343 H   0  0  0  0  0  0  0  0  0  0  0  0
  149.9821  141.7838  154.4237 H   0  0  0  0  0  0  0  0  0  0  0  0
  150.3704  142.0686  156.1021 H   0  0  0  0  0  0  0  0  0  0  0  0
  151.7670  140.2312  155.1321 H   0  0  0  0  0  0  0  0  0  0  0  0
  150.8000  139.6664  156.4729 H   0  0  0  0  0  0  0  0  0  0  0  0
  150.1802  139.2810  153.5061 H   0  0  0  0  0  0  0  0  0  0  0  0
  150.6787  138.0389  154.6284 H   0  0  0  0  0  0  0  0  0  0  0  0
  148.6148  138.3144  155.9382 H   0  0  0  0  0  0  0  0  0  0  0  0
  148.6532  137.3769  153.2816 H   0  0  0  0  0  0  0  0  0  0  0  0
  147.2887  136.1444  152.4615 H   0  0  0  0  0  0  0  0  0  0  0  0
  145.2520  134.7592  153.4615 H   0  0  0  0  0  0  0  0  0  0  0  0
  144.4769  136.3297  153.3358 H   0  0  0  0  0  0  0  0  0  0  0  0
  144.1297  136.0048  151.0949 H   0  0  0  0  0  0  0  0  0  0  0  0
  145.8442  135.8711  150.8415 H   0  0  0  0  0  0  0  0  0  0  0  0
  142.8471  134.1849  150.3393 H   0  0  0  0  0  0  0  0  0  0  0  0
  142.6406  131.7517  149.8056 H   0  0  0  0  0  0  0  0  0  0  0  0
  146.4597  130.9596  151.1485 H   0  0  0  0  0  0  0  0  0  0  0  0
  147.9610  132.6400  151.9167 H   0  0  0  0  0  0  0  0  0  0  0  0
  147.1255  133.7955  152.9535 H   0  0  0  0  0  0  0  0  0  0  0  0
  147.6929  134.2858  151.3502 H   0  0  0  0  0  0  0  0  0  0  0  0
  1  2  1  0  0  0  0
  1 22  1  0  0  0  0
  1 23  1  0  0  0  0
  1 24  1  0  0  0  0
  2  3  1  0  0  0  0
  3  8  1  0  0  0  0
  3  4  1  0  0  0  0
  3 25  1  0  0  0  0
  4  5  1  0  0  0  0
  4 26  1  0  0  0  0
  4 27  1  0  0  0  0
  5  6  1  0  0  0  0
  5 28  1  0  0  0  0
  5 29  1  0  0  0  0
  6  7  1  0  0  0  0
  6 30  1  0  0  0  0
  6 31  1  0  0  0  0
  7  8  1  0  0  0  0
  7 32  1  0  0  0  0
  7 33  1  0  0  0  0
  8  9  1  0  0  0  0
  8 34  1  0  0  0  0
  9 10  1  0  0  0  0
  9 35  1  0  0  0  0
 10 11  2  0  0  0  0
 10 12  1  0  0  0  0
 12 13  1  0  0  0  0
 12 36  1  0  0  0  0
 13 14  1  0  0  0  0
 13 37  1  0  0  0  0
 13 38  1  0  0  0  0
 14 15  1  0  0  0  0
 14 39  1  0  0  0  0
 14 40  1  0  0  0  0
 15 20  1  0  0  0  0
 15 16  2  0  0  0  0
 16 17  1  0  0  0  0
 16 41  1  0  0  0  0
 17 18  2  0  0  0  0
 17 42  1  0  0  0  0
 18 19  1  0  0  0  0
 19 20  2  0  0  0  0
 19 43  1  0  0  0  0
 20 21  1  0  0  0  0
 21 44  1  0  0  0  0
 21 45  1  0  0  0  0
 21 46  1  0  0  0  0
M  END
> <s_m_source_file>
AV-unprocessed.smi

> <i_m_source_file_index>
2442

> <i_lp_mmshare_version>
43012

> <i_f3d_flags>
0

> <s_epik_input>
W0NIM11PW0NAQEhdMVtDSDJdW0NIMl1bQ0gyXVtDSDJdW0NASF0xW05IXUMoPU8pW05IXVtDSDJdW0NIMl1jMltjSF1bY0hdbltjSF1jMltDSDNd

> <s_epik_cmdline>
J2VwaWtfcHl0aG9uJywgJy1waCcsICc3LjAnLCAnLXRuJywgJzgnLCAnLW1hJywgJzIwMCcsICctbWV0YWxfYmluZGluZycsICctaW1hZScsICc8aW5maWxlLm1hZT4nLCAnLW9tYWUnLCAnPG91dGZpbGUubWFlPic=

> <r_epik_Ionization_Penalty>
0.106136

> <r_epik_Ionization_Penalty_Charging>
0

> <r_epik_Ionization_Penalty_Neutral>
0.106136

> <r_epik_State_Penalty>
0.0959393

> <r_epik_Charging_Adjusted_Penalty>
0.0959393

> <i_epik_Tot_Q>
0

> <i_epik_Tot_abs_Q>
0

> <r_epik_Metal_State_Penalty>
0.0812517

> <b_epik_Metal_Only>
0

> <s_lp_Force_Field>
OPLS_2005

> <r_lp_Energy>
9.91993

> <b_lp_Chiralities_Consistent>
1

> <s_lp_Variant>
AV-unprocessed.smi:2442-3

> <Gold.Version>
5.8.1

> <Gold.Id.Protein>
6NUR|6NUR_protein|mol2

> <Gold.PLP.Fitness>
42.9448

> <Gold.PLP.PLP>
-32.0629

> <Gold.PLP.part.hbond>
-2.5512

> <Gold.PLP.part.metal>
0.0000

> <Gold.PLP.part.buried>
-2.7971

> <Gold.PLP.part.nonpolar>
-27.1323

> <Gold.PLP.part.repulsive>
0.3197

> <Gold.PLP.ligand.clash>
0.0000

> <Gold.PLP.ligand.torsion>
0.5640

> <Gold.PLP.Chemscore.Hbond>
2.0000

> <Gold.PLP.Chemscore.CHOScore>
1.9899

> <Gold.PLP.Chemscore.Metal>
0.0000

> <Gold.Chemscore.Hbonds>
donor molecule, donor type, donor heavy atom, donor atom, acceptor molecule, acceptor atom, score
      L1  H     9    35       P1  7948  1.00
      L1  H    12    36       P1  7948  1.00
      L1  C    17    42       P1 10952  1.00
      L1  C    19    43       P1 10747  0.67

> <Gold.PLP.Chemscore.Internal.Correction>
0.0401

> <Gold.Rescore>
     Score         DG    S(hbond)    S(metal)    S(lipo)     H(rot)  DE(clash)    DE(int)     intcor
     17.01     -18.58       1.93        0.00      92.63       1.64       0.34       1.22       ----

> <Gold.Chemscore.Fitness>
17.0126

> <Gold.Chemscore.DG>
-18.5764

> <Gold.Chemscore.ZeroCoef>
-5.4800

> <Gold.Chemscore.Hbond>
1.9318

> <Gold.Chemscore.Metal>
0.0000

> <Gold.Chemscore.Lipo>
92.6283

> <Gold.Chemscore.Internal_Hbond>
0.0000

> <Gold.Chemscore.DEClash>
0.3423

> <Gold.Chemscore.DEInternal>
1.2216

> <Gold.Chemscore.Rot>
1.6380

> <Gold.Chemscore.Internal.Correction>
   9.000000E+99

> <Gold.Chemscore.Hbonds>
donor molecule, donor type, donor heavy atom, donor atom, acceptor molecule, acceptor atom, score
      L1  H     9    35       P1  7948  0.95
      L1  H    12    36       P1  7948  0.98

> <Gold.Chemscore.Hbond.Weighted>
-6.4523

> <Gold.Chemscore.Metal.Weighted>
-0.0000

> <Gold.Chemscore.Lipo.Weighted>
-10.8375

> <Gold.Chemscore.Internal_Hbond.Weighted>
0.0000

> <Gold.Chemscore.DEClash.Weighted>
0.3423

> <Gold.Chemscore.DEInternal.Weighted>
1.2216

> <Gold.Chemscore.Rot.Weighted>
4.1934

> <Gold.Chemscore.Internal.Correction.Weighted>
   9.000000E+99

> <Gold.Protein.RotatedTorsions>
[ 6907 6896 6895 6894 ] final -101.04 input  -60.11 | X-H torsion
[ 7974 7965 7964 7962 ] final   -1.26 input  175.53 | X-H torsion
[ 8008 7997 7996 7995 ] final  179.42 input   59.86 | X-H torsion
[ 10167 10162 10161 10158 ] final  -52.60 input  -65.29 | X-H torsion
[ 10718 10713 10712 10709 ] final  122.46 input   66.30 | X-H torsion
[ 10763 10752 10751 10750 ] final  137.41 input  -60.55 | X-H torsion
[ 11005 11000 10999 10996 ] final  -41.31 input  -57.11 | X-H torsion

> <Gold.Protein.ActiveResidues>
 VAL166  LYS551  ARG553  GLY616  TRP617  ASP618  TYR619  PRO620  LYS621  CYS622 
 ASP623  PHE694  ASN695  SER759  ASP760  ASP761  ALA762  ILE779  LEU786  VAL792 
 PHE793  MET794  SER795  GLU796  ALA797  LYS798  CYS799  TRP800  GLU811  SER814 

> <Gold.Protein.RotatedAtoms>
  150.7139  134.0795  159.3892 H   0  0  0  0  0  0  0  0  0  0  0  0  # atno 6907 bound_to 6896
  151.8778  135.0463  160.0495 H   0  0  0  0  0  0  0  0  0  0  0  0  # atno 6908 bound_to 6896
  152.2592  133.5246  159.5408 H   0  0  0  0  0  0  0  0  0  0  0  0  # atno 6909 bound_to 6896
  146.2419  140.1394  142.8336 H   0  0  0  0  0  0  0  0  0  0  0  0  # atno 7974 bound_to 7965
  156.0436  140.1309  157.0129 H   0  0  0  0  0  0  0  0  0  0  0  0  # atno 8008 bound_to 7997
  154.4402  140.1025  156.6343 H   0  0  0  0  0  0  0  0  0  0  0  0  # atno 8009 bound_to 7997
  155.5630  140.3465  155.4498 H   0  0  0  0  0  0  0  0  0  0  0  0  # atno 8010 bound_to 7997
  140.6529  143.2578  151.4671 H   0  0  0  0  0  0  0  0  0  0  0  0  # atno 10167 bound_to 10162
  157.5740  131.1081  150.8313 H   0  0  0  0  0  0  0  0  0  0  0  0  # atno 10718 bound_to 10713
  153.8725  135.3054  155.3442 H   0  0  0  0  0  0  0  0  0  0  0  0  # atno 10763 bound_to 10752
  154.7799  135.4841  153.9825 H   0  0  0  0  0  0  0  0  0  0  0  0  # atno 10764 bound_to 10752
  153.1398  135.6821  153.9142 H   0  0  0  0  0  0  0  0  0  0  0  0  # atno 10765 bound_to 10752
  141.0237  133.6851  156.2441 H   0  0  0  0  0  0  0  0  0  0  0  0  # atno 11005 bound_to 11000
  145.0259  140.8832  143.5138 LP  0  0  0  0  0  0  0  0  0  0  0  0  # atno 17320 bound_to 7965
  145.1450  139.2549  143.5470 LP  0  0  0  0  0  0  0  0  0  0  0  0  # atno 17321 bound_to 7965
  139.5746  144.1848  152.1885 LP  0  0  0  0  0  0  0  0  0  0  0  0  # atno 17342 bound_to 10162
  140.1155  144.5420  150.6897 LP  0  0  0  0  0  0  0  0  0  0  0  0  # atno 17343 bound_to 10162
  156.8777  130.5168  149.5293 LP  0  0  0  0  0  0  0  0  0  0  0  0  # atno 17370 bound_to 10713
  156.0785  130.5801  150.9519 LP  0  0  0  0  0  0  0  0  0  0  0  0  # atno 17371 bound_to 10713
  140.6528  134.5049  157.5578 LP  0  0  0  0  0  0  0  0  0  0  0  0  # atno 17394 bound_to 11000
  139.9162  134.8241  156.1358 LP  0  0  0  0  0  0  0  0  0  0  0  0  # atno 17395 bound_to 11000

$$$$
