#       Name:                AV-unprocessed.smi:249
#       Creating user name   scv26
#       Creation time:       Thu Mar 26 21:00:25 2020


#       File generated by GOLD software.
#

@<TRIPOS>MOLECULE
AV-unprocessed.smi:249
    72    75     1
SMALL
NO_CHARGES


@<TRIPOS>ATOM
      1 ****        -3.7205  -3.5509   4.5200 C.3            1 S1                 0.0000
      2 ****        -4.0093  -2.1192   4.0390 C.3            1 S1                 0.0000
      3 ****        -3.7800  -1.9266   2.5775 N.4            1 S1                 1.0000
      4 ****        -2.3440  -2.1028   2.2170 C.3            1 S1                 0.0000
      5 ****        -2.1103  -2.0003   0.7021 C.3            1 S1                 0.0000
      6 ****        -2.5941  -0.6460   0.1437 C.3            1 S1                 0.0000
      7 ****        -1.8116   0.5079   0.6173 N.3            1 S1                 0.0000
      8 ****        -2.2259   1.8343   0.1707 C.3            1 S1                 0.0000
      9 ****        -0.4651   0.3926   0.5657 C.ar           1 S1                 0.0000
     10 ****         0.2193   0.6437   1.7086 N.ar           1 S1                 0.0000
     11 ****         1.5515   0.5384   1.7248 C.ar           1 S1                 0.0000
     12 ****         2.3747   0.2058   0.7282 N.ar           1 S1                 0.0000
     13 ****         1.6888  -0.0316  -0.4267 C.ar           1 S1                 0.0000
     14 ****         0.2776   0.0381  -0.5958 C.ar           1 S1                 0.0000
     15 ****        -0.0597  -0.2738  -1.9070 N.2            1 S1                 0.0000
     16 ****         1.0865  -0.5239  -2.4790 C.2            1 S1                 0.0000
     17 ****         2.1906  -0.3829  -1.6682 N.pl3          1 S1                 0.0000
     18 ****         3.5751  -0.6097  -2.0456 C.3            1 S1                 0.0000
     19 ****         4.5009   0.6282  -1.9095 C.3            1 S1                 0.0000
     20 ****         5.9729   0.1806  -2.0649 C.3            1 S1                 0.0000
     21 ****         6.2455  -0.2663  -3.3778 O.3            1 S1                 0.0000
     22 ****         4.1425   1.8153  -2.8509 C.3            1 S1                 0.0000
     23 ****         2.8401   2.5407  -2.5485 C.3            1 S1                 0.0000
     24 ****         3.0206   3.8729  -3.2680 C.3            1 S1                 0.0000
     25 ****         4.4174   4.1365  -3.2548 O.3            1 S1                 0.0000
     26 ****         5.1183   2.9963  -2.7732 C.3            1 S1                 0.0000
     27 ****        -4.0843  -0.5308   0.5153 C.3            1 S1                 0.0000
     28 ****        -4.3347  -0.6414   2.0381 C.3            1 S1                 0.0000
     29 ****        -5.8465  -0.4768   2.2995 C.3            1 S1                 0.0000
     30 ****        -4.0528  -3.6792   5.5505 H              1 S1                 0.0000
     31 ****        -2.6579  -3.7901   4.5016 H              1 S1                 0.0000
     32 ****        -4.2478  -4.2867   3.9121 H              1 S1                 0.0000
     33 ****        -5.0503  -1.9295   4.2888 H              1 S1                 0.0000
     34 ****        -3.4178  -1.3996   4.6068 H              1 S1                 0.0000
     35 ****        -1.7412  -1.3624   2.7448 H              1 S1                 0.0000
     36 ****        -1.9868  -3.0800   2.5369 H              1 S1                 0.0000
     37 ****        -1.0600  -2.1796   0.4724 H              1 S1                 0.0000
     38 ****        -2.6524  -2.8061   0.2055 H              1 S1                 0.0000
     39 ****        -2.5204  -0.6701  -0.9438 H              1 S1                 0.0000
     40 ****        -1.4550   2.5875   0.3440 H              1 S1                 0.0000
     41 ****        -3.1162   2.1542   0.7120 H              1 S1                 0.0000
     42 ****        -2.4565   1.8267  -0.8952 H              1 S1                 0.0000
     43 ****         2.0264   0.7501   2.6715 H              1 S1                 0.0000
     44 ****         1.1592  -0.8083  -3.5188 H              1 S1                 0.0000
     45 ****         3.9459  -1.4216  -1.4188 H              1 S1                 0.0000
     46 ****         3.5976  -0.9821  -3.0706 H              1 S1                 0.0000
     47 ****         4.4147   0.9933  -0.8860 H              1 S1                 0.0000
     48 ****         6.6596   0.9905  -1.8192 H              1 S1                 0.0000
     49 ****         6.1990  -0.6277  -1.3688 H              1 S1                 0.0000
     50 ****         7.1532  -0.5250  -3.4252 H              1 S1                 0.0000
     51 ****         4.1098   1.4633  -3.8834 H              1 S1                 0.0000
     52 ****         1.9544   2.0180  -2.9045 H              1 S1                 0.0000
     53 ****         2.7339   2.7054  -1.4751 H              1 S1                 0.0000
     54 ****         2.6952   3.7914  -4.3057 H              1 S1                 0.0000
     55 ****         2.4567   4.6791  -2.7983 H              1 S1                 0.0000
     56 ****         5.4081   3.1896  -1.7394 H              1 S1                 0.0000
     57 ****         6.0267   2.8281  -3.3519 H              1 S1                 0.0000
     58 ****        -4.5019   0.3984   0.1271 H              1 S1                 0.0000
     59 ****        -4.6354  -1.3241   0.0076 H              1 S1                 0.0000
     60 ****        -3.8181   0.1824   2.5337 H              1 S1                 0.0000
     61 ****        -6.2443   0.3805   1.7554 H              1 S1                 0.0000
     62 ****        -6.0703  -0.2926   3.3496 H              1 S1                 0.0000
     63 ****        -6.4056  -1.3560   1.9775 H              1 S1                 0.0000
     64 ****        -4.2864  -2.6655   2.1108 H              1 S1                 0.0000
     65 ****        -2.0726   0.4503   1.5809 LP             1 S1                 0.0000
     66 ****        -0.2721   0.9074   2.5386 LP             1 S1                 0.0000
     67 ****         3.3685   0.1391   0.8169 LP             1 S1                 0.0000
     68 ****        -0.9710  -0.3005  -2.3180 LP             1 S1                 0.0000
     69 ****         6.0713   0.4728  -4.0285 LP             1 S1                 0.0000
     70 ****         5.6606  -1.0474  -3.5963 LP             1 S1                 0.0000
     71 ****         4.6024   4.9167  -2.6573 LP             1 S1                 0.0000
     72 ****         4.7243   4.3473  -4.1829 LP             1 S1                 0.0000
@<TRIPOS>BOND
    1    1    2 1     
    2    1   30 1     
    3    1   31 1     
    4    1   32 1     
    5    2    3 1     
    6    2   33 1     
    7    2   34 1     
    8    3   28 1     
    9    3    4 1     
   10    3   64 1     
   11    4    5 1     
   12    4   35 1     
   13    4   36 1     
   14    5    6 1     
   15    5   37 1     
   16    5   38 1     
   17    6    7 1     
   18    6   27 1     
   19    6   39 1     
   20    7    8 1     
   21    7    9 1     
   22    8   40 1     
   23    8   41 1     
   24    8   42 1     
   25    9   14 ar    
   26    9   10 ar    
   27   10   11 ar    
   28   11   12 ar    
   29   11   43 1     
   30   12   13 ar    
   31   13   17 1     
   32   13   14 ar    
   33   14   15 1     
   34   15   16 2     
   35   16   17 1     
   36   16   44 1     
   37   17   18 1     
   38   18   19 1     
   39   18   45 1     
   40   18   46 1     
   41   19   20 1     
   42   19   22 1     
   43   19   47 1     
   44   20   21 1     
   45   20   48 1     
   46   20   49 1     
   47   21   50 1     
   48   22   26 1     
   49   22   23 1     
   50   22   51 1     
   51   23   24 1     
   52   23   52 1     
   53   23   53 1     
   54   24   25 1     
   55   24   54 1     
   56   24   55 1     
   57   25   26 1     
   58   26   56 1     
   59   26   57 1     
   60   27   28 1     
   61   27   58 1     
   62   27   59 1     
   63   28   29 1     
   64   28   60 1     
   65   29   61 1     
   66   29   62 1     
   67   29   63 1     
   68    7   65 1     
   69   10   66 1     
   70   12   67 1     
   71   15   68 1     
   72   21   69 1     
   73   21   70 1     
   74   25   71 1     
   75   25   72 1     
@<TRIPOS>SUBSTRUCTURE
      1 S1             1
@<TRIPOS>SET
LONE_PAIRS      STATIC     ATOMS    <user>   **** ""
8 65 66 67 68 69 70 71 72
DONOR_HYDROGENS      STATIC     ATOMS    <user>   **** ""
2 64 50
ATOM$BLUE        STATIC     ATOMS    COLORGROUP SYSTEM
8 65 66 67 68 69 70 71 72
ATOM$RED        STATIC     ATOMS    COLORGROUP SYSTEM
2 64 50
