AV-unprocessed.smi:1601|AV-procd|sdf|6434|dock4
  -GOLD-   22720 7 73D 1   1.00000     0.00000
 Structure written by MMmdl.
 41 42  0  0  0  0  0  0  0  0  1 V2000
  154.0327  141.6228  161.2467 C   0  0  0  0  0  0  0  0  0  0  0  0
  153.3094  141.6503  159.8757 C   0  0  1  0  0  0  0  0  0  0  0  0
  152.7797  140.2234  159.5651 C   0  0  0  0  0  0  0  0  0  0  0  0
  152.4324  140.0596  158.1571 N   0  0  0  0  0  0  0  0  0  0  0  0
  151.2181  139.7333  157.6892 C   0  0  0  0  0  0  0  0  0  0  0  0
  150.2429  139.5411  158.4165 O   0  0  0  0  0  0  0  0  0  0  0  0
  151.0921  139.6138  156.1628 C   0  0  1  0  0  0  0  0  0  0  0  0
  152.0314  138.5458  155.5732 C   0  0  0  0  0  0  0  0  0  0  0  0
  149.7071  139.3589  155.7893 N   0  0  0  0  0  0  0  0  0  0  0  0
  148.9175  138.2632  156.0813 C   0  0  0  0  0  0  0  0  0  0  0  0
  147.6917  138.4809  155.5207 C   0  0  0  0  0  0  0  0  0  0  0  0
  147.8267  139.7526  154.8977 C   0  0  0  0  0  0  0  0  0  0  0  0
  149.0316  140.2748  155.0599 N   0  0  0  0  0  0  0  0  0  0  0  0
  152.2615  142.6951  159.8040 N   0  0  0  0  0  0  0  0  0  0  0  0
  151.9978  143.1438  158.4315 C   0  0  0  0  0  0  0  0  0  0  0  0
  150.9318  144.2512  158.3593 C   0  0  0  0  0  0  0  0  0  0  0  0
  151.3260  145.3514  159.1672 O   0  0  0  0  0  0  0  0  0  0  0  0
  151.5152  144.9750  160.5239 C   0  0  0  0  0  0  0  0  0  0  0  0
  152.5888  143.8769  160.6101 C   0  0  0  0  0  0  0  0  0  0  0  0
  154.7573  140.8129  161.3224 H   0  0  0  0  0  0  0  0  0  0  0  0
  153.3209  141.5002  162.0637 H   0  0  0  0  0  0  0  0  0  0  0  0
  154.6043  142.5313  161.4304 H   0  0  0  0  0  0  0  0  0  0  0  0
  154.0639  141.8803  159.1216 H   0  0  0  0  0  0  0  0  0  0  0  0
  153.5206  139.4838  159.8742 H   0  0  0  0  0  0  0  0  0  0  0  0
  151.8646  140.0025  160.1114 H   0  0  0  0  0  0  0  0  0  0  0  0
  153.1735  140.2045  157.4866 H   0  0  0  0  0  0  0  0  0  0  0  0
  151.3875  140.5741  155.7347 H   0  0  0  0  0  0  0  0  0  0  0  0
  153.0701  138.7432  155.8408 H   0  0  0  0  0  0  0  0  0  0  0  0
  151.9708  138.5356  154.4846 H   0  0  0  0  0  0  0  0  0  0  0  0
  151.7814  137.5443  155.9255 H   0  0  0  0  0  0  0  0  0  0  0  0
  149.2906  137.4301  156.6591 H   0  0  0  0  0  0  0  0  0  0  0  0
  146.8302  137.8306  155.5513 H   0  0  0  0  0  0  0  0  0  0  0  0
  147.0895  140.3083  154.3371 H   0  0  0  0  0  0  0  0  0  0  0  0
  152.9221  143.5008  157.9744 H   0  0  0  0  0  0  0  0  0  0  0  0
  151.6375  142.3206  157.8181 H   0  0  0  0  0  0  0  0  0  0  0  0
  150.8090  144.5917  157.3311 H   0  0  0  0  0  0  0  0  0  0  0  0
  149.9622  143.8758  158.6900 H   0  0  0  0  0  0  0  0  0  0  0  0
  151.8218  145.8504  161.0967 H   0  0  0  0  0  0  0  0  0  0  0  0
  150.5723  144.6280  160.9496 H   0  0  0  0  0  0  0  0  0  0  0  0
  152.6868  143.6102  161.6608 H   0  0  0  0  0  0  0  0  0  0  0  0
  153.5504  144.2854  160.2951 H   0  0  0  0  0  0  0  0  0  0  0  0
  1  2  1  0  0  0  0
  1 20  1  0  0  0  0
  1 21  1  0  0  0  0
  1 22  1  0  0  0  0
  2  3  1  0  0  0  0
  2 14  1  0  0  0  0
  2 23  1  0  0  0  0
  3  4  1  0  0  0  0
  3 24  1  0  0  0  0
  3 25  1  0  0  0  0
  4  5  1  0  0  0  0
  4 26  1  0  0  0  0
  5  6  2  0  0  0  0
  5  7  1  0  0  0  0
  7  8  1  0  0  0  0
  7  9  1  0  0  0  0
  7 27  1  0  0  0  0
  8 28  1  0  0  0  0
  8 29  1  0  0  0  0
  8 30  1  0  0  0  0
  9 13  1  0  0  0  0
  9 10  1  0  0  0  0
 10 11  2  0  0  0  0
 10 31  1  0  0  0  0
 11 12  1  0  0  0  0
 11 32  1  0  0  0  0
 12 13  2  0  0  0  0
 12 33  1  0  0  0  0
 14 19  1  0  0  0  0
 14 15  1  0  0  0  0
 15 16  1  0  0  0  0
 15 34  1  0  0  0  0
 15 35  1  0  0  0  0
 16 17  1  0  0  0  0
 16 36  1  0  0  0  0
 16 37  1  0  0  0  0
 17 18  1  0  0  0  0
 18 19  1  0  0  0  0
 18 38  1  0  0  0  0
 18 39  1  0  0  0  0
 19 40  1  0  0  0  0
 19 41  1  0  0  0  0
M  END
> <s_m_source_file>
AV-unprocessed.smi

> <i_m_source_file_index>
1601

> <i_lp_mmshare_version>
43012

> <i_f3d_flags>
0

> <s_epik_input>
W0NIMl0xW0NIMl1PW0NIMl1bQ0gyXU4xW0NASF0oW0NIM10pW0NIMl1bTkhdQyg9TylbQ0BIXShbQ0gzXSluMltjSF1bY0hdW2NIXW4y

> <s_epik_cmdline>
J2VwaWtfcHl0aG9uJywgJy1waCcsICc3LjAnLCAnLXRuJywgJzgnLCAnLW1hJywgJzIwMCcsICctbWV0YWxfYmluZGluZycsICctaW1hZScsICc8aW5maWxlLm1hZT4nLCAnLW9tYWUnLCAnPG91dGZpbGUubWFlPic=

> <r_lp_tautomer_probability>
1

> <r_epik_Ionization_Penalty>
0.203323

> <r_epik_Ionization_Penalty_Charging>
0

> <r_epik_Ionization_Penalty_Neutral>
0.203323

> <r_epik_State_Penalty>
0.193192

> <r_epik_Charging_Adjusted_Penalty>
0.193192

> <i_epik_Tot_Q>
0

> <i_epik_Tot_abs_Q>
0

> <r_epik_Metal_State_Penalty>
0.193187

> <b_epik_Metal_Only>
0

> <s_lp_Force_Field>
OPLS_2005

> <r_lp_Energy>
33.1122

> <b_lp_Chiralities_Consistent>
1

> <s_lp_Variant>
AV-unprocessed.smi:1601-4

> <Gold.Version>
5.8.1

> <Gold.Id.Protein>
6NUR|6NUR_protein|mol2

> <Gold.PLP.Fitness>
41.9302

> <Gold.PLP.PLP>
-39.4723

> <Gold.PLP.part.hbond>
-1.5748

> <Gold.PLP.part.metal>
0.0000

> <Gold.PLP.part.buried>
-2.6980

> <Gold.PLP.part.nonpolar>
-35.8708

> <Gold.PLP.part.repulsive>
1.1026

> <Gold.PLP.ligand.clash>
0.0000

> <Gold.PLP.ligand.torsion>
0.6885

> <Gold.PLP.Chemscore.Hbond>
0.8640

> <Gold.PLP.Chemscore.CHOScore>
0.3819

> <Gold.PLP.Chemscore.Metal>
0.0000

> <Gold.PLP.Chemscore.Internal.Correction>
0.0971

> <Gold.Rescore>
     Score         DG    S(hbond)    S(metal)    S(lipo)     H(rot)  DE(clash)    DE(int)     intcor
     13.86     -15.80       0.92        0.00     100.95       1.79       0.18       1.76       ----

> <Gold.Chemscore.Fitness>
13.8638

> <Gold.Chemscore.DG>
-15.8013

> <Gold.Chemscore.ZeroCoef>
-5.4800

> <Gold.Chemscore.Hbond>
0.9239

> <Gold.Chemscore.Metal>
0.0000

> <Gold.Chemscore.Lipo>
100.9454

> <Gold.Chemscore.Internal_Hbond>
0.0000

> <Gold.Chemscore.DEClash>
0.1808

> <Gold.Chemscore.DEInternal>
1.7567

> <Gold.Chemscore.Rot>
1.7872

> <Gold.Chemscore.Internal.Correction>
   9.000000E+99

> <Gold.Chemscore.Hbond.Weighted>
-3.0859

> <Gold.Chemscore.Metal.Weighted>
-0.0000

> <Gold.Chemscore.Lipo.Weighted>
-11.8106

> <Gold.Chemscore.Internal_Hbond.Weighted>
0.0000

> <Gold.Chemscore.DEClash.Weighted>
0.1808

> <Gold.Chemscore.DEInternal.Weighted>
1.7567

> <Gold.Chemscore.Rot.Weighted>
4.5752

> <Gold.Chemscore.Internal.Correction.Weighted>
   9.000000E+99

> <Gold.Protein.RotatedTorsions>
[ 6907 6896 6895 6894 ] final   -6.25 input  -60.11 | X-H torsion
[ 7974 7965 7964 7962 ] final   15.18 input  175.53 | X-H torsion
[ 8008 7997 7996 7995 ] final -125.57 input   59.86 | X-H torsion
[ 10167 10162 10161 10158 ] final  122.80 input  -65.29 | X-H torsion
[ 10718 10713 10712 10709 ] final   -2.53 input   66.30 | X-H torsion
[ 10763 10752 10751 10750 ] final -110.98 input  -60.55 | X-H torsion
[ 11005 11000 10999 10996 ] final  -77.62 input  -57.11 | X-H torsion

> <Gold.Protein.ActiveResidues>
 VAL166  LYS551  ARG553  GLY616  TRP617  ASP618  TYR619  PRO620  LYS621  CYS622 
 ASP623  PHE694  ASN695  SER759  ASP760  ASP761  ALA762  ILE779  LEU786  VAL792 
 PHE793  MET794  SER795  GLU796  ALA797  LYS798  CYS799  TRP800  GLU811  SER814 

> <Gold.Protein.RotatedAtoms>
  151.4686  135.1044  159.9744 H   0  0  0  0  0  0  0  0  0  0  0  0  # atno 6907 bound_to 6896
  152.4825  133.8286  159.7102 H   0  0  0  0  0  0  0  0  0  0  0  0  # atno 6908 bound_to 6896
  150.8908  133.7185  159.2932 H   0  0  0  0  0  0  0  0  0  0  0  0  # atno 6909 bound_to 6896
  146.2285  139.8932  142.8551 H   0  0  0  0  0  0  0  0  0  0  0  0  # atno 7974 bound_to 7965
  155.2154  140.0420  157.2940 H   0  0  0  0  0  0  0  0  0  0  0  0  # atno 8008 bound_to 7997
  154.5984  140.2445  155.7797 H   0  0  0  0  0  0  0  0  0  0  0  0  # atno 8009 bound_to 7997
  156.2305  140.2940  156.0185 H   0  0  0  0  0  0  0  0  0  0  0  0  # atno 8010 bound_to 7997
  139.5837  144.6997  151.3463 H   0  0  0  0  0  0  0  0  0  0  0  0  # atno 10167 bound_to 10162
  156.7895  130.5357  149.5738 H   0  0  0  0  0  0  0  0  0  0  0  0  # atno 10718 bound_to 10713
  154.8276  135.4544  154.0969 H   0  0  0  0  0  0  0  0  0  0  0  0  # atno 10763 bound_to 10752
  153.2269  135.6901  153.7941 H   0  0  0  0  0  0  0  0  0  0  0  0  # atno 10764 bound_to 10752
  153.7338  135.3323  155.3267 H   0  0  0  0  0  0  0  0  0  0  0  0  # atno 10765 bound_to 10752
  141.1661  133.7030  156.7848 H   0  0  0  0  0  0  0  0  0  0  0  0  # atno 11005 bound_to 11000
  145.2397  141.0004  143.3943 LP  0  0  0  0  0  0  0  0  0  0  0  0  # atno 17320 bound_to 7965
  144.9462  139.4133  143.6425 LP  0  0  0  0  0  0  0  0  0  0  0  0  # atno 17321 bound_to 7965
  140.7112  143.7385  150.7570 LP  0  0  0  0  0  0  0  0  0  0  0  0  # atno 17342 bound_to 10162
  140.0925  143.4864  152.2471 LP  0  0  0  0  0  0  0  0  0  0  0  0  # atno 17343 bound_to 10162
  156.1168  130.6081  151.0133 LP  0  0  0  0  0  0  0  0  0  0  0  0  # atno 17370 bound_to 10713
  157.6608  131.0881  150.7844 LP  0  0  0  0  0  0  0  0  0  0  0  0  # atno 17371 bound_to 10713
  140.2368  134.8644  157.3533 LP  0  0  0  0  0  0  0  0  0  0  0  0  # atno 17394 bound_to 11000
  140.1835  134.4460  155.7757 LP  0  0  0  0  0  0  0  0  0  0  0  0  # atno 17395 bound_to 11000

$$$$
