AV-unprocessed.smi:2175|AV-procd|sdf|8844|dock1
  -GOLD-   2272012 33D 1   1.00000     0.00000
 Structure written by MMmdl.
 34 35  0  0  0  0  0  0  0  0  1 V2000
  146.8129  138.7522  152.5826 C   0  0  0  0  0  0  0  0  0  0  0  0
  147.9553  139.2228  153.4561 C   0  0  0  0  0  0  0  0  0  0  0  0
  149.0594  138.3873  153.4247 N   0  0  0  0  0  0  0  0  0  0  0  0
  150.1579  138.7372  154.1898 C   0  0  0  0  0  0  0  0  0  0  0  0
  151.3255  137.7705  154.0959 C   0  0  0  0  0  0  0  0  0  0  0  0
  150.1546  139.8602  154.9519 C   0  0  0  0  0  0  0  0  0  0  0  0
  151.3473  140.2783  155.8105 C   0  0  0  0  0  0  0  0  0  0  0  0
  151.0210  140.6534  157.2583 C   0  0  0  0  0  0  0  0  0  0  0  0
  150.3995  139.8702  157.9766 O   0  0  0  0  0  0  0  0  0  0  0  0
  151.4496  141.8544  157.6751 N   0  0  0  0  0  0  0  0  0  0  0  0
  151.2432  142.3982  159.0112 C   0  0  0  0  0  0  0  0  0  0  0  0
  152.5069  142.8460  159.7210 C   0  0  0  0  0  0  0  0  0  0  0  0
  153.3550  141.8639  160.4945 C   0  0  0  0  0  0  0  0  0  0  0  0
  152.5545  142.9125  161.2292 C   0  0  0  0  0  0  0  0  0  0  0  0
  148.9401  140.7098  154.9520 C   0  0  0  0  0  0  0  0  0  0  0  0
  148.8688  141.7318  155.6332 O   0  0  0  0  0  0  0  0  0  0  0  0
  147.8559  140.3148  154.1514 N   0  0  0  0  0  0  0  0  0  0  0  0
  149.1036  137.5424  152.8735 H   0  0  0  0  0  0  0  0  0  0  0  0
  146.0166  139.4968  152.5470 H   0  0  0  0  0  0  0  0  0  0  0  0
  146.3956  137.8239  152.9737 H   0  0  0  0  0  0  0  0  0  0  0  0
  147.1585  138.5751  151.5637 H   0  0  0  0  0  0  0  0  0  0  0  0
  152.2054  138.2733  153.6946 H   0  0  0  0  0  0  0  0  0  0  0  0
  151.0970  136.9263  153.4442 H   0  0  0  0  0  0  0  0  0  0  0  0
  151.5729  137.3738  155.0807 H   0  0  0  0  0  0  0  0  0  0  0  0
  151.8782  141.1140  155.3540 H   0  0  0  0  0  0  0  0  0  0  0  0
  152.0692  139.4610  155.8112 H   0  0  0  0  0  0  0  0  0  0  0  0
  151.9523  142.4340  157.0187 H   0  0  0  0  0  0  0  0  0  0  0  0
  150.5538  143.2426  158.9594 H   0  0  0  0  0  0  0  0  0  0  0  0
  150.7455  141.6370  159.6125 H   0  0  0  0  0  0  0  0  0  0  0  0
  153.0429  143.6403  159.2046 H   0  0  0  0  0  0  0  0  0  0  0  0
  153.0097  140.8337  160.5562 H   0  0  0  0  0  0  0  0  0  0  0  0
  154.4346  141.9920  160.4530 H   0  0  0  0  0  0  0  0  0  0  0  0
  153.1010  143.7396  161.6777 H   0  0  0  0  0  0  0  0  0  0  0  0
  151.6778  142.5786  161.7806 H   0  0  0  0  0  0  0  0  0  0  0  0
  1 19  1  0  0  0  0
  1 20  1  0  0  0  0
  1 21  1  0  0  0  0
  1  2  1  0  0  0  0
  2  3  1  0  0  0  0
  2 17  2  0  0  0  0
  3  4  1  0  0  0  0
  3 18  1  0  0  0  0
  4  6  2  0  0  0  0
  4  5  1  0  0  0  0
  5 22  1  0  0  0  0
  5 23  1  0  0  0  0
  5 24  1  0  0  0  0
  6 15  1  0  0  0  0
  6  7  1  0  0  0  0
  7  8  1  0  0  0  0
  7 25  1  0  0  0  0
  7 26  1  0  0  0  0
  8  9  2  0  0  0  0
  8 10  1  0  0  0  0
 10 11  1  0  0  0  0
 10 27  1  0  0  0  0
 11 12  1  0  0  0  0
 11 28  1  0  0  0  0
 11 29  1  0  0  0  0
 12 14  1  0  0  0  0
 12 13  1  0  0  0  0
 12 30  1  0  0  0  0
 13 14  1  0  0  0  0
 13 31  1  0  0  0  0
 13 32  1  0  0  0  0
 14 33  1  0  0  0  0
 14 34  1  0  0  0  0
 15 16  2  0  0  0  0
 15 17  1  0  0  0  0
M  END
> <s_m_source_file>
AV-unprocessed.smi

> <i_m_source_file_index>
2175

> <i_lp_mmshare_version>
43012

> <i_f3d_flags>
0

> <s_epik_input>
W0NIM11jMW5jKFtDSDNdKWMoYyg9TylbbkhdMSlbQ0gyXUMoPU8pW05IXVtDSDJdW0NIXTJbQ0gyXVtDSDJdMg==

> <s_epik_cmdline>
J2VwaWtfcHl0aG9uJywgJy1waCcsICc3LjAnLCAnLXRuJywgJzgnLCAnLW1hJywgJzIwMCcsICctbWV0YWxfYmluZGluZycsICctaW1hZScsICc8aW5maWxlLm1hZT4nLCAnLW9tYWUnLCAnPG91dGZpbGUubWFlPic=

> <r_lp_tautomer_probability>
0.156392

> <r_epik_Ionization_Penalty>
0.0142343

> <r_epik_Ionization_Penalty_Charging>
0.0141145

> <r_epik_Ionization_Penalty_Neutral>
0.000119779

> <r_epik_State_Penalty>
1.52879

> <r_epik_Charging_Adjusted_Penalty>
1.5429

> <i_epik_Tot_Q>
0

> <i_epik_Tot_abs_Q>
0

> <r_epik_Metal_State_Penalty>
1.70685

> <b_epik_Metal_Only>
0

> <s_lp_Force_Field>
OPLS_2005

> <r_lp_Energy>
17.5363

> <b_lp_Chiralities_Consistent>
1

> <s_lp_Variant>
AV-unprocessed.smi:2175-2

> <Gold.Version>
5.8.1

> <Gold.Id.Protein>
6NUR|6NUR_protein|mol2

> <Gold.PLP.Fitness>
38.0727

> <Gold.PLP.PLP>
-35.4101

> <Gold.PLP.part.hbond>
-2.0000

> <Gold.PLP.part.metal>
0.0000

> <Gold.PLP.part.buried>
-2.2486

> <Gold.PLP.part.nonpolar>
-32.7394

> <Gold.PLP.part.repulsive>
1.7456

> <Gold.PLP.ligand.clash>
0.0000

> <Gold.PLP.ligand.torsion>
0.4394

> <Gold.PLP.Chemscore.Hbond>
1.0000

> <Gold.PLP.Chemscore.CHOScore>
0.0000

> <Gold.PLP.Chemscore.Metal>
0.0000

> <Gold.Chemscore.Hbonds>
donor molecule, donor type, donor heavy atom, donor atom, acceptor molecule, acceptor atom, score
      L1  H     3    18       P1  7948  1.00

> <Gold.PLP.Chemscore.Internal.Correction>
0.5414

> <Gold.Rescore>
     Score         DG    S(hbond)    S(metal)    S(lipo)     H(rot)  DE(clash)    DE(int)     intcor
     11.46     -13.34       0.93        0.00      78.84       1.75       0.13       1.76       ----

> <Gold.Chemscore.Fitness>
11.4561

> <Gold.Chemscore.DG>
-13.3437

> <Gold.Chemscore.ZeroCoef>
-5.4800

> <Gold.Chemscore.Hbond>
0.9337

> <Gold.Chemscore.Metal>
0.0000

> <Gold.Chemscore.Lipo>
78.8395

> <Gold.Chemscore.Internal_Hbond>
0.0000

> <Gold.Chemscore.DEClash>
0.1321

> <Gold.Chemscore.DEInternal>
1.7556

> <Gold.Chemscore.Rot>
1.7497

> <Gold.Chemscore.Internal.Correction>
   9.000000E+99

> <Gold.Chemscore.Hbonds>
donor molecule, donor type, donor heavy atom, donor atom, acceptor molecule, acceptor atom, score
      L1  H     3    18       P1  7948  0.99

> <Gold.Chemscore.Hbond.Weighted>
-3.1186

> <Gold.Chemscore.Metal.Weighted>
-0.0000

> <Gold.Chemscore.Lipo.Weighted>
-9.2242

> <Gold.Chemscore.Internal_Hbond.Weighted>
0.0000

> <Gold.Chemscore.DEClash.Weighted>
0.1321

> <Gold.Chemscore.DEInternal.Weighted>
1.7556

> <Gold.Chemscore.Rot.Weighted>
4.4791

> <Gold.Chemscore.Internal.Correction.Weighted>
   9.000000E+99

> <Gold.Protein.RotatedTorsions>
[ 6907 6896 6895 6894 ] final   55.47 input  -60.11 | X-H torsion
[ 7974 7965 7964 7962 ] final   48.01 input  175.53 | X-H torsion
[ 8008 7997 7996 7995 ] final -156.92 input   59.86 | X-H torsion
[ 10167 10162 10161 10158 ] final  -47.98 input  -65.29 | X-H torsion
[ 10718 10713 10712 10709 ] final  171.47 input   66.30 | X-H torsion
[ 10763 10752 10751 10750 ] final  172.55 input  -60.55 | X-H torsion
[ 11005 11000 10999 10996 ] final  -76.74 input  -57.11 | X-H torsion

> <Gold.Protein.ActiveResidues>
 VAL166  LYS551  ARG553  GLY616  TRP617  ASP618  TYR619  PRO620  LYS621  CYS622 
 ASP623  PHE694  ASN695  SER759  ASP760  ASP761  ALA762  ILE779  LEU786  VAL792 
 PHE793  MET794  SER795  GLU796  ALA797  LYS798  CYS799  TRP800  GLU811  SER814 

> <Gold.Protein.RotatedAtoms>
  152.3542  134.6963  160.0226 H   0  0  0  0  0  0  0  0  0  0  0  0  # atno 6907 bound_to 6896
  151.7307  133.3312  159.3347 H   0  0  0  0  0  0  0  0  0  0  0  0  # atno 6908 bound_to 6896
  150.7560  134.6299  159.6225 H   0  0  0  0  0  0  0  0  0  0  0  0  # atno 6909 bound_to 6896
  146.0244  139.4689  142.9877 H   0  0  0  0  0  0  0  0  0  0  0  0  # atno 7974 bound_to 7965
  155.7245  140.0794  157.2316 H   0  0  0  0  0  0  0  0  0  0  0  0  # atno 8008 bound_to 7997
  154.4041  140.1606  156.2493 H   0  0  0  0  0  0  0  0  0  0  0  0  # atno 8009 bound_to 7997
  155.9166  140.3400  155.6143 H   0  0  0  0  0  0  0  0  0  0  0  0  # atno 8010 bound_to 7997
  140.6751  143.2760  151.4004 H   0  0  0  0  0  0  0  0  0  0  0  0  # atno 10167 bound_to 10162
  156.9931  131.0153  151.2851 H   0  0  0  0  0  0  0  0  0  0  0  0  # atno 10718 bound_to 10713
  154.4276  135.2759  155.1934 H   0  0  0  0  0  0  0  0  0  0  0  0  # atno 10763 bound_to 10752
  154.3853  135.6078  153.5817 H   0  0  0  0  0  0  0  0  0  0  0  0  # atno 10764 bound_to 10752
  152.9835  135.5890  154.4582 H   0  0  0  0  0  0  0  0  0  0  0  0  # atno 10765 bound_to 10752
  141.1656  133.6995  156.7715 H   0  0  0  0  0  0  0  0  0  0  0  0  # atno 11005 bound_to 11000
  145.7142  141.0096  143.1437 LP  0  0  0  0  0  0  0  0  0  0  0  0  # atno 17320 bound_to 7965
  144.7003  139.8793  143.7446 LP  0  0  0  0  0  0  0  0  0  0  0  0  # atno 17321 bound_to 7965
  139.6040  144.1237  152.2228 LP  0  0  0  0  0  0  0  0  0  0  0  0  # atno 17342 bound_to 10162
  140.0630  144.5841  150.7249 LP  0  0  0  0  0  0  0  0  0  0  0  0  # atno 17343 bound_to 10162
  157.5444  130.8141  149.8068 LP  0  0  0  0  0  0  0  0  0  0  0  0  # atno 17370 bound_to 10713
  156.0199  130.3799  150.1993 LP  0  0  0  0  0  0  0  0  0  0  0  0  # atno 17371 bound_to 10713
  140.2461  134.8577  157.3621 LP  0  0  0  0  0  0  0  0  0  0  0  0  # atno 17394 bound_to 11000
  140.1749  134.4563  155.7808 LP  0  0  0  0  0  0  0  0  0  0  0  0  # atno 17395 bound_to 11000

$$$$
