AV-unprocessed.smi:2871|AV-procd|sdf|11031|dock3
  -GOLD-   2272015493D 1   1.00000     0.00000
 Structure written by MMmdl.
 38 40  0  0  0  0  0  0  0  0  1 V2000
  154.2605  141.9483  162.7690 C   0  0  0  0  0  0  0  0  0  0  0  0
  154.1775  141.1456  161.5531 N   0  0  0  0  0  0  0  0  0  0  0  0
  154.8640  139.8625  161.4734 C   0  0  0  0  0  0  0  0  0  0  0  0
  153.4268  141.6167  160.4536 C   0  0  0  0  0  0  0  0  0  0  0  0
  153.1894  142.9968  160.2410 C   0  0  0  0  0  0  0  0  0  0  0  0
  152.4261  143.3488  159.1051 C   0  0  0  0  0  0  0  0  0  0  0  0
  152.0992  144.7957  158.7675 C   0  0  0  0  0  0  0  0  0  0  0  0
  150.7800  144.9387  158.6395 F   0  0  0  0  0  0  0  0  0  0  0  0
  152.5248  145.6306  159.7163 F   0  0  0  0  0  0  0  0  0  0  0  0
  152.6823  145.1329  157.6169 F   0  0  0  0  0  0  0  0  0  0  0  0
  151.9433  142.4110  158.2595 N   0  0  0  0  0  0  0  0  0  0  0  0
  152.2217  141.1393  158.5427 C   0  0  0  0  0  0  0  0  0  0  0  0
  151.7218  140.2082  157.6512 N   0  0  0  0  0  0  0  0  0  0  0  0
  151.6706  140.3938  156.2053 C   0  0  1  0  0  0  0  0  0  0  0  0
  152.3208  139.2476  155.4275 C   0  0  0  0  0  0  0  0  0  0  0  0
  151.1972  138.8467  154.4608 C   0  0  1  0  0  0  0  0  0  0  0  0
  150.0872  138.0684  155.1790 C   0  0  0  0  0  0  0  0  0  0  0  0
  149.4082  139.1719  155.9878 C   0  0  0  0  0  0  0  0  0  0  0  0
  150.2476  140.4050  155.6119 C   0  0  2  0  0  0  0  0  0  0  0  0
  150.5516  140.0935  154.2629 O   0  0  0  0  0  0  0  0  0  0  0  0
  152.9299  140.7010  159.5876 N   0  0  0  0  0  0  0  0  0  0  0  0
  154.7291  142.9107  162.5609 H   0  0  0  0  0  0  0  0  0  0  0  0
  154.8507  141.4484  163.5370 H   0  0  0  0  0  0  0  0  0  0  0  0
  153.2656  142.1293  163.1777 H   0  0  0  0  0  0  0  0  0  0  0  0
  155.5762  139.8591  160.6477 H   0  0  0  0  0  0  0  0  0  0  0  0
  154.1480  139.0545  161.3204 H   0  0  0  0  0  0  0  0  0  0  0  0
  155.4164  139.6495  162.3889 H   0  0  0  0  0  0  0  0  0  0  0  0
  153.5682  143.7569  160.9072 H   0  0  0  0  0  0  0  0  0  0  0  0
  151.2514  139.4056  158.0429 H   0  0  0  0  0  0  0  0  0  0  0  0
  152.1774  141.3253  155.9488 H   0  0  0  0  0  0  0  0  0  0  0  0
  153.1936  139.6090  154.8825 H   0  0  0  0  0  0  0  0  0  0  0  0
  152.6363  138.4122  156.0544 H   0  0  0  0  0  0  0  0  0  0  0  0
  151.5487  138.3710  153.5451 H   0  0  0  0  0  0  0  0  0  0  0  0
  149.3888  137.6355  154.4620 H   0  0  0  0  0  0  0  0  0  0  0  0
  150.4794  137.2648  155.8029 H   0  0  0  0  0  0  0  0  0  0  0  0
  148.3757  139.2991  155.6607 H   0  0  0  0  0  0  0  0  0  0  0  0
  149.3972  138.9708  157.0593 H   0  0  0  0  0  0  0  0  0  0  0  0
  149.7214  141.3514  155.7395 H   0  0  0  0  0  0  0  0  0  0  0  0
  1  2  1  0  0  0  0
  1 22  1  0  0  0  0
  1 23  1  0  0  0  0
  1 24  1  0  0  0  0
  2  3  1  0  0  0  0
  2  4  1  0  0  0  0
  3 25  1  0  0  0  0
  3 26  1  0  0  0  0
  3 27  1  0  0  0  0
  4 21  1  0  0  0  0
  4  5  2  0  0  0  0
  5  6  1  0  0  0  0
  5 28  1  0  0  0  0
  6  7  1  0  0  0  0
  6 11  2  0  0  0  0
  7  8  1  0  0  0  0
  7  9  1  0  0  0  0
  7 10  1  0  0  0  0
 11 12  1  0  0  0  0
 12 13  1  0  0  0  0
 12 21  2  0  0  0  0
 13 14  1  0  0  0  0
 13 29  1  0  0  0  0
 14 19  1  0  0  0  0
 14 15  1  0  0  0  0
 14 30  1  0  0  0  0
 15 16  1  0  0  0  0
 15 31  1  0  0  0  0
 15 32  1  0  0  0  0
 16 20  1  0  0  0  0
 16 17  1  0  0  0  0
 16 33  1  0  0  0  0
 17 18  1  0  0  0  0
 17 34  1  0  0  0  0
 17 35  1  0  0  0  0
 18 19  1  0  0  0  0
 18 36  1  0  0  0  0
 18 37  1  0  0  0  0
 19 20  1  0  0  0  0
 19 38  1  0  0  0  0
M  END
> <s_m_source_file>
AV-unprocessed.smi

> <i_m_source_file_index>
2871

> <i_lp_mmshare_version>
43012

> <i_f3d_flags>
0

> <s_epik_input>
W0NIM11OKFtDSDNdKWMxW2NIXWMoQyhGKShGKUYpbmMobjEpW05IXVtDQEhdKFtDSDJdW0NAQEhdMjMpW0NAQEhdKE8zKVtDSDJdW0NIMl0y

> <s_epik_cmdline>
J2VwaWtfcHl0aG9uJywgJy1waCcsICc3LjAnLCAnLXRuJywgJzgnLCAnLW1hJywgJzIwMCcsICctbWV0YWxfYmluZGluZycsICctaW1hZScsICc8aW5maWxlLm1hZT4nLCAnLW9tYWUnLCAnPG91dGZpbGUubWFlPic=

> <r_lp_tautomer_probability>
1

> <r_epik_Ionization_Penalty>
0.00695968

> <r_epik_Ionization_Penalty_Charging>
0

> <r_epik_Ionization_Penalty_Neutral>
0.00695968

> <r_epik_State_Penalty>
0.0050343

> <r_epik_Charging_Adjusted_Penalty>
0.0050343

> <i_epik_Tot_Q>
0

> <i_epik_Tot_abs_Q>
0

> <r_epik_Metal_State_Penalty>
-0

> <b_epik_Metal_Only>
0

> <s_lp_Force_Field>
OPLS_2005

> <r_lp_Energy>
32.958

> <b_lp_Chiralities_Consistent>
1

> <s_lp_Variant>
AV-unprocessed.smi:2871-2

> <Gold.Version>
5.8.1

> <Gold.Id.Protein>
6NUR|6NUR_protein|mol2

> <Gold.PLP.Fitness>
49.5895

> <Gold.PLP.PLP>
-47.8638

> <Gold.PLP.part.hbond>
-1.0000

> <Gold.PLP.part.metal>
0.0000

> <Gold.PLP.part.buried>
-4.0621

> <Gold.PLP.part.nonpolar>
-42.9806

> <Gold.PLP.part.repulsive>
0.2177

> <Gold.PLP.ligand.clash>
0.0000

> <Gold.PLP.ligand.torsion>
0.6734

> <Gold.PLP.Chemscore.Hbond>
1.0000

> <Gold.PLP.Chemscore.CHOScore>
0.0000

> <Gold.PLP.Chemscore.Metal>
0.0000

> <Gold.Chemscore.Hbonds>
donor molecule, donor type, donor heavy atom, donor atom, acceptor molecule, acceptor atom, score
      P1  H  7989  7998       L1    20  1.00

> <Gold.PLP.Chemscore.Internal.Correction>
0.0725

> <Gold.Rescore>
     Score         DG    S(hbond)    S(metal)    S(lipo)     H(rot)  DE(clash)    DE(int)     intcor
     14.56     -16.48       0.89        0.00      90.36       1.00       0.76       1.16       ----

> <Gold.Chemscore.Fitness>
14.5626

> <Gold.Chemscore.DG>
-16.4765

> <Gold.Chemscore.ZeroCoef>
-5.4800

> <Gold.Chemscore.Hbond>
0.8935

> <Gold.Chemscore.Metal>
0.0000

> <Gold.Chemscore.Lipo>
90.3613

> <Gold.Chemscore.Internal_Hbond>
0.0000

> <Gold.Chemscore.DEClash>
0.7579

> <Gold.Chemscore.DEInternal>
1.1561

> <Gold.Chemscore.Rot>
1.0000

> <Gold.Chemscore.Internal.Correction>
   9.000000E+99

> <Gold.Chemscore.Hbonds>
donor molecule, donor type, donor heavy atom, donor atom, acceptor molecule, acceptor atom, score
      P1  H  7989  7998       L1    20  0.32

> <Gold.Chemscore.Hbond.Weighted>
-2.9842

> <Gold.Chemscore.Metal.Weighted>
-0.0000

> <Gold.Chemscore.Lipo.Weighted>
-10.5723

> <Gold.Chemscore.Internal_Hbond.Weighted>
0.0000

> <Gold.Chemscore.DEClash.Weighted>
0.7579

> <Gold.Chemscore.DEInternal.Weighted>
1.1561

> <Gold.Chemscore.Rot.Weighted>
2.5600

> <Gold.Chemscore.Internal.Correction.Weighted>
   9.000000E+99

> <Gold.Protein.RotatedTorsions>
[ 6907 6896 6895 6894 ] final  -12.22 input  -60.11 | X-H torsion
[ 7974 7965 7964 7962 ] final -107.44 input  175.53 | X-H torsion
[ 8008 7997 7996 7995 ] final   -3.56 input   59.86 | X-H torsion
[ 10167 10162 10161 10158 ] final   66.15 input  -65.29 | X-H torsion
[ 10718 10713 10712 10709 ] final  100.93 input   66.30 | X-H torsion
[ 10763 10752 10751 10750 ] final   58.64 input  -60.55 | X-H torsion
[ 11005 11000 10999 10996 ] final  -38.16 input  -57.11 | X-H torsion

> <Gold.Protein.ActiveResidues>
 VAL166  LYS551  ARG553  GLY616  TRP617  ASP618  TYR619  PRO620  LYS621  CYS622 
 ASP623  PHE694  ASN695  SER759  ASP760  ASP761  ALA762  ILE779  LEU786  VAL792 
 PHE793  MET794  SER795  GLU796  ALA797  LYS798  CYS799  TRP800  GLU811  SER814 

> <Gold.Protein.RotatedAtoms>
  151.3740  135.0927  159.9474 H   0  0  0  0  0  0  0  0  0  0  0  0  # atno 6907 bound_to 6896
  152.5127  133.9137  159.7511 H   0  0  0  0  0  0  0  0  0  0  0  0  # atno 6908 bound_to 6896
  150.9557  133.6446  159.2792 H   0  0  0  0  0  0  0  0  0  0  0  0  # atno 6909 bound_to 6896
  145.2053  140.9073  143.3346 H   0  0  0  0  0  0  0  0  0  0  0  0  # atno 7974 bound_to 7965
  154.6236  140.2506  155.7519 H   0  0  0  0  0  0  0  0  0  0  0  0  # atno 8008 bound_to 7997
  156.2441  140.2921  156.0475 H   0  0  0  0  0  0  0  0  0  0  0  0  # atno 8009 bound_to 7997
  155.1857  140.0390  157.2881 H   0  0  0  0  0  0  0  0  0  0  0  0  # atno 8010 bound_to 7997
  140.1035  144.4882  150.7022 H   0  0  0  0  0  0  0  0  0  0  0  0  # atno 10167 bound_to 10162
  157.6842  131.0712  150.5175 H   0  0  0  0  0  0  0  0  0  0  0  0  # atno 10718 bound_to 10713
  152.9875  135.5600  154.5584 H   0  0  0  0  0  0  0  0  0  0  0  0  # atno 10763 bound_to 10752
  154.5008  135.2797  155.1424 H   0  0  0  0  0  0  0  0  0  0  0  0  # atno 10764 bound_to 10752
  154.2856  135.6336  153.5417 H   0  0  0  0  0  0  0  0  0  0  0  0  # atno 10765 bound_to 10752
  141.0007  133.6957  156.2017 H   0  0  0  0  0  0  0  0  0  0  0  0  # atno 11005 bound_to 11000
  144.9908  139.3691  143.6216 LP  0  0  0  0  0  0  0  0  0  0  0  0  # atno 17320 bound_to 7965
  146.3409  139.9090  142.8783 LP  0  0  0  0  0  0  0  0  0  0  0  0  # atno 17321 bound_to 7965
  140.6965  143.2407  151.4987 LP  0  0  0  0  0  0  0  0  0  0  0  0  # atno 17342 bound_to 10162
  139.5658  144.2046  152.1762 LP  0  0  0  0  0  0  0  0  0  0  0  0  # atno 17343 bound_to 10162
  156.5490  130.4227  149.6117 LP  0  0  0  0  0  0  0  0  0  0  0  0  # atno 17370 bound_to 10713
  156.2919  130.7129  151.1980 LP  0  0  0  0  0  0  0  0  0  0  0  0  # atno 17371 bound_to 10713
  140.6894  134.4682  157.5589 LP  0  0  0  0  0  0  0  0  0  0  0  0  # atno 17394 bound_to 11000
  139.9037  134.8497  156.1791 LP  0  0  0  0  0  0  0  0  0  0  0  0  # atno 17395 bound_to 11000

$$$$
