AV-unprocessed.smi:1281|AV-procd|sdf|5359|dock2
  -GOLD-   22720 4493D 1   1.00000     0.00000
 Structure written by MMmdl.
 45 46  0  0  0  0  0  0  0  0  1 V2000
  154.7932  133.5151  158.6274 C   0  0  0  0  0  0  0  0  0  0  0  0
  154.5056  133.7275  159.9979 O   0  0  0  0  0  0  0  0  0  0  0  0
  155.6383  133.5311  160.8290 C   0  0  0  0  0  0  0  0  0  0  0  0
  155.1889  133.4658  162.2974 C   0  0  0  0  0  0  0  0  0  0  0  0
  154.7270  134.7700  162.7852 N   0  0  0  0  0  0  0  0  0  0  0  0
  154.7181  135.7610  161.8180 N   0  0  0  0  0  0  0  0  0  0  0  0
  154.3380  136.9606  162.1186 C   0  0  0  0  0  0  0  0  0  0  0  0
  154.3216  138.0554  161.1094 C   0  0  0  0  0  0  0  0  0  0  0  0
  154.4069  137.8275  159.9013 O   0  0  0  0  0  0  0  0  0  0  0  0
  154.2056  139.2990  161.6097 N   0  0  0  0  0  0  0  0  0  0  0  0
  154.1679  140.5235  160.8192 C   0  0  0  0  0  0  0  0  0  0  0  0
  153.2117  140.3965  159.6200 C   0  0  0  0  0  0  0  0  0  0  0  0
  152.7748  141.7459  159.0753 C   0  0  0  0  0  0  0  0  0  0  0  0
  151.9477  141.8530  158.0171 C   0  0  0  0  0  0  0  0  0  0  0  0
  151.4951  143.1727  157.4169 C   0  0  0  0  0  0  0  0  0  0  0  0
  152.3356  144.3612  157.9133 C   0  0  0  0  0  0  0  0  0  0  0  0
  152.5869  144.2690  159.4234 C   0  0  0  0  0  0  0  0  0  0  0  0
  153.3314  142.9725  159.7899 C   0  0  0  0  0  0  0  0  0  0  0  0
  153.9089  137.2886  163.4679 C   0  0  0  0  0  0  0  0  0  0  0  0
  153.9296  136.3131  164.4026 C   0  0  0  0  0  0  0  0  0  0  0  0
  154.3657  134.9509  164.0913 C   0  0  0  0  0  0  0  0  0  0  0  0
  154.4065  134.0494  164.9282 O   0  0  0  0  0  0  0  0  0  0  0  0
  153.8928  133.6790  158.0352 H   0  0  0  0  0  0  0  0  0  0  0  0
  155.1326  132.4938  158.4489 H   0  0  0  0  0  0  0  0  0  0  0  0
  155.5593  134.2065  158.2741 H   0  0  0  0  0  0  0  0  0  0  0  0
  156.1294  132.5955  160.5574 H   0  0  0  0  0  0  0  0  0  0  0  0
  156.3647  134.3322  160.6831 H   0  0  0  0  0  0  0  0  0  0  0  0
  154.4002  132.7191  162.4062 H   0  0  0  0  0  0  0  0  0  0  0  0
  156.0118  133.1055  162.9171 H   0  0  0  0  0  0  0  0  0  0  0  0
  154.1391  139.4001  162.6126 H   0  0  0  0  0  0  0  0  0  0  0  0
  153.8461  141.3321  161.4755 H   0  0  0  0  0  0  0  0  0  0  0  0
  155.1737  140.7785  160.4808 H   0  0  0  0  0  0  0  0  0  0  0  0
  153.6955  139.8312  158.8222 H   0  0  0  0  0  0  0  0  0  0  0  0
  152.3252  139.8273  159.9023 H   0  0  0  0  0  0  0  0  0  0  0  0
  151.5599  140.9614  157.5462 H   0  0  0  0  0  0  0  0  0  0  0  0
  151.5477  143.1102  156.3296 H   0  0  0  0  0  0  0  0  0  0  0  0
  150.4461  143.3186  157.6761 H   0  0  0  0  0  0  0  0  0  0  0  0
  153.2936  144.3731  157.3919 H   0  0  0  0  0  0  0  0  0  0  0  0
  151.8374  145.2990  157.6664 H   0  0  0  0  0  0  0  0  0  0  0  0
  153.1548  145.1339  159.7670 H   0  0  0  0  0  0  0  0  0  0  0  0
  151.6305  144.3003  159.9471 H   0  0  0  0  0  0  0  0  0  0  0  0
  153.2855  142.8195  160.8686 H   0  0  0  0  0  0  0  0  0  0  0  0
  154.3856  143.0692  159.5289 H   0  0  0  0  0  0  0  0  0  0  0  0
  153.5827  138.2857  163.7262 H   0  0  0  0  0  0  0  0  0  0  0  0
  153.6151  136.5433  165.4099 H   0  0  0  0  0  0  0  0  0  0  0  0
  1  2  1  0  0  0  0
  1 23  1  0  0  0  0
  1 24  1  0  0  0  0
  1 25  1  0  0  0  0
  2  3  1  0  0  0  0
  3  4  1  0  0  0  0
  3 26  1  0  0  0  0
  3 27  1  0  0  0  0
  4  5  1  0  0  0  0
  4 28  1  0  0  0  0
  4 29  1  0  0  0  0
  5 21  1  0  0  0  0
  5  6  1  0  0  0  0
  6  7  2  0  0  0  0
  7  8  1  0  0  0  0
  7 19  1  0  0  0  0
  8  9  2  0  0  0  0
  8 10  1  0  0  0  0
 10 11  1  0  0  0  0
 10 30  1  0  0  0  0
 11 12  1  0  0  0  0
 11 31  1  0  0  0  0
 11 32  1  0  0  0  0
 12 13  1  0  0  0  0
 12 33  1  0  0  0  0
 12 34  1  0  0  0  0
 13 18  1  0  0  0  0
 13 14  2  0  0  0  0
 14 15  1  0  0  0  0
 14 35  1  0  0  0  0
 15 16  1  0  0  0  0
 15 36  1  0  0  0  0
 15 37  1  0  0  0  0
 16 17  1  0  0  0  0
 16 38  1  0  0  0  0
 16 39  1  0  0  0  0
 17 18  1  0  0  0  0
 17 40  1  0  0  0  0
 17 41  1  0  0  0  0
 18 42  1  0  0  0  0
 18 43  1  0  0  0  0
 19 20  2  0  0  0  0
 19 44  1  0  0  0  0
 20 21  1  0  0  0  0
 20 45  1  0  0  0  0
 21 22  2  0  0  0  0
M  END
> <s_m_source_file>
AV-unprocessed.smi

> <i_m_source_file_index>
1281

> <i_lp_mmshare_version>
43012

> <i_f3d_flags>
0

> <s_epik_input>
W0NIM11PW0NIMl1bQ0gyXW4xbmMoW2NIXVtjSF1jMT1PKUMoPU8pW05IXVtDSDJdW0NIMl1DMj1bQ0hdW0NIMl1bQ0gyXVtDSDJdW0NIMl0y

> <s_epik_cmdline>
J2VwaWtfcHl0aG9uJywgJy1waCcsICc3LjAnLCAnLXRuJywgJzgnLCAnLW1hJywgJzIwMCcsICctbWV0YWxfYmluZGluZycsICctaW1hZScsICc8aW5maWxlLm1hZT4nLCAnLW9tYWUnLCAnPG91dGZpbGUubWFlPic=

> <r_lp_tautomer_probability>
1

> <r_epik_Ionization_Penalty>
8.17845e-07

> <r_epik_Ionization_Penalty_Charging>
5.79962e-09

> <r_epik_Ionization_Penalty_Neutral>
8.12046e-07

> <r_epik_State_Penalty>
-0

> <r_epik_Charging_Adjusted_Penalty>
5.79962e-09

> <i_epik_Tot_Q>
0

> <i_epik_Tot_abs_Q>
0

> <r_epik_Metal_State_Penalty>
-0

> <b_epik_Metal_Only>
0

> <s_lp_Force_Field>
OPLS_2005

> <r_lp_Energy>
28.483

> <b_lp_Chiralities_Consistent>
1

> <s_lp_Variant>
AV-unprocessed.smi:1281-1

> <Gold.Version>
5.8.1

> <Gold.Id.Protein>
6NUR|6NUR_protein|mol2

> <Gold.PLP.Fitness>
48.4800

> <Gold.PLP.PLP>
-46.0294

> <Gold.PLP.part.hbond>
-1.0000

> <Gold.PLP.part.metal>
0.0000

> <Gold.PLP.part.buried>
-5.4809

> <Gold.PLP.part.nonpolar>
-39.5049

> <Gold.PLP.part.repulsive>
0.0951

> <Gold.PLP.ligand.clash>
0.0000

> <Gold.PLP.ligand.torsion>
0.3532

> <Gold.PLP.Chemscore.Hbond>
1.0000

> <Gold.PLP.Chemscore.CHOScore>
0.0000

> <Gold.PLP.Chemscore.Metal>
0.0000

> <Gold.Chemscore.Hbonds>
donor molecule, donor type, donor heavy atom, donor atom, acceptor molecule, acceptor atom, score
      P1  H  6896  6907       L1     2  0.95

> <Gold.PLP.Chemscore.Internal.Correction>
0.1570

> <Gold.Rescore>
     Score         DG    S(hbond)    S(metal)    S(lipo)     H(rot)  DE(clash)    DE(int)     intcor
     14.69     -17.53       0.94        0.00     117.07       1.86       0.01       2.83       ----

> <Gold.Chemscore.Fitness>
14.6898

> <Gold.Chemscore.DG>
-17.5300

> <Gold.Chemscore.ZeroCoef>
-5.4800

> <Gold.Chemscore.Hbond>
0.9360

> <Gold.Chemscore.Metal>
0.0000

> <Gold.Chemscore.Lipo>
117.0747

> <Gold.Chemscore.Internal_Hbond>
0.0000

> <Gold.Chemscore.DEClash>
0.0089

> <Gold.Chemscore.DEInternal>
2.8313

> <Gold.Chemscore.Rot>
1.8649

> <Gold.Chemscore.Internal.Correction>
   9.000000E+99

> <Gold.Chemscore.Hbonds>
donor molecule, donor type, donor heavy atom, donor atom, acceptor molecule, acceptor atom, score
      P1  H  6896  6907       L1     2  0.21

> <Gold.Chemscore.Hbond.Weighted>
-3.1264

> <Gold.Chemscore.Metal.Weighted>
-0.0000

> <Gold.Chemscore.Lipo.Weighted>
-13.6977

> <Gold.Chemscore.Internal_Hbond.Weighted>
0.0000

> <Gold.Chemscore.DEClash.Weighted>
0.0089

> <Gold.Chemscore.DEInternal.Weighted>
2.8313

> <Gold.Chemscore.Rot.Weighted>
4.7741

> <Gold.Chemscore.Internal.Correction.Weighted>
   9.000000E+99

> <Gold.Protein.RotatedTorsions>
[ 6907 6896 6895 6894 ] final   91.24 input  -60.11 | X-H torsion
[ 7974 7965 7964 7962 ] final  114.98 input  175.53 | X-H torsion
[ 8008 7997 7996 7995 ] final   42.64 input   59.86 | X-H torsion
[ 10167 10162 10161 10158 ] final -126.44 input  -65.29 | X-H torsion
[ 10718 10713 10712 10709 ] final  145.36 input   66.30 | X-H torsion
[ 10763 10752 10751 10750 ] final  -85.13 input  -60.55 | X-H torsion
[ 11005 11000 10999 10996 ] final -136.25 input  -57.11 | X-H torsion

> <Gold.Protein.ActiveResidues>
 VAL166  LYS551  ARG553  GLY616  TRP617  ASP618  TYR619  PRO620  LYS621  CYS622 
 ASP623  PHE694  ASN695  SER759  ASP760  ASP761  ALA762  ILE779  LEU786  VAL792 
 PHE793  MET794  SER795  GLU796  ALA797  LYS798  CYS799  TRP800  GLU811  SER814 

> <Gold.Protein.RotatedAtoms>
  152.5449  134.1687  159.8587 H   0  0  0  0  0  0  0  0  0  0  0  0  # atno 6907 bound_to 6896
  151.1699  133.4784  159.2601 H   0  0  0  0  0  0  0  0  0  0  0  0  # atno 6908 bound_to 6896
  151.1286  135.0129  159.8627 H   0  0  0  0  0  0  0  0  0  0  0  0  # atno 6909 bound_to 6896
  145.1976  139.2968  143.4335 H   0  0  0  0  0  0  0  0  0  0  0  0  # atno 7974 bound_to 7965
  155.2896  140.3378  155.4253 H   0  0  0  0  0  0  0  0  0  0  0  0  # atno 8008 bound_to 7997
  156.2052  140.1748  156.7854 H   0  0  0  0  0  0  0  0  0  0  0  0  # atno 8009 bound_to 7997
  154.5612  140.0687  156.8805 H   0  0  0  0  0  0  0  0  0  0  0  0  # atno 8010 bound_to 7997
  139.9714  143.5841  152.2411 H   0  0  0  0  0  0  0  0  0  0  0  0  # atno 10167 bound_to 10162
  157.3462  131.0943  151.1040 H   0  0  0  0  0  0  0  0  0  0  0  0  # atno 10718 bound_to 10713
  154.6075  135.5496  153.7438 H   0  0  0  0  0  0  0  0  0  0  0  0  # atno 10763 bound_to 10752
  153.0181  135.6381  154.1626 H   0  0  0  0  0  0  0  0  0  0  0  0  # atno 10764 bound_to 10752
  154.1564  135.2900  155.3101 H   0  0  0  0  0  0  0  0  0  0  0  0  # atno 10765 bound_to 10752
  140.8822  134.1917  157.4583 H   0  0  0  0  0  0  0  0  0  0  0  0  # atno 11005 bound_to 11000
  146.3424  140.2210  142.8591 LP  0  0  0  0  0  0  0  0  0  0  0  0  # atno 17320 bound_to 7965
  144.9979  140.8606  143.5299 LP  0  0  0  0  0  0  0  0  0  0  0  0  # atno 17321 bound_to 7965
  139.6478  144.7659  151.2208 LP  0  0  0  0  0  0  0  0  0  0  0  0  # atno 17342 bound_to 10162
  140.7520  143.6210  150.8513 LP  0  0  0  0  0  0  0  0  0  0  0  0  # atno 17343 bound_to 10162
  157.2233  130.6491  149.5820 LP  0  0  0  0  0  0  0  0  0  0  0  0  # atno 17370 bound_to 10713
  155.9714  130.4622  150.6138 LP  0  0  0  0  0  0  0  0  0  0  0  0  # atno 17371 bound_to 10713
  139.8721  134.9822  156.5148 LP  0  0  0  0  0  0  0  0  0  0  0  0  # atno 17394 bound_to 11000
  140.8447  133.8178  155.9109 LP  0  0  0  0  0  0  0  0  0  0  0  0  # atno 17395 bound_to 11000

$$$$
