AV-unprocessed.smi:716|AV-procd|sdf|3489|dock9
  -GOLD-   22720 0483D 1   1.00000     0.00000
 Structure written by MMmdl.
 48 50  0  0  0  0  0  0  0  0  1 V2000
  152.0549  143.9082  159.1079 C   0  0  0  0  0  0  0  0  0  0  0  0
  152.2248  142.4780  158.5909 C   0  0  0  0  0  0  0  0  0  0  0  0
  150.9749  142.0153  158.1071 O   0  0  0  0  0  0  0  0  0  0  0  0
  151.0791  140.8163  157.3495 C   0  0  1  0  0  0  0  0  0  0  0  0
  151.2684  139.5862  158.2474 C   0  0  0  0  0  0  0  0  0  0  0  0
  149.7415  139.5052  158.3077 C   0  0  2  0  0  0  0  0  0  0  0  0
  149.2540  138.1320  158.2752 N   0  0  0  0  0  0  0  0  0  0  0  0
  149.5484  137.2020  159.1948 C   0  0  0  0  0  0  0  0  0  0  0  0
  150.3419  137.3913  160.1170 O   0  0  0  0  0  0  0  0  0  0  0  0
  148.8271  135.8567  159.0509 C   0  0  0  0  0  0  0  0  0  0  0  0
  148.1254  135.4878  160.2874 N   0  0  0  0  0  0  0  0  0  0  0  0
  148.2186  136.4460  161.2847 N   0  0  0  0  0  0  0  0  0  0  0  0
  147.7012  136.2475  162.4520 C   0  0  0  0  0  0  0  0  0  0  0  0
  147.8685  137.3305  163.4766 C   0  0  0  0  0  0  0  0  0  0  0  0
  146.9942  135.0094  162.7178 C   0  0  0  0  0  0  0  0  0  0  0  0
  146.9001  134.0790  161.7437 C   0  0  0  0  0  0  0  0  0  0  0  0
  147.4957  134.2831  160.4246 C   0  0  0  0  0  0  0  0  0  0  0  0
  147.4416  133.4458  159.5243 O   0  0  0  0  0  0  0  0  0  0  0  0
  149.6991  140.2393  156.9422 C   0  0  0  0  0  0  0  0  0  0  0  0
  149.6831  139.4246  155.6413 C   0  0  0  0  0  0  0  0  0  0  0  0
  149.3419  140.3979  154.5100 C   0  0  0  0  0  0  0  0  0  0  0  0
  148.6192  141.5708  155.1805 C   0  0  0  0  0  0  0  0  0  0  0  0
  148.5631  141.2240  156.6705 C   0  0  0  0  0  0  0  0  0  0  0  0
  152.9990  144.3005  159.4861 H   0  0  0  0  0  0  0  0  0  0  0  0
  151.3272  143.9471  159.9190 H   0  0  0  0  0  0  0  0  0  0  0  0
  151.7099  144.5727  158.3153 H   0  0  0  0  0  0  0  0  0  0  0  0
  152.9657  142.4569  157.7904 H   0  0  0  0  0  0  0  0  0  0  0  0
  152.5883  141.8349  159.3934 H   0  0  0  0  0  0  0  0  0  0  0  0
  151.7835  140.8880  156.5188 H   0  0  0  0  0  0  0  0  0  0  0  0
  151.7325  138.7488  157.7228 H   0  0  0  0  0  0  0  0  0  0  0  0
  151.7496  139.7749  159.2072 H   0  0  0  0  0  0  0  0  0  0  0  0
  149.3333  140.1078  159.1226 H   0  0  0  0  0  0  0  0  0  0  0  0
  148.6034  137.8914  157.5413 H   0  0  0  0  0  0  0  0  0  0  0  0
  148.1079  135.9064  158.2308 H   0  0  0  0  0  0  0  0  0  0  0  0
  149.5539  135.0992  158.7538 H   0  0  0  0  0  0  0  0  0  0  0  0
  147.5011  137.0114  164.4522 H   0  0  0  0  0  0  0  0  0  0  0  0
  147.3173  138.2256  163.1871 H   0  0  0  0  0  0  0  0  0  0  0  0
  148.9191  137.6011  163.5890 H   0  0  0  0  0  0  0  0  0  0  0  0
  146.5497  134.8413  163.6878 H   0  0  0  0  0  0  0  0  0  0  0  0
  146.3735  133.1575  161.9430 H   0  0  0  0  0  0  0  0  0  0  0  0
  150.6267  138.9119  155.4519 H   0  0  0  0  0  0  0  0  0  0  0  0
  148.9102  138.6561  155.6773 H   0  0  0  0  0  0  0  0  0  0  0  0
  150.2536  140.7518  154.0272 H   0  0  0  0  0  0  0  0  0  0  0  0
  148.7282  139.9207  153.7452 H   0  0  0  0  0  0  0  0  0  0  0  0
  149.1879  142.4893  155.0301 H   0  0  0  0  0  0  0  0  0  0  0  0
  147.6220  141.7291  154.7688 H   0  0  0  0  0  0  0  0  0  0  0  0
  147.6056  140.7510  156.8913 H   0  0  0  0  0  0  0  0  0  0  0  0
  148.6124  142.1194  157.2898 H   0  0  0  0  0  0  0  0  0  0  0  0
  1  2  1  0  0  0  0
  1 24  1  0  0  0  0
  1 25  1  0  0  0  0
  1 26  1  0  0  0  0
  2  3  1  0  0  0  0
  2 27  1  0  0  0  0
  2 28  1  0  0  0  0
  3  4  1  0  0  0  0
  4 19  1  0  0  0  0
  4  5  1  0  0  0  0
  4 29  1  0  0  0  0
  5  6  1  0  0  0  0
  5 30  1  0  0  0  0
  5 31  1  0  0  0  0
  6  7  1  0  0  0  0
  6 19  1  0  0  0  0
  6 32  1  0  0  0  0
  7  8  1  0  0  0  0
  7 33  1  0  0  0  0
  8  9  2  0  0  0  0
  8 10  1  0  0  0  0
 10 11  1  0  0  0  0
 10 34  1  0  0  0  0
 10 35  1  0  0  0  0
 11 17  1  0  0  0  0
 11 12  1  0  0  0  0
 12 13  2  0  0  0  0
 13 14  1  0  0  0  0
 13 15  1  0  0  0  0
 14 36  1  0  0  0  0
 14 37  1  0  0  0  0
 14 38  1  0  0  0  0
 15 16  2  0  0  0  0
 15 39  1  0  0  0  0
 16 17  1  0  0  0  0
 16 40  1  0  0  0  0
 17 18  2  0  0  0  0
 19 23  1  0  0  0  0
 19 20  1  0  0  0  0
 20 21  1  0  0  0  0
 20 41  1  0  0  0  0
 20 42  1  0  0  0  0
 21 22  1  0  0  0  0
 21 43  1  0  0  0  0
 21 44  1  0  0  0  0
 22 23  1  0  0  0  0
 22 45  1  0  0  0  0
 22 46  1  0  0  0  0
 23 47  1  0  0  0  0
 23 48  1  0  0  0  0
M  END
> <s_m_source_file>
AV-unprocessed.smi

> <i_m_source_file_index>
716

> <i_lp_mmshare_version>
43012

> <i_f3d_flags>
0

> <s_epik_input>
W0NIMl0xW0NIMl1bQ0gyXVtDSDJdQzEyW0NASF0oT1tDSDJdW0NIM10pW0NIMl1bQ0BIXTJbTkhdQyg9TylbQ0gyXW4zbmMoW0NIM10pW2NIXVtjSF1jMz1P

> <s_epik_cmdline>
J2VwaWtfcHl0aG9uJywgJy1waCcsICc3LjAnLCAnLXRuJywgJzgnLCAnLW1hJywgJzIwMCcsICctbWV0YWxfYmluZGluZycsICctaW1hZScsICc8aW5maWxlLm1hZT4nLCAnLW9tYWUnLCAnPG91dGZpbGUubWFlPic=

> <r_lp_tautomer_probability>
1

> <r_epik_Ionization_Penalty>
4.75561e-08

> <r_epik_Ionization_Penalty_Charging>
2.86617e-08

> <r_epik_Ionization_Penalty_Neutral>
1.88944e-08

> <r_epik_State_Penalty>
-0

> <r_epik_Charging_Adjusted_Penalty>
2.86617e-08

> <i_epik_Tot_Q>
0

> <i_epik_Tot_abs_Q>
0

> <r_epik_Metal_State_Penalty>
-0

> <b_epik_Metal_Only>
0

> <s_lp_Force_Field>
OPLS_2005

> <r_lp_Energy>
50.6956

> <b_lp_Chiralities_Consistent>
1

> <s_lp_Variant>
AV-unprocessed.smi:716-4

> <Gold.Version>
5.8.1

> <Gold.Id.Protein>
6NUR|6NUR_protein|mol2

> <Gold.PLP.Fitness>
40.6257

> <Gold.PLP.PLP>
-39.1956

> <Gold.PLP.part.hbond>
-2.0000

> <Gold.PLP.part.metal>
0.0000

> <Gold.PLP.part.buried>
-1.7049

> <Gold.PLP.part.nonpolar>
-37.1491

> <Gold.PLP.part.repulsive>
0.1786

> <Gold.PLP.ligand.clash>
0.0000

> <Gold.PLP.ligand.torsion>
0.3103

> <Gold.PLP.Chemscore.Hbond>
0.5500

> <Gold.PLP.Chemscore.CHOScore>
0.0000

> <Gold.PLP.Chemscore.Metal>
0.0000

> <Gold.Chemscore.Hbonds>
donor molecule, donor type, donor heavy atom, donor atom, acceptor molecule, acceptor atom, score
      P1  H  6931  6943       L1    12  0.49

> <Gold.PLP.Chemscore.Internal.Correction>
0.4006

> <Gold.Rescore>
     Score         DG    S(hbond)    S(metal)    S(lipo)     H(rot)  DE(clash)    DE(int)     intcor
      9.92     -12.24       0.04        0.00      94.43       1.73       0.51       1.80       ----

> <Gold.Chemscore.Fitness>
9.9200

> <Gold.Chemscore.DG>
-12.2365

> <Gold.Chemscore.ZeroCoef>
-5.4800

> <Gold.Chemscore.Hbond>
0.0447

> <Gold.Chemscore.Metal>
0.0000

> <Gold.Chemscore.Lipo>
94.4291

> <Gold.Chemscore.Internal_Hbond>
0.0000

> <Gold.Chemscore.DEClash>
0.5146

> <Gold.Chemscore.DEInternal>
1.8019

> <Gold.Chemscore.Rot>
1.7348

> <Gold.Chemscore.Internal.Correction>
   9.000000E+99

> <Gold.Chemscore.Hbonds>
donor molecule, donor type, donor heavy atom, donor atom, acceptor molecule, acceptor atom, score
      P1  H  6931  6943       L1    12  0.03

> <Gold.Chemscore.Hbond.Weighted>
-0.1494

> <Gold.Chemscore.Metal.Weighted>
-0.0000

> <Gold.Chemscore.Lipo.Weighted>
-11.0482

> <Gold.Chemscore.Internal_Hbond.Weighted>
0.0000

> <Gold.Chemscore.DEClash.Weighted>
0.5146

> <Gold.Chemscore.DEInternal.Weighted>
1.8019

> <Gold.Chemscore.Rot.Weighted>
4.4411

> <Gold.Chemscore.Internal.Correction.Weighted>
   9.000000E+99

> <Gold.Protein.RotatedTorsions>
[ 6907 6896 6895 6894 ] final   64.34 input  -60.11 | X-H torsion
[ 7974 7965 7964 7962 ] final   65.10 input  175.53 | X-H torsion
[ 8008 7997 7996 7995 ] final  -88.38 input   59.86 | X-H torsion
[ 10167 10162 10161 10158 ] final  109.25 input  -65.29 | X-H torsion
[ 10718 10713 10712 10709 ] final   64.55 input   66.30 | X-H torsion
[ 10763 10752 10751 10750 ] final   36.58 input  -60.55 | X-H torsion
[ 11005 11000 10999 10996 ] final   58.51 input  -57.11 | X-H torsion

> <Gold.Protein.ActiveResidues>
 VAL166  LYS551  ARG553  GLY616  TRP617  ASP618  TYR619  PRO620  LYS621  CYS622 
 ASP623  PHE694  ASN695  SER759  ASP760  ASP761  ALA762  ILE779  LEU786  VAL792 
 PHE793  MET794  SER795  GLU796  ALA797  LYS798  CYS799  TRP800  GLU811  SER814 

> <Gold.Protein.RotatedAtoms>
  152.4323  134.5753  159.9932 H   0  0  0  0  0  0  0  0  0  0  0  0  # atno 6907 bound_to 6896
  151.5873  133.3365  159.3028 H   0  0  0  0  0  0  0  0  0  0  0  0  # atno 6908 bound_to 6896
  150.8218  134.7464  159.6843 H   0  0  0  0  0  0  0  0  0  0  0  0  # atno 6909 bound_to 6896
  145.8424  139.3203  143.0923 H   0  0  0  0  0  0  0  0  0  0  0  0  # atno 7974 bound_to 7965
  154.6741  140.0554  157.0197 H   0  0  0  0  0  0  0  0  0  0  0  0  # atno 8008 bound_to 7997
  155.1045  140.3232  155.4519 H   0  0  0  0  0  0  0  0  0  0  0  0  # atno 8009 bound_to 7997
  156.2669  140.2025  156.6171 H   0  0  0  0  0  0  0  0  0  0  0  0  # atno 8010 bound_to 7997
  139.6782  144.7120  151.1564 H   0  0  0  0  0  0  0  0  0  0  0  0  # atno 10167 bound_to 10162
  157.6047  130.9166  149.9860 H   0  0  0  0  0  0  0  0  0  0  0  0  # atno 10718 bound_to 10713
  153.0071  135.6302  154.2008 H   0  0  0  0  0  0  0  0  0  0  0  0  # atno 10763 bound_to 10752
  154.1751  135.2816  155.3071 H   0  0  0  0  0  0  0  0  0  0  0  0  # atno 10764 bound_to 10752
  154.5878  135.5627  153.7308 H   0  0  0  0  0  0  0  0  0  0  0  0  # atno 10765 bound_to 10752
  140.0372  134.5926  155.9429 H   0  0  0  0  0  0  0  0  0  0  0  0  # atno 11005 bound_to 11000
  145.9450  140.8951  143.0288 LP  0  0  0  0  0  0  0  0  0  0  0  0  # atno 17320 bound_to 7965
  144.6733  140.1601  143.7423 LP  0  0  0  0  0  0  0  0  0  0  0  0  # atno 17321 bound_to 7965
  140.7643  143.5740  150.8965 LP  0  0  0  0  0  0  0  0  0  0  0  0  # atno 17342 bound_to 10162
  139.9410  143.6382  152.3053 LP  0  0  0  0  0  0  0  0  0  0  0  0  # atno 17343 bound_to 10162
  156.1130  130.3649  150.0017 LP  0  0  0  0  0  0  0  0  0  0  0  0  # atno 17370 bound_to 10713
  156.8112  130.9325  151.3644 LP  0  0  0  0  0  0  0  0  0  0  0  0  # atno 17371 bound_to 10713
  141.1864  133.6557  156.5236 LP  0  0  0  0  0  0  0  0  0  0  0  0  # atno 17394 bound_to 11000
  140.4128  134.7257  157.4846 LP  0  0  0  0  0  0  0  0  0  0  0  0  # atno 17395 bound_to 11000

$$$$
