AV-unprocessed.smi:2528|AV-procd|sdf|9953|dock5
  -GOLD-   2272013593D 1   1.00000     0.00000
 Structure written by MMmdl.
 44 46  0  0  0  0  0  0  0  0  2 V2000
  144.7052  137.4671  152.3314 O   0  0  0  0  0  0  0  0  0  0  0  0
  145.8925  137.2198  152.1171 C   0  0  0  0  0  0  0  0  0  0  0  0
  146.8647  138.1369  152.2238 N   0  0  0  0  0  0  0  0  0  0  0  0
  146.6594  139.5266  152.6187 C   0  0  0  0  0  0  0  0  0  0  0  0
  147.4564  139.8902  153.8842 C   0  0  1  0  0  0  0  0  0  0  0  0
  147.8093  141.3934  153.9247 C   0  0  0  0  0  0  0  0  0  0  0  0
  148.4775  141.7617  155.1966 N   0  3  2  0  0  0  0  0  0  0  0  0
  149.9092  141.3577  155.2507 C   0  0  0  0  0  0  0  0  0  0  0  0
  150.5717  141.8193  156.5567 C   0  0  0  0  0  0  0  0  0  0  0  0
  149.8134  141.2708  157.7705 C   0  0  0  0  0  0  0  0  0  0  0  0
  148.3418  141.7004  157.7021 C   0  0  0  0  0  0  0  0  0  0  0  0
  147.6736  141.3104  156.3663 C   0  0  2  0  0  0  0  0  0  0  0  0
  147.3385  139.8084  156.2508 C   0  0  0  0  0  0  0  0  0  0  0  0
  146.6605  139.5716  155.0225 O   0  0  0  0  0  0  0  0  0  0  0  0
  146.3863  136.0238  151.7516 N   0  0  0  0  0  0  0  0  0  0  0  0
  145.6790  134.8098  151.5422 C   0  0  0  0  0  0  0  0  0  0  0  0
  146.4905  133.6632  151.3860 C   0  0  0  0  0  0  0  0  0  0  0  0
  145.8848  132.4092  151.1751 C   0  0  0  0  0  0  0  0  0  0  0  0
  144.4813  132.3342  151.1251 C   0  0  0  0  0  0  0  0  0  0  0  0
  143.7475  133.5236  151.2879 C   0  0  0  0  0  0  0  0  0  0  0  0
  144.3259  134.7266  151.4899 N   0  0  0  0  0  0  0  0  0  0  0  0
  147.8136  137.8539  152.0268 H   0  0  0  0  0  0  0  0  0  0  0  0
  146.9401  140.1820  151.7924 H   0  0  0  0  0  0  0  0  0  0  0  0
  145.5936  139.6828  152.7878 H   0  0  0  0  0  0  0  0  0  0  0  0
  148.3719  139.2979  153.9079 H   0  0  0  0  0  0  0  0  0  0  0  0
  148.4393  141.6674  153.0775 H   0  0  0  0  0  0  0  0  0  0  0  0
  146.8970  141.9849  153.8348 H   0  0  0  0  0  0  0  0  0  0  0  0
  150.0079  140.2763  155.1573 H   0  0  0  0  0  0  0  0  0  0  0  0
  150.4382  141.7932  154.4023 H   0  0  0  0  0  0  0  0  0  0  0  0
  151.6099  141.4872  156.5851 H   0  0  0  0  0  0  0  0  0  0  0  0
  150.5928  142.9093  156.5953 H   0  0  0  0  0  0  0  0  0  0  0  0
  149.8879  140.1831  157.7962 H   0  0  0  0  0  0  0  0  0  0  0  0
  150.2677  141.6348  158.6926 H   0  0  0  0  0  0  0  0  0  0  0  0
  147.7874  141.2767  158.5403 H   0  0  0  0  0  0  0  0  0  0  0  0
  148.2874  142.7834  157.8226 H   0  0  0  0  0  0  0  0  0  0  0  0
  146.7250  141.8478  156.3208 H   0  0  0  0  0  0  0  0  0  0  0  0
  148.2308  139.1845  156.3138 H   0  0  0  0  0  0  0  0  0  0  0  0
  146.6845  139.5060  157.0688 H   0  0  0  0  0  0  0  0  0  0  0  0
  147.3852  135.9727  151.6160 H   0  0  0  0  0  0  0  0  0  0  0  0
  147.5675  133.7385  151.4288 H   0  0  0  0  0  0  0  0  0  0  0  0
  146.4875  131.5212  151.0544 H   0  0  0  0  0  0  0  0  0  0  0  0
  143.9804  131.3909  150.9655 H   0  0  0  0  0  0  0  0  0  0  0  0
  142.6680  133.5101  151.2546 H   0  0  0  0  0  0  0  0  0  0  0  0
  148.4851  142.7713  155.2313 H   0  0  0  0  0  0  0  0  0  0  0  0
  1  2  2  0  0  0  0
  2  3  1  0  0  0  0
  2 15  1  0  0  0  0
  3  4  1  0  0  0  0
  3 22  1  0  0  0  0
  4  5  1  0  0  0  0
  4 23  1  0  0  0  0
  4 24  1  0  0  0  0
  5 14  1  0  0  0  0
  5  6  1  0  0  0  0
  5 25  1  0  0  0  0
  6  7  1  0  0  0  0
  6 26  1  0  0  0  0
  6 27  1  0  0  0  0
  7 12  1  0  0  0  0
  7  8  1  0  0  0  0
  7 44  1  0  0  0  0
  8  9  1  0  0  0  0
  8 28  1  0  0  0  0
  8 29  1  0  0  0  0
  9 10  1  0  0  0  0
  9 30  1  0  0  0  0
  9 31  1  0  0  0  0
 10 11  1  0  0  0  0
 10 32  1  0  0  0  0
 10 33  1  0  0  0  0
 11 12  1  0  0  0  0
 11 34  1  0  0  0  0
 11 35  1  0  0  0  0
 12 13  1  0  0  0  0
 12 36  1  0  0  0  0
 13 14  1  0  0  0  0
 13 37  1  0  0  0  0
 13 38  1  0  0  0  0
 15 16  1  0  0  0  0
 15 39  1  0  0  0  0
 16 21  1  0  0  0  0
 16 17  2  0  0  0  0
 17 18  1  0  0  0  0
 17 40  1  0  0  0  0
 18 19  2  0  0  0  0
 18 41  1  0  0  0  0
 19 20  1  0  0  0  0
 19 42  1  0  0  0  0
 20 21  2  0  0  0  0
 20 43  1  0  0  0  0
M  CHG  1   7   1
M  END
> <s_m_source_file>
AV-unprocessed.smi

> <i_m_source_file_index>
2528

> <i_lp_mmshare_version>
43012

> <i_f3d_flags>
0

> <s_epik_input>
bjFbY0hdW2NIXVtjSF1bY0hdYzFbTkhdQyg9TylbTkhdW0NIMl1bQ0BIXShbQ0gyXTIpT1tDSDJdW0NAQEhdKE4yMylbQ0gyXVtDSDJdW0NIMl1bQ0gyXTM=

> <s_epik_cmdline>
J2VwaWtfcHl0aG9uJywgJy1waCcsICc3LjAnLCAnLXRuJywgJzgnLCAnLW1hJywgJzIwMCcsICctbWV0YWxfYmluZGluZycsICctaW1hZScsICc8aW5maWxlLm1hZT4nLCAnLW9tYWUnLCAnPG91dGZpbGUubWFlPic=

> <r_epik_Ionization_Penalty>
0.0932337

> <r_epik_Ionization_Penalty_Charging>
0.0931942

> <r_epik_Ionization_Penalty_Neutral>
3.9565e-05

> <r_epik_State_Penalty>
0.0834605

> <r_epik_Charging_Adjusted_Penalty>
0.176655

> <i_epik_Tot_Q>
1

> <i_epik_Tot_abs_Q>
1

> <r_epik_Metal_State_Penalty>
0.0834607

> <b_epik_Metal_Only>
0

> <s_lp_Force_Field>
OPLS_2005

> <r_lp_Energy>
28.0088

> <b_lp_Chiralities_Consistent>
1

> <s_lp_Variant>
AV-unprocessed.smi:2528-6

> <Gold.Version>
5.8.1

> <Gold.Id.Protein>
6NUR|6NUR_protein|mol2

> <Gold.PLP.Fitness>
46.2514

> <Gold.PLP.PLP>
-32.4625

> <Gold.PLP.part.hbond>
-2.9188

> <Gold.PLP.part.metal>
0.0000

> <Gold.PLP.part.buried>
-5.8878

> <Gold.PLP.part.nonpolar>
-27.0459

> <Gold.PLP.part.repulsive>
2.4508

> <Gold.PLP.ligand.clash>
0.0000

> <Gold.PLP.ligand.torsion>
0.3516

> <Gold.PLP.Chemscore.Hbond>
3.8320

> <Gold.PLP.Chemscore.CHOScore>
0.9980

> <Gold.PLP.Chemscore.Metal>
0.0000

> <Gold.Chemscore.Hbonds>
donor molecule, donor type, donor heavy atom, donor atom, acceptor molecule, acceptor atom, score
      L1  H     3    22       P1  7948  0.85
      L1  H     7    44       P1  8028  2.00
      L1  H    15    39       P1  7948  1.00
      L1  C    20    43       P1 10186  0.98

> <Gold.PLP.Chemscore.Internal.Correction>
0.0023

> <Gold.Rescore>
     Score         DG    S(hbond)    S(metal)    S(lipo)     H(rot)  DE(clash)    DE(int)     intcor
     18.47     -20.31       2.87        0.00      72.90       1.29       0.25       1.59       ----

> <Gold.Chemscore.Fitness>
18.4727

> <Gold.Chemscore.DG>
-20.3139

> <Gold.Chemscore.ZeroCoef>
-5.4800

> <Gold.Chemscore.Hbond>
2.8741

> <Gold.Chemscore.Metal>
0.0000

> <Gold.Chemscore.Lipo>
72.8999

> <Gold.Chemscore.Internal_Hbond>
0.0000

> <Gold.Chemscore.DEClash>
0.2543

> <Gold.Chemscore.DEInternal>
1.5869

> <Gold.Chemscore.Rot>
1.2870

> <Gold.Chemscore.Internal.Correction>
   9.000000E+99

> <Gold.Chemscore.Hbonds>
donor molecule, donor type, donor heavy atom, donor atom, acceptor molecule, acceptor atom, score
      L1  H     3    22       P1  7948  0.84
      L1  H     7    44       P1  8028  0.94
      L1  H    15    39       P1  7948  0.97

> <Gold.Chemscore.Hbond.Weighted>
-9.5994

> <Gold.Chemscore.Metal.Weighted>
-0.0000

> <Gold.Chemscore.Lipo.Weighted>
-8.5293

> <Gold.Chemscore.Internal_Hbond.Weighted>
0.0000

> <Gold.Chemscore.DEClash.Weighted>
0.2543

> <Gold.Chemscore.DEInternal.Weighted>
1.5869

> <Gold.Chemscore.Rot.Weighted>
3.2948

> <Gold.Chemscore.Internal.Correction.Weighted>
   9.000000E+99

> <Gold.Protein.RotatedTorsions>
[ 6907 6896 6895 6894 ] final  -52.19 input  -60.11 | X-H torsion
[ 7974 7965 7964 7962 ] final   15.35 input  175.53 | X-H torsion
[ 8008 7997 7996 7995 ] final  -93.96 input   59.86 | X-H torsion
[ 10167 10162 10161 10158 ] final   43.76 input  -65.29 | X-H torsion
[ 10718 10713 10712 10709 ] final  136.50 input   66.30 | X-H torsion
[ 10763 10752 10751 10750 ] final  -27.10 input  -60.55 | X-H torsion
[ 11005 11000 10999 10996 ] final  114.42 input  -57.11 | X-H torsion

> <Gold.Protein.ActiveResidues>
 VAL166  LYS551  ARG553  GLY616  TRP617  ASP618  TYR619  PRO620  LYS621  CYS622 
 ASP623  PHE694  ASN695  SER759  ASP760  ASP761  ALA762  ILE779  LEU786  VAL792 
 PHE793  MET794  SER795  GLU796  ALA797  LYS798  CYS799  TRP800  GLU811  SER814 

> <Gold.Protein.RotatedAtoms>
  150.8541  134.7874  159.7031 H   0  0  0  0  0  0  0  0  0  0  0  0  # atno 6907 bound_to 6896
  152.4597  134.5208  159.9792 H   0  0  0  0  0  0  0  0  0  0  0  0  # atno 6908 bound_to 6896
  151.5324  133.3409  159.2956 H   0  0  0  0  0  0  0  0  0  0  0  0  # atno 6909 bound_to 6896
  146.2281  139.8907  142.8555 H   0  0  0  0  0  0  0  0  0  0  0  0  # atno 7974 bound_to 7965
  154.7423  140.0494  157.0821 H   0  0  0  0  0  0  0  0  0  0  0  0  # atno 8008 bound_to 7997
  155.0163  140.3142  155.4791 H   0  0  0  0  0  0  0  0  0  0  0  0  # atno 8009 bound_to 7997
  156.2867  140.2175  156.5279 H   0  0  0  0  0  0  0  0  0  0  0  0  # atno 8010 bound_to 7997
  140.3411  144.2468  150.6155 H   0  0  0  0  0  0  0  0  0  0  0  0  # atno 10167 bound_to 10162
  157.4460  131.1062  151.0089 H   0  0  0  0  0  0  0  0  0  0  0  0  # atno 10718 bound_to 10713
  153.7267  135.6941  153.4999 H   0  0  0  0  0  0  0  0  0  0  0  0  # atno 10763 bound_to 10752
  153.2165  135.4384  155.0439 H   0  0  0  0  0  0  0  0  0  0  0  0  # atno 10764 bound_to 10752
  154.8267  135.3450  154.6798 H   0  0  0  0  0  0  0  0  0  0  0  0  # atno 10765 bound_to 10752
  139.8980  134.9567  156.6890 H   0  0  0  0  0  0  0  0  0  0  0  0  # atno 11005 bound_to 11000
  145.2420  141.0013  143.3930 LP  0  0  0  0  0  0  0  0  0  0  0  0  # atno 17320 bound_to 7965
  144.9444  139.4153  143.6433 LP  0  0  0  0  0  0  0  0  0  0  0  0  # atno 17321 bound_to 7965
  140.5307  143.2244  151.8242 LP  0  0  0  0  0  0  0  0  0  0  0  0  # atno 17342 bound_to 10162
  139.4840  144.4723  151.9410 LP  0  0  0  0  0  0  0  0  0  0  0  0  # atno 17343 bound_to 10162
  157.0935  130.5952  149.5445 LP  0  0  0  0  0  0  0  0  0  0  0  0  # atno 17370 bound_to 10713
  155.9967  130.5037  150.7508 LP  0  0  0  0  0  0  0  0  0  0  0  0  # atno 17371 bound_to 10713
  140.7240  133.9116  155.8166 LP  0  0  0  0  0  0  0  0  0  0  0  0  # atno 17394 bound_to 11000
  141.0205  134.0895  157.4125 LP  0  0  0  0  0  0  0  0  0  0  0  0  # atno 17395 bound_to 11000

$$$$
