AV-unprocessed.smi:3136|AV-procd|sdf|11948|dock10
  -GOLD-   2272017343D 1   1.00000     0.00000
 Structure written by MMmdl.
 40 40  0  0  0  0  0  0  0  0  2 V2000
  150.7892  141.5907  156.6116 C   0  0  0  0  0  0  0  0  0  0  0  0
  149.2798  141.6650  156.8778 C   0  0  0  0  0  0  0  0  0  0  0  0
  148.5187  141.7483  155.6364 N   0  0  0  0  0  0  0  0  0  0  0  0
  147.1926  141.9359  155.5541 C   0  0  0  0  0  0  0  0  0  0  0  0
  146.4664  142.0597  156.5408 O   0  0  0  0  0  0  0  0  0  0  0  0
  146.6108  141.9863  154.1372 C   0  0  0  0  0  0  0  0  0  0  0  0
  146.9469  140.7467  153.2889 C   0  0  0  0  0  0  0  0  0  0  0  0
  145.9313  139.6891  153.4763 N   0  3  0  0  0  0  0  0  0  0  0  0
  146.2451  138.3868  152.8433 C   0  0  2  0  0  0  0  0  0  0  0  0
  146.7998  138.6064  151.4196 C   0  0  0  0  0  0  0  0  0  0  0  0
  144.9869  137.4771  152.8646 C   0  0  2  0  0  0  0  0  0  0  0  0
  144.4348  137.2649  154.2879 C   0  0  0  0  0  0  0  0  0  0  0  0
  145.2251  136.1879  152.2273 N   0  0  0  0  0  0  0  0  0  0  0  0
  144.6667  135.6917  151.0670 C   0  0  0  0  0  0  0  0  0  0  0  0
  145.1872  134.4461  150.8629 C   0  0  0  0  0  0  0  0  0  0  0  0
  146.0640  134.2603  151.9675 C   0  0  0  0  0  0  0  0  0  0  0  0
  146.0838  135.3025  152.7824 N   0  0  0  0  0  0  0  0  0  0  0  0
  151.3466  141.5731  157.5482 H   0  0  0  0  0  0  0  0  0  0  0  0
  151.1319  142.4527  156.0382 H   0  0  0  0  0  0  0  0  0  0  0  0
  151.0513  140.6904  156.0549 H   0  0  0  0  0  0  0  0  0  0  0  0
  148.9545  140.8055  157.4660 H   0  0  0  0  0  0  0  0  0  0  0  0
  149.0556  142.5504  157.4730 H   0  0  0  0  0  0  0  0  0  0  0  0
  149.0410  141.6553  154.7773 H   0  0  0  0  0  0  0  0  0  0  0  0
  145.5283  142.0977  154.2127 H   0  0  0  0  0  0  0  0  0  0  0  0
  146.9869  142.8838  153.6442 H   0  0  0  0  0  0  0  0  0  0  0  0
  147.0007  141.0221  152.2356 H   0  0  0  0  0  0  0  0  0  0  0  0
  147.9246  140.3535  153.5720 H   0  0  0  0  0  0  0  0  0  0  0  0
  145.8499  139.5297  154.4705 H   0  0  0  0  0  0  0  0  0  0  0  0
  147.0191  137.8988  153.4379 H   0  0  0  0  0  0  0  0  0  0  0  0
  147.1008  137.6687  150.9523 H   0  0  0  0  0  0  0  0  0  0  0  0
  147.6823  139.2449  151.4216 H   0  0  0  0  0  0  0  0  0  0  0  0
  146.0547  139.0732  150.7743 H   0  0  0  0  0  0  0  0  0  0  0  0
  144.2077  137.9709  152.2813 H   0  0  0  0  0  0  0  0  0  0  0  0
  144.1219  138.2048  154.7427 H   0  0  0  0  0  0  0  0  0  0  0  0
  145.1799  136.8127  154.9433 H   0  0  0  0  0  0  0  0  0  0  0  0
  143.5643  136.6082  154.2748 H   0  0  0  0  0  0  0  0  0  0  0  0
  143.9536  136.2594  150.4873 H   0  0  0  0  0  0  0  0  0  0  0  0
  144.9731  133.7691  150.0492 H   0  0  0  0  0  0  0  0  0  0  0  0
  146.6819  133.4054  152.1996 H   0  0  0  0  0  0  0  0  0  0  0  0
  145.0395  140.0140  153.1309 H   0  0  0  0  0  0  0  0  0  0  0  0
  1  2  1  0  0  0  0
  1 18  1  0  0  0  0
  1 19  1  0  0  0  0
  1 20  1  0  0  0  0
  2  3  1  0  0  0  0
  2 21  1  0  0  0  0
  2 22  1  0  0  0  0
  3  4  1  0  0  0  0
  3 23  1  0  0  0  0
  4  5  2  0  0  0  0
  4  6  1  0  0  0  0
  6  7  1  0  0  0  0
  6 24  1  0  0  0  0
  6 25  1  0  0  0  0
  7  8  1  0  0  0  0
  7 26  1  0  0  0  0
  7 27  1  0  0  0  0
  8  9  1  0  0  0  0
  8 28  1  0  0  0  0
  8 40  1  0  0  0  0
  9 10  1  0  0  0  0
  9 11  1  0  0  0  0
  9 29  1  0  0  0  0
 10 30  1  0  0  0  0
 10 31  1  0  0  0  0
 10 32  1  0  0  0  0
 11 12  1  0  0  0  0
 11 13  1  0  0  0  0
 11 33  1  0  0  0  0
 12 34  1  0  0  0  0
 12 35  1  0  0  0  0
 12 36  1  0  0  0  0
 13 17  1  0  0  0  0
 13 14  1  0  0  0  0
 14 15  2  0  0  0  0
 14 37  1  0  0  0  0
 15 16  1  0  0  0  0
 15 38  1  0  0  0  0
 16 17  2  0  0  0  0
 16 39  1  0  0  0  0
M  CHG  1   8   1
M  END
> <s_m_source_file>
AV-unprocessed.smi

> <i_m_source_file_index>
3136

> <i_lp_mmshare_version>
43012

> <i_f3d_flags>
0

> <s_epik_input>
W0NIM11bQ0gyXVtOSF1DKD1PKVtDSDJdW0NIMl1bTkhdW0NASF0oW0NIM10pW0NASF0oW0NIM10pbjFbY0hdW2NIXVtjSF1uMQ==

> <s_epik_cmdline>
J2VwaWtfcHl0aG9uJywgJy1waCcsICc3LjAnLCAnLXRuJywgJzgnLCAnLW1hJywgJzIwMCcsICctbWV0YWxfYmluZGluZycsICctaW1hZScsICc8aW5maWxlLm1hZT4nLCAnLW9tYWUnLCAnPG91dGZpbGUubWFlPic=

> <r_lp_tautomer_probability>
1

> <r_epik_Ionization_Penalty>
0.00463447

> <r_epik_Ionization_Penalty_Charging>
0.00462393

> <r_epik_Ionization_Penalty_Neutral>
1.05394e-05

> <r_epik_State_Penalty>
-0

> <r_epik_Charging_Adjusted_Penalty>
0.00462393

> <i_epik_Tot_Q>
1

> <i_epik_Tot_abs_Q>
1

> <r_epik_Metal_State_Penalty>
-0

> <b_epik_Metal_Only>
0

> <s_lp_Force_Field>
OPLS_2005

> <r_lp_Energy>
10.4266

> <b_lp_Chiralities_Consistent>
1

> <s_lp_Variant>
AV-unprocessed.smi:3136-1

> <Gold.Version>
5.8.1

> <Gold.Id.Protein>
6NUR|6NUR_protein|mol2

> <Gold.PLP.Fitness>
36.8831

> <Gold.PLP.PLP>
-28.4543

> <Gold.PLP.part.hbond>
-2.0000

> <Gold.PLP.part.metal>
0.0000

> <Gold.PLP.part.buried>
-0.3587

> <Gold.PLP.part.nonpolar>
-27.1068

> <Gold.PLP.part.repulsive>
0.4890

> <Gold.PLP.ligand.clash>
0.0000

> <Gold.PLP.ligand.torsion>
0.3730

> <Gold.PLP.Chemscore.Hbond>
2.0000

> <Gold.PLP.Chemscore.CHOScore>
1.0000

> <Gold.PLP.Chemscore.Metal>
0.0000

> <Gold.Chemscore.Hbonds>
donor molecule, donor type, donor heavy atom, donor atom, acceptor molecule, acceptor atom, score
      L1  H     8    40       P1 10175  2.00
      L1  C    14    37       P1 10171  1.00

> <Gold.PLP.Chemscore.Internal.Correction>
0.1749

> <Gold.Rescore>
     Score         DG    S(hbond)    S(metal)    S(lipo)     H(rot)  DE(clash)    DE(int)     intcor
      9.98     -10.48       0.99        0.00      65.10       2.32       0.06       0.44       ----

> <Gold.Chemscore.Fitness>
9.9752

> <Gold.Chemscore.DG>
-10.4804

> <Gold.Chemscore.ZeroCoef>
-5.4800

> <Gold.Chemscore.Hbond>
0.9918

> <Gold.Chemscore.Metal>
0.0000

> <Gold.Chemscore.Lipo>
65.0981

> <Gold.Chemscore.Internal_Hbond>
0.0000

> <Gold.Chemscore.DEClash>
0.0641

> <Gold.Chemscore.DEInternal>
0.4410

> <Gold.Chemscore.Rot>
2.3159

> <Gold.Chemscore.Internal.Correction>
   9.000000E+99

> <Gold.Chemscore.Hbonds>
donor molecule, donor type, donor heavy atom, donor atom, acceptor molecule, acceptor atom, score
      L1  H     8    40       P1 10175  0.97

> <Gold.Chemscore.Hbond.Weighted>
-3.3125

> <Gold.Chemscore.Metal.Weighted>
-0.0000

> <Gold.Chemscore.Lipo.Weighted>
-7.6165

> <Gold.Chemscore.Internal_Hbond.Weighted>
0.0000

> <Gold.Chemscore.DEClash.Weighted>
0.0641

> <Gold.Chemscore.DEInternal.Weighted>
0.4410

> <Gold.Chemscore.Rot.Weighted>
5.9286

> <Gold.Chemscore.Internal.Correction.Weighted>
   9.000000E+99

> <Gold.Protein.RotatedTorsions>
[ 6907 6896 6895 6894 ] final  169.74 input  -60.11 | X-H torsion
[ 7974 7965 7964 7962 ] final  -94.32 input  175.53 | X-H torsion
[ 8008 7997 7996 7995 ] final  120.58 input   59.86 | X-H torsion
[ 10167 10162 10161 10158 ] final   81.35 input  -65.29 | X-H torsion
[ 10718 10713 10712 10709 ] final   80.93 input   66.30 | X-H torsion
[ 10763 10752 10751 10750 ] final  -56.65 input  -60.55 | X-H torsion
[ 11005 11000 10999 10996 ] final   57.06 input  -57.11 | X-H torsion

> <Gold.Protein.ActiveResidues>
 VAL166  LYS551  ARG553  GLY616  TRP617  ASP618  TYR619  PRO620  LYS621  CYS622 
 ASP623  PHE694  ASN695  SER759  ASP760  ASP761  ALA762  ILE779  LEU786  VAL792 
 PHE793  MET794  SER795  GLU796  ALA797  LYS798  CYS799  TRP800  GLU811  SER814 

> <Gold.Protein.RotatedAtoms>
  151.8272  133.3403  159.3601 H   0  0  0  0  0  0  0  0  0  0  0  0  # atno 6907 bound_to 6896
  150.7276  134.5517  159.5807 H   0  0  0  0  0  0  0  0  0  0  0  0  # atno 6908 bound_to 6896
  152.2963  134.7664  160.0418 H   0  0  0  0  0  0  0  0  0  0  0  0  # atno 6909 bound_to 6896
  145.3748  140.9510  143.2427 H   0  0  0  0  0  0  0  0  0  0  0  0  # atno 7974 bound_to 7965
  156.2649  140.2827  156.1173 H   0  0  0  0  0  0  0  0  0  0  0  0  # atno 8008 bound_to 7997
  155.1193  140.0392  157.2763 H   0  0  0  0  0  0  0  0  0  0  0  0  # atno 8009 bound_to 7997
  154.6682  140.2582  155.7041 H   0  0  0  0  0  0  0  0  0  0  0  0  # atno 8010 bound_to 7997
  139.9402  144.6095  150.8259 H   0  0  0  0  0  0  0  0  0  0  0  0  # atno 10167 bound_to 10162
  157.6819  130.9981  150.2151 H   0  0  0  0  0  0  0  0  0  0  0  0  # atno 10718 bound_to 10713
  154.2100  135.6396  153.5112 H   0  0  0  0  0  0  0  0  0  0  0  0  # atno 10763 bound_to 10752
  152.9992  135.5472  154.6225 H   0  0  0  0  0  0  0  0  0  0  0  0  # atno 10764 bound_to 10752
  154.5659  135.2913  155.0847 H   0  0  0  0  0  0  0  0  0  0  0  0  # atno 10765 bound_to 10752
  140.0481  134.5776  155.9297 H   0  0  0  0  0  0  0  0  0  0  0  0  # atno 11005 bound_to 11000
  144.8550  139.5264  143.6839 LP  0  0  0  0  0  0  0  0  0  0  0  0  # atno 17320 bound_to 7965
  146.2869  139.7028  142.9189 LP  0  0  0  0  0  0  0  0  0  0  0  0  # atno 17321 bound_to 7965
  140.7613  143.3171  151.2708 LP  0  0  0  0  0  0  0  0  0  0  0  0  # atno 17342 bound_to 10162
  139.6711  144.0019  152.2753 LP  0  0  0  0  0  0  0  0  0  0  0  0  # atno 17343 bound_to 10162
  156.2814  130.3734  149.7931 LP  0  0  0  0  0  0  0  0  0  0  0  0  # atno 17370 bound_to 10713
  156.5619  130.8387  151.3331 LP  0  0  0  0  0  0  0  0  0  0  0  0  # atno 17371 bound_to 10713
  141.1917  133.6572  156.5468 LP  0  0  0  0  0  0  0  0  0  0  0  0  # atno 17394 bound_to 11000
  140.3961  134.7398  157.4751 LP  0  0  0  0  0  0  0  0  0  0  0  0  # atno 17395 bound_to 11000

$$$$
