AV-unprocessed.smi:2746|AV-procd|sdf|10575|dock5
  -GOLD-   2272015 23D 1   1.00000     0.00000
 Structure written by MMmdl.
 38 39  0  0  0  0  0  0  0  0  3 V2000
  146.5658  142.7259  154.2146 C   0  0  0  0  0  0  0  0  0  0  0  0
  147.0956  141.4890  154.2204 C   0  0  0  0  0  0  0  0  0  0  0  0
  148.5735  141.1271  154.3020 C   0  0  2  0  0  0  0  0  0  0  0  0
  148.7452  139.6013  154.2915 C   0  0  0  0  0  0  0  0  0  0  0  0
  149.2991  141.6650  155.4569 N   0  5  0  0  0  0  0  0  0  0  0  0
  150.5253  141.2392  155.8707 C   0  0  0  0  0  0  0  0  0  0  0  0
  151.1928  140.2689  155.4952 O   0  0  0  0  0  0  0  0  0  0  0  0
  151.0692  142.0731  156.9986 C   0  0  0  0  0  0  0  0  0  0  0  0
  151.8257  141.5280  158.0654 C   0  0  0  0  0  0  0  0  0  0  0  0
  152.2880  142.3593  159.1141 C   0  0  0  0  0  0  0  0  0  0  0  0
  153.0463  141.8060  160.1677 N   0  0  0  0  0  0  0  0  0  0  0  0
  153.2245  142.6596  161.3400 C   0  0  0  0  0  0  0  0  0  0  0  0
  153.7595  141.8363  162.5247 C   0  0  0  0  0  0  0  0  0  0  0  0
  154.9515  141.1580  162.1415 O   0  0  0  0  0  0  0  0  0  0  0  0
  154.7223  140.2477  161.0710 C   0  0  0  0  0  0  0  0  0  0  0  0
  154.2292  141.0183  159.8345 C   0  0  0  0  0  0  0  0  0  0  0  0
  151.9656  143.7392  159.0562 C   0  0  0  0  0  0  0  0  0  0  0  0
  151.1965  144.2314  157.9841 C   0  0  0  0  0  0  0  0  0  0  0  0
  150.7788  143.3927  157.0145 N   0  3  0  0  0  0  0  0  0  0  0  0
  147.1697  143.6210  154.2706 H   0  0  0  0  0  0  0  0  0  0  0  0
  145.4960  142.8583  154.1524 H   0  0  0  0  0  0  0  0  0  0  0  0
  146.4200  140.6483  154.1612 H   0  0  0  0  0  0  0  0  0  0  0  0
  148.9967  141.4932  153.3655 H   0  0  0  0  0  0  0  0  0  0  0  0
  148.2668  139.1581  153.4175 H   0  0  0  0  0  0  0  0  0  0  0  0
  148.3046  139.1437  155.1783 H   0  0  0  0  0  0  0  0  0  0  0  0
  149.7990  139.3216  154.2610 H   0  0  0  0  0  0  0  0  0  0  0  0
  152.0607  140.4736  158.0685 H   0  0  0  0  0  0  0  0  0  0  0  0
  153.9293  143.4542  161.0916 H   0  0  0  0  0  0  0  0  0  0  0  0
  152.2943  143.1436  161.6347 H   0  0  0  0  0  0  0  0  0  0  0  0
  153.9796  142.4917  163.3675 H   0  0  0  0  0  0  0  0  0  0  0  0
  153.0132  141.1176  162.8672 H   0  0  0  0  0  0  0  0  0  0  0  0
  155.6517  139.7259  160.8428 H   0  0  0  0  0  0  0  0  0  0  0  0
  153.9972  139.4898  161.3719 H   0  0  0  0  0  0  0  0  0  0  0  0
  153.9992  140.3117  159.0362 H   0  0  0  0  0  0  0  0  0  0  0  0
  155.0165  141.6811  159.4726 H   0  0  0  0  0  0  0  0  0  0  0  0
  152.2815  144.4290  159.8240 H   0  0  0  0  0  0  0  0  0  0  0  0
  150.9020  145.2647  157.8755 H   0  0  0  0  0  0  0  0  0  0  0  0
  150.2190  143.7670  156.2479 H   0  0  0  0  0  0  0  0  0  0  0  0
  1  2  2  0  0  0  0
  1 20  1  0  0  0  0
  1 21  1  0  0  0  0
  2  3  1  0  0  0  0
  2 22  1  0  0  0  0
  3  4  1  0  0  0  0
  3  5  1  0  0  0  0
  3 23  1  0  0  0  0
  4 24  1  0  0  0  0
  4 25  1  0  0  0  0
  4 26  1  0  0  0  0
  5  6  1  0  0  0  0
  6  7  2  0  0  0  0
  6  8  1  0  0  0  0
  8 19  1  0  0  0  0
  8  9  2  0  0  0  0
  9 10  1  0  0  0  0
  9 27  1  0  0  0  0
 10 11  1  0  0  0  0
 10 17  2  0  0  0  0
 11 16  1  0  0  0  0
 11 12  1  0  0  0  0
 12 13  1  0  0  0  0
 12 28  1  0  0  0  0
 12 29  1  0  0  0  0
 13 14  1  0  0  0  0
 13 30  1  0  0  0  0
 13 31  1  0  0  0  0
 14 15  1  0  0  0  0
 15 16  1  0  0  0  0
 15 32  1  0  0  0  0
 15 33  1  0  0  0  0
 16 34  1  0  0  0  0
 16 35  1  0  0  0  0
 17 18  1  0  0  0  0
 17 36  1  0  0  0  0
 18 19  2  0  0  0  0
 18 37  1  0  0  0  0
 19 38  1  0  0  0  0
M  CHG  1   5  -1
M  CHG  1  19   1
M  END
> <s_m_source_file>
AV-unprocessed.smi

> <i_m_source_file_index>
2746

> <i_lp_mmshare_version>
43012

> <i_f3d_flags>
0

> <s_epik_input>
W0NIMl09W0NIXVtDQEhdKFtDSDNdKVtOSF1DKD1PKWMxW2NIXWMoW2NIXVtjSF1uMSlOMltDSDJdW0NIMl1PW0NIMl1bQ0gyXTI=

> <s_epik_cmdline>
J2VwaWtfcHl0aG9uJywgJy1waCcsICc3LjAnLCAnLXRuJywgJzgnLCAnLW1hJywgJzIwMCcsICctbWV0YWxfYmluZGluZycsICctaW1hZScsICc8aW5maWxlLm1hZT4nLCAnLW9tYWUnLCAnPG91dGZpbGUubWFlPic=

> <r_lp_tautomer_probability>
1

> <r_epik_Ionization_Penalty>
4.23471

> <r_epik_Ionization_Penalty_Charging>
4.23471

> <r_epik_Ionization_Penalty_Neutral>
3.18831e-12

> <r_epik_State_Penalty>
4.68748

> <r_epik_Charging_Adjusted_Penalty>
8.92219

> <i_epik_Tot_Q>
0

> <i_epik_Tot_abs_Q>
2

> <r_epik_Metal_State_Penalty>
1.16626

> <b_epik_Metal_Only>
1

> <s_lp_Force_Field>
OPLS_2005

> <r_lp_Energy>
19.089

> <b_lp_Chiralities_Consistent>
1

> <s_lp_Variant>
AV-unprocessed.smi:2746-5

> <Gold.Version>
5.8.1

> <Gold.Id.Protein>
6NUR|6NUR_protein|mol2

> <Gold.PLP.Fitness>
53.4267

> <Gold.PLP.PLP>
-45.5987

> <Gold.PLP.part.hbond>
-3.0000

> <Gold.PLP.part.metal>
0.0000

> <Gold.PLP.part.buried>
-6.2203

> <Gold.PLP.part.nonpolar>
-37.7143

> <Gold.PLP.part.repulsive>
0.5211

> <Gold.PLP.ligand.clash>
0.0000

> <Gold.PLP.ligand.torsion>
0.9082

> <Gold.PLP.Chemscore.Hbond>
2.9760

> <Gold.PLP.Chemscore.CHOScore>
0.0000

> <Gold.PLP.Chemscore.Metal>
0.0000

> <Gold.Chemscore.Hbonds>
donor molecule, donor type, donor heavy atom, donor atom, acceptor molecule, acceptor atom, score
      L1  H    19    38       P1  8028  2.00
      P1  H  7989  7998       L1     7  0.76

> <Gold.PLP.Chemscore.Internal.Correction>
0.7165

> <Gold.Rescore>
     Score         DG    S(hbond)    S(metal)    S(lipo)     H(rot)  DE(clash)    DE(int)     intcor
     17.43     -20.76       1.58        0.00     113.32       1.27       1.44       1.88       ----

> <Gold.Chemscore.Fitness>
17.4320

> <Gold.Chemscore.DG>
-20.7581

> <Gold.Chemscore.ZeroCoef>
-5.4800

> <Gold.Chemscore.Hbond>
1.5815

> <Gold.Chemscore.Metal>
0.0000

> <Gold.Chemscore.Lipo>
113.3157

> <Gold.Chemscore.Internal_Hbond>
0.0000

> <Gold.Chemscore.DEClash>
1.4435

> <Gold.Chemscore.DEInternal>
1.8826

> <Gold.Chemscore.Rot>
1.2742

> <Gold.Chemscore.Internal.Correction>
   9.000000E+99

> <Gold.Chemscore.Hbonds>
donor molecule, donor type, donor heavy atom, donor atom, acceptor molecule, acceptor atom, score
      L1  H    19    38       P1  8028  0.95
      P1  H  7989  7998       L1     7  0.18

> <Gold.Chemscore.Hbond.Weighted>
-5.2821

> <Gold.Chemscore.Metal.Weighted>
-0.0000

> <Gold.Chemscore.Lipo.Weighted>
-13.2579

> <Gold.Chemscore.Internal_Hbond.Weighted>
0.0000

> <Gold.Chemscore.DEClash.Weighted>
1.4435

> <Gold.Chemscore.DEInternal.Weighted>
1.8826

> <Gold.Chemscore.Rot.Weighted>
3.2619

> <Gold.Chemscore.Internal.Correction.Weighted>
   9.000000E+99

> <Gold.Protein.RotatedTorsions>
[ 6907 6896 6895 6894 ] final  113.96 input  -60.11 | X-H torsion
[ 7974 7965 7964 7962 ] final   97.48 input  175.53 | X-H torsion
[ 8008 7997 7996 7995 ] final  -43.37 input   59.86 | X-H torsion
[ 10167 10162 10161 10158 ] final   -9.65 input  -65.29 | X-H torsion
[ 10718 10713 10712 10709 ] final  -39.17 input   66.30 | X-H torsion
[ 10763 10752 10751 10750 ] final  -82.87 input  -60.55 | X-H torsion
[ 11005 11000 10999 10996 ] final  -84.80 input  -57.11 | X-H torsion

> <Gold.Protein.ActiveResidues>
 VAL166  LYS551  ARG553  GLY616  TRP617  ASP618  TYR619  PRO620  LYS621  CYS622 
 ASP623  PHE694  ASN695  SER759  ASP760  ASP761  ALA762  ILE779  LEU786  VAL792 
 PHE793  MET794  SER795  GLU796  ALA797  LYS798  CYS799  TRP800  GLU811  SER814 

> <Gold.Protein.RotatedAtoms>
  152.4831  133.8303  159.7099 H   0  0  0  0  0  0  0  0  0  0  0  0  # atno 6907 bound_to 6896
  150.8895  133.7252  159.2915 H   0  0  0  0  0  0  0  0  0  0  0  0  # atno 6908 bound_to 6896
  151.4730  135.1051  159.9809 H   0  0  0  0  0  0  0  0  0  0  0  0  # atno 6909 bound_to 6896
  145.4249  139.2317  143.3176 H   0  0  0  0  0  0  0  0  0  0  0  0  # atno 7974 bound_to 7965
  154.3997  140.1449  156.3507 H   0  0  0  0  0  0  0  0  0  0  0  0  # atno 8008 bound_to 7997
  155.8271  140.3467  155.5528 H   0  0  0  0  0  0  0  0  0  0  0  0  # atno 8009 bound_to 7997
  155.8227  140.0900  157.1830 H   0  0  0  0  0  0  0  0  0  0  0  0  # atno 8010 bound_to 7997
  140.7093  143.5835  150.8967 H   0  0  0  0  0  0  0  0  0  0  0  0  # atno 10167 bound_to 10162
  156.2954  130.4233  149.8196 H   0  0  0  0  0  0  0  0  0  0  0  0  # atno 10718 bound_to 10713
  154.5809  135.5576  153.7184 H   0  0  0  0  0  0  0  0  0  0  0  0  # atno 10763 bound_to 10752
  153.0081  135.6320  154.1983 H   0  0  0  0  0  0  0  0  0  0  0  0  # atno 10764 bound_to 10752
  154.1924  135.2882  155.2997 H   0  0  0  0  0  0  0  0  0  0  0  0  # atno 10765 bound_to 10752
  141.1647  133.7365  156.8921 H   0  0  0  0  0  0  0  0  0  0  0  0  # atno 11005 bound_to 11000
  146.2637  140.4979  142.8843 LP  0  0  0  0  0  0  0  0  0  0  0  0  # atno 17320 bound_to 7965
  144.8221  140.6566  143.6346 LP  0  0  0  0  0  0  0  0  0  0  0  0  # atno 17321 bound_to 7965
  139.9561  143.6217  152.3015 LP  0  0  0  0  0  0  0  0  0  0  0  0  # atno 17342 bound_to 10162
  139.6753  144.7659  151.1708 LP  0  0  0  0  0  0  0  0  0  0  0  0  # atno 17343 bound_to 10162
  156.5594  130.8376  151.3324 LP  0  0  0  0  0  0  0  0  0  0  0  0  # atno 17370 bound_to 10713
  157.7354  130.9761  150.2079 LP  0  0  0  0  0  0  0  0  0  0  0  0  # atno 17371 bound_to 10713
  140.1641  134.9145  157.2752 LP  0  0  0  0  0  0  0  0  0  0  0  0  # atno 17394 bound_to 11000
  140.2577  134.3608  155.7418 LP  0  0  0  0  0  0  0  0  0  0  0  0  # atno 17395 bound_to 11000

$$$$
