#       Name:                AV-unprocessed.smi:2032
#       Creating user name   scv26
#       Creation time:       Fri Mar 27 10:51:02 2020


#       File generated by GOLD software.
#

@<TRIPOS>MOLECULE
AV-unprocessed.smi:2032
    48    49     1
SMALL
NO_CHARGES


@<TRIPOS>ATOM
      1 ****        -4.2102  -1.0082  -1.7114 C.3            1 S1                 0.0000
      2 ****        -3.5784  -0.2081  -0.5667 C.3            1 S1                 0.0000
      3 ****        -2.0412  -0.2890  -0.5814 C.3            1 S1                 0.0000
      4 ****        -1.4512   0.4468   0.5705 N.4            1 S1                 1.0000
      5 ****         0.0485   0.4637   0.5378 C.3            1 S1                 0.0000
      6 ****         0.6881   0.8334   1.8988 C.3            1 S1                 0.0000
      7 ****         0.5592   1.4257  -0.5706 C.3            1 S1                 0.0000
      8 ****         2.0142   1.4489  -0.6936 N.am           1 S1                 0.0000
      9 ****         2.7567   0.4557  -1.2038 C.2            1 S1                 0.0000
     10 ****         2.2778  -0.5953  -1.6310 O.2            1 S1                 0.0000
     11 ****         4.0648   0.7648  -1.1860 N.am           1 S1                 0.0000
     12 ****         5.1626  -0.0478  -1.5727 C.2            1 S1                 0.0000
     13 ****         5.0563  -1.3236  -1.9622 N.2            1 S1                 0.0000
     14 ****         6.2992  -1.8824  -2.2711 C.2            1 S1                 0.0000
     15 ****         7.3482  -1.0116  -2.1095 C.2            1 S1                 0.0000
     16 ****         6.8141   0.5534  -1.5572 S.3            1 S1                 0.0000
     17 ****        -2.0551  -0.0554   1.8356 C.3            1 S1                 0.0000
     18 ****        -3.5940  -0.0001   1.7824 C.3            1 S1                 0.0000
     19 ****        -4.2349  -0.5939   3.0418 C.3            1 S1                 0.0000
     20 ****        -4.0547  -0.7416   0.6611 O.3            1 S1                 0.0000
     21 ****        -3.8835  -0.6313  -2.6811 H              1 S1                 0.0000
     22 ****        -5.2981  -0.9419  -1.6791 H              1 S1                 0.0000
     23 ****        -3.9394  -2.0630  -1.6537 H              1 S1                 0.0000
     24 ****        -3.8942   0.8330  -0.6572 H              1 S1                 0.0000
     25 ****        -1.7232  -1.3323  -0.5451 H              1 S1                 0.0000
     26 ****        -1.6878   0.1136  -1.5284 H              1 S1                 0.0000
     27 ****         0.3757  -0.5505   0.3043 H              1 S1                 0.0000
     28 ****         1.7753   0.8737   1.8385 H              1 S1                 0.0000
     29 ****         0.4681   0.0941   2.6689 H              1 S1                 0.0000
     30 ****         0.3447   1.8071   2.2501 H              1 S1                 0.0000
     31 ****         0.1538   1.1779  -1.5504 H              1 S1                 0.0000
     32 ****         0.2272   2.4419  -0.3558 H              1 S1                 0.0000
     33 ****         2.4873   2.2798  -0.3690 H              1 S1                 0.0000
     34 ****         4.3065   1.6822  -0.8414 H              1 S1                 0.0000
     35 ****         6.3459  -2.9105  -2.5988 H              1 S1                 0.0000
     36 ****         8.3985  -1.1960  -2.2801 H              1 S1                 0.0000
     37 ****        -1.7175  -1.0770   2.0196 H              1 S1                 0.0000
     38 ****        -1.7386   0.5524   2.6826 H              1 S1                 0.0000
     39 ****        -3.9205   1.0370   1.6860 H              1 S1                 0.0000
     40 ****        -3.9198  -0.0539   3.9349 H              1 S1                 0.0000
     41 ****        -3.9595  -1.6412   3.1693 H              1 S1                 0.0000
     42 ****        -5.3224  -0.5398   2.9883 H              1 S1                 0.0000
     43 ****        -1.7468   1.4090   0.4879 H              1 S1                 0.0000
     44 ****         1.2886  -0.7399  -1.6075 LP             1 S1                 0.0000
     45 ****         2.8781  -1.3041  -2.0014 LP             1 S1                 0.0000
     46 ****         4.1896  -1.8186  -2.0248 LP             1 S1                 0.0000
     47 ****        -3.7372  -1.6859   0.7468 LP             1 S1                 0.0000
     48 ****        -5.0546  -0.7256   0.6530 LP             1 S1                 0.0000
@<TRIPOS>BOND
    1    1    2 1     
    2    1   21 1     
    3    1   22 1     
    4    1   23 1     
    5    2   20 1     
    6    2    3 1     
    7    2   24 1     
    8    3    4 1     
    9    3   25 1     
   10    3   26 1     
   11    4    5 1     
   12    4   17 1     
   13    4   43 1     
   14    5    6 1     
   15    5    7 1     
   16    5   27 1     
   17    6   28 1     
   18    6   29 1     
   19    6   30 1     
   20    7    8 1     
   21    7   31 1     
   22    7   32 1     
   23    8    9 am    
   24    8   33 1     
   25    9   10 2     
   26    9   11 am    
   27   11   12 1     
   28   11   34 1     
   29   12   16 1     
   30   12   13 2     
   31   13   14 1     
   32   14   15 2     
   33   14   35 1     
   34   15   16 1     
   35   15   36 1     
   36   17   18 1     
   37   17   37 1     
   38   17   38 1     
   39   18   19 1     
   40   18   20 1     
   41   18   39 1     
   42   19   40 1     
   43   19   41 1     
   44   19   42 1     
   45   10   44 1     
   46   10   45 1     
   47   13   46 1     
   48   20   47 1     
   49   20   48 1     
@<TRIPOS>SUBSTRUCTURE
      1 S1             1
@<TRIPOS>SET
LONE_PAIRS      STATIC     ATOMS    <user>   **** ""
5 44 45 46 47 48
DONOR_HYDROGENS      STATIC     ATOMS    <user>   **** ""
3 43 33 34
ATOM$BLUE        STATIC     ATOMS    COLORGROUP SYSTEM
5 44 45 46 47 48
ATOM$RED        STATIC     ATOMS    COLORGROUP SYSTEM
3 43 33 34
