AV-unprocessed.smi:2883|AV-procd|sdf|11075|dock4
  -GOLD-   2272015543D 1   1.00000     0.00000
 Structure written by MMmdl.
 40 42  0  0  0  0  0  0  0  0  2 V2000
  145.8655  139.4753  154.5429 C   0  0  0  0  0  0  0  0  0  0  0  0
  146.9873  138.7087  153.8039 C   0  0  0  0  0  0  0  0  0  0  0  0
  146.8526  137.1994  154.0760 C   0  0  0  0  0  0  0  0  0  0  0  0
  146.7815  138.9841  152.2970 C   0  0  0  0  0  0  0  0  0  0  0  0
  148.3717  139.1881  154.2636 C   0  0  0  0  0  0  0  0  0  0  0  0
  149.4716  138.5828  153.7802 N   0  3  0  0  0  0  0  0  0  0  0  0
  150.6962  138.9119  154.2586 C   0  0  0  0  0  0  0  0  0  0  0  0
  150.8270  139.8621  155.2872 C   0  0  0  0  0  0  0  0  0  0  0  0
  149.6405  140.4270  155.7825 C   0  0  0  0  0  0  0  0  0  0  0  0
  149.7003  141.3692  156.8185 N   0  0  0  0  0  0  0  0  0  0  0  0
  150.9410  142.0739  157.1249 C   0  0  2  0  0  0  0  0  0  0  0  0
  151.8850  141.2672  158.0267 C   0  0  0  0  0  0  0  0  0  0  0  0
  152.0986  142.2287  159.2023 C   0  0  1  0  0  0  0  0  0  0  0  0
  152.9220  143.4612  158.8046 C   0  0  0  0  0  0  0  0  0  0  0  0
  151.9164  144.2527  157.9690 C   0  0  0  0  0  0  0  0  0  0  0  0
  150.6937  143.3253  157.9840 C   0  0  2  0  0  0  0  0  0  0  0  0
  150.8037  142.7952  159.2950 O   0  0  0  0  0  0  0  0  0  0  0  0
  148.4415  140.0652  155.2769 N   0  0  0  0  0  0  0  0  0  0  0  0
  144.8790  139.1688  154.1937 H   0  0  0  0  0  0  0  0  0  0  0  0
  145.9481  140.5515  154.3854 H   0  0  0  0  0  0  0  0  0  0  0  0
  145.8877  139.2969  155.6188 H   0  0  0  0  0  0  0  0  0  0  0  0
  146.9657  136.9759  155.1376 H   0  0  0  0  0  0  0  0  0  0  0  0
  147.6118  136.6300  153.5385 H   0  0  0  0  0  0  0  0  0  0  0  0
  145.8774  136.8240  153.7638 H   0  0  0  0  0  0  0  0  0  0  0  0
  145.7850  138.6820  151.9723 H   0  0  0  0  0  0  0  0  0  0  0  0
  147.4931  138.4345  151.6796 H   0  0  0  0  0  0  0  0  0  0  0  0
  146.8920  140.0446  152.0674 H   0  0  0  0  0  0  0  0  0  0  0  0
  151.5314  138.3955  153.8085 H   0  0  0  0  0  0  0  0  0  0  0  0
  151.7955  140.1333  155.6816 H   0  0  0  0  0  0  0  0  0  0  0  0
  148.9377  141.4364  157.4770 H   0  0  0  0  0  0  0  0  0  0  0  0
  151.4289  142.3603  156.1921 H   0  0  0  0  0  0  0  0  0  0  0  0
  151.4185  140.3454  158.3777 H   0  0  0  0  0  0  0  0  0  0  0  0
  152.8185  141.0037  157.5282 H   0  0  0  0  0  0  0  0  0  0  0  0
  152.4418  141.7414  160.1152 H   0  0  0  0  0  0  0  0  0  0  0  0
  153.2203  144.0320  159.6847 H   0  0  0  0  0  0  0  0  0  0  0  0
  153.8210  143.1951  158.2478 H   0  0  0  0  0  0  0  0  0  0  0  0
  151.6851  145.2037  158.4501 H   0  0  0  0  0  0  0  0  0  0  0  0
  152.2728  144.4596  156.9593 H   0  0  0  0  0  0  0  0  0  0  0  0
  149.7544  143.8400  157.7777 H   0  0  0  0  0  0  0  0  0  0  0  0
  149.3922  137.8767  153.0481 H   0  0  0  0  0  0  0  0  0  0  0  0
  1  2  1  0  0  0  0
  1 19  1  0  0  0  0
  1 20  1  0  0  0  0
  1 21  1  0  0  0  0
  2  3  1  0  0  0  0
  2  4  1  0  0  0  0
  2  5  1  0  0  0  0
  3 22  1  0  0  0  0
  3 23  1  0  0  0  0
  3 24  1  0  0  0  0
  4 25  1  0  0  0  0
  4 26  1  0  0  0  0
  4 27  1  0  0  0  0
  5 18  1  0  0  0  0
  5  6  2  0  0  0  0
  6  7  1  0  0  0  0
  6 40  1  0  0  0  0
  7  8  2  0  0  0  0
  7 28  1  0  0  0  0
  8  9  1  0  0  0  0
  8 29  1  0  0  0  0
  9 10  1  0  0  0  0
  9 18  2  0  0  0  0
 10 11  1  0  0  0  0
 10 30  1  0  0  0  0
 11 16  1  0  0  0  0
 11 12  1  0  0  0  0
 11 31  1  0  0  0  0
 12 13  1  0  0  0  0
 12 32  1  0  0  0  0
 12 33  1  0  0  0  0
 13 17  1  0  0  0  0
 13 14  1  0  0  0  0
 13 34  1  0  0  0  0
 14 15  1  0  0  0  0
 14 35  1  0  0  0  0
 14 36  1  0  0  0  0
 15 16  1  0  0  0  0
 15 37  1  0  0  0  0
 15 38  1  0  0  0  0
 16 17  1  0  0  0  0
 16 39  1  0  0  0  0
M  CHG  1   6   1
M  END
> <s_m_source_file>
AV-unprocessed.smi

> <i_m_source_file_index>
2883

> <i_lp_mmshare_version>
43012

> <i_f3d_flags>
0

> <s_epik_input>
W0NIM11DKFtDSDNdKShbQ0gzXSljMW5bY0hdW2NIXWMobjEpW05IXVtDQEhdKFtDSDJdW0NAQEhdMjMpW0NAQEhdKE8zKVtDSDJdW0NIMl0y

> <s_epik_cmdline>
J2VwaWtfcHl0aG9uJywgJy1waCcsICc3LjAnLCAnLXRuJywgJzgnLCAnLW1hJywgJzIwMCcsICctbWV0YWxfYmluZGluZycsICctaW1hZScsICc8aW5maWxlLm1hZT4nLCAnLW9tYWUnLCAnPG91dGZpbGUubWFlPic=

> <r_lp_tautomer_probability>
0.999336

> <r_epik_Ionization_Penalty>
0.371831

> <r_epik_Ionization_Penalty_Charging>
0.371821

> <r_epik_Ionization_Penalty_Neutral>
1.06897e-05

> <r_epik_State_Penalty>
0.369311

> <r_epik_Charging_Adjusted_Penalty>
0.741132

> <i_epik_Tot_Q>
1

> <i_epik_Tot_abs_Q>
1

> <r_epik_Metal_State_Penalty>
0.621338

> <b_epik_Metal_Only>
0

> <s_lp_Force_Field>
OPLS_2005

> <r_lp_Energy>
38.7215

> <b_lp_Chiralities_Consistent>
1

> <s_lp_Variant>
AV-unprocessed.smi:2883-1

> <Gold.Version>
5.8.1

> <Gold.Id.Protein>
6NUR|6NUR_protein|mol2

> <Gold.PLP.Fitness>
38.4548

> <Gold.PLP.PLP>
-33.1359

> <Gold.PLP.part.hbond>
-2.6303

> <Gold.PLP.part.metal>
0.0000

> <Gold.PLP.part.buried>
-2.2867

> <Gold.PLP.part.nonpolar>
-28.7953

> <Gold.PLP.part.repulsive>
0.1477

> <Gold.PLP.ligand.clash>
0.0000

> <Gold.PLP.ligand.torsion>
0.4208

> <Gold.PLP.Chemscore.Hbond>
2.0000

> <Gold.PLP.Chemscore.CHOScore>
0.0000

> <Gold.PLP.Chemscore.Metal>
0.0000

> <Gold.Chemscore.Hbonds>
donor molecule, donor type, donor heavy atom, donor atom, acceptor molecule, acceptor atom, score
      L1  H     6    40       P1  7948  1.95

> <Gold.PLP.Chemscore.Internal.Correction>
0.1605

> <Gold.Rescore>
     Score         DG    S(hbond)    S(metal)    S(lipo)     H(rot)  DE(clash)    DE(int)     intcor
     15.87     -16.38       0.95        0.00      91.45       1.16       0.09       0.42       ----

> <Gold.Chemscore.Fitness>
15.8676

> <Gold.Chemscore.DG>
-16.3770

> <Gold.Chemscore.ZeroCoef>
-5.4800

> <Gold.Chemscore.Hbond>
0.9503

> <Gold.Chemscore.Metal>
0.0000

> <Gold.Chemscore.Lipo>
91.4464

> <Gold.Chemscore.Internal_Hbond>
0.0000

> <Gold.Chemscore.DEClash>
0.0898

> <Gold.Chemscore.DEInternal>
0.4196

> <Gold.Chemscore.Rot>
1.1626

> <Gold.Chemscore.Internal.Correction>
   9.000000E+99

> <Gold.Chemscore.Hbonds>
donor molecule, donor type, donor heavy atom, donor atom, acceptor molecule, acceptor atom, score
      L1  H     6    40       P1  7948  0.85

> <Gold.Chemscore.Hbond.Weighted>
-3.1740

> <Gold.Chemscore.Metal.Weighted>
-0.0000

> <Gold.Chemscore.Lipo.Weighted>
-10.6992

> <Gold.Chemscore.Internal_Hbond.Weighted>
0.0000

> <Gold.Chemscore.DEClash.Weighted>
0.0898

> <Gold.Chemscore.DEInternal.Weighted>
0.4196

> <Gold.Chemscore.Rot.Weighted>
2.9763

> <Gold.Chemscore.Internal.Correction.Weighted>
   9.000000E+99

> <Gold.Protein.RotatedTorsions>
[ 6907 6896 6895 6894 ] final   -2.01 input  -60.11 | X-H torsion
[ 7974 7965 7964 7962 ] final -123.94 input  175.53 | X-H torsion
[ 8008 7997 7996 7995 ] final   61.42 input   59.86 | X-H torsion
[ 10167 10162 10161 10158 ] final   47.14 input  -65.29 | X-H torsion
[ 10718 10713 10712 10709 ] final  -43.06 input   66.30 | X-H torsion
[ 10763 10752 10751 10750 ] final  -77.03 input  -60.55 | X-H torsion
[ 11005 11000 10999 10996 ] final  -17.73 input  -57.11 | X-H torsion

> <Gold.Protein.ActiveResidues>
 VAL166  LYS551  ARG553  GLY616  TRP617  ASP618  TYR619  PRO620  LYS621  CYS622 
 ASP623  PHE694  ASN695  SER759  ASP760  ASP761  ALA762  ILE779  LEU786  VAL792 
 PHE793  MET794  SER795  GLU796  ALA797  LYS798  CYS799  TRP800  GLU811  SER814 

> <Gold.Protein.RotatedAtoms>
  151.5368  135.1068  159.9916 H   0  0  0  0  0  0  0  0  0  0  0  0  # atno 6907 bound_to 6896
  152.4553  133.7707  159.6808 H   0  0  0  0  0  0  0  0  0  0  0  0  # atno 6908 bound_to 6896
  150.8495  133.7743  159.3055 H   0  0  0  0  0  0  0  0  0  0  0  0  # atno 6909 bound_to 6896
  145.0133  140.7925  143.4425 H   0  0  0  0  0  0  0  0  0  0  0  0  # atno 7974 bound_to 7965
  155.5981  140.3493  155.4586 H   0  0  0  0  0  0  0  0  0  0  0  0  # atno 8008 bound_to 7997
  156.0249  140.1262  157.0343 H   0  0  0  0  0  0  0  0  0  0  0  0  # atno 8009 bound_to 7997
  154.4329  140.1055  156.6003 H   0  0  0  0  0  0  0  0  0  0  0  0  # atno 8010 bound_to 7997
  140.3067  144.2869  150.6208 H   0  0  0  0  0  0  0  0  0  0  0  0  # atno 10167 bound_to 10162
  156.2530  130.4190  149.8628 H   0  0  0  0  0  0  0  0  0  0  0  0  # atno 10718 bound_to 10713
  154.5076  135.5778  153.6579 H   0  0  0  0  0  0  0  0  0  0  0  0  # atno 10763 bound_to 10752
  152.9890  135.6151  154.2921 H   0  0  0  0  0  0  0  0  0  0  0  0  # atno 10764 bound_to 10752
  154.2833  135.2850  155.2667 H   0  0  0  0  0  0  0  0  0  0  0  0  # atno 10765 bound_to 10752
  140.8198  133.8077  155.9647 H   0  0  0  0  0  0  0  0  0  0  0  0  # atno 11005 bound_to 11000
  145.1993  139.2260  143.5201 LP  0  0  0  0  0  0  0  0  0  0  0  0  # atno 17320 bound_to 7965
  146.3474  140.1807  142.8589 LP  0  0  0  0  0  0  0  0  0  0  0  0  # atno 17321 bound_to 7965
  140.5604  143.2193  151.7775 LP  0  0  0  0  0  0  0  0  0  0  0  0  # atno 17342 bound_to 10162
  139.4903  144.4356  151.9822 LP  0  0  0  0  0  0  0  0  0  0  0  0  # atno 17343 bound_to 10162
  156.6170  130.8610  151.3467 LP  0  0  0  0  0  0  0  0  0  0  0  0  # atno 17370 bound_to 10713
  157.7222  130.9573  150.1484 LP  0  0  0  0  0  0  0  0  0  0  0  0  # atno 17371 bound_to 10713
  140.9111  134.2259  157.4985 LP  0  0  0  0  0  0  0  0  0  0  0  0  # atno 17394 bound_to 11000
  139.8709  134.9750  156.4869 LP  0  0  0  0  0  0  0  0  0  0  0  0  # atno 17395 bound_to 11000

$$$$
