AV-unprocessed.smi:274|AV-procd|sdf|2061|dock10
  -GOLD-   2262021303D 1   1.00000     0.00000
 Structure written by MMmdl.
 50 53  0  0  0  0  0  0  0  0  1 V2000
  148.6084  141.6134  154.2929 C   0  0  0  0  0  0  0  0  0  0  0  0
  148.2443  140.5919  155.3899 C   0  0  0  0  0  0  0  0  0  0  0  0
  148.8551  141.0586  156.7268 C   0  0  0  0  0  0  0  0  0  0  0  0
  148.6513  139.1375  154.9938 C   0  0  1  0  0  0  0  0  0  0  0  0
  150.1875  138.9330  154.9579 C   0  0  0  0  0  0  0  0  0  0  0  0
  150.8428  139.3725  154.0153 O   0  0  0  0  0  0  0  0  0  0  0  0
  150.7813  138.2443  155.9497 N   0  0  0  0  0  0  0  0  0  0  0  0
  150.1065  137.5975  157.0752 C   0  0  0  0  0  0  0  0  0  0  0  0
  148.6327  138.0149  157.2223 C   0  0  0  0  0  0  0  0  0  0  0  0
  148.0145  138.1755  155.9088 N   0  0  0  0  0  0  0  0  0  0  0  0
  147.4659  137.0436  155.3976 C   0  0  0  0  0  0  0  0  0  0  0  0
  147.8527  135.8252  155.8609 N   0  0  0  0  0  0  0  0  0  0  0  0
  147.3009  134.7117  155.3699 C   0  0  0  0  0  0  0  0  0  0  0  0
  146.3624  134.5905  154.4289 N   0  0  0  0  0  0  0  0  0  0  0  0
  145.9746  135.8097  153.9567 C   0  0  0  0  0  0  0  0  0  0  0  0
  146.4678  137.0741  154.3850 C   0  0  0  0  0  0  0  0  0  0  0  0
  145.8395  138.0929  153.6789 N   0  0  0  0  0  0  0  0  0  0  0  0
  145.0189  137.4665  152.8807 C   0  0  0  0  0  0  0  0  0  0  0  0
  145.0405  136.0929  152.9754 N   0  0  0  0  0  0  0  0  0  0  0  0
  144.2408  135.1523  152.2060 C   0  0  0  0  0  0  0  0  0  0  0  0
  145.0181  134.4884  151.0452 C   0  0  2  0  0  0  0  0  0  0  0  0
  145.2453  135.4505  150.0299 O   0  0  0  0  0  0  0  0  0  0  0  0
  144.3082  133.2885  150.4241 C   0  0  0  0  0  0  0  0  0  0  0  0
  145.4636  132.3940  149.9968 C   0  0  0  0  0  0  0  0  0  0  0  0
  146.3776  132.5404  151.0699 O   0  0  0  0  0  0  0  0  0  0  0  0
  146.3780  133.9047  151.4783 C   0  0  0  0  0  0  0  0  0  0  0  0
  149.6779  141.5995  154.0808 H   0  0  0  0  0  0  0  0  0  0  0  0
  148.3449  142.6274  154.5957 H   0  0  0  0  0  0  0  0  0  0  0  0
  148.0807  141.4183  153.3591 H   0  0  0  0  0  0  0  0  0  0  0  0
  147.1613  140.6286  155.5124 H   0  0  0  0  0  0  0  0  0  0  0  0
  149.9419  140.9698  156.7172 H   0  0  0  0  0  0  0  0  0  0  0  0
  148.4773  140.4866  157.5733 H   0  0  0  0  0  0  0  0  0  0  0  0
  148.6115  142.1024  156.9268 H   0  0  0  0  0  0  0  0  0  0  0  0
  148.2822  138.9755  153.9794 H   0  0  0  0  0  0  0  0  0  0  0  0
  151.7829  138.1274  155.8978 H   0  0  0  0  0  0  0  0  0  0  0  0
  150.1605  136.5218  156.9040 H   0  0  0  0  0  0  0  0  0  0  0  0
  150.6539  137.7956  157.9967 H   0  0  0  0  0  0  0  0  0  0  0  0
  148.1018  137.2969  157.8483 H   0  0  0  0  0  0  0  0  0  0  0  0
  148.5721  138.9664  157.7503 H   0  0  0  0  0  0  0  0  0  0  0  0
  147.6625  133.7856  155.7918 H   0  0  0  0  0  0  0  0  0  0  0  0
  144.3749  137.9936  152.1921 H   0  0  0  0  0  0  0  0  0  0  0  0
  143.8523  134.3918  152.8850 H   0  0  0  0  0  0  0  0  0  0  0  0
  143.3724  135.6862  151.8177 H   0  0  0  0  0  0  0  0  0  0  0  0
  145.3746  134.9975  149.2108 H   0  0  0  0  0  0  0  0  0  0  0  0
  143.7225  132.7635  151.1798 H   0  0  0  0  0  0  0  0  0  0  0  0
  143.6367  133.5476  149.6045 H   0  0  0  0  0  0  0  0  0  0  0  0
  145.1661  131.3546  149.8586 H   0  0  0  0  0  0  0  0  0  0  0  0
  145.9184  132.7523  149.0720 H   0  0  0  0  0  0  0  0  0  0  0  0
  147.2164  134.4248  151.0117 H   0  0  0  0  0  0  0  0  0  0  0  0
  146.5260  133.9527  152.5576 H   0  0  0  0  0  0  0  0  0  0  0  0
  1  2  1  0  0  0  0
  1 27  1  0  0  0  0
  1 28  1  0  0  0  0
  1 29  1  0  0  0  0
  2  3  1  0  0  0  0
  2  4  1  0  0  0  0
  2 30  1  0  0  0  0
  3 31  1  0  0  0  0
  3 32  1  0  0  0  0
  3 33  1  0  0  0  0
  4 10  1  0  0  0  0
  4  5  1  0  0  0  0
  4 34  1  0  0  0  0
  5  6  2  0  0  0  0
  5  7  1  0  0  0  0
  7  8  1  0  0  0  0
  7 35  1  0  0  0  0
  8  9  1  0  0  0  0
  8 36  1  0  0  0  0
  8 37  1  0  0  0  0
  9 10  1  0  0  0  0
  9 38  1  0  0  0  0
  9 39  1  0  0  0  0
 10 11  1  0  0  0  0
 11 16  1  0  0  0  0
 11 12  2  0  0  0  0
 12 13  1  0  0  0  0
 13 14  2  0  0  0  0
 13 40  1  0  0  0  0
 14 15  1  0  0  0  0
 15 19  1  0  0  0  0
 15 16  2  0  0  0  0
 16 17  1  0  0  0  0
 17 18  2  0  0  0  0
 18 19  1  0  0  0  0
 18 41  1  0  0  0  0
 19 20  1  0  0  0  0
 20 21  1  0  0  0  0
 20 42  1  0  0  0  0
 20 43  1  0  0  0  0
 21 26  1  0  0  0  0
 21 22  1  0  0  0  0
 21 23  1  0  0  0  0
 22 44  1  0  0  0  0
 23 24  1  0  0  0  0
 23 45  1  0  0  0  0
 23 46  1  0  0  0  0
 24 25  1  0  0  0  0
 24 47  1  0  0  0  0
 24 48  1  0  0  0  0
 25 26  1  0  0  0  0
 26 49  1  0  0  0  0
 26 50  1  0  0  0  0
M  END
> <s_m_source_file>
AV-unprocessed.smi

> <i_m_source_file_index>
274

> <i_lp_mmshare_version>
43012

> <i_f3d_flags>
0

> <s_epik_input>
W0NIM11bQ0hdKFtDSDNdKVtDQEBIXTFDKD1PKVtOSF1bQ0gyXVtDSDJdTjFjKG5bY0hdbjIpYyhjMjMpbltjSF1uM1tDSDJdW0NAQF00KFtPSF0pW0NIMl1bQ0gyXU9bQ0gyXTQ=

> <s_epik_cmdline>
J2VwaWtfcHl0aG9uJywgJy1waCcsICc3LjAnLCAnLXRuJywgJzgnLCAnLW1hJywgJzIwMCcsICctbWV0YWxfYmluZGluZycsICctaW1hZScsICc8aW5maWxlLm1hZT4nLCAnLW9tYWUnLCAnPG91dGZpbGUubWFlPic=

> <r_lp_tautomer_probability>
1

> <r_epik_Ionization_Penalty>
0.000690079

> <r_epik_Ionization_Penalty_Charging>
0

> <r_epik_Ionization_Penalty_Neutral>
0.000690079

> <r_epik_State_Penalty>
0.000321372

> <r_epik_Charging_Adjusted_Penalty>
0.000321372

> <i_epik_Tot_Q>
0

> <i_epik_Tot_abs_Q>
0

> <r_epik_Metal_State_Penalty>
-0

> <b_epik_Metal_Only>
0

> <s_lp_Force_Field>
OPLS_2005

> <r_lp_Energy>
41.7848

> <b_lp_Chiralities_Consistent>
1

> <s_lp_Variant>
AV-unprocessed.smi:274-4

> <Gold.Version>
5.8.1

> <Gold.Id.Protein>
6NUR|6NUR_protein|mol2

> <Gold.PLP.Fitness>
35.6240

> <Gold.PLP.PLP>
-25.6545

> <Gold.PLP.part.hbond>
-2.0000

> <Gold.PLP.part.metal>
0.0000

> <Gold.PLP.part.buried>
-4.8085

> <Gold.PLP.part.nonpolar>
-19.1257

> <Gold.PLP.part.repulsive>
0.6690

> <Gold.PLP.ligand.clash>
0.0000

> <Gold.PLP.ligand.torsion>
1.0557

> <Gold.PLP.Chemscore.Hbond>
2.0000

> <Gold.PLP.Chemscore.CHOScore>
1.9179

> <Gold.PLP.Chemscore.Metal>
0.0000

> <Gold.Chemscore.Hbonds>
donor molecule, donor type, donor heavy atom, donor atom, acceptor molecule, acceptor atom, score
      L1  H    22    44       P1  7921  1.00
      P1  H  7989  7998       L1     6  1.00
      L1  C    18    41       P1 10171  1.00
      L1  C    18    41       P1 10175  0.84

> <Gold.PLP.Chemscore.Internal.Correction>
0.3273

> <Gold.Rescore>
     Score         DG    S(hbond)    S(metal)    S(lipo)     H(rot)  DE(clash)    DE(int)     intcor
     11.10     -13.04       1.99        0.00      54.60       2.14       0.01       1.93       ----

> <Gold.Chemscore.Fitness>
11.0968

> <Gold.Chemscore.DG>
-13.0415

> <Gold.Chemscore.ZeroCoef>
-5.4800

> <Gold.Chemscore.Hbond>
1.9937

> <Gold.Chemscore.Metal>
0.0000

> <Gold.Chemscore.Lipo>
54.6049

> <Gold.Chemscore.Internal_Hbond>
0.0000

> <Gold.Chemscore.DEClash>
0.0098

> <Gold.Chemscore.DEInternal>
1.9349

> <Gold.Chemscore.Rot>
2.1431

> <Gold.Chemscore.Internal.Correction>
   9.000000E+99

> <Gold.Chemscore.Hbonds>
donor molecule, donor type, donor heavy atom, donor atom, acceptor molecule, acceptor atom, score
      L1  H    22    44       P1  7921  0.96
      P1  H  7989  7998       L1     6  0.99

> <Gold.Chemscore.Hbond.Weighted>
-6.6590

> <Gold.Chemscore.Metal.Weighted>
-0.0000

> <Gold.Chemscore.Lipo.Weighted>
-6.3888

> <Gold.Chemscore.Internal_Hbond.Weighted>
0.0000

> <Gold.Chemscore.DEClash.Weighted>
0.0098

> <Gold.Chemscore.DEInternal.Weighted>
1.9349

> <Gold.Chemscore.Rot.Weighted>
5.4863

> <Gold.Chemscore.Internal.Correction.Weighted>
   9.000000E+99

> <Gold.Protein.RotatedTorsions>
[ 6907 6896 6895 6894 ] final    2.94 input  -60.11 | X-H torsion
[ 7974 7965 7964 7962 ] final -161.71 input  175.53 | X-H torsion
[ 8008 7997 7996 7995 ] final   59.27 input   59.86 | X-H torsion
[ 10167 10162 10161 10158 ] final -158.80 input  -65.29 | X-H torsion
[ 10718 10713 10712 10709 ] final   10.65 input   66.30 | X-H torsion
[ 10763 10752 10751 10750 ] final   39.10 input  -60.55 | X-H torsion
[ 11005 11000 10999 10996 ] final  -94.59 input  -57.11 | X-H torsion

> <Gold.Protein.ActiveResidues>
 VAL166  LYS551  ARG553  GLY616  TRP617  ASP618  TYR619  PRO620  LYS621  CYS622 
 ASP623  PHE694  ASN695  SER759  ASP760  ASP761  ALA762  ILE779  LEU786  VAL792 
 PHE793  MET794  SER795  GLU796  ALA797  LYS798  CYS799  TRP800  GLU811  SER814 

> <Gold.Protein.RotatedAtoms>
  151.6170  135.1035  160.0093 H   0  0  0  0  0  0  0  0  0  0  0  0  # atno 6907 bound_to 6896
  152.4178  133.7062  159.6463 H   0  0  0  0  0  0  0  0  0  0  0  0  # atno 6908 bound_to 6896
  150.8066  133.8426  159.3224 H   0  0  0  0  0  0  0  0  0  0  0  0  # atno 6909 bound_to 6896
  144.7382  140.3358  143.6144 H   0  0  0  0  0  0  0  0  0  0  0  0  # atno 7974 bound_to 7965
  155.5634  140.3488  155.4497 H   0  0  0  0  0  0  0  0  0  0  0  0  # atno 8008 bound_to 7997
  156.0497  140.1315  157.0089 H   0  0  0  0  0  0  0  0  0  0  0  0  # atno 8009 bound_to 7997
  154.4429  140.1007  156.6343 H   0  0  0  0  0  0  0  0  0  0  0  0  # atno 8010 bound_to 7997
  139.6664  143.9821  152.2257 H   0  0  0  0  0  0  0  0  0  0  0  0  # atno 10167 bound_to 10162
  156.9841  130.6017  149.5679 H   0  0  0  0  0  0  0  0  0  0  0  0  # atno 10718 bound_to 10713
  152.9978  135.6230  154.2410 H   0  0  0  0  0  0  0  0  0  0  0  0  # atno 10763 bound_to 10752
  154.2151  135.2798  155.2946 H   0  0  0  0  0  0  0  0  0  0  0  0  # atno 10764 bound_to 10752
  154.5575  135.5715  153.7035 H   0  0  0  0  0  0  0  0  0  0  0  0  # atno 10765 bound_to 10752
  141.1466  133.7966  157.0318 H   0  0  0  0  0  0  0  0  0  0  0  0  # atno 11005 bound_to 11000
  145.7425  139.1768  143.2368 LP  0  0  0  0  0  0  0  0  0  0  0  0  # atno 17320 bound_to 7965
  146.1123  140.7413  142.9497 LP  0  0  0  0  0  0  0  0  0  0  0  0  # atno 17321 bound_to 7965
  139.9574  144.6580  150.8112 LP  0  0  0  0  0  0  0  0  0  0  0  0  # atno 17342 bound_to 10162
  140.7601  143.3143  151.2769 LP  0  0  0  0  0  0  0  0  0  0  0  0  # atno 17343 bound_to 10162
  156.0233  130.5327  150.8335 LP  0  0  0  0  0  0  0  0  0  0  0  0  # atno 17370 bound_to 10713
  157.5505  131.0943  150.9702 LP  0  0  0  0  0  0  0  0  0  0  0  0  # atno 17371 bound_to 10713
  140.0749  134.9681  157.1528 LP  0  0  0  0  0  0  0  0  0  0  0  0  # atno 17394 bound_to 11000
  140.3658  134.2444  155.7182 LP  0  0  0  0  0  0  0  0  0  0  0  0  # atno 17395 bound_to 11000

$$$$
