AV-unprocessed.smi:3105|AV-procd|sdf|11819|dock4
  -GOLD-   2272017193D 1   1.00000     0.00000
 Structure written by MMmdl.
 34 34  0  0  0  0  0  0  0  0  2 V2000
  148.8432  139.9934  157.3661 C   0  0  0  0  0  0  0  0  0  0  0  0
  149.2531  141.4761  157.2700 C   0  0  2  0  0  0  0  0  0  0  0  0
  148.8210  142.0346  155.9670 N   0  3  0  0  0  0  0  0  0  0  0  0
  149.3853  141.3716  154.7704 C   0  0  0  0  0  0  0  0  0  0  0  0
  148.5149  140.1872  154.3057 C   0  0  0  0  0  0  0  0  0  0  0  0
  147.0846  140.5673  153.8978 C   0  0  0  0  0  0  0  0  0  0  0  0
  146.7387  140.3160  152.6333 N   0  0  0  0  0  0  0  0  0  0  0  0
  146.3021  141.0755  154.6992 O   0  0  0  0  0  0  0  0  0  0  0  0
  150.7833  141.6793  157.4476 C   0  0  2  0  0  0  0  0  0  0  0  0
  151.4660  140.5328  158.2167 C   0  0  0  0  0  0  0  0  0  0  0  0
  151.0905  142.9486  158.0990 N   0  0  0  0  0  0  0  0  0  0  0  0
  151.8463  143.9951  157.6117 C   0  0  0  0  0  0  0  0  0  0  0  0
  151.8768  144.9618  158.5754 C   0  0  0  0  0  0  0  0  0  0  0  0
  151.1118  144.4052  159.6374 C   0  0  0  0  0  0  0  0  0  0  0  0
  150.6453  143.2009  159.3512 N   0  0  0  0  0  0  0  0  0  0  0  0
  149.0752  139.5743  158.3445 H   0  0  0  0  0  0  0  0  0  0  0  0
  149.3552  139.3912  156.6150 H   0  0  0  0  0  0  0  0  0  0  0  0
  147.7717  139.8588  157.2211 H   0  0  0  0  0  0  0  0  0  0  0  0
  148.7413  142.0254  158.0619 H   0  0  0  0  0  0  0  0  0  0  0  0
  147.8170  141.9356  155.9145 H   0  0  0  0  0  0  0  0  0  0  0  0
  149.4996  142.0885  153.9573 H   0  0  0  0  0  0  0  0  0  0  0  0
  150.3852  141.0089  155.0107 H   0  0  0  0  0  0  0  0  0  0  0  0
  148.9931  139.7120  153.4481 H   0  0  0  0  0  0  0  0  0  0  0  0
  148.4691  139.4311  155.0909 H   0  0  0  0  0  0  0  0  0  0  0  0
  145.8092  140.5388  152.3071 H   0  0  0  0  0  0  0  0  0  0  0  0
  147.4090  139.8965  152.0043 H   0  0  0  0  0  0  0  0  0  0  0  0
  151.2339  141.7201  156.4546 H   0  0  0  0  0  0  0  0  0  0  0  0
  151.4163  139.5916  157.6704 H   0  0  0  0  0  0  0  0  0  0  0  0
  151.0069  140.3789  159.1938 H   0  0  0  0  0  0  0  0  0  0  0  0
  152.5229  140.7477  158.3786 H   0  0  0  0  0  0  0  0  0  0  0  0
  152.2953  143.9665  156.6296 H   0  0  0  0  0  0  0  0  0  0  0  0
  152.3757  145.9185  158.5314 H   0  0  0  0  0  0  0  0  0  0  0  0
  150.8847  144.8366  160.6014 H   0  0  0  0  0  0  0  0  0  0  0  0
  149.0482  143.0187  155.9410 H   0  0  0  0  0  0  0  0  0  0  0  0
  1  2  1  0  0  0  0
  1 16  1  0  0  0  0
  1 17  1  0  0  0  0
  1 18  1  0  0  0  0
  2  3  1  0  0  0  0
  2  9  1  0  0  0  0
  2 19  1  0  0  0  0
  3  4  1  0  0  0  0
  3 20  1  0  0  0  0
  3 34  1  0  0  0  0
  4  5  1  0  0  0  0
  4 21  1  0  0  0  0
  4 22  1  0  0  0  0
  5  6  1  0  0  0  0
  5 23  1  0  0  0  0
  5 24  1  0  0  0  0
  6  7  1  0  0  0  0
  6  8  2  0  0  0  0
  7 25  1  0  0  0  0
  7 26  1  0  0  0  0
  9 10  1  0  0  0  0
  9 11  1  0  0  0  0
  9 27  1  0  0  0  0
 10 28  1  0  0  0  0
 10 29  1  0  0  0  0
 10 30  1  0  0  0  0
 11 15  1  0  0  0  0
 11 12  1  0  0  0  0
 12 13  2  0  0  0  0
 12 31  1  0  0  0  0
 13 14  1  0  0  0  0
 13 32  1  0  0  0  0
 14 15  2  0  0  0  0
 14 33  1  0  0  0  0
M  CHG  1   3   1
M  END
> <s_m_source_file>
AV-unprocessed.smi

> <i_m_source_file_index>
3105

> <i_lp_mmshare_version>
43012

> <i_f3d_flags>
0

> <s_epik_input>
W05IMl1DKD1PKVtDSDJdW0NIMl1bTkhdW0NAQEhdKFtDSDNdKVtDQEhdKFtDSDNdKW4xW2NIXVtjSF1bY0hdbjE=

> <s_epik_cmdline>
J2VwaWtfcHl0aG9uJywgJy1waCcsICc3LjAnLCAnLXRuJywgJzgnLCAnLW1hJywgJzIwMCcsICctbWV0YWxfYmluZGluZycsICctaW1hZScsICc8aW5maWxlLm1hZT4nLCAnLW9tYWUnLCAnPG91dGZpbGUubWFlPic=

> <r_lp_tautomer_probability>
1

> <r_epik_Ionization_Penalty>
0.00475669

> <r_epik_Ionization_Penalty_Charging>
0.00474654

> <r_epik_Ionization_Penalty_Neutral>
1.01546e-05

> <r_epik_State_Penalty>
-0

> <r_epik_Charging_Adjusted_Penalty>
0.00474654

> <i_epik_Tot_Q>
1

> <i_epik_Tot_abs_Q>
1

> <r_epik_Metal_State_Penalty>
-0

> <b_epik_Metal_Only>
0

> <s_lp_Force_Field>
OPLS_2005

> <r_lp_Energy>
5.41696

> <b_lp_Chiralities_Consistent>
1

> <s_lp_Variant>
AV-unprocessed.smi:3105-1

> <Gold.Version>
5.8.1

> <Gold.Id.Protein>
6NUR|6NUR_protein|mol2

> <Gold.PLP.Fitness>
39.1263

> <Gold.PLP.PLP>
-31.5249

> <Gold.PLP.part.hbond>
-2.6885

> <Gold.PLP.part.metal>
0.0000

> <Gold.PLP.part.buried>
-3.7439

> <Gold.PLP.part.nonpolar>
-25.5506

> <Gold.PLP.part.repulsive>
0.3204

> <Gold.PLP.ligand.clash>
0.0000

> <Gold.PLP.ligand.torsion>
1.0931

> <Gold.PLP.Chemscore.Hbond>
3.2025

> <Gold.PLP.Chemscore.CHOScore>
0.0000

> <Gold.PLP.Chemscore.Metal>
0.0000

> <Gold.Chemscore.Hbonds>
donor molecule, donor type, donor heavy atom, donor atom, acceptor molecule, acceptor atom, score
      L1  H     3    34       P1  8028  2.00
      L1  H     7    25       P1 10175  0.78
      L1  H     7    26       P1  7957  0.24

> <Gold.PLP.Chemscore.Internal.Correction>
0.1800

> <Gold.Rescore>
     Score         DG    S(hbond)    S(metal)    S(lipo)     H(rot)  DE(clash)    DE(int)     intcor
     10.96     -13.47       1.98        0.00      74.17       2.85       0.04       2.47       ----

> <Gold.Chemscore.Fitness>
10.9554

> <Gold.Chemscore.DG>
-13.4681

> <Gold.Chemscore.ZeroCoef>
-5.4800

> <Gold.Chemscore.Hbond>
1.9757

> <Gold.Chemscore.Metal>
0.0000

> <Gold.Chemscore.Lipo>
74.1744

> <Gold.Chemscore.Internal_Hbond>
0.0000

> <Gold.Chemscore.DEClash>
0.0405

> <Gold.Chemscore.DEInternal>
2.4723

> <Gold.Chemscore.Rot>
2.8473

> <Gold.Chemscore.Internal.Correction>
   9.000000E+99

> <Gold.Chemscore.Hbonds>
donor molecule, donor type, donor heavy atom, donor atom, acceptor molecule, acceptor atom, score
      L1  H     3    34       P1  8028  0.99
      L1  H     7    25       P1 10175  0.22
      L1  H     7    26       P1  7957  0.22

> <Gold.Chemscore.Hbond.Weighted>
-6.5990

> <Gold.Chemscore.Metal.Weighted>
-0.0000

> <Gold.Chemscore.Lipo.Weighted>
-8.6784

> <Gold.Chemscore.Internal_Hbond.Weighted>
0.0000

> <Gold.Chemscore.DEClash.Weighted>
0.0405

> <Gold.Chemscore.DEInternal.Weighted>
2.4723

> <Gold.Chemscore.Rot.Weighted>
7.2892

> <Gold.Chemscore.Internal.Correction.Weighted>
   9.000000E+99

> <Gold.Protein.RotatedTorsions>
[ 6907 6896 6895 6894 ] final  120.03 input  -60.11 | X-H torsion
[ 7974 7965 7964 7962 ] final   98.80 input  175.53 | X-H torsion
[ 8008 7997 7996 7995 ] final  172.56 input   59.86 | X-H torsion
[ 10167 10162 10161 10158 ] final   60.18 input  -65.29 | X-H torsion
[ 10718 10713 10712 10709 ] final -100.30 input   66.30 | X-H torsion
[ 10763 10752 10751 10750 ] final  160.24 input  -60.55 | X-H torsion
[ 11005 11000 10999 10996 ] final  131.05 input  -57.11 | X-H torsion

> <Gold.Protein.ActiveResidues>
 VAL166  LYS551  ARG553  GLY616  TRP617  ASP618  TYR619  PRO620  LYS621  CYS622 
 ASP623  PHE694  ASN695  SER759  ASP760  ASP761  ALA762  ILE779  LEU786  VAL792 
 PHE793  MET794  SER795  GLU796  ALA797  LYS798  CYS799  TRP800  GLU811  SER814 

> <Gold.Protein.RotatedAtoms>
  152.4428  133.7480  159.6677 H   0  0  0  0  0  0  0  0  0  0  0  0  # atno 6907 bound_to 6896
  150.8322  133.8062  159.3100 H   0  0  0  0  0  0  0  0  0  0  0  0  # atno 6908 bound_to 6896
  151.5713  135.1065  160.0047 H   0  0  0  0  0  0  0  0  0  0  0  0  # atno 6909 bound_to 6896
  145.4073  139.2339  143.3267 H   0  0  0  0  0  0  0  0  0  0  0  0  # atno 7974 bound_to 7965
  156.1162  140.1482  156.9269 H   0  0  0  0  0  0  0  0  0  0  0  0  # atno 8008 bound_to 7997
  154.4802  140.0882  156.7402 H   0  0  0  0  0  0  0  0  0  0  0  0  # atno 8009 bound_to 7997
  155.4509  140.3434  155.4303 H   0  0  0  0  0  0  0  0  0  0  0  0  # atno 8010 bound_to 7997
  140.1684  144.4301  150.6674 H   0  0  0  0  0  0  0  0  0  0  0  0  # atno 10167 bound_to 10162
  156.0159  130.5321  150.6797 H   0  0  0  0  0  0  0  0  0  0  0  0  # atno 10718 bound_to 10713
  154.2444  135.2773  155.2841 H   0  0  0  0  0  0  0  0  0  0  0  0  # atno 10763 bound_to 10752
  154.5518  135.5673  153.6932 H   0  0  0  0  0  0  0  0  0  0  0  0  # atno 10764 bound_to 10752
  152.9993  135.6276  154.2589 H   0  0  0  0  0  0  0  0  0  0  0  0  # atno 10765 bound_to 10752
  139.9707  134.9578  156.9382 H   0  0  0  0  0  0  0  0  0  0  0  0  # atno 11005 bound_to 11000
  146.2722  140.4779  142.8810 LP  0  0  0  0  0  0  0  0  0  0  0  0  # atno 17320 bound_to 7965
  144.8333  140.6741  143.6277 LP  0  0  0  0  0  0  0  0  0  0  0  0  # atno 17321 bound_to 7965
  140.6598  143.2248  151.5882 LP  0  0  0  0  0  0  0  0  0  0  0  0  # atno 17342 bound_to 10162
  139.5349  144.2809  152.1230 LP  0  0  0  0  0  0  0  0  0  0  0  0  # atno 17343 bound_to 10162
  157.4502  131.0871  151.0854 LP  0  0  0  0  0  0  0  0  0  0  0  0  # atno 17370 bound_to 10713
  157.1372  130.6127  149.5545 LP  0  0  0  0  0  0  0  0  0  0  0  0  # atno 17371 bound_to 10713
  140.5299  134.0823  155.7313 LP  0  0  0  0  0  0  0  0  0  0  0  0  # atno 17394 bound_to 11000
  141.1387  133.9177  157.2376 LP  0  0  0  0  0  0  0  0  0  0  0  0  # atno 17395 bound_to 11000

$$$$
