AV-unprocessed.smi:2289|AV-procd|sdf|9208|dock10
  -GOLD-   2272012423D 1   1.00000     0.00000
 Structure written by MMmdl.
 40 41  0  0  0  0  0  0  0  0  1 V2000
  149.5812  135.6494  155.5279 C   0  0  0  0  0  0  0  0  0  0  0  0
  149.5754  137.1653  155.6165 C   0  0  0  0  0  0  0  0  0  0  0  0
  148.3808  137.7397  156.0590 N   0  0  0  0  0  0  0  0  0  0  0  0
  148.2829  139.0246  156.1611 C   0  0  0  0  0  0  0  0  0  0  0  0
  149.3507  139.8770  155.8346 N   0  0  0  0  0  0  0  0  0  0  0  0
  149.0931  141.3197  156.0081 C   0  0  0  0  0  0  0  0  0  0  0  0
  149.7121  141.9355  157.2902 C   0  0  2  0  0  0  0  0  0  0  0  0
  148.9304  143.0436  157.6911 O   0  0  0  0  0  0  0  0  0  0  0  0
  151.2036  142.3309  157.2028 C   0  0  0  0  0  0  0  0  0  0  0  0
  151.9572  142.1021  158.5073 C   0  0  0  0  0  0  0  0  0  0  0  0
  152.3226  140.7777  158.8332 C   0  0  0  0  0  0  0  0  0  0  0  0
  153.0204  140.4948  160.0204 C   0  0  0  0  0  0  0  0  0  0  0  0
  153.3566  141.5393  160.8976 C   0  0  0  0  0  0  0  0  0  0  0  0
  152.9946  142.8625  160.5854 C   0  0  0  0  0  0  0  0  0  0  0  0
  152.2957  143.1645  159.3923 C   0  0  0  0  0  0  0  0  0  0  0  0
  151.9134  144.6172  159.1001 C   0  0  0  0  0  0  0  0  0  0  0  0
  152.2565  145.4271  160.1026 F   0  0  0  0  0  0  0  0  0  0  0  0
  152.5248  145.0616  158.0024 F   0  0  0  0  0  0  0  0  0  0  0  0
  150.5941  144.7114  158.9341 F   0  0  0  0  0  0  0  0  0  0  0  0
  150.5560  139.3972  155.4072 C   0  0  0  0  0  0  0  0  0  0  0  0
  151.4935  140.1481  155.1305 O   0  0  0  0  0  0  0  0  0  0  0  0
  150.6514  137.9330  155.2921 C   0  0  0  0  0  0  0  0  0  0  0  0
  151.9777  137.3626  154.8047 C   0  0  0  0  0  0  0  0  0  0  0  0
  150.3379  135.2316  156.1924 H   0  0  0  0  0  0  0  0  0  0  0  0
  149.7937  135.3264  154.5086 H   0  0  0  0  0  0  0  0  0  0  0  0
  148.6158  135.2306  155.8148 H   0  0  0  0  0  0  0  0  0  0  0  0
  147.3741  139.5235  156.5021 H   0  0  0  0  0  0  0  0  0  0  0  0
  149.4161  141.8739  155.1243 H   0  0  0  0  0  0  0  0  0  0  0  0
  148.0173  141.4984  156.0388 H   0  0  0  0  0  0  0  0  0  0  0  0
  149.5964  141.1915  158.0791 H   0  0  0  0  0  0  0  0  0  0  0  0
  148.8198  143.6181  156.9489 H   0  0  0  0  0  0  0  0  0  0  0  0
  151.6947  141.7642  156.4163 H   0  0  0  0  0  0  0  0  0  0  0  0
  151.3018  143.3757  156.9037 H   0  0  0  0  0  0  0  0  0  0  0  0
  152.0685  139.9681  158.1645 H   0  0  0  0  0  0  0  0  0  0  0  0
  153.2958  139.4775  160.2574 H   0  0  0  0  0  0  0  0  0  0  0  0
  153.8908  141.3264  161.8117 H   0  0  0  0  0  0  0  0  0  0  0  0
  153.2608  143.6445  161.2805 H   0  0  0  0  0  0  0  0  0  0  0  0
  152.2090  137.7461  153.8106 H   0  0  0  0  0  0  0  0  0  0  0  0
  151.9819  136.2755  154.7458 H   0  0  0  0  0  0  0  0  0  0  0  0
  152.7839  137.6576  155.4772 H   0  0  0  0  0  0  0  0  0  0  0  0
  1  2  1  0  0  0  0
  1 24  1  0  0  0  0
  1 25  1  0  0  0  0
  1 26  1  0  0  0  0
  2 22  2  0  0  0  0
  2  3  1  0  0  0  0
  3  4  2  0  0  0  0
  4  5  1  0  0  0  0
  4 27  1  0  0  0  0
  5  6  1  0  0  0  0
  5 20  1  0  0  0  0
  6  7  1  0  0  0  0
  6 28  1  0  0  0  0
  6 29  1  0  0  0  0
  7  8  1  0  0  0  0
  7  9  1  0  0  0  0
  7 30  1  0  0  0  0
  8 31  1  0  0  0  0
  9 10  1  0  0  0  0
  9 32  1  0  0  0  0
  9 33  1  0  0  0  0
 10 15  1  0  0  0  0
 10 11  2  0  0  0  0
 11 12  1  0  0  0  0
 11 34  1  0  0  0  0
 12 13  2  0  0  0  0
 12 35  1  0  0  0  0
 13 14  1  0  0  0  0
 13 36  1  0  0  0  0
 14 15  2  0  0  0  0
 14 37  1  0  0  0  0
 15 16  1  0  0  0  0
 16 17  1  0  0  0  0
 16 18  1  0  0  0  0
 16 19  1  0  0  0  0
 20 21  2  0  0  0  0
 20 22  1  0  0  0  0
 22 23  1  0  0  0  0
 23 38  1  0  0  0  0
 23 39  1  0  0  0  0
 23 40  1  0  0  0  0
M  END
> <s_m_source_file>
AV-unprocessed.smi

> <i_m_source_file_index>
2289

> <i_lp_mmshare_version>
43012

> <i_f3d_flags>
0

> <s_epik_input>
W0NIM11jMW5bY0hdbihjKD1PKWMxW0NIM10pW0NIMl1bQ0BIXShbT0hdKVtDSDJdYzJbY0hdW2NIXVtjSF1bY0hdYzJDKEYpKEYpRg==

> <s_epik_cmdline>
J2VwaWtfcHl0aG9uJywgJy1waCcsICc3LjAnLCAnLXRuJywgJzgnLCAnLW1hJywgJzIwMCcsICctbWV0YWxfYmluZGluZycsICctaW1hZScsICc8aW5maWxlLm1hZT4nLCAnLW9tYWUnLCAnPG91dGZpbGUubWFlPic=

> <r_lp_tautomer_probability>
1

> <r_epik_Ionization_Penalty>
8.92636e-05

> <r_epik_Ionization_Penalty_Charging>
8.63033e-08

> <r_epik_Ionization_Penalty_Neutral>
8.91773e-05

> <r_epik_State_Penalty>
-0

> <r_epik_Charging_Adjusted_Penalty>
8.63033e-08

> <i_epik_Tot_Q>
0

> <i_epik_Tot_abs_Q>
0

> <r_epik_Metal_State_Penalty>
-0

> <b_epik_Metal_Only>
0

> <s_lp_Force_Field>
OPLS_2005

> <r_lp_Energy>
23.7682

> <b_lp_Chiralities_Consistent>
1

> <s_lp_Variant>
AV-unprocessed.smi:2289-1

> <Gold.Version>
5.8.1

> <Gold.Id.Protein>
6NUR|6NUR_protein|mol2

> <Gold.PLP.Fitness>
51.9751

> <Gold.PLP.PLP>
-48.6069

> <Gold.PLP.part.hbond>
-1.9942

> <Gold.PLP.part.metal>
0.0000

> <Gold.PLP.part.buried>
-4.2699

> <Gold.PLP.part.nonpolar>
-43.3507

> <Gold.PLP.part.repulsive>
0.0976

> <Gold.PLP.ligand.clash>
1.3730

> <Gold.PLP.ligand.torsion>
1.2082

> <Gold.PLP.Chemscore.Hbond>
1.8960

> <Gold.PLP.Chemscore.CHOScore>
0.0000

> <Gold.PLP.Chemscore.Metal>
0.0000

> <Gold.Chemscore.Hbonds>
donor molecule, donor type, donor heavy atom, donor atom, acceptor molecule, acceptor atom, score
      L1  H     8    31       P1  8028  1.00
      P1  H  7989  7998       L1    21  1.00

> <Gold.PLP.Chemscore.Internal.Correction>
1.4696

> <Gold.Rescore>
     Score         DG    S(hbond)    S(metal)    S(lipo)     H(rot)  DE(clash)    DE(int)     intcor
     11.57     -15.90       0.95        0.00     113.72       2.37       1.24       3.10       ----

> <Gold.Chemscore.Fitness>
11.5688

> <Gold.Chemscore.DG>
-15.9018

> <Gold.Chemscore.ZeroCoef>
-5.4800

> <Gold.Chemscore.Hbond>
0.9518

> <Gold.Chemscore.Metal>
0.0000

> <Gold.Chemscore.Lipo>
113.7185

> <Gold.Chemscore.Internal_Hbond>
0.0000

> <Gold.Chemscore.DEClash>
1.2351

> <Gold.Chemscore.DEInternal>
3.0979

> <Gold.Chemscore.Rot>
2.3681

> <Gold.Chemscore.Internal.Correction>
   9.000000E+99

> <Gold.Chemscore.Hbonds>
donor molecule, donor type, donor heavy atom, donor atom, acceptor molecule, acceptor atom, score
      L1  H     8    31       P1  8028  0.40
      P1  H  7989  7998       L1    21  0.95

> <Gold.Chemscore.Hbond.Weighted>
-3.1792

> <Gold.Chemscore.Metal.Weighted>
-0.0000

> <Gold.Chemscore.Lipo.Weighted>
-13.3051

> <Gold.Chemscore.Internal_Hbond.Weighted>
0.0000

> <Gold.Chemscore.DEClash.Weighted>
1.2351

> <Gold.Chemscore.DEInternal.Weighted>
3.0979

> <Gold.Chemscore.Rot.Weighted>
6.0624

> <Gold.Chemscore.Internal.Correction.Weighted>
   9.000000E+99

> <Gold.Protein.RotatedTorsions>
[ 6907 6896 6895 6894 ] final  178.25 input  -60.11 | X-H torsion
[ 7974 7965 7964 7962 ] final  -68.64 input  175.53 | X-H torsion
[ 8008 7997 7996 7995 ] final -178.01 input   59.86 | X-H torsion
[ 10167 10162 10161 10158 ] final   -6.10 input  -65.29 | X-H torsion
[ 10718 10713 10712 10709 ] final  -18.76 input   66.30 | X-H torsion
[ 10763 10752 10751 10750 ] final  -51.91 input  -60.55 | X-H torsion
[ 11005 11000 10999 10996 ] final  178.93 input  -57.11 | X-H torsion

> <Gold.Protein.ActiveResidues>
 VAL166  LYS551  ARG553  GLY616  TRP617  ASP618  TYR619  PRO620  LYS621  CYS622 
 ASP623  PHE694  ASN695  SER759  ASP760  ASP761  ALA762  ILE779  LEU786  VAL792 
 PHE793  MET794  SER795  GLU796  ALA797  LYS798  CYS799  TRP800  GLU811  SER814 

> <Gold.Protein.RotatedAtoms>
  151.6909  133.3311  159.3242 H   0  0  0  0  0  0  0  0  0  0  0  0  # atno 6907 bound_to 6896
  150.7779  134.6699  159.6395 H   0  0  0  0  0  0  0  0  0  0  0  0  # atno 6908 bound_to 6896
  152.3827  134.6568  160.0189 H   0  0  0  0  0  0  0  0  0  0  0  0  # atno 6909 bound_to 6896
  145.7139  140.9067  143.0666 H   0  0  0  0  0  0  0  0  0  0  0  0  # atno 7974 bound_to 7965
  156.0138  140.1246  157.0427 H   0  0  0  0  0  0  0  0  0  0  0  0  # atno 8008 bound_to 7997
  154.4285  140.1082  156.5936 H   0  0  0  0  0  0  0  0  0  0  0  0  # atno 8009 bound_to 7997
  155.6042  140.3471  155.4605 H   0  0  0  0  0  0  0  0  0  0  0  0  # atno 8010 bound_to 7997
  140.6985  143.6232  150.8592 H   0  0  0  0  0  0  0  0  0  0  0  0  # atno 10167 bound_to 10162
  156.5551  130.4711  149.6433 H   0  0  0  0  0  0  0  0  0  0  0  0  # atno 10718 bound_to 10713
  154.1342  135.6515  153.4928 H   0  0  0  0  0  0  0  0  0  0  0  0  # atno 10763 bound_to 10752
  153.0186  135.5300  154.6970 H   0  0  0  0  0  0  0  0  0  0  0  0  # atno 10764 bound_to 10752
  154.6214  135.2965  155.0293 H   0  0  0  0  0  0  0  0  0  0  0  0  # atno 10765 bound_to 10752
  140.4005  134.6781  157.4559 H   0  0  0  0  0  0  0  0  0  0  0  0  # atno 11005 bound_to 11000
  144.6934  139.9111  143.7463 LP  0  0  0  0  0  0  0  0  0  0  0  0  # atno 17320 bound_to 7965
  146.0687  139.3677  143.0536 LP  0  0  0  0  0  0  0  0  0  0  0  0  # atno 17321 bound_to 7965
  139.9953  143.5803  152.2895 LP  0  0  0  0  0  0  0  0  0  0  0  0  # atno 17342 bound_to 10162
  139.6473  144.7659  151.2219 LP  0  0  0  0  0  0  0  0  0  0  0  0  # atno 17343 bound_to 10162
  156.2850  130.7092  151.1926 LP  0  0  0  0  0  0  0  0  0  0  0  0  # atno 17370 bound_to 10713
  157.7380  131.0546  150.5322 LP  0  0  0  0  0  0  0  0  0  0  0  0  # atno 17371 bound_to 10713
  140.0340  134.6365  155.9069 LP  0  0  0  0  0  0  0  0  0  0  0  0  # atno 17394 bound_to 11000
  141.1858  133.6556  156.5214 LP  0  0  0  0  0  0  0  0  0  0  0  0  # atno 17395 bound_to 11000

$$$$
