AV-unprocessed.smi:3137|AV-procd|sdf|11952|dock8
  -GOLD-   2272017353D 1   1.00000     0.00000
 Structure written by MMmdl.
 40 40  0  0  0  0  0  0  0  0  2 V2000
  144.0314  133.6705  151.3797 C   0  0  0  0  0  0  0  0  0  0  0  0
  144.5303  134.7286  150.3866 C   0  0  0  0  0  0  0  0  0  0  0  0
  144.6502  136.0407  151.0122 N   0  0  0  0  0  0  0  0  0  0  0  0
  145.4643  136.3356  152.0374 C   0  0  0  0  0  0  0  0  0  0  0  0
  146.2020  135.5085  152.5733 O   0  0  0  0  0  0  0  0  0  0  0  0
  145.4353  137.7854  152.5318 C   0  0  0  0  0  0  0  0  0  0  0  0
  146.6887  138.5797  152.1255 C   0  0  0  0  0  0  0  0  0  0  0  0
  146.5453  140.0081  152.4779 N   0  3  0  0  0  0  0  0  0  0  0  0
  147.3345  140.4574  153.6471 C   0  0  2  0  0  0  0  0  0  0  0  0
  146.8730  141.8664  154.0577 C   0  0  0  0  0  0  0  0  0  0  0  0
  148.8525  140.3931  153.3544 C   0  0  0  0  0  0  0  0  0  0  0  0
  149.6728  140.6407  154.5264 N   0  0  0  0  0  0  0  0  0  0  0  0
  149.5106  141.6029  155.5006 C   0  0  0  0  0  0  0  0  0  0  0  0
  150.5340  141.4595  156.3939 C   0  0  0  0  0  0  0  0  0  0  0  0
  150.8129  142.2549  157.6366 C   0  0  0  0  0  0  0  0  0  0  0  0
  151.2836  140.3697  155.8667 C   0  0  0  0  0  0  0  0  0  0  0  0
  150.7694  139.8857  154.7477 N   0  0  0  0  0  0  0  0  0  0  0  0
  143.9128  132.7050  150.8878 H   0  0  0  0  0  0  0  0  0  0  0  0
  143.0652  133.9491  151.8014 H   0  0  0  0  0  0  0  0  0  0  0  0
  144.7315  133.5366  152.2047 H   0  0  0  0  0  0  0  0  0  0  0  0
  145.4859  134.4253  149.9559 H   0  0  0  0  0  0  0  0  0  0  0  0
  143.8287  134.8114  149.5565 H   0  0  0  0  0  0  0  0  0  0  0  0
  144.0760  136.7790  150.6316 H   0  0  0  0  0  0  0  0  0  0  0  0
  144.5468  138.2782  152.1335 H   0  0  0  0  0  0  0  0  0  0  0  0
  145.3314  137.7784  153.6173 H   0  0  0  0  0  0  0  0  0  0  0  0
  147.5694  138.1769  152.6282 H   0  0  0  0  0  0  0  0  0  0  0  0
  146.8537  138.4801  151.0526 H   0  0  0  0  0  0  0  0  0  0  0  0
  146.7934  140.5750  151.6797 H   0  0  0  0  0  0  0  0  0  0  0  0
  147.1061  139.7886  154.4785 H   0  0  0  0  0  0  0  0  0  0  0  0
  147.3543  142.1954  154.9789 H   0  0  0  0  0  0  0  0  0  0  0  0
  145.7971  141.8909  154.2335 H   0  0  0  0  0  0  0  0  0  0  0  0
  147.1005  142.5998  153.2833 H   0  0  0  0  0  0  0  0  0  0  0  0
  149.1335  139.4178  152.9570 H   0  0  0  0  0  0  0  0  0  0  0  0
  149.1173  141.1271  152.5922 H   0  0  0  0  0  0  0  0  0  0  0  0
  148.6882  142.3029  155.4795 H   0  0  0  0  0  0  0  0  0  0  0  0
  151.8736  142.2533  157.8885 H   0  0  0  0  0  0  0  0  0  0  0  0
  150.2768  141.8550  158.4974 H   0  0  0  0  0  0  0  0  0  0  0  0
  150.5120  143.2968  157.5255 H   0  0  0  0  0  0  0  0  0  0  0  0
  152.1832  139.9203  156.2612 H   0  0  0  0  0  0  0  0  0  0  0  0
  145.5707  140.1660  152.6908 H   0  0  0  0  0  0  0  0  0  0  0  0
  1  2  1  0  0  0  0
  1 18  1  0  0  0  0
  1 19  1  0  0  0  0
  1 20  1  0  0  0  0
  2  3  1  0  0  0  0
  2 21  1  0  0  0  0
  2 22  1  0  0  0  0
  3  4  1  0  0  0  0
  3 23  1  0  0  0  0
  4  5  2  0  0  0  0
  4  6  1  0  0  0  0
  6  7  1  0  0  0  0
  6 24  1  0  0  0  0
  6 25  1  0  0  0  0
  7  8  1  0  0  0  0
  7 26  1  0  0  0  0
  7 27  1  0  0  0  0
  8  9  1  0  0  0  0
  8 28  1  0  0  0  0
  8 40  1  0  0  0  0
  9 10  1  0  0  0  0
  9 11  1  0  0  0  0
  9 29  1  0  0  0  0
 10 30  1  0  0  0  0
 10 31  1  0  0  0  0
 10 32  1  0  0  0  0
 11 12  1  0  0  0  0
 11 33  1  0  0  0  0
 11 34  1  0  0  0  0
 12 17  1  0  0  0  0
 12 13  1  0  0  0  0
 13 14  2  0  0  0  0
 13 35  1  0  0  0  0
 14 15  1  0  0  0  0
 14 16  1  0  0  0  0
 15 36  1  0  0  0  0
 15 37  1  0  0  0  0
 15 38  1  0  0  0  0
 16 17  2  0  0  0  0
 16 39  1  0  0  0  0
M  CHG  1   8   1
M  END
> <s_m_source_file>
AV-unprocessed.smi

> <i_m_source_file_index>
3137

> <i_lp_mmshare_version>
43012

> <i_f3d_flags>
0

> <s_epik_input>
W0NIM11bQ0gyXVtOSF1DKD1PKVtDSDJdW0NIMl1bTkhdW0NASF0oW0NIM10pW0NIMl1uMVtjSF1jKFtDSDNdKVtjSF1uMQ==

> <s_epik_cmdline>
J2VwaWtfcHl0aG9uJywgJy1waCcsICc3LjAnLCAnLXRuJywgJzgnLCAnLW1hJywgJzIwMCcsICctbWV0YWxfYmluZGluZycsICctaW1hZScsICc8aW5maWxlLm1hZT4nLCAnLW9tYWUnLCAnPG91dGZpbGUubWFlPic=

> <r_lp_tautomer_probability>
1

> <r_epik_Ionization_Penalty>
0.00598586

> <r_epik_Ionization_Penalty_Charging>
0.00597743

> <r_epik_Ionization_Penalty_Neutral>
8.43172e-06

> <r_epik_State_Penalty>
0.00439883

> <r_epik_Charging_Adjusted_Penalty>
0.0103763

> <i_epik_Tot_Q>
1

> <i_epik_Tot_abs_Q>
1

> <r_epik_Metal_State_Penalty>
-0

> <b_epik_Metal_Only>
0

> <s_lp_Force_Field>
OPLS_2005

> <r_lp_Energy>
5.54244

> <b_lp_Chiralities_Consistent>
1

> <s_lp_Variant>
AV-unprocessed.smi:3137-1

> <Gold.Version>
5.8.1

> <Gold.Id.Protein>
6NUR|6NUR_protein|mol2

> <Gold.PLP.Fitness>
44.2256

> <Gold.PLP.PLP>
-32.1731

> <Gold.PLP.part.hbond>
-3.0000

> <Gold.PLP.part.metal>
0.0000

> <Gold.PLP.part.buried>
4.3018

> <Gold.PLP.part.nonpolar>
-34.6505

> <Gold.PLP.part.repulsive>
1.4330

> <Gold.PLP.ligand.clash>
0.0000

> <Gold.PLP.ligand.torsion>
0.8004

> <Gold.PLP.Chemscore.Hbond>
3.5760

> <Gold.PLP.Chemscore.CHOScore>
0.9208

> <Gold.PLP.Chemscore.Metal>
0.0000

> <Gold.Chemscore.Hbonds>
donor molecule, donor type, donor heavy atom, donor atom, acceptor molecule, acceptor atom, score
      L1  H     3    23       P1 10171  1.00
      L1  H     8    40       P1 10175  2.00
      P1  H  7989  7998       L1    17  0.40
      L1  C    13    35       P1  8028  0.92

> <Gold.PLP.Chemscore.Internal.Correction>
0.1630

> <Gold.Rescore>
     Score         DG    S(hbond)    S(metal)    S(lipo)     H(rot)  DE(clash)    DE(int)     intcor
     11.91     -14.86       1.93        0.00      75.31       2.30       1.87       1.07       ----

> <Gold.Chemscore.Fitness>
11.9144

> <Gold.Chemscore.DG>
-14.8575

> <Gold.Chemscore.ZeroCoef>
-5.4800

> <Gold.Chemscore.Hbond>
1.9295

> <Gold.Chemscore.Metal>
0.0000

> <Gold.Chemscore.Lipo>
75.3130

> <Gold.Chemscore.Internal_Hbond>
0.0000

> <Gold.Chemscore.DEClash>
1.8686

> <Gold.Chemscore.DEInternal>
1.0745

> <Gold.Chemscore.Rot>
2.2963

> <Gold.Chemscore.Internal.Correction>
   9.000000E+99

> <Gold.Chemscore.Hbonds>
donor molecule, donor type, donor heavy atom, donor atom, acceptor molecule, acceptor atom, score
      L1  H     3    23       P1 10171  0.94
      L1  H     8    40       P1 10175  0.92

> <Gold.Chemscore.Hbond.Weighted>
-6.4445

> <Gold.Chemscore.Metal.Weighted>
-0.0000

> <Gold.Chemscore.Lipo.Weighted>
-8.8116

> <Gold.Chemscore.Internal_Hbond.Weighted>
0.0000

> <Gold.Chemscore.DEClash.Weighted>
1.8686

> <Gold.Chemscore.DEInternal.Weighted>
1.0745

> <Gold.Chemscore.Rot.Weighted>
5.8786

> <Gold.Chemscore.Internal.Correction.Weighted>
   9.000000E+99

> <Gold.Protein.RotatedTorsions>
[ 6907 6896 6895 6894 ] final -112.38 input  -60.11 | X-H torsion
[ 7974 7965 7964 7962 ] final -111.27 input  175.53 | X-H torsion
[ 8008 7997 7996 7995 ] final -134.14 input   59.86 | X-H torsion
[ 10167 10162 10161 10158 ] final  124.60 input  -65.29 | X-H torsion
[ 10718 10713 10712 10709 ] final    8.86 input   66.30 | X-H torsion
[ 10763 10752 10751 10750 ] final   51.75 input  -60.55 | X-H torsion
[ 11005 11000 10999 10996 ] final    9.20 input  -57.11 | X-H torsion

> <Gold.Protein.ActiveResidues>
 VAL166  LYS551  ARG553  GLY616  TRP617  ASP618  TYR619  PRO620  LYS621  CYS622 
 ASP623  PHE694  ASN695  SER759  ASP760  ASP761  ALA762  ILE779  LEU786  VAL792 
 PHE793  MET794  SER795  GLU796  ALA797  LYS798  CYS799  TRP800  GLU811  SER814 

> <Gold.Protein.RotatedAtoms>
  150.7754  133.9098  159.3365 H   0  0  0  0  0  0  0  0  0  0  0  0  # atno 6907 bound_to 6896
  151.6974  135.0934  160.0254 H   0  0  0  0  0  0  0  0  0  0  0  0  # atno 6908 bound_to 6896
  152.3788  133.6479  159.6180 H   0  0  0  0  0  0  0  0  0  0  0  0  # atno 6909 bound_to 6896
  145.1581  140.8864  143.3607 H   0  0  0  0  0  0  0  0  0  0  0  0  # atno 7974 bound_to 7965
  155.3572  140.0480  157.3046 H   0  0  0  0  0  0  0  0  0  0  0  0  # atno 8008 bound_to 7997
  154.5197  140.2220  155.8964 H   0  0  0  0  0  0  0  0  0  0  0  0  # atno 8009 bound_to 7997
  156.1675  140.3103  155.8921 H   0  0  0  0  0  0  0  0  0  0  0  0  # atno 8010 bound_to 7997
  139.5732  144.6950  151.3722 H   0  0  0  0  0  0  0  0  0  0  0  0  # atno 10167 bound_to 10162
  156.9578  130.5921  149.5660 H   0  0  0  0  0  0  0  0  0  0  0  0  # atno 10718 bound_to 10713
  152.9786  135.5835  154.4466 H   0  0  0  0  0  0  0  0  0  0  0  0  # atno 10763 bound_to 10752
  154.4060  135.2769  155.2069 H   0  0  0  0  0  0  0  0  0  0  0  0  # atno 10764 bound_to 10752
  154.3879  135.6132  153.5881 H   0  0  0  0  0  0  0  0  0  0  0  0  # atno 10765 bound_to 10752
  140.5283  134.0491  155.7865 H   0  0  0  0  0  0  0  0  0  0  0  0  # atno 11005 bound_to 11000
  145.0360  139.3300  143.6001 LP  0  0  0  0  0  0  0  0  0  0  0  0  # atno 17320 bound_to 7965
  146.3486  139.9715  142.8706 LP  0  0  0  0  0  0  0  0  0  0  0  0  # atno 17321 bound_to 7965
  140.7016  143.7617  150.7413 LP  0  0  0  0  0  0  0  0  0  0  0  0  # atno 17342 bound_to 10162
  140.1129  143.4682  152.2359 LP  0  0  0  0  0  0  0  0  0  0  0  0  # atno 17343 bound_to 10162
  156.0335  130.5424  150.8595 LP  0  0  0  0  0  0  0  0  0  0  0  0  # atno 17370 bound_to 10713
  157.5678  131.0946  150.9463 LP  0  0  0  0  0  0  0  0  0  0  0  0  # atno 17371 bound_to 10713
  141.1295  133.9326  157.2565 LP  0  0  0  0  0  0  0  0  0  0  0  0  # atno 17394 bound_to 11000
  139.9568  135.0164  156.9150 LP  0  0  0  0  0  0  0  0  0  0  0  0  # atno 17395 bound_to 11000

$$$$
