AV-unprocessed.smi:3237|AV-procd|sdf|12368|dock3
  -GOLD-   2272018233D 1   1.00000     0.00000
 Structure written by MMmdl.
 36 38  0  0  0  0  0  0  0  0  3 V2000
  147.0252  134.0588  162.4257 C   0  0  0  0  0  0  0  0  0  0  0  0
  147.3852  135.1934  161.5290 C   0  0  0  0  0  0  0  0  0  0  0  0
  147.7606  135.2575  160.2171 C   0  0  0  0  0  0  0  0  0  0  0  0
  147.9632  136.6485  160.0051 C   0  0  0  0  0  0  0  0  0  0  0  0
  148.3356  137.2247  158.8518 N   0  5  0  0  0  0  0  0  0  0  0  0
  149.3382  138.1320  158.8375 C   0  0  0  0  0  0  0  0  0  0  0  0
  150.4434  138.0129  159.3713 O   0  0  0  0  0  0  0  0  0  0  0  0
  149.0422  139.2489  158.1591 N   0  0  0  0  0  0  0  0  0  0  0  0
  149.9317  140.3898  157.9767 C   0  0  1  0  0  0  0  0  0  0  0  0
  150.5059  140.5288  156.5702 C   0  0  0  0  0  0  0  0  0  0  0  0
  150.9136  142.0052  156.5217 C   0  0  0  0  0  0  0  0  0  0  0  0
  150.0203  142.7271  157.4622 N   0  3  2  0  0  0  0  0  0  0  0  0
  150.7405  143.6348  158.3820 C   0  0  0  0  0  0  0  0  0  0  0  0
  151.8986  144.3565  157.7353 C   0  0  0  0  0  0  0  0  0  0  0  0
  152.1562  143.1987  158.6753 C   0  0  0  0  0  0  0  0  0  0  0  0
  149.1947  141.7150  158.1564 C   0  0  0  0  0  0  0  0  0  0  0  0
  147.7159  137.3666  161.0876 N   0  0  0  0  0  0  0  0  0  0  0  0
  147.3523  136.4400  162.0721 O   0  0  0  0  0  0  0  0  0  0  0  0
  146.5293  133.2655  161.8661 H   0  0  0  0  0  0  0  0  0  0  0  0
  146.3504  134.3846  163.2177 H   0  0  0  0  0  0  0  0  0  0  0  0
  147.9167  133.6388  162.8912 H   0  0  0  0  0  0  0  0  0  0  0  0
  147.8764  134.4404  159.5210 H   0  0  0  0  0  0  0  0  0  0  0  0
  148.1252  139.3059  157.7403 H   0  0  0  0  0  0  0  0  0  0  0  0
  150.7477  140.3397  158.7006 H   0  0  0  0  0  0  0  0  0  0  0  0
  151.3411  139.8535  156.3816 H   0  0  0  0  0  0  0  0  0  0  0  0
  149.7347  140.3294  155.8245 H   0  0  0  0  0  0  0  0  0  0  0  0
  151.9535  142.1039  156.8382 H   0  0  0  0  0  0  0  0  0  0  0  0
  150.8371  142.4173  155.5153 H   0  0  0  0  0  0  0  0  0  0  0  0
  150.1413  144.1252  159.1474 H   0  0  0  0  0  0  0  0  0  0  0  0
  152.0789  144.1934  156.6742 H   0  0  0  0  0  0  0  0  0  0  0  0
  152.1324  145.3552  158.0984 H   0  0  0  0  0  0  0  0  0  0  0  0
  152.5607  143.4346  159.6575 H   0  0  0  0  0  0  0  0  0  0  0  0
  152.5086  142.2654  158.2393 H   0  0  0  0  0  0  0  0  0  0  0  0
  148.2232  141.6802  157.6611 H   0  0  0  0  0  0  0  0  0  0  0  0
  149.0195  141.9551  159.2062 H   0  0  0  0  0  0  0  0  0  0  0  0
  149.3895  143.2954  156.9153 H   0  0  0  0  0  0  0  0  0  0  0  0
  1  2  1  0  0  0  0
  1 19  1  0  0  0  0
  1 20  1  0  0  0  0
  1 21  1  0  0  0  0
  2 18  1  0  0  0  0
  2  3  2  0  0  0  0
  3  4  1  0  0  0  0
  3 22  1  0  0  0  0
  4  5  1  0  0  0  0
  4 17  2  0  0  0  0
  5  6  1  0  0  0  0
  6  7  2  0  0  0  0
  6  8  1  0  0  0  0
  8  9  1  0  0  0  0
  8 23  1  0  0  0  0
  9 16  1  0  0  0  0
  9 10  1  0  0  0  0
  9 24  1  0  0  0  0
 10 11  1  0  0  0  0
 10 25  1  0  0  0  0
 10 26  1  0  0  0  0
 11 12  1  0  0  0  0
 11 27  1  0  0  0  0
 11 28  1  0  0  0  0
 12 13  1  0  0  0  0
 12 16  1  0  0  0  0
 12 36  1  0  0  0  0
 13 15  1  0  0  0  0
 13 14  1  0  0  0  0
 13 29  1  0  0  0  0
 14 15  1  0  0  0  0
 14 30  1  0  0  0  0
 14 31  1  0  0  0  0
 15 32  1  0  0  0  0
 15 33  1  0  0  0  0
 16 34  1  0  0  0  0
 16 35  1  0  0  0  0
 17 18  1  0  0  0  0
M  CHG  1   5  -1
M  CHG  1  12   1
M  END
> <s_m_source_file>
AV-unprocessed.smi

> <i_m_source_file_index>
3237

> <i_lp_mmshare_version>
43012

> <i_f3d_flags>
0

> <s_epik_input>
W0NIM11jMVtjSF1jKG5vMSlbTkhdQyg9TylbTkhdW0NAQEhdMltDSDJdW0NIMl1OKFtDSDJdMilbQ0hdM1tDSDJdW0NIMl0z

> <s_epik_cmdline>
J2VwaWtfcHl0aG9uJywgJy1waCcsICc3LjAnLCAnLXRuJywgJzgnLCAnLW1hJywgJzIwMCcsICctbWV0YWxfYmluZGluZycsICctaW1hZScsICc8aW5maWxlLm1hZT4nLCAnLW9tYWUnLCAnPG91dGZpbGUubWFlPic=

> <r_epik_Ionization_Penalty>
6.08472

> <r_epik_Ionization_Penalty_Charging>
6.08464

> <r_epik_Ionization_Penalty_Neutral>
8.41751e-05

> <r_epik_State_Penalty>
6.08438

> <r_epik_Charging_Adjusted_Penalty>
12.169

> <i_epik_Tot_Q>
0

> <i_epik_Tot_abs_Q>
2

> <r_epik_Metal_State_Penalty>
2.0369

> <b_epik_Metal_Only>
1

> <s_lp_Force_Field>
OPLS_2005

> <r_lp_Energy>
24.4971

> <b_lp_Chiralities_Consistent>
1

> <s_lp_Variant>
AV-unprocessed.smi:3237-6

> <Gold.Version>
5.8.1

> <Gold.Id.Protein>
6NUR|6NUR_protein|mol2

> <Gold.PLP.Fitness>
41.6591

> <Gold.PLP.PLP>
-32.5806

> <Gold.PLP.part.hbond>
-3.6452

> <Gold.PLP.part.metal>
0.0000

> <Gold.PLP.part.buried>
-5.4232

> <Gold.PLP.part.nonpolar>
-23.9964

> <Gold.PLP.part.repulsive>
0.1907

> <Gold.PLP.ligand.clash>
0.0000

> <Gold.PLP.ligand.torsion>
1.6635

> <Gold.PLP.Chemscore.Hbond>
3.7120

> <Gold.PLP.Chemscore.CHOScore>
0.0000

> <Gold.PLP.Chemscore.Metal>
0.0000

> <Gold.Chemscore.Hbonds>
donor molecule, donor type, donor heavy atom, donor atom, acceptor molecule, acceptor atom, score
      L1  H    12    36       P1  8028  2.00
      P1  H  6931  6943       L1    17  0.83
      P1  H  6934  6947       L1    17  0.83

> <Gold.PLP.Chemscore.Internal.Correction>
1.2695

> <Gold.Rescore>
     Score         DG    S(hbond)    S(metal)    S(lipo)     H(rot)  DE(clash)    DE(int)     intcor
     16.77     -18.40       2.18        0.00      75.36       1.25       0.01       1.62       ----

> <Gold.Chemscore.Fitness>
16.7673

> <Gold.Chemscore.DG>
-18.3978

> <Gold.Chemscore.ZeroCoef>
-5.4800

> <Gold.Chemscore.Hbond>
2.1832

> <Gold.Chemscore.Metal>
0.0000

> <Gold.Chemscore.Lipo>
75.3582

> <Gold.Chemscore.Internal_Hbond>
0.0000

> <Gold.Chemscore.DEClash>
0.0073

> <Gold.Chemscore.DEInternal>
1.6231

> <Gold.Chemscore.Rot>
1.2464

> <Gold.Chemscore.Internal.Correction>
   9.000000E+99

> <Gold.Chemscore.Hbonds>
donor molecule, donor type, donor heavy atom, donor atom, acceptor molecule, acceptor atom, score
      L1  H    12    36       P1  8028  0.94
      P1  H  6931  6943       L1    17  0.28
      P1  H  6934  6947       L1    17  0.81

> <Gold.Chemscore.Hbond.Weighted>
-7.2918

> <Gold.Chemscore.Metal.Weighted>
-0.0000

> <Gold.Chemscore.Lipo.Weighted>
-8.8169

> <Gold.Chemscore.Internal_Hbond.Weighted>
0.0000

> <Gold.Chemscore.DEClash.Weighted>
0.0073

> <Gold.Chemscore.DEInternal.Weighted>
1.6231

> <Gold.Chemscore.Rot.Weighted>
3.1909

> <Gold.Chemscore.Internal.Correction.Weighted>
   9.000000E+99

> <Gold.Protein.RotatedTorsions>
[ 6907 6896 6895 6894 ] final  135.66 input  -60.11 | X-H torsion
[ 7974 7965 7964 7962 ] final   -3.86 input  175.53 | X-H torsion
[ 8008 7997 7996 7995 ] final  177.57 input   59.86 | X-H torsion
[ 10167 10162 10161 10158 ] final   71.34 input  -65.29 | X-H torsion
[ 10718 10713 10712 10709 ] final  141.98 input   66.30 | X-H torsion
[ 10763 10752 10751 10750 ] final  147.43 input  -60.55 | X-H torsion
[ 11005 11000 10999 10996 ] final  103.73 input  -57.11 | X-H torsion

> <Gold.Protein.ActiveResidues>
 VAL166  LYS551  ARG553  GLY616  TRP617  ASP618  TYR619  PRO620  LYS621  CYS622 
 ASP623  PHE694  ASN695  SER759  ASP760  ASP761  ALA762  ILE779  LEU786  VAL792 
 PHE793  MET794  SER795  GLU796  ALA797  LYS798  CYS799  TRP800  GLU811  SER814 

> <Gold.Protein.RotatedAtoms>
  152.2980  133.5627  159.5599 H   0  0  0  0  0  0  0  0  0  0  0  0  # atno 6907 bound_to 6896
  150.7265  134.0332  159.3749 H   0  0  0  0  0  0  0  0  0  0  0  0  # atno 6908 bound_to 6896
  151.8234  135.0645  160.0479 H   0  0  0  0  0  0  0  0  0  0  0  0  # atno 6909 bound_to 6896
  146.2382  140.1784  142.8332 H   0  0  0  0  0  0  0  0  0  0  0  0  # atno 7974 bound_to 7965
  156.0642  140.1355  156.9906 H   0  0  0  0  0  0  0  0  0  0  0  0  # atno 8008 bound_to 7997
  154.4497  140.0985  156.6633 H   0  0  0  0  0  0  0  0  0  0  0  0  # atno 8009 bound_to 7997
  155.5330  140.3459  155.4432 H   0  0  0  0  0  0  0  0  0  0  0  0  # atno 8010 bound_to 7997
  140.0472  144.5341  150.7390 H   0  0  0  0  0  0  0  0  0  0  0  0  # atno 10167 bound_to 10162
  157.3859  131.0998  151.0694 H   0  0  0  0  0  0  0  0  0  0  0  0  # atno 10718 bound_to 10713
  154.0382  135.2892  155.3359 H   0  0  0  0  0  0  0  0  0  0  0  0  # atno 10763 bound_to 10752
  154.6946  135.5213  153.8443 H   0  0  0  0  0  0  0  0  0  0  0  0  # atno 10764 bound_to 10752
  153.0611  135.6614  154.0588 H   0  0  0  0  0  0  0  0  0  0  0  0  # atno 10765 bound_to 10752
  139.8786  134.9274  156.5255 H   0  0  0  0  0  0  0  0  0  0  0  0  # atno 11005 bound_to 11000
  144.9954  140.8584  143.5314 LP  0  0  0  0  0  0  0  0  0  0  0  0  # atno 17320 bound_to 7965
  145.1796  139.2359  143.5299 LP  0  0  0  0  0  0  0  0  0  0  0  0  # atno 17321 bound_to 7965
  140.7233  143.2610  151.4205 LP  0  0  0  0  0  0  0  0  0  0  0  0  # atno 17342 bound_to 10162
  139.5976  144.1364  152.2161 LP  0  0  0  0  0  0  0  0  0  0  0  0  # atno 17343 bound_to 10162
  157.1746  130.6282  149.5651 LP  0  0  0  0  0  0  0  0  0  0  0  0  # atno 17370 bound_to 10713
  155.9786  130.4774  150.6668 LP  0  0  0  0  0  0  0  0  0  0  0  0  # atno 17371 bound_to 10713
  140.8419  133.8198  155.9083 LP  0  0  0  0  0  0  0  0  0  0  0  0  # atno 17394 bound_to 11000
  140.9229  134.2119  157.4915 LP  0  0  0  0  0  0  0  0  0  0  0  0  # atno 17395 bound_to 11000

$$$$
