AV-unprocessed.smi:1065|AV-procd|sdf|4666|dock6
  -GOLD-   22720 3173D 1   1.00000     0.00000
 Structure written by MMmdl.
 39 40  0  0  0  0  0  0  0  0  1 V2000
  154.3270  140.6799  161.9111 C   0  0  0  0  0  0  0  0  0  0  0  0
  153.6470  142.0025  161.5302 C   0  0  0  0  0  0  0  0  0  0  0  0
  153.2168  142.0869  160.0512 C   0  0  2  0  0  0  0  0  0  0  0  0
  152.3687  143.3491  159.7983 C   0  0  0  0  0  0  0  0  0  0  0  0
  151.9329  143.4639  158.3285 C   0  0  0  0  0  0  0  0  0  0  0  0
  151.1577  142.2119  157.8651 C   0  0  1  0  0  0  0  0  0  0  0  0
  150.7253  142.2956  156.3886 C   0  0  0  0  0  0  0  0  0  0  0  0
  150.3891  140.9825  155.8550 N   0  0  0  0  0  0  0  0  0  0  0  0
  149.7060  140.7744  154.7204 C   0  0  0  0  0  0  0  0  0  0  0  0
  149.3084  141.6826  153.9912 O   0  0  0  0  0  0  0  0  0  0  0  0
  149.4212  139.3181  154.3542 C   0  0  0  0  0  0  0  0  0  0  0  0
  150.6241  138.5145  154.4619 N   0  0  0  0  0  0  0  0  0  0  0  0
  150.7883  137.2041  154.6543 C   0  0  0  0  0  0  0  0  0  0  0  0
  152.0701  136.8752  154.7074 N   0  0  0  0  0  0  0  0  0  0  0  0
  152.7145  138.0889  154.5336 N   0  0  0  0  0  0  0  0  0  0  0  0
  151.8616  139.0655  154.3878 N   0  0  0  0  0  0  0  0  0  0  0  0
  152.0031  140.9493  158.1182 C   0  0  0  0  0  0  0  0  0  0  0  0
  152.4400  140.8366  159.5877 C   0  0  0  0  0  0  0  0  0  0  0  0
  154.6805  140.7125  162.9418 H   0  0  0  0  0  0  0  0  0  0  0  0
  155.1879  140.4802  161.2727 H   0  0  0  0  0  0  0  0  0  0  0  0
  153.6428  139.8358  161.8297 H   0  0  0  0  0  0  0  0  0  0  0  0
  152.7861  142.1701  162.1784 H   0  0  0  0  0  0  0  0  0  0  0  0
  154.3457  142.8125  161.7429 H   0  0  0  0  0  0  0  0  0  0  0  0
  154.1200  142.1704  159.4448 H   0  0  0  0  0  0  0  0  0  0  0  0
  151.4848  143.3333  160.4375 H   0  0  0  0  0  0  0  0  0  0  0  0
  152.9326  144.2399  160.0770 H   0  0  0  0  0  0  0  0  0  0  0  0
  151.3208  144.3583  158.2095 H   0  0  0  0  0  0  0  0  0  0  0  0
  152.8117  143.6078  157.6983 H   0  0  0  0  0  0  0  0  0  0  0  0
  150.2539  142.1324  158.4716 H   0  0  0  0  0  0  0  0  0  0  0  0
  149.8647  142.9591  156.2866 H   0  0  0  0  0  0  0  0  0  0  0  0
  151.5305  142.7229  155.7888 H   0  0  0  0  0  0  0  0  0  0  0  0
  150.6756  140.1793  156.3963 H   0  0  0  0  0  0  0  0  0  0  0  0
  148.6630  138.9055  155.0212 H   0  0  0  0  0  0  0  0  0  0  0  0
  149.0282  139.2530  153.3384 H   0  0  0  0  0  0  0  0  0  0  0  0
  149.9764  136.4995  154.7582 H   0  0  0  0  0  0  0  0  0  0  0  0
  151.4367  140.0599  157.8399 H   0  0  0  0  0  0  0  0  0  0  0  0
  152.8865  140.9629  157.4783 H   0  0  0  0  0  0  0  0  0  0  0  0
  153.0526  139.9427  159.7031 H   0  0  0  0  0  0  0  0  0  0  0  0
  151.5617  140.6921  160.2183 H   0  0  0  0  0  0  0  0  0  0  0  0
  1  2  1  0  0  0  0
  1 19  1  0  0  0  0
  1 20  1  0  0  0  0
  1 21  1  0  0  0  0
  2  3  1  0  0  0  0
  2 22  1  0  0  0  0
  2 23  1  0  0  0  0
  3 18  1  0  0  0  0
  3  4  1  0  0  0  0
  3 24  1  0  0  0  0
  4  5  1  0  0  0  0
  4 25  1  0  0  0  0
  4 26  1  0  0  0  0
  5  6  1  0  0  0  0
  5 27  1  0  0  0  0
  5 28  1  0  0  0  0
  6  7  1  0  0  0  0
  6 17  1  0  0  0  0
  6 29  1  0  0  0  0
  7  8  1  0  0  0  0
  7 30  1  0  0  0  0
  7 31  1  0  0  0  0
  8  9  1  0  0  0  0
  8 32  1  0  0  0  0
  9 10  2  0  0  0  0
  9 11  1  0  0  0  0
 11 12  1  0  0  0  0
 11 33  1  0  0  0  0
 11 34  1  0  0  0  0
 12 16  1  0  0  0  0
 12 13  1  0  0  0  0
 13 14  2  0  0  0  0
 13 35  1  0  0  0  0
 14 15  1  0  0  0  0
 15 16  2  0  0  0  0
 17 18  1  0  0  0  0
 17 36  1  0  0  0  0
 17 37  1  0  0  0  0
 18 38  1  0  0  0  0
 18 39  1  0  0  0  0
M  END
> <s_m_source_file>
AV-unprocessed.smi

> <i_m_source_file_index>
1065

> <i_lp_mmshare_version>
43012

> <i_f3d_flags>
0

> <s_epik_input>
W0NIM11bQ0gyXVtDQEBIXTFbQ0gyXVtDSDJdW0NASF0oW0NIMl1bQ0gyXTEpW0NIMl1bTkhdQyg9TylbQ0gyXW4yW2NIXW5ubjI=

> <s_epik_cmdline>
J2VwaWtfcHl0aG9uJywgJy1waCcsICc3LjAnLCAnLXRuJywgJzgnLCAnLW1hJywgJzIwMCcsICctbWV0YWxfYmluZGluZycsICctaW1hZScsICc8aW5maWxlLm1hZT4nLCAnLW9tYWUnLCAnPG91dGZpbGUubWFlPic=

> <r_lp_tautomer_probability>
1

> <r_epik_Ionization_Penalty>
4.54759e-07

> <r_epik_Ionization_Penalty_Charging>
0

> <r_epik_Ionization_Penalty_Neutral>
4.54759e-07

> <r_epik_State_Penalty>
-0

> <r_epik_Charging_Adjusted_Penalty>
0

> <i_epik_Tot_Q>
0

> <i_epik_Tot_abs_Q>
0

> <r_epik_Metal_State_Penalty>
-0

> <b_epik_Metal_Only>
0

> <s_lp_Force_Field>
OPLS_2005

> <r_lp_Energy>
13.9446

> <b_lp_Chiralities_Consistent>
1

> <s_lp_Variant>
AV-unprocessed.smi:1065-1

> <Gold.Version>
5.8.1

> <Gold.Id.Protein>
6NUR|6NUR_protein|mol2

> <Gold.PLP.Fitness>
47.2664

> <Gold.PLP.PLP>
-41.1478

> <Gold.PLP.part.hbond>
-4.7471

> <Gold.PLP.part.metal>
0.0000

> <Gold.PLP.part.buried>
-2.6114

> <Gold.PLP.part.nonpolar>
-34.5638

> <Gold.PLP.part.repulsive>
0.6078

> <Gold.PLP.ligand.clash>
0.0000

> <Gold.PLP.ligand.torsion>
0.7981

> <Gold.PLP.Chemscore.Hbond>
2.5680

> <Gold.PLP.Chemscore.CHOScore>
0.0000

> <Gold.PLP.Chemscore.Metal>
0.0000

> <Gold.Chemscore.Hbonds>
donor molecule, donor type, donor heavy atom, donor atom, acceptor molecule, acceptor atom, score
      P1  H  7989  7998       L1    16  0.93
      P1  H  8011  8017       L1    10  0.59
      P1  H 10752 10764       L1    14  0.93

> <Gold.PLP.Chemscore.Internal.Correction>
0.0109

> <Gold.Rescore>
     Score         DG    S(hbond)    S(metal)    S(lipo)     H(rot)  DE(clash)    DE(int)     intcor
     14.62     -17.27       2.22        0.00      91.18       2.45       0.64       2.02       ----

> <Gold.Chemscore.Fitness>
14.6207

> <Gold.Chemscore.DG>
-17.2718

> <Gold.Chemscore.ZeroCoef>
-5.4800

> <Gold.Chemscore.Hbond>
2.2152

> <Gold.Chemscore.Metal>
0.0000

> <Gold.Chemscore.Lipo>
91.1797

> <Gold.Chemscore.Internal_Hbond>
0.0000

> <Gold.Chemscore.DEClash>
0.6356

> <Gold.Chemscore.DEInternal>
2.0154

> <Gold.Chemscore.Rot>
2.4512

> <Gold.Chemscore.Internal.Correction>
   9.000000E+99

> <Gold.Chemscore.Hbonds>
donor molecule, donor type, donor heavy atom, donor atom, acceptor molecule, acceptor atom, score
      P1  H  7989  7998       L1    16  0.52
      P1  H  8011  8017       L1    10  0.60
      P1  H 10752 10764       L1    14  0.80

> <Gold.Chemscore.Hbond.Weighted>
-7.3987

> <Gold.Chemscore.Metal.Weighted>
-0.0000

> <Gold.Chemscore.Lipo.Weighted>
-10.6680

> <Gold.Chemscore.Internal_Hbond.Weighted>
0.0000

> <Gold.Chemscore.DEClash.Weighted>
0.6356

> <Gold.Chemscore.DEInternal.Weighted>
2.0154

> <Gold.Chemscore.Rot.Weighted>
6.2750

> <Gold.Chemscore.Internal.Correction.Weighted>
   9.000000E+99

> <Gold.Protein.RotatedTorsions>
[ 6907 6896 6895 6894 ] final -108.64 input  -60.11 | X-H torsion
[ 7974 7965 7964 7962 ] final  -65.04 input  175.53 | X-H torsion
[ 8008 7997 7996 7995 ] final  -94.18 input   59.86 | X-H torsion
[ 10167 10162 10161 10158 ] final  -72.28 input  -65.29 | X-H torsion
[ 10718 10713 10712 10709 ] final  -87.16 input   66.30 | X-H torsion
[ 10763 10752 10751 10750 ] final  -57.65 input  -60.55 | X-H torsion
[ 11005 11000 10999 10996 ] final   80.46 input  -57.11 | X-H torsion

> <Gold.Protein.ActiveResidues>
 VAL166  LYS551  ARG553  GLY616  TRP617  ASP618  TYR619  PRO620  LYS621  CYS622 
 ASP623  PHE694  ASN695  SER759  ASP760  ASP761  ALA762  ILE779  LEU786  VAL792 
 PHE793  MET794  SER795  GLU796  ALA797  LYS798  CYS799  TRP800  GLU811  SER814 

> <Gold.Protein.RotatedAtoms>
  150.7514  133.9648  159.3526 H   0  0  0  0  0  0  0  0  0  0  0  0  # atno 6907 bound_to 6896
  151.7577  135.0815  160.0350 H   0  0  0  0  0  0  0  0  0  0  0  0  # atno 6908 bound_to 6896
  152.3424  133.6046  159.5922 H   0  0  0  0  0  0  0  0  0  0  0  0  # atno 6909 bound_to 6896
  145.7593  140.8870  143.0438 H   0  0  0  0  0  0  0  0  0  0  0  0  # atno 7974 bound_to 7965
  154.7452  140.0491  157.0845 H   0  0  0  0  0  0  0  0  0  0  0  0  # atno 8008 bound_to 7997
  155.0128  140.3138  155.4804 H   0  0  0  0  0  0  0  0  0  0  0  0  # atno 8009 bound_to 7997
  156.2873  140.2181  156.5242 H   0  0  0  0  0  0  0  0  0  0  0  0  # atno 8010 bound_to 7997
  140.5205  143.2332  151.7438 H   0  0  0  0  0  0  0  0  0  0  0  0  # atno 10167 bound_to 10162
  155.9986  130.4790  150.4824 H   0  0  0  0  0  0  0  0  0  0  0  0  # atno 10718 bound_to 10713
  154.2258  135.6369  153.5159 H   0  0  0  0  0  0  0  0  0  0  0  0  # atno 10763 bound_to 10752
  152.9959  135.5507  154.6065 H   0  0  0  0  0  0  0  0  0  0  0  0  # atno 10764 bound_to 10752
  154.5536  135.2903  155.0959 H   0  0  0  0  0  0  0  0  0  0  0  0  # atno 10765 bound_to 10752
  139.9134  134.7922  156.1912 H   0  0  0  0  0  0  0  0  0  0  0  0  # atno 11005 bound_to 11000
  144.6834  139.9700  143.7482 LP  0  0  0  0  0  0  0  0  0  0  0  0  # atno 17320 bound_to 7965
  146.0280  139.3309  143.0772 LP  0  0  0  0  0  0  0  0  0  0  0  0  # atno 17321 bound_to 7965
  139.4922  144.4261  151.9924 LP  0  0  0  0  0  0  0  0  0  0  0  0  # atno 17342 bound_to 10162
  140.3358  144.3262  150.5977 LP  0  0  0  0  0  0  0  0  0  0  0  0  # atno 17343 bound_to 10162
  157.2828  131.0610  151.2186 LP  0  0  0  0  0  0  0  0  0  0  0  0  # atno 17370 bound_to 10713
  157.3226  130.6945  149.6278 LP  0  0  0  0  0  0  0  0  0  0  0  0  # atno 17371 bound_to 10713
  141.0582  133.6854  156.1902 LP  0  0  0  0  0  0  0  0  0  0  0  0  # atno 17394 bound_to 11000
  140.6702  134.4875  157.5587 LP  0  0  0  0  0  0  0  0  0  0  0  0  # atno 17395 bound_to 11000

$$$$
