AV-unprocessed.smi:1809|AV-procd|sdf|7319|dock4
  -GOLD-   22720 8573D 1   1.00000     0.00000
 Structure written by MMmdl.
 39 41  0  0  0  0  0  0  0  0  1 V2000
  146.4043  129.8563  152.6679 C   0  0  0  0  0  0  0  0  0  0  0  0
  147.2950  130.9470  153.1566 C   0  0  0  0  0  0  0  0  0  0  0  0
  148.2566  130.7463  154.0662 N   0  0  0  0  0  0  0  0  0  0  0  0
  148.9485  131.9114  154.3662 N   0  0  0  0  0  0  0  0  0  0  0  0
  148.4856  132.9604  153.6726 C   0  0  0  0  0  0  0  0  0  0  0  0
  149.0103  134.2751  153.7854 N   0  0  0  0  0  0  0  0  0  0  0  0
  149.5994  134.8490  154.8493 C   0  0  0  0  0  0  0  0  0  0  0  0
  149.7867  134.3051  155.9377 O   0  0  0  0  0  0  0  0  0  0  0  0
  149.9616  136.1109  154.5780 N   0  0  0  0  0  0  0  0  0  0  0  0
  150.5866  137.0332  155.5206 C   0  0  0  0  0  0  0  0  0  0  0  0
  151.2873  138.1961  154.7871 C   0  0  2  0  0  0  0  0  0  0  0  0
  152.2106  139.0236  155.7134 C   0  0  0  0  0  0  0  0  0  0  0  0
  151.4324  139.8961  156.5721 N   0  0  0  0  0  0  0  0  0  0  0  0
  152.1722  140.7977  157.4248 C   0  0  0  0  0  0  0  0  0  0  0  0
  151.1295  141.8343  157.8766 C   0  0  0  0  0  0  0  0  0  0  0  0
  150.0053  141.7336  156.8221 C   0  0  0  0  0  0  0  0  0  0  0  0
  150.5876  140.7608  155.7946 C   0  0  2  0  0  0  0  0  0  0  0  0
  149.5976  139.9397  154.9589 C   0  0  0  0  0  0  0  0  0  0  0  0
  150.3436  139.0507  154.1208 O   0  0  0  0  0  0  0  0  0  0  0  0
  147.1567  132.6044  152.5824 S   0  0  0  0  0  0  0  0  0  0  0  0
  146.7730  128.8829  152.9934 H   0  0  0  0  0  0  0  0  0  0  0  0
  146.3636  129.8669  151.5787 H   0  0  0  0  0  0  0  0  0  0  0  0
  145.3963  129.9972  153.0581 H   0  0  0  0  0  0  0  0  0  0  0  0
  148.9181  134.8497  152.9610 H   0  0  0  0  0  0  0  0  0  0  0  0
  149.7691  136.4713  153.6549 H   0  0  0  0  0  0  0  0  0  0  0  0
  149.8677  137.3991  156.2548 H   0  0  0  0  0  0  0  0  0  0  0  0
  151.3257  136.4649  156.0857 H   0  0  0  0  0  0  0  0  0  0  0  0
  151.9136  137.7577  154.0092 H   0  0  0  0  0  0  0  0  0  0  0  0
  152.8393  138.3661  156.3146 H   0  0  0  0  0  0  0  0  0  0  0  0
  152.8849  139.6234  155.1002 H   0  0  0  0  0  0  0  0  0  0  0  0
  152.6340  140.2732  158.2617 H   0  0  0  0  0  0  0  0  0  0  0  0
  152.9625  141.2910  156.8561 H   0  0  0  0  0  0  0  0  0  0  0  0
  150.7420  141.5912  158.8667 H   0  0  0  0  0  0  0  0  0  0  0  0
  151.5620  142.8341  157.9219 H   0  0  0  0  0  0  0  0  0  0  0  0
  149.1013  141.3238  157.2750 H   0  0  0  0  0  0  0  0  0  0  0  0
  149.7563  142.6984  156.3792 H   0  0  0  0  0  0  0  0  0  0  0  0
  151.2106  141.3384  155.1081 H   0  0  0  0  0  0  0  0  0  0  0  0
  148.9157  139.3807  155.5997 H   0  0  0  0  0  0  0  0  0  0  0  0
  148.9872  140.5918  154.3341 H   0  0  0  0  0  0  0  0  0  0  0  0
  1  2  1  0  0  0  0
  1 21  1  0  0  0  0
  1 22  1  0  0  0  0
  1 23  1  0  0  0  0
  2 20  1  0  0  0  0
  2  3  2  0  0  0  0
  3  4  1  0  0  0  0
  4  5  2  0  0  0  0
  5  6  1  0  0  0  0
  5 20  1  0  0  0  0
  6  7  1  0  0  0  0
  6 24  1  0  0  0  0
  7  8  2  0  0  0  0
  7  9  1  0  0  0  0
  9 10  1  0  0  0  0
  9 25  1  0  0  0  0
 10 11  1  0  0  0  0
 10 26  1  0  0  0  0
 10 27  1  0  0  0  0
 11 19  1  0  0  0  0
 11 12  1  0  0  0  0
 11 28  1  0  0  0  0
 12 13  1  0  0  0  0
 12 29  1  0  0  0  0
 12 30  1  0  0  0  0
 13 17  1  0  0  0  0
 13 14  1  0  0  0  0
 14 15  1  0  0  0  0
 14 31  1  0  0  0  0
 14 32  1  0  0  0  0
 15 16  1  0  0  0  0
 15 33  1  0  0  0  0
 15 34  1  0  0  0  0
 16 17  1  0  0  0  0
 16 35  1  0  0  0  0
 16 36  1  0  0  0  0
 17 18  1  0  0  0  0
 17 37  1  0  0  0  0
 18 19  1  0  0  0  0
 18 38  1  0  0  0  0
 18 39  1  0  0  0  0
M  END
> <s_m_source_file>
AV-unprocessed.smi

> <i_m_source_file_index>
1809

> <i_lp_mmshare_version>
43012

> <i_f3d_flags>
0

> <s_epik_input>
W0NIM11jMW5uYyhzMSlbTkhdQyg9TylbTkhdW0NIMl1bQ0BIXShbQ0gyXTIpT1tDSDJdW0NAQEhdKE4yMylbQ0gyXVtDSDJdW0NIMl0z

> <s_epik_cmdline>
J2VwaWtfcHl0aG9uJywgJy1waCcsICc3LjAnLCAnLXRuJywgJzgnLCAnLW1hJywgJzIwMCcsICctbWV0YWxfYmluZGluZycsICctaW1hZScsICc8aW5maWxlLm1hZT4nLCAnLW9tYWUnLCAnPG91dGZpbGUubWFlPic=

> <r_lp_tautomer_probability>
1

> <r_epik_Ionization_Penalty>
1.05954

> <r_epik_Ionization_Penalty_Charging>
0

> <r_epik_Ionization_Penalty_Neutral>
1.05954

> <r_epik_State_Penalty>
1.4238

> <r_epik_Charging_Adjusted_Penalty>
1.4238

> <i_epik_Tot_Q>
0

> <i_epik_Tot_abs_Q>
0

> <r_epik_Metal_State_Penalty>
1.7901

> <b_epik_Metal_Only>
0

> <s_lp_Force_Field>
OPLS_2005

> <r_lp_Energy>
48.8115

> <b_lp_Chiralities_Consistent>
1

> <s_lp_Variant>
AV-unprocessed.smi:1809-11

> <Gold.Version>
5.8.1

> <Gold.Id.Protein>
6NUR|6NUR_protein|mol2

> <Gold.PLP.Fitness>
36.4498

> <Gold.PLP.PLP>
-31.3325

> <Gold.PLP.part.hbond>
-2.3095

> <Gold.PLP.part.metal>
0.0000

> <Gold.PLP.part.buried>
-5.2732

> <Gold.PLP.part.nonpolar>
-24.0330

> <Gold.PLP.part.repulsive>
0.3775

> <Gold.PLP.ligand.clash>
0.0000

> <Gold.PLP.ligand.torsion>
0.3545

> <Gold.PLP.Chemscore.Hbond>
1.9389

> <Gold.PLP.Chemscore.CHOScore>
0.0000

> <Gold.PLP.Chemscore.Metal>
0.0000

> <Gold.Chemscore.Hbonds>
donor molecule, donor type, donor heavy atom, donor atom, acceptor molecule, acceptor atom, score
      L1  H     6    24       P1  7948  0.75
      L1  H     9    25       P1  7948  0.99
      P1  H  7989  7998       L1    19  0.13

> <Gold.PLP.Chemscore.Internal.Correction>
0.0095

> <Gold.Rescore>
     Score         DG    S(hbond)    S(metal)    S(lipo)     H(rot)  DE(clash)    DE(int)     intcor
     13.71     -15.22       1.62        0.00      65.70       1.32       0.03       1.47       ----

> <Gold.Chemscore.Fitness>
13.7141

> <Gold.Chemscore.DG>
-15.2150

> <Gold.Chemscore.ZeroCoef>
-5.4800

> <Gold.Chemscore.Hbond>
1.6245

> <Gold.Chemscore.Metal>
0.0000

> <Gold.Chemscore.Lipo>
65.7045

> <Gold.Chemscore.Internal_Hbond>
0.0000

> <Gold.Chemscore.DEClash>
0.0316

> <Gold.Chemscore.DEInternal>
1.4694

> <Gold.Chemscore.Rot>
1.3196

> <Gold.Chemscore.Internal.Correction>
   9.000000E+99

> <Gold.Chemscore.Hbonds>
donor molecule, donor type, donor heavy atom, donor atom, acceptor molecule, acceptor atom, score
      L1  H     6    24       P1  7948  0.09
      L1  H     9    25       P1  7948  0.37

> <Gold.Chemscore.Hbond.Weighted>
-5.4259

> <Gold.Chemscore.Metal.Weighted>
-0.0000

> <Gold.Chemscore.Lipo.Weighted>
-7.6874

> <Gold.Chemscore.Internal_Hbond.Weighted>
0.0000

> <Gold.Chemscore.DEClash.Weighted>
0.0316

> <Gold.Chemscore.DEInternal.Weighted>
1.4694

> <Gold.Chemscore.Rot.Weighted>
3.3783

> <Gold.Chemscore.Internal.Correction.Weighted>
   9.000000E+99

> <Gold.Protein.RotatedTorsions>
[ 6907 6896 6895 6894 ] final   78.54 input  -60.11 | X-H torsion
[ 7974 7965 7964 7962 ] final  114.12 input  175.53 | X-H torsion
[ 8008 7997 7996 7995 ] final -158.09 input   59.86 | X-H torsion
[ 10167 10162 10161 10158 ] final   56.23 input  -65.29 | X-H torsion
[ 10718 10713 10712 10709 ] final   46.80 input   66.30 | X-H torsion
[ 10763 10752 10751 10750 ] final  -57.02 input  -60.55 | X-H torsion
[ 11005 11000 10999 10996 ] final   71.52 input  -57.11 | X-H torsion

> <Gold.Protein.ActiveResidues>
 VAL166  LYS551  ARG553  GLY616  TRP617  ASP618  TYR619  PRO620  LYS621  CYS622 
 ASP623  PHE694  ASN695  SER759  ASP760  ASP761  ALA762  ILE779  LEU786  VAL792 
 PHE793  MET794  SER795  GLU796  ALA797  LYS798  CYS799  TRP800  GLU811  SER814 

> <Gold.Protein.RotatedAtoms>
  152.5163  134.3649  159.9297 H   0  0  0  0  0  0  0  0  0  0  0  0  # atno 6907 bound_to 6896
  151.3602  133.3886  159.2696 H   0  0  0  0  0  0  0  0  0  0  0  0  # atno 6908 bound_to 6896
  150.9658  134.9058  159.7816 H   0  0  0  0  0  0  0  0  0  0  0  0  # atno 6909 bound_to 6896
  145.2084  139.2918  143.4281 H   0  0  0  0  0  0  0  0  0  0  0  0  # atno 7974 bound_to 7965
  155.7423  140.0815  157.2240 H   0  0  0  0  0  0  0  0  0  0  0  0  # atno 8008 bound_to 7997
  154.4020  140.1575  156.2685 H   0  0  0  0  0  0  0  0  0  0  0  0  # atno 8009 bound_to 7997
  155.9009  140.3410  155.6028 H   0  0  0  0  0  0  0  0  0  0  0  0  # atno 8010 bound_to 7997
  140.2110  144.3889  150.6489 H   0  0  0  0  0  0  0  0  0  0  0  0  # atno 10167 bound_to 10162
  157.4519  130.8144  149.7797 H   0  0  0  0  0  0  0  0  0  0  0  0  # atno 10718 bound_to 10713
  154.2159  135.6386  153.5129 H   0  0  0  0  0  0  0  0  0  0  0  0  # atno 10763 bound_to 10752
  152.9979  135.5485  154.6166 H   0  0  0  0  0  0  0  0  0  0  0  0  # atno 10764 bound_to 10752
  154.5614  135.2909  155.0889 H   0  0  0  0  0  0  0  0  0  0  0  0  # atno 10765 bound_to 10752
  139.9539  134.7179  156.0798 H   0  0  0  0  0  0  0  0  0  0  0  0  # atno 11005 bound_to 11000
  146.3403  140.2352  142.8594 LP  0  0  0  0  0  0  0  0  0  0  0  0  # atno 17320 bound_to 7965
  144.9879  140.8520  143.5357 LP  0  0  0  0  0  0  0  0  0  0  0  0  # atno 17321 bound_to 7965
  140.6323  143.2189  151.6468 LP  0  0  0  0  0  0  0  0  0  0  0  0  # atno 17342 bound_to 10162
  139.5180  144.3298  152.0836 LP  0  0  0  0  0  0  0  0  0  0  0  0  # atno 17343 bound_to 10162
  155.9991  130.3891  150.2678 LP  0  0  0  0  0  0  0  0  0  0  0  0  # atno 17370 bound_to 10713
  157.0850  131.0154  151.3143 LP  0  0  0  0  0  0  0  0  0  0  0  0  # atno 17371 bound_to 10713
  141.1207  133.6614  156.3207 LP  0  0  0  0  0  0  0  0  0  0  0  0  # atno 17394 bound_to 11000
  140.5655  134.5892  157.5444 LP  0  0  0  0  0  0  0  0  0  0  0  0  # atno 17395 bound_to 11000

$$$$
