AV-unprocessed.smi:2976|AV-procd|sdf|11362|dock1
  -GOLD-   2272016283D 1   1.00000     0.00000
 Structure written by MMmdl.
 40 41  0  0  0  0  0  0  0  0  1 V2000
  143.9310  132.9261  151.1356 C   0  0  0  0  0  0  0  0  0  0  0  0
  144.8450  134.0371  150.5790 C   0  0  1  0  0  0  0  0  0  0  0  0
  144.1159  135.3947  150.5160 C   0  0  0  0  0  0  0  0  0  0  0  0
  143.9237  136.0163  151.9081 C   0  0  0  0  0  0  0  0  0  0  0  0
  145.2648  136.1577  152.6410 C   0  0  0  0  0  0  0  0  0  0  0  0
  146.0137  134.8144  152.7328 C   0  0  2  0  0  0  0  0  0  0  0  0
  147.3068  135.0432  153.3759 N   0  0  0  0  0  0  0  0  0  0  0  0
  147.6474  134.6669  154.6184 C   0  0  0  0  0  0  0  0  0  0  0  0
  146.8773  134.0952  155.3911 O   0  0  0  0  0  0  0  0  0  0  0  0
  149.0818  135.0002  155.0522 C   0  0  0  0  0  0  0  0  0  0  0  0
  149.3856  136.4373  154.9846 N   0  0  0  0  0  0  0  0  0  0  0  0
  148.2735  137.2428  154.8134 N   0  0  0  0  0  0  0  0  0  0  0  0
  148.4203  138.5212  154.7476 C   0  0  0  0  0  0  0  0  0  0  0  0
  149.7172  139.1539  154.8438 C   0  0  0  0  0  0  0  0  0  0  0  0
  149.8522  140.8742  154.7481 Cl  0  0  0  0  0  0  0  0  0  0  0  0
  150.8014  138.3549  155.0077 C   0  0  0  0  0  0  0  0  0  0  0  0
  152.3862  139.0385  155.1307 Cl  0  0  0  0  0  0  0  0  0  0  0  0
  150.6726  136.8932  155.0850 C   0  0  0  0  0  0  0  0  0  0  0  0
  151.6321  136.1339  155.2264 O   0  0  0  0  0  0  0  0  0  0  0  0
  146.1978  134.1807  151.3272 C   0  0  1  0  0  0  0  0  0  0  0  0
  146.9951  132.8609  151.3520 C   0  0  0  0  0  0  0  0  0  0  0  0
  143.6841  133.0822  152.1852 H   0  0  0  0  0  0  0  0  0  0  0  0
  144.3951  131.9441  151.0482 H   0  0  0  0  0  0  0  0  0  0  0  0
  142.9928  132.8826  150.5819 H   0  0  0  0  0  0  0  0  0  0  0  0
  145.0718  133.7558  149.5496 H   0  0  0  0  0  0  0  0  0  0  0  0
  144.6935  136.0829  149.8975 H   0  0  0  0  0  0  0  0  0  0  0  0
  143.1509  135.2838  150.0204 H   0  0  0  0  0  0  0  0  0  0  0  0
  143.4507  136.9940  151.8135 H   0  0  0  0  0  0  0  0  0  0  0  0
  143.2426  135.4048  152.5005 H   0  0  0  0  0  0  0  0  0  0  0  0
  145.8820  136.8894  152.1176 H   0  0  0  0  0  0  0  0  0  0  0  0
  145.0938  136.5591  153.6405 H   0  0  0  0  0  0  0  0  0  0  0  0
  145.4132  134.1403  153.3451 H   0  0  0  0  0  0  0  0  0  0  0  0
  148.0087  135.5095  152.8197 H   0  0  0  0  0  0  0  0  0  0  0  0
  149.2577  134.6349  156.0659 H   0  0  0  0  0  0  0  0  0  0  0  0
  149.7647  134.4357  154.4150 H   0  0  0  0  0  0  0  0  0  0  0  0
  147.5738  139.1949  154.6153 H   0  0  0  0  0  0  0  0  0  0  0  0
  146.7960  134.8807  150.7412 H   0  0  0  0  0  0  0  0  0  0  0  0
  146.5498  132.1355  152.0332 H   0  0  0  0  0  0  0  0  0  0  0  0
  148.0240  133.0217  151.6741 H   0  0  0  0  0  0  0  0  0  0  0  0
  147.0381  132.4084  150.3611 H   0  0  0  0  0  0  0  0  0  0  0  0
  1  2  1  0  0  0  0
  1 22  1  0  0  0  0
  1 23  1  0  0  0  0
  1 24  1  0  0  0  0
  2 20  1  0  0  0  0
  2  3  1  0  0  0  0
  2 25  1  0  0  0  0
  3  4  1  0  0  0  0
  3 26  1  0  0  0  0
  3 27  1  0  0  0  0
  4  5  1  0  0  0  0
  4 28  1  0  0  0  0
  4 29  1  0  0  0  0
  5  6  1  0  0  0  0
  5 30  1  0  0  0  0
  5 31  1  0  0  0  0
  6  7  1  0  0  0  0
  6 20  1  0  0  0  0
  6 32  1  0  0  0  0
  7  8  1  0  0  0  0
  7 33  1  0  0  0  0
  8  9  2  0  0  0  0
  8 10  1  0  0  0  0
 10 11  1  0  0  0  0
 10 34  1  0  0  0  0
 10 35  1  0  0  0  0
 11 18  1  0  0  0  0
 11 12  1  0  0  0  0
 12 13  2  0  0  0  0
 13 14  1  0  0  0  0
 13 36  1  0  0  0  0
 14 15  1  0  0  0  0
 14 16  2  0  0  0  0
 16 17  1  0  0  0  0
 16 18  1  0  0  0  0
 18 19  2  0  0  0  0
 20 21  1  0  0  0  0
 20 37  1  0  0  0  0
 21 38  1  0  0  0  0
 21 39  1  0  0  0  0
 21 40  1  0  0  0  0
M  END
> <s_m_source_file>
AV-unprocessed.smi

> <i_m_source_file_index>
2976

> <i_lp_mmshare_version>
43012

> <i_f3d_flags>
0

> <s_epik_input>
W0NIM11bQ0BASF0xW0NIMl1bQ0gyXVtDSDJdW0NASF0oW0NASF0xW0NIM10pW05IXUMoPU8pW0NIMl1uMm5bY0hdYyhDbCljKENsKWMyPU8=

> <s_epik_cmdline>
J2VwaWtfcHl0aG9uJywgJy1waCcsICc3LjAnLCAnLXRuJywgJzgnLCAnLW1hJywgJzIwMCcsICctbWV0YWxfYmluZGluZycsICctaW1hZScsICc8aW5maWxlLm1hZT4nLCAnLW9tYWUnLCAnPG91dGZpbGUubWFlPic=

> <r_lp_tautomer_probability>
1

> <r_epik_Ionization_Penalty>
1.90777e-08

> <r_epik_Ionization_Penalty_Charging>
3.07942e-11

> <r_epik_Ionization_Penalty_Neutral>
1.90469e-08

> <r_epik_State_Penalty>
-0

> <r_epik_Charging_Adjusted_Penalty>
3.07942e-11

> <i_epik_Tot_Q>
0

> <i_epik_Tot_abs_Q>
0

> <r_epik_Metal_State_Penalty>
-0

> <b_epik_Metal_Only>
0

> <s_lp_Force_Field>
OPLS_2005

> <r_lp_Energy>
28.0936

> <b_lp_Chiralities_Consistent>
1

> <s_lp_Variant>
AV-unprocessed.smi:2976-4

> <Gold.Version>
5.8.1

> <Gold.Id.Protein>
6NUR|6NUR_protein|mol2

> <Gold.PLP.Fitness>
37.0765

> <Gold.PLP.PLP>
-31.5932

> <Gold.PLP.part.hbond>
-1.9984

> <Gold.PLP.part.metal>
0.0000

> <Gold.PLP.part.buried>
-1.3408

> <Gold.PLP.part.nonpolar>
-28.9663

> <Gold.PLP.part.repulsive>
0.2453

> <Gold.PLP.ligand.clash>
0.0000

> <Gold.PLP.ligand.torsion>
0.2529

> <Gold.PLP.Chemscore.Hbond>
1.9913

> <Gold.PLP.Chemscore.CHOScore>
0.0000

> <Gold.PLP.Chemscore.Metal>
0.0000

> <Gold.Chemscore.Hbonds>
donor molecule, donor type, donor heavy atom, donor atom, acceptor molecule, acceptor atom, score
      L1  H     7    33       P1  7948  0.94
      P1  H 10752 10764       L1    19  1.00

> <Gold.PLP.Chemscore.Internal.Correction>
0.0155

> <Gold.Rescore>
     Score         DG    S(hbond)    S(metal)    S(lipo)     H(rot)  DE(clash)    DE(int)     intcor
     15.80     -17.57       1.96        0.00      80.01       1.49       0.12       1.65       ----

> <Gold.Chemscore.Fitness>
15.8003

> <Gold.Chemscore.DG>
-17.5715

> <Gold.Chemscore.ZeroCoef>
-5.4800

> <Gold.Chemscore.Hbond>
1.9568

> <Gold.Chemscore.Metal>
0.0000

> <Gold.Chemscore.Lipo>
80.0116

> <Gold.Chemscore.Internal_Hbond>
0.0000

> <Gold.Chemscore.DEClash>
0.1207

> <Gold.Chemscore.DEInternal>
1.6505

> <Gold.Chemscore.Rot>
1.4866

> <Gold.Chemscore.Internal.Correction>
   9.000000E+99

> <Gold.Chemscore.Hbonds>
donor molecule, donor type, donor heavy atom, donor atom, acceptor molecule, acceptor atom, score
      L1  H     7    33       P1  7948  0.90
      P1  H 10752 10764       L1    19  0.96

> <Gold.Chemscore.Hbond.Weighted>
-6.5359

> <Gold.Chemscore.Metal.Weighted>
-0.0000

> <Gold.Chemscore.Lipo.Weighted>
-9.3614

> <Gold.Chemscore.Internal_Hbond.Weighted>
0.0000

> <Gold.Chemscore.DEClash.Weighted>
0.1207

> <Gold.Chemscore.DEInternal.Weighted>
1.6505

> <Gold.Chemscore.Rot.Weighted>
3.8057

> <Gold.Chemscore.Internal.Correction.Weighted>
   9.000000E+99

> <Gold.Protein.RotatedTorsions>
[ 6907 6896 6895 6894 ] final -162.20 input  -60.11 | X-H torsion
[ 7974 7965 7964 7962 ] final   97.29 input  175.53 | X-H torsion
[ 8008 7997 7996 7995 ] final  -68.90 input   59.86 | X-H torsion
[ 10167 10162 10161 10158 ] final -164.99 input  -65.29 | X-H torsion
[ 10718 10713 10712 10709 ] final  124.22 input   66.30 | X-H torsion
[ 10763 10752 10751 10750 ] final  -70.18 input  -60.55 | X-H torsion
[ 11005 11000 10999 10996 ] final  159.80 input  -57.11 | X-H torsion

> <Gold.Protein.ActiveResidues>
 VAL166  LYS551  ARG553  GLY616  TRP617  ASP618  TYR619  PRO620  LYS621  CYS622 
 ASP623  PHE694  ASN695  SER759  ASP760  ASP761  ALA762  ILE779  LEU786  VAL792 
 PHE793  MET794  SER795  GLU796  ALA797  LYS798  CYS799  TRP800  GLU811  SER814 

> <Gold.Protein.RotatedAtoms>
  151.3766  133.3836  159.2705 H   0  0  0  0  0  0  0  0  0  0  0  0  # atno 6907 bound_to 6896
  150.9609  134.8998  159.7740 H   0  0  0  0  0  0  0  0  0  0  0  0  # atno 6908 bound_to 6896
  152.5149  134.3725  159.9375 H   0  0  0  0  0  0  0  0  0  0  0  0  # atno 6909 bound_to 6896
  145.4274  139.2314  143.3163 H   0  0  0  0  0  0  0  0  0  0  0  0  # atno 7974 bound_to 7965
  154.4900  140.0864  156.7573 H   0  0  0  0  0  0  0  0  0  0  0  0  # atno 8008 bound_to 7997
  155.4254  140.3447  155.4257 H   0  0  0  0  0  0  0  0  0  0  0  0  # atno 8009 bound_to 7997
  156.1316  140.1503  156.9045 H   0  0  0  0  0  0  0  0  0  0  0  0  # atno 8010 bound_to 7997
  139.6212  144.0620  152.1935 H   0  0  0  0  0  0  0  0  0  0  0  0  # atno 10167 bound_to 10162
  157.5602  131.1090  150.8551 H   0  0  0  0  0  0  0  0  0  0  0  0  # atno 10718 bound_to 10713
  154.4140  135.6002  153.5969 H   0  0  0  0  0  0  0  0  0  0  0  0  # atno 10763 bound_to 10752
  152.9791  135.5936  154.4036 H   0  0  0  0  0  0  0  0  0  0  0  0  # atno 10764 bound_to 10752
  154.3852  135.2841  155.2166 H   0  0  0  0  0  0  0  0  0  0  0  0  # atno 10765 bound_to 10752
  140.1997  134.8347  157.3004 H   0  0  0  0  0  0  0  0  0  0  0  0  # atno 11005 bound_to 11000
  146.2625  140.5006  142.8847 LP  0  0  0  0  0  0  0  0  0  0  0  0  # atno 17320 bound_to 7965
  144.8205  140.6542  143.6356 LP  0  0  0  0  0  0  0  0  0  0  0  0  # atno 17321 bound_to 7965
  140.0262  144.6115  150.7525 LP  0  0  0  0  0  0  0  0  0  0  0  0  # atno 17342 bound_to 10162
  140.7383  143.2777  151.3693 LP  0  0  0  0  0  0  0  0  0  0  0  0  # atno 17343 bound_to 10162
  156.9051  130.5260  149.5281 LP  0  0  0  0  0  0  0  0  0  0  0  0  # atno 17370 bound_to 10713
  156.0656  130.5700  150.9281 LP  0  0  0  0  0  0  0  0  0  0  0  0  # atno 17371 bound_to 10713
  140.2068  134.4188  155.7633 LP  0  0  0  0  0  0  0  0  0  0  0  0  # atno 17394 bound_to 11000
  141.2227  133.7098  156.8273 LP  0  0  0  0  0  0  0  0  0  0  0  0  # atno 17395 bound_to 11000

$$$$
