AV-unprocessed.smi:1165|AV-procd|sdf|4931|dock7
  -GOLD-   22720 3513D 1   1.00000     0.00000
 Structure written by MMmdl.
 40 41  0  0  0  0  0  0  0  0  2 V2000
  150.4295  135.3725  154.6950 C   0  0  0  0  0  0  0  0  0  0  0  0
  150.7976  136.7134  155.3401 C   0  0  2  0  0  0  0  0  0  0  0  0
  149.9030  137.8590  154.8337 C   0  0  0  0  0  0  0  0  0  0  0  0
  150.3638  139.1539  155.3558 N   0  0  0  0  0  0  0  0  0  0  0  0
  149.2728  140.5067  155.2281 S   0  0  0  0  0  0  0  0  0  0  0  0
  149.3040  140.8938  153.8094 O   0  0  0  0  0  0  0  0  0  0  0  0
  147.9807  140.0640  155.7803 O   0  0  0  0  0  0  0  0  0  0  0  0
  150.0671  141.5645  156.1789 N   0  5  0  0  0  0  0  0  0  0  0  0
  150.2614  141.3117  157.6032 C   0  0  0  0  0  0  0  0  0  0  0  0
  151.6787  141.7435  158.0370 C   0  0  0  0  0  0  0  0  0  0  0  0
  151.7183  142.9509  158.9683 C   0  0  0  0  0  0  0  0  0  0  0  0
  152.2324  142.8417  160.2789 C   0  0  0  0  0  0  0  0  0  0  0  0
  152.2406  143.9822  161.1045 C   0  0  0  0  0  0  0  0  0  0  0  0
  151.7299  145.1884  160.5860 C   0  0  0  0  0  0  0  0  0  0  0  0
  151.2275  145.3067  159.3383 N   0  0  0  0  0  0  0  0  0  0  0  0
  151.2254  144.2082  158.5524 C   0  0  0  0  0  0  0  0  0  0  0  0
  151.7964  139.3930  155.0997 C   0  0  0  0  0  0  0  0  0  0  0  0
  152.6558  138.2081  155.5768 C   0  0  1  0  0  0  0  0  0  0  0  0
  152.8144  138.1525  157.1071 C   0  0  0  0  0  0  0  0  0  0  0  0
  152.1617  136.9843  155.0376 O   0  0  0  0  0  0  0  0  0  0  0  0
  149.3924  135.1083  154.9030 H   0  0  0  0  0  0  0  0  0  0  0  0
  151.0596  134.5696  155.0781 H   0  0  0  0  0  0  0  0  0  0  0  0
  150.5558  135.4072  153.6126 H   0  0  0  0  0  0  0  0  0  0  0  0
  150.6751  136.6089  156.4182 H   0  0  0  0  0  0  0  0  0  0  0  0
  149.9054  137.8988  153.7438 H   0  0  0  0  0  0  0  0  0  0  0  0
  148.8748  137.6779  155.1456 H   0  0  0  0  0  0  0  0  0  0  0  0
  149.5288  141.8360  158.2176 H   0  0  0  0  0  0  0  0  0  0  0  0
  150.1360  140.2530  157.8314 H   0  0  0  0  0  0  0  0  0  0  0  0
  152.1624  140.9095  158.5462 H   0  0  0  0  0  0  0  0  0  0  0  0
  152.2919  141.9487  157.1582 H   0  0  0  0  0  0  0  0  0  0  0  0
  152.6186  141.9009  160.6432 H   0  0  0  0  0  0  0  0  0  0  0  0
  152.6318  143.9332  162.1097 H   0  0  0  0  0  0  0  0  0  0  0  0
  151.7221  146.0826  161.1913 H   0  0  0  0  0  0  0  0  0  0  0  0
  150.8180  144.3367  157.5604 H   0  0  0  0  0  0  0  0  0  0  0  0
  151.9344  139.5423  154.0282 H   0  0  0  0  0  0  0  0  0  0  0  0
  152.1275  140.3110  155.5844 H   0  0  0  0  0  0  0  0  0  0  0  0
  153.6557  138.3373  155.1619 H   0  0  0  0  0  0  0  0  0  0  0  0
  153.3267  139.0424  157.4733 H   0  0  0  0  0  0  0  0  0  0  0  0
  153.4026  137.2854  157.4076 H   0  0  0  0  0  0  0  0  0  0  0  0
  151.8543  138.1030  157.6202 H   0  0  0  0  0  0  0  0  0  0  0  0
  1  2  1  0  0  0  0
  1 21  1  0  0  0  0
  1 22  1  0  0  0  0
  1 23  1  0  0  0  0
  2 20  1  0  0  0  0
  2  3  1  0  0  0  0
  2 24  1  0  0  0  0
  3  4  1  0  0  0  0
  3 25  1  0  0  0  0
  3 26  1  0  0  0  0
  4  5  1  0  0  0  0
  4 17  1  0  0  0  0
  5  6  2  0  0  0  0
  5  7  2  0  0  0  0
  5  8  1  0  0  0  0
  8  9  1  0  0  0  0
  9 10  1  0  0  0  0
  9 27  1  0  0  0  0
  9 28  1  0  0  0  0
 10 11  1  0  0  0  0
 10 29  1  0  0  0  0
 10 30  1  0  0  0  0
 11 16  1  0  0  0  0
 11 12  2  0  0  0  0
 12 13  1  0  0  0  0
 12 31  1  0  0  0  0
 13 14  2  0  0  0  0
 13 32  1  0  0  0  0
 14 15  1  0  0  0  0
 14 33  1  0  0  0  0
 15 16  2  0  0  0  0
 16 34  1  0  0  0  0
 17 18  1  0  0  0  0
 17 35  1  0  0  0  0
 17 36  1  0  0  0  0
 18 19  1  0  0  0  0
 18 20  1  0  0  0  0
 18 37  1  0  0  0  0
 19 38  1  0  0  0  0
 19 39  1  0  0  0  0
 19 40  1  0  0  0  0
M  CHG  1   8  -1
M  END
> <s_m_source_file>
AV-unprocessed.smi

> <i_m_source_file_index>
1165

> <i_lp_mmshare_version>
43012

> <i_f3d_flags>
0

> <s_epik_input>
W0NIM11bQ0BASF0xW0NIMl1OKFtDSDJdW0NASF0oTzEpW0NIM10pUyg9TykoPU8pW05IXVtDSDJdW0NIMl1jMltjSF1bY0hdW2NIXW5bY0hdMg==

> <s_epik_cmdline>
J2VwaWtfcHl0aG9uJywgJy1waCcsICc3LjAnLCAnLXRuJywgJzgnLCAnLW1hJywgJzIwMCcsICctbWV0YWxfYmluZGluZycsICctaW1hZScsICc8aW5maWxlLm1hZT4nLCAnLW9tYWUnLCAnPG91dGZpbGUubWFlPic=

> <r_epik_Ionization_Penalty>
1.23471

> <r_epik_Ionization_Penalty_Charging>
1.20871

> <r_epik_Ionization_Penalty_Neutral>
0.025996

> <r_epik_State_Penalty>
1.46261

> <r_epik_Charging_Adjusted_Penalty>
2.67132

> <i_epik_Tot_Q>
-1

> <i_epik_Tot_abs_Q>
1

> <r_epik_Metal_State_Penalty>
0.521406

> <b_epik_Metal_Only>
0

> <s_lp_Force_Field>
OPLS_2005

> <r_lp_Energy>
7.90597

> <b_lp_Chiralities_Consistent>
1

> <s_lp_Variant>
AV-unprocessed.smi:1165-4

> <Gold.Version>
5.8.1

> <Gold.Id.Protein>
6NUR|6NUR_protein|mol2

> <Gold.PLP.Fitness>
45.7843

> <Gold.PLP.PLP>
-37.5941

> <Gold.PLP.part.hbond>
-4.0000

> <Gold.PLP.part.metal>
0.0000

> <Gold.PLP.part.buried>
-5.0261

> <Gold.PLP.part.nonpolar>
-32.5757

> <Gold.PLP.part.repulsive>
4.2285

> <Gold.PLP.ligand.clash>
0.0000

> <Gold.PLP.ligand.torsion>
1.3212

> <Gold.PLP.Chemscore.Hbond>
2.0823

> <Gold.PLP.Chemscore.CHOScore>
1.0000

> <Gold.PLP.Chemscore.Metal>
0.0000

> <Gold.Chemscore.Hbonds>
donor molecule, donor type, donor heavy atom, donor atom, acceptor molecule, acceptor atom, score
      P1  H  7989  7998       L1     6  0.11
      P1  H  8011  8017       L1     6  0.63
      P1  H 10752 10763       L1    20  0.88
      L1  C    16    34       P1  8028  0.56

> <Gold.PLP.Chemscore.Internal.Correction>
1.5856

> <Gold.Rescore>
     Score         DG    S(hbond)    S(metal)    S(lipo)     H(rot)  DE(clash)    DE(int)     intcor
     17.31     -20.52       1.98        0.00     104.22       1.47       1.89       1.33       ----

> <Gold.Chemscore.Fitness>
17.3066

> <Gold.Chemscore.DG>
-20.5243

> <Gold.Chemscore.ZeroCoef>
-5.4800

> <Gold.Chemscore.Hbond>
1.9827

> <Gold.Chemscore.Metal>
0.0000

> <Gold.Chemscore.Lipo>
104.2153

> <Gold.Chemscore.Internal_Hbond>
0.0000

> <Gold.Chemscore.DEClash>
1.8856

> <Gold.Chemscore.DEInternal>
1.3322

> <Gold.Chemscore.Rot>
1.4731

> <Gold.Chemscore.Internal.Correction>
   9.000000E+99

> <Gold.Chemscore.Hbonds>
donor molecule, donor type, donor heavy atom, donor atom, acceptor molecule, acceptor atom, score
      P1  H  7989  7998       L1     6  0.03
      P1  H  8011  8017       L1     6  0.61
      P1  H 10752 10763       L1    20  0.71

> <Gold.Chemscore.Hbond.Weighted>
-6.6223

> <Gold.Chemscore.Metal.Weighted>
-0.0000

> <Gold.Chemscore.Lipo.Weighted>
-12.1932

> <Gold.Chemscore.Internal_Hbond.Weighted>
0.0000

> <Gold.Chemscore.DEClash.Weighted>
1.8856

> <Gold.Chemscore.DEInternal.Weighted>
1.3322

> <Gold.Chemscore.Rot.Weighted>
3.7712

> <Gold.Chemscore.Internal.Correction.Weighted>
   9.000000E+99

> <Gold.Protein.RotatedTorsions>
[ 6907 6896 6895 6894 ] final -167.91 input  -60.11 | X-H torsion
[ 7974 7965 7964 7962 ] final   95.38 input  175.53 | X-H torsion
[ 8008 7997 7996 7995 ] final -162.70 input   59.86 | X-H torsion
[ 10167 10162 10161 10158 ] final  119.76 input  -65.29 | X-H torsion
[ 10718 10713 10712 10709 ] final  107.65 input   66.30 | X-H torsion
[ 10763 10752 10751 10750 ] final   55.36 input  -60.55 | X-H torsion
[ 11005 11000 10999 10996 ] final  -95.97 input  -57.11 | X-H torsion

> <Gold.Protein.ActiveResidues>
 VAL166  LYS551  ARG553  GLY616  TRP617  ASP618  TYR619  PRO620  LYS621  CYS622 
 ASP623  PHE694  ASN695  SER759  ASP760  ASP761  ALA762  ILE779  LEU786  VAL792 
 PHE793  MET794  SER795  GLU796  ALA797  LYS798  CYS799  TRP800  GLU811  SER814 

> <Gold.Protein.RotatedAtoms>
  151.4671  133.3578  159.2817 H   0  0  0  0  0  0  0  0  0  0  0  0  # atno 6907 bound_to 6896
  150.8986  134.8398  159.7355 H   0  0  0  0  0  0  0  0  0  0  0  0  # atno 6908 bound_to 6896
  152.4866  134.4589  159.9650 H   0  0  0  0  0  0  0  0  0  0  0  0  # atno 6909 bound_to 6896
  145.4530  139.2292  143.3029 H   0  0  0  0  0  0  0  0  0  0  0  0  # atno 7974 bound_to 7965
  155.8107  140.0905  157.1905 H   0  0  0  0  0  0  0  0  0  0  0  0  # atno 8008 bound_to 7997
  154.3980  140.1455  156.3442 H   0  0  0  0  0  0  0  0  0  0  0  0  # atno 8009 bound_to 7997
  155.8368  140.3440  155.5609 H   0  0  0  0  0  0  0  0  0  0  0  0  # atno 8010 bound_to 7997
  139.6025  144.7061  151.3029 H   0  0  0  0  0  0  0  0  0  0  0  0  # atno 10167 bound_to 10162
  157.6619  131.0877  150.6188 H   0  0  0  0  0  0  0  0  0  0  0  0  # atno 10718 bound_to 10713
  152.9816  135.5713  154.5054 H   0  0  0  0  0  0  0  0  0  0  0  0  # atno 10763 bound_to 10752
  154.4567  135.2780  155.1744 H   0  0  0  0  0  0  0  0  0  0  0  0  # atno 10764 bound_to 10752
  154.3350  135.6241  153.5622 H   0  0  0  0  0  0  0  0  0  0  0  0  # atno 10765 bound_to 10752
  141.1426  133.8064  157.0507 H   0  0  0  0  0  0  0  0  0  0  0  0  # atno 11005 bound_to 11000
  146.2494  140.5291  142.8900 LP  0  0  0  0  0  0  0  0  0  0  0  0  # atno 17320 bound_to 7965
  144.8050  140.6282  143.6453 LP  0  0  0  0  0  0  0  0  0  0  0  0  # atno 17321 bound_to 7965
  140.7260  143.7001  150.7852 LP  0  0  0  0  0  0  0  0  0  0  0  0  # atno 17342 bound_to 10162
  140.0580  143.5183  152.2641 LP  0  0  0  0  0  0  0  0  0  0  0  0  # atno 17343 bound_to 10162
  156.6490  130.4480  149.5726 LP  0  0  0  0  0  0  0  0  0  0  0  0  # atno 17370 bound_to 10713
  156.2151  130.6703  151.1311 LP  0  0  0  0  0  0  0  0  0  0  0  0  # atno 17371 bound_to 10713
  140.0634  134.9742  157.1343 LP  0  0  0  0  0  0  0  0  0  0  0  0  # atno 17394 bound_to 11000
  140.3816  134.2281  155.7170 LP  0  0  0  0  0  0  0  0  0  0  0  0  # atno 17395 bound_to 11000

$$$$
