#       Name:                AV-unprocessed.smi:2538
#       Creating user name   scv26
#       Creation time:       Fri Mar 27 14:03:08 2020


#       File generated by GOLD software.
#

@<TRIPOS>MOLECULE
AV-unprocessed.smi:2538
    51    52     1
SMALL
NO_CHARGES


@<TRIPOS>ATOM
      1 ****        -1.3719   1.8053  -5.1669 C.3            1 S1                 0.0000
      2 ****        -1.4469   1.7492  -3.6505 C.ar           1 S1                 0.0000
      3 ****        -2.7123   1.5809  -3.0438 C.ar           1 S1                 0.0000
      4 ****        -2.7490   1.5336  -1.6553 C.ar           1 S1                 0.0000
      5 ****        -3.8194   1.3787  -0.7714 N.pl3          1 S1                 1.0000
      6 ****        -3.3569   1.3925   0.5097 C.2            1 S1                 0.0000
      7 ****        -2.0067   1.5529   0.4555 N.pl3          1 S1                 0.0000
      8 ****        -1.0165   1.6257   1.5379 C.3            1 S1                 0.0000
      9 ****        -0.2600   0.2976   1.7412 C.3            1 S1                 0.0000
     10 ****        -1.2050  -0.6957   2.0878 O.3            1 S1                 0.0000
     11 ****         0.7931   0.4005   2.8658 C.3            1 S1                 0.0000
     12 ****         2.0083  -0.3932   2.6004 N.pl3          1 S1                 0.0000
     13 ****         2.8657   0.0841   1.5071 C.3            1 S1                 0.0000
     14 ****         2.0715  -2.0747   3.0337 S.o2           1 S1                 0.0000
     15 ****         3.4941  -2.4420   3.1096 O.2            1 S1                 0.0000
     16 ****         1.2072  -2.2616   4.2096 O.2            1 S1                 0.0000
     17 ****         1.3136  -2.9368   1.5706 C.3            1 S1                 0.0000
     18 ****         0.2304  -3.9245   2.0269 C.3            1 S1                 0.0000
     19 ****         2.3926  -3.6351   0.7308 C.3            1 S1                 0.0000
     20 ****        -1.5832   1.6473  -0.8739 C.ar           1 S1                 0.0000
     21 ****        -0.3284   1.8135  -1.4545 C.ar           1 S1                 0.0000
     22 ****        -0.2699   1.8627  -2.8656 C.ar           1 S1                 0.0000
     23 ****         1.0854   2.0413  -3.5279 C.3            1 S1                 0.0000
     24 ****        -2.3630   1.7453  -5.6178 H              1 S1                 0.0000
     25 ****        -0.7799   0.9743  -5.5512 H              1 S1                 0.0000
     26 ****        -0.9140   2.7386  -5.4953 H              1 S1                 0.0000
     27 ****        -3.6123   1.4922  -3.6348 H              1 S1                 0.0000
     28 ****        -3.9523   1.2886   1.4053 H              1 S1                 0.0000
     29 ****        -0.3254   2.4388   1.3112 H              1 S1                 0.0000
     30 ****        -1.5430   1.9111   2.4500 H              1 S1                 0.0000
     31 ****         0.2051   0.0199   0.7965 H              1 S1                 0.0000
     32 ****        -1.5730  -0.4797   2.9311 H              1 S1                 0.0000
     33 ****         1.1061   1.4397   2.9741 H              1 S1                 0.0000
     34 ****         0.3705   0.1345   3.8352 H              1 S1                 0.0000
     35 ****         2.5094  -0.2923   0.5484 H              1 S1                 0.0000
     36 ****         3.8887  -0.2635   1.6506 H              1 S1                 0.0000
     37 ****         2.8830   1.1737   1.4717 H              1 S1                 0.0000
     38 ****         0.8380  -2.1806   0.9511 H              1 S1                 0.0000
     39 ****        -0.2230  -4.4301   1.1741 H              1 S1                 0.0000
     40 ****        -0.5683  -3.4167   2.5676 H              1 S1                 0.0000
     41 ****         0.6463  -4.6880   2.6848 H              1 S1                 0.0000
     42 ****         1.9591  -4.0997  -0.1550 H              1 S1                 0.0000
     43 ****         2.8978  -4.4151   1.3012 H              1 S1                 0.0000
     44 ****         3.1471  -2.9242   0.3928 H              1 S1                 0.0000
     45 ****         0.5664   1.9001  -0.8557 H              1 S1                 0.0000
     46 ****         1.8887   2.0706  -2.7912 H              1 S1                 0.0000
     47 ****         1.1153   2.9742  -4.0913 H              1 S1                 0.0000
     48 ****         1.2912   1.2168  -4.2109 H              1 S1                 0.0000
     49 ****        -4.7940   1.2695  -1.0213 H              1 S1                 0.0000
     50 ****        -0.7548  -1.5874   2.1349 LP             1 S1                 0.0000
     51 ****        -1.9310  -0.7247   1.4007 LP             1 S1                 0.0000
@<TRIPOS>BOND
    1    1    2 1     
    2    1   24 1     
    3    1   25 1     
    4    1   26 1     
    5    2   22 ar    
    6    2    3 ar    
    7    3    4 ar    
    8    3   27 1     
    9    4   20 ar    
   10    4    5 1     
   11    5    6 2     
   12    5   49 1     
   13    6    7 1     
   14    6   28 1     
   15    7    8 1     
   16    7   20 1     
   17    8    9 1     
   18    8   29 1     
   19    8   30 1     
   20    9   10 1     
   21    9   11 1     
   22    9   31 1     
   23   10   32 1     
   24   11   12 1     
   25   11   33 1     
   26   11   34 1     
   27   12   13 1     
   28   12   14 1     
   29   13   35 1     
   30   13   36 1     
   31   13   37 1     
   32   14   15 2     
   33   14   16 2     
   34   14   17 1     
   35   17   18 1     
   36   17   19 1     
   37   17   38 1     
   38   18   39 1     
   39   18   40 1     
   40   18   41 1     
   41   19   42 1     
   42   19   43 1     
   43   19   44 1     
   44   20   21 ar    
   45   21   22 ar    
   46   21   45 1     
   47   22   23 1     
   48   23   46 1     
   49   23   47 1     
   50   23   48 1     
   51   10   50 1     
   52   10   51 1     
@<TRIPOS>SUBSTRUCTURE
      1 S1             1
@<TRIPOS>SET
LONE_PAIRS      STATIC     ATOMS    <user>   **** ""
4 50 51 15 16
DONOR_HYDROGENS      STATIC     ATOMS    <user>   **** ""
2 49 32
ATOM$BLUE        STATIC     ATOMS    COLORGROUP SYSTEM
4 50 51 15 16
ATOM$RED        STATIC     ATOMS    COLORGROUP SYSTEM
2 49 32
