AV-unprocessed.smi:738|AV-procd|sdf|3541|dock2
  -GOLD-   22720 0533D 1   1.00000     0.00000
 Structure written by MMmdl.
 35 37  0  0  0  0  0  0  0  0  1 V2000
  150.8918  137.7599  153.4885 N   0  0  0  0  0  0  0  0  0  0  0  0
  151.1957  137.2136  154.6698 C   0  0  0  0  0  0  0  0  0  0  0  0
  151.0971  136.0068  154.8826 O   0  0  0  0  0  0  0  0  0  0  0  0
  151.6044  138.1659  155.7562 C   0  0  0  0  0  0  0  0  0  0  0  0
  152.0709  139.4600  155.4388 C   0  0  0  0  0  0  0  0  0  0  0  0
  152.4342  140.3699  156.3671 N   0  0  0  0  0  0  0  0  0  0  0  0
  152.3434  140.0355  157.6768 C   0  0  0  0  0  0  0  0  0  0  0  0
  152.7116  141.0019  158.6311 N   0  0  0  0  0  0  0  0  0  0  0  0
  153.7994  140.5357  159.4783 C   0  0  0  0  0  0  0  0  0  0  0  0
  154.3760  141.7171  160.2686 C   0  0  0  0  0  0  0  0  0  0  0  0
  153.3521  142.3190  161.0551 O   0  0  0  0  0  0  0  0  0  0  0  0
  152.1969  142.7317  160.3218 C   0  0  1  0  0  0  0  0  0  0  0  0
  152.3747  143.9903  159.4574 C   0  0  0  0  0  0  0  0  0  0  0  0
  151.3841  143.8335  158.2922 C   0  0  0  0  0  0  0  0  0  0  0  0
  150.6971  142.4722  158.4789 C   0  0  0  0  0  0  0  0  0  0  0  0
  151.6333  141.6527  159.3812 C   0  0  1  0  0  0  0  0  0  0  0  0
  151.8739  138.7682  158.0991 C   0  0  0  0  0  0  0  0  0  0  0  0
  151.7689  138.3492  159.7741 Cl  0  0  0  0  0  0  0  0  0  0  0  0
  151.4977  137.8253  157.1229 C   0  0  0  0  0  0  0  0  0  0  0  0
  150.6061  137.1667  152.7227 H   0  0  0  0  0  0  0  0  0  0  0  0
  150.9436  138.7605  153.3647 H   0  0  0  0  0  0  0  0  0  0  0  0
  152.1624  139.7805  154.4112 H   0  0  0  0  0  0  0  0  0  0  0  0
  153.4266  139.7707  160.1610 H   0  0  0  0  0  0  0  0  0  0  0  0
  154.5843  140.0753  158.8770 H   0  0  0  0  0  0  0  0  0  0  0  0
  155.1674  141.3712  160.9334 H   0  0  0  0  0  0  0  0  0  0  0  0
  154.8297  142.4467  159.5978 H   0  0  0  0  0  0  0  0  0  0  0  0
  151.4273  142.9583  161.0610 H   0  0  0  0  0  0  0  0  0  0  0  0
  152.1896  144.8972  160.0340 H   0  0  0  0  0  0  0  0  0  0  0  0
  153.3858  144.0652  159.0591 H   0  0  0  0  0  0  0  0  0  0  0  0
  150.6553  144.6441  158.2659 H   0  0  0  0  0  0  0  0  0  0  0  0
  151.9258  143.8524  157.3456 H   0  0  0  0  0  0  0  0  0  0  0  0
  149.7527  142.6239  159.0031 H   0  0  0  0  0  0  0  0  0  0  0  0
  150.4563  141.9906  157.5307 H   0  0  0  0  0  0  0  0  0  0  0  0
  151.0825  140.9019  159.9495 H   0  0  0  0  0  0  0  0  0  0  0  0
  151.1325  136.8559  157.4300 H   0  0  0  0  0  0  0  0  0  0  0  0
  1  2  1  0  0  0  0
  1 20  1  0  0  0  0
  1 21  1  0  0  0  0
  2  3  2  0  0  0  0
  2  4  1  0  0  0  0
  4 19  1  0  0  0  0
  4  5  2  0  0  0  0
  5  6  1  0  0  0  0
  5 22  1  0  0  0  0
  6  7  2  0  0  0  0
  7  8  1  0  0  0  0
  7 17  1  0  0  0  0
  8 16  1  0  0  0  0
  8  9  1  0  0  0  0
  9 10  1  0  0  0  0
  9 23  1  0  0  0  0
  9 24  1  0  0  0  0
 10 11  1  0  0  0  0
 10 25  1  0  0  0  0
 10 26  1  0  0  0  0
 11 12  1  0  0  0  0
 12 16  1  0  0  0  0
 12 13  1  0  0  0  0
 12 27  1  0  0  0  0
 13 14  1  0  0  0  0
 13 28  1  0  0  0  0
 13 29  1  0  0  0  0
 14 15  1  0  0  0  0
 14 30  1  0  0  0  0
 14 31  1  0  0  0  0
 15 16  1  0  0  0  0
 15 32  1  0  0  0  0
 15 33  1  0  0  0  0
 16 34  1  0  0  0  0
 17 18  1  0  0  0  0
 17 19  2  0  0  0  0
 19 35  1  0  0  0  0
M  END
> <s_m_source_file>
AV-unprocessed.smi

> <i_m_source_file_index>
738

> <i_lp_mmshare_version>
43012

> <i_f3d_flags>
0

> <s_epik_input>
W05IMl1DKD1PKWMxW2NIXW5jKGMoQ2wpW2NIXTEpTihbQ0gyXVtDSDJdTzIpW0NASF0oW0NASF0yMylbQ0gyXVtDSDJdW0NIMl0z

> <s_epik_cmdline>
J2VwaWtfcHl0aG9uJywgJy1waCcsICc3LjAnLCAnLXRuJywgJzgnLCAnLW1hJywgJzIwMCcsICctbWV0YWxfYmluZGluZycsICctaW1hZScsICc8aW5maWxlLm1hZT4nLCAnLW9tYWUnLCAnPG91dGZpbGUubWFlPic=

> <r_lp_tautomer_probability>
1

> <r_epik_Ionization_Penalty>
6.75978e-06

> <r_epik_Ionization_Penalty_Charging>
0

> <r_epik_Ionization_Penalty_Neutral>
6.75978e-06

> <r_epik_State_Penalty>
-0

> <r_epik_Charging_Adjusted_Penalty>
0

> <i_epik_Tot_Q>
0

> <i_epik_Tot_abs_Q>
0

> <r_epik_Metal_State_Penalty>
-0

> <b_epik_Metal_Only>
0

> <s_lp_Force_Field>
OPLS_2005

> <r_lp_Energy>
43.0455

> <b_lp_Chiralities_Consistent>
1

> <s_lp_Variant>
AV-unprocessed.smi:738-4

> <Gold.Version>
5.8.1

> <Gold.Id.Protein>
6NUR|6NUR_protein|mol2

> <Gold.PLP.Fitness>
34.3361

> <Gold.PLP.PLP>
-28.5849

> <Gold.PLP.part.hbond>
-4.0000

> <Gold.PLP.part.metal>
0.0000

> <Gold.PLP.part.buried>
2.3847

> <Gold.PLP.part.nonpolar>
-26.9492

> <Gold.PLP.part.repulsive>
0.2907

> <Gold.PLP.ligand.clash>
0.0476

> <Gold.PLP.ligand.torsion>
0.3317

> <Gold.PLP.Chemscore.Hbond>
2.0958

> <Gold.PLP.Chemscore.CHOScore>
0.0000

> <Gold.PLP.Chemscore.Metal>
0.0000

> <Gold.Chemscore.Hbonds>
donor molecule, donor type, donor heavy atom, donor atom, acceptor molecule, acceptor atom, score
      L1  H     1    20       P1  7949  0.36
      P1  H  7997  8010       L1     6  0.72
      P1  H 10752 10764       L1     3  0.90

> <Gold.PLP.Chemscore.Internal.Correction>
0.1746

> <Gold.Rescore>
     Score         DG    S(hbond)    S(metal)    S(lipo)     H(rot)  DE(clash)    DE(int)     intcor
     14.40     -17.52       0.98        0.00      96.90       1.00       1.30       1.83       ----

> <Gold.Chemscore.Fitness>
14.3961

> <Gold.Chemscore.DG>
-17.5222

> <Gold.Chemscore.ZeroCoef>
-5.4800

> <Gold.Chemscore.Hbond>
0.9777

> <Gold.Chemscore.Metal>
0.0000

> <Gold.Chemscore.Lipo>
96.8956

> <Gold.Chemscore.Internal_Hbond>
0.0000

> <Gold.Chemscore.DEClash>
1.2959

> <Gold.Chemscore.DEInternal>
1.8303

> <Gold.Chemscore.Rot>
1.0000

> <Gold.Chemscore.Internal.Correction>
   9.000000E+99

> <Gold.Chemscore.Hbonds>
donor molecule, donor type, donor heavy atom, donor atom, acceptor molecule, acceptor atom, score
      L1  H     1    20       P1  7949  0.01
      P1  H  7997  8010       L1     6  0.03
      P1  H 10752 10764       L1     3  0.18

> <Gold.Chemscore.Hbond.Weighted>
-3.2655

> <Gold.Chemscore.Metal.Weighted>
-0.0000

> <Gold.Chemscore.Lipo.Weighted>
-11.3368

> <Gold.Chemscore.Internal_Hbond.Weighted>
0.0000

> <Gold.Chemscore.DEClash.Weighted>
1.2959

> <Gold.Chemscore.DEInternal.Weighted>
1.8303

> <Gold.Chemscore.Rot.Weighted>
2.5600

> <Gold.Chemscore.Internal.Correction.Weighted>
   9.000000E+99

> <Gold.Protein.RotatedTorsions>
[ 6907 6896 6895 6894 ] final  -38.69 input  -60.11 | X-H torsion
[ 7974 7965 7964 7962 ] final  -38.97 input  175.53 | X-H torsion
[ 8008 7997 7996 7995 ] final   90.46 input   59.86 | X-H torsion
[ 10167 10162 10161 10158 ] final -105.07 input  -65.29 | X-H torsion
[ 10718 10713 10712 10709 ] final -140.64 input   66.30 | X-H torsion
[ 10763 10752 10751 10750 ] final  -55.40 input  -60.55 | X-H torsion
[ 11005 11000 10999 10996 ] final  -80.56 input  -57.11 | X-H torsion

> <Gold.Protein.ActiveResidues>
 VAL166  LYS551  ARG553  GLY616  TRP617  ASP618  TYR619  PRO620  LYS621  CYS622 
 ASP623  PHE694  ASN695  SER759  ASP760  ASP761  ALA762  ILE779  LEU786  VAL792 
 PHE793  MET794  SER795  GLU796  ALA797  LYS798  CYS799  TRP800  GLU811  SER814 

> <Gold.Protein.RotatedAtoms>
  150.9994  134.9310  159.7944 H   0  0  0  0  0  0  0  0  0  0  0  0  # atno 6907 bound_to 6896
  152.5273  134.3175  159.9146 H   0  0  0  0  0  0  0  0  0  0  0  0  # atno 6908 bound_to 6896
  151.3180  133.4010  159.2686 H   0  0  0  0  0  0  0  0  0  0  0  0  # atno 6909 bound_to 6896
  146.0439  140.6573  142.9074 H   0  0  0  0  0  0  0  0  0  0  0  0  # atno 7974 bound_to 7965
  156.0122  140.3349  155.6952 H   0  0  0  0  0  0  0  0  0  0  0  0  # atno 8008 bound_to 7997
  155.6141  140.0668  157.2715 H   0  0  0  0  0  0  0  0  0  0  0  0  # atno 8009 bound_to 7997
  154.4285  140.1788  156.1291 H   0  0  0  0  0  0  0  0  0  0  0  0  # atno 8010 bound_to 7997
  140.2025  143.3807  152.1117 H   0  0  0  0  0  0  0  0  0  0  0  0  # atno 10167 bound_to 10162
  156.3246  130.7553  151.1658 H   0  0  0  0  0  0  0  0  0  0  0  0  # atno 10718 bound_to 10713
  154.1901  135.6429  153.5057 H   0  0  0  0  0  0  0  0  0  0  0  0  # atno 10763 bound_to 10752
  153.0037  135.5426  154.6424 H   0  0  0  0  0  0  0  0  0  0  0  0  # atno 10764 bound_to 10752
  154.5810  135.2925  155.0705 H   0  0  0  0  0  0  0  0  0  0  0  0  # atno 10765 bound_to 10752
  141.1668  133.7156  156.8292 H   0  0  0  0  0  0  0  0  0  0  0  0  # atno 11005 bound_to 11000
  144.7088  140.3957  143.7097 LP  0  0  0  0  0  0  0  0  0  0  0  0  # atno 17320 bound_to 7965
  145.6839  139.1624  143.2685 LP  0  0  0  0  0  0  0  0  0  0  0  0  # atno 17321 bound_to 7965
  139.5211  144.7042  151.5404 LP  0  0  0  0  0  0  0  0  0  0  0  0  # atno 17342 bound_to 10162
  140.6380  143.8945  150.6665 LP  0  0  0  0  0  0  0  0  0  0  0  0  # atno 17343 bound_to 10162
  157.7419  131.0498  150.5066 LP  0  0  0  0  0  0  0  0  0  0  0  0  # atno 17370 bound_to 10713
  156.5223  130.4165  149.6244 LP  0  0  0  0  0  0  0  0  0  0  0  0  # atno 17371 bound_to 10713
  140.2064  134.8860  157.3226 LP  0  0  0  0  0  0  0  0  0  0  0  0  # atno 17394 bound_to 11000
  140.2133  134.4112  155.7602 LP  0  0  0  0  0  0  0  0  0  0  0  0  # atno 17395 bound_to 11000

$$$$
