AV-unprocessed.smi:290|AV-procd|sdf|2240|dock10
  -GOLD-   2262022113D 1   1.00000     0.00000
 Structure written by MMmdl.
 59 62  0  0  0  0  0  0  0  0  2 V2000
  152.3120  144.8622  159.0617 C   0  0  0  0  0  0  0  0  0  0  0  0
  152.8218  143.4355  158.8013 C   0  0  1  0  0  0  0  0  0  0  0  0
  153.6294  142.9841  159.8882 O   0  0  0  0  0  0  0  0  0  0  0  0
  153.0991  141.7800  160.4236 C   0  0  0  0  0  0  0  0  0  0  0  0
  152.3616  141.1430  159.2534 C   0  0  0  0  0  0  0  0  0  0  0  0
  151.7478  142.3493  158.5567 C   0  0  1  0  0  0  0  0  0  0  0  0
  150.5366  142.6771  159.2198 O   0  0  0  0  0  0  0  0  0  0  0  0
  151.4413  142.1258  157.0567 C   0  0  0  0  0  0  0  0  0  0  0  0
  150.7838  140.8570  156.7820 N   0  0  0  0  0  0  0  0  0  0  0  0
  149.4757  140.5326  157.0552 C   0  0  0  0  0  0  0  0  0  0  0  0
  149.1241  139.3222  156.7199 N   0  0  0  0  0  0  0  0  0  0  0  0
  150.2691  138.7683  156.1552 C   0  0  0  0  0  0  0  0  0  0  0  0
  150.6001  137.5004  155.5864 C   0  0  0  0  0  0  0  0  0  0  0  0
  149.7491  136.4477  155.4527 N   0  0  0  0  0  0  0  0  0  0  0  0
  148.3704  136.5333  155.9026 C   0  0  0  0  0  0  0  0  0  0  0  0
  147.5943  135.6646  154.9225 C   0  0  0  0  0  0  0  0  0  0  0  0
  148.5924  134.5686  154.5150 C   0  0  1  0  0  0  0  0  0  0  0  0
  148.2410  133.9480  153.1982 N   0  3  2  0  0  0  0  0  0  0  0  0
  146.7818  133.6838  153.0916 C   0  0  0  0  0  0  0  0  0  0  0  0
  149.0603  132.7545  152.8376 C   0  0  0  0  0  0  0  0  0  0  0  0
  148.7735  131.5071  153.6952 C   0  0  0  0  0  0  0  0  0  0  0  0
  149.1820  130.3402  153.0127 O   0  0  0  0  0  0  0  0  0  0  0  0
  149.9597  135.3030  154.5711 C   0  0  2  0  0  0  0  0  0  0  0  0
  151.0945  134.4116  155.1233 C   0  0  0  0  0  0  0  0  0  0  0  0
  151.8739  137.3350  155.1424 N   0  0  0  0  0  0  0  0  0  0  0  0
  152.7627  138.3270  155.2341 C   0  0  0  0  0  0  0  0  0  0  0  0
  152.5944  139.5515  155.7322 N   0  0  0  0  0  0  0  0  0  0  0  0
  151.3226  139.7286  156.1891 C   0  0  0  0  0  0  0  0  0  0  0  0
  148.5795  133.7935  155.2839 H   0  0  0  0  0  0  0  0  0  0  0  0
  150.2024  135.6804  153.5785 H   0  0  0  0  0  0  0  0  0  0  0  0
  151.6826  145.2093  158.2423 H   0  0  0  0  0  0  0  0  0  0  0  0
  153.1456  145.5579  159.1571 H   0  0  0  0  0  0  0  0  0  0  0  0
  151.7319  144.9208  159.9830 H   0  0  0  0  0  0  0  0  0  0  0  0
  153.4896  143.4681  157.9395 H   0  0  0  0  0  0  0  0  0  0  0  0
  153.8837  141.1403  160.8279 H   0  0  0  0  0  0  0  0  0  0  0  0
  152.4066  142.0227  161.2307 H   0  0  0  0  0  0  0  0  0  0  0  0
  153.0877  140.6593  158.5990 H   0  0  0  0  0  0  0  0  0  0  0  0
  151.6340  140.3905  159.5601 H   0  0  0  0  0  0  0  0  0  0  0  0
  150.4368  143.6166  159.2131 H   0  0  0  0  0  0  0  0  0  0  0  0
  150.8081  142.9295  156.6780 H   0  0  0  0  0  0  0  0  0  0  0  0
  152.3616  142.1642  156.4723 H   0  0  0  0  0  0  0  0  0  0  0  0
  148.7889  141.2245  157.5214 H   0  0  0  0  0  0  0  0  0  0  0  0
  148.3024  136.1367  156.9163 H   0  0  0  0  0  0  0  0  0  0  0  0
  147.9887  137.5552  155.9058 H   0  0  0  0  0  0  0  0  0  0  0  0
  146.6784  135.2755  155.3678 H   0  0  0  0  0  0  0  0  0  0  0  0
  147.3192  136.2633  154.0525 H   0  0  0  0  0  0  0  0  0  0  0  0
  146.4823  132.8786  153.7635 H   0  0  0  0  0  0  0  0  0  0  0  0
  146.4926  133.4113  152.0782 H   0  0  0  0  0  0  0  0  0  0  0  0
  146.1892  134.5638  153.3367 H   0  0  0  0  0  0  0  0  0  0  0  0
  148.8658  132.4647  151.8069 H   0  0  0  0  0  0  0  0  0  0  0  0
  150.1183  133.0120  152.9010 H   0  0  0  0  0  0  0  0  0  0  0  0
  149.3394  131.5692  154.6251 H   0  0  0  0  0  0  0  0  0  0  0  0
  147.7264  131.4276  153.9847 H   0  0  0  0  0  0  0  0  0  0  0  0
  149.2679  130.5431  152.0930 H   0  0  0  0  0  0  0  0  0  0  0  0
  151.2652  133.5255  154.5155 H   0  0  0  0  0  0  0  0  0  0  0  0
  150.8646  134.0697  156.1330 H   0  0  0  0  0  0  0  0  0  0  0  0
  152.0410  134.9483  155.1752 H   0  0  0  0  0  0  0  0  0  0  0  0
  153.7500  138.1075  154.8552 H   0  0  0  0  0  0  0  0  0  0  0  0
  148.4580  134.6441  152.4988 H   0  0  0  0  0  0  0  0  0  0  0  0
  1  2  1  0  0  0  0
  1 31  1  0  0  0  0
  1 32  1  0  0  0  0
  1 33  1  0  0  0  0
  2  6  1  0  0  0  0
  2  3  1  0  0  0  0
  2 34  1  0  0  0  0
  3  4  1  0  0  0  0
  4  5  1  0  0  0  0
  4 35  1  0  0  0  0
  4 36  1  0  0  0  0
  5  6  1  0  0  0  0
  5 37  1  0  0  0  0
  5 38  1  0  0  0  0
  6  7  1  0  0  0  0
  6  8  1  0  0  0  0
  7 39  1  0  0  0  0
  8  9  1  0  0  0  0
  8 40  1  0  0  0  0
  8 41  1  0  0  0  0
  9 28  1  0  0  0  0
  9 10  1  0  0  0  0
 10 11  2  0  0  0  0
 10 42  1  0  0  0  0
 11 12  1  0  0  0  0
 12 28  2  0  0  0  0
 12 13  1  0  0  0  0
 13 14  1  0  0  0  0
 13 25  2  0  0  0  0
 14 23  1  0  0  0  0
 14 15  1  0  0  0  0
 15 16  1  0  0  0  0
 15 43  1  0  0  0  0
 15 44  1  0  0  0  0
 16 17  1  0  0  0  0
 16 45  1  0  0  0  0
 16 46  1  0  0  0  0
 17 29  1  0  0  0  0
 17 18  1  0  0  0  0
 17 23  1  0  0  0  0
 18 19  1  0  0  0  0
 18 20  1  0  0  0  0
 18 59  1  0  0  0  0
 19 47  1  0  0  0  0
 19 48  1  0  0  0  0
 19 49  1  0  0  0  0
 20 21  1  0  0  0  0
 20 50  1  0  0  0  0
 20 51  1  0  0  0  0
 21 22  1  0  0  0  0
 21 52  1  0  0  0  0
 21 53  1  0  0  0  0
 22 54  1  0  0  0  0
 23 30  1  0  0  0  0
 23 24  1  0  0  0  0
 24 55  1  0  0  0  0
 24 56  1  0  0  0  0
 24 57  1  0  0  0  0
 25 26  1  0  0  0  0
 26 27  2  0  0  0  0
 26 58  1  0  0  0  0
 27 28  1  0  0  0  0
M  CHG  1  18   1
M  END
> <s_m_source_file>
AV-unprocessed.smi

> <i_m_source_file_index>
290

> <i_lp_mmshare_version>
43012

> <i_f3d_flags>
0

> <s_epik_input>
W0NIMl0xW0NIMl1PW0NAQEhdKFtDSDNdKVtDQEBdMShbT0hdKVtDSDJdbihbY0hdbjIpYyhjMjMpbltjSF1uYzNONFtDSDJdW0NIMl1bQ0BIXShbQ0BIXTRbQ0gzXSlOKFtDSDNdKVtDSDJdW0NIMl1bT0hd

> <s_epik_cmdline>
J2VwaWtfcHl0aG9uJywgJy1waCcsICc3LjAnLCAnLXRuJywgJzgnLCAnLW1hJywgJzIwMCcsICctbWV0YWxfYmluZGluZycsICctaW1hZScsICc8aW5maWxlLm1hZT4nLCAnLW9tYWUnLCAnPG91dGZpbGUubWFlPic=

> <r_lp_tautomer_probability>
1

> <r_epik_Ionization_Penalty>
0.0036983

> <r_epik_Ionization_Penalty_Charging>
0.0032725

> <r_epik_Ionization_Penalty_Neutral>
0.000425798

> <r_epik_State_Penalty>
-0

> <r_epik_Charging_Adjusted_Penalty>
0.0032725

> <i_epik_Tot_Q>
1

> <i_epik_Tot_abs_Q>
1

> <r_epik_Metal_State_Penalty>
-0

> <b_epik_Metal_Only>
0

> <s_lp_Force_Field>
OPLS_2005

> <r_lp_Energy>
64.7492

> <b_lp_Chiralities_Consistent>
1

> <s_lp_Variant>
AV-unprocessed.smi:290-26

> <Gold.Version>
5.8.1

> <Gold.Id.Protein>
6NUR|6NUR_protein|mol2

> <Gold.PLP.Fitness>
54.3836

> <Gold.PLP.PLP>
-42.5944

> <Gold.PLP.part.hbond>
-4.1067

> <Gold.PLP.part.metal>
0.0000

> <Gold.PLP.part.buried>
-4.4059

> <Gold.PLP.part.nonpolar>
-33.7684

> <Gold.PLP.part.repulsive>
0.0712

> <Gold.PLP.ligand.clash>
0.0000

> <Gold.PLP.ligand.torsion>
0.7425

> <Gold.PLP.Chemscore.Hbond>
4.3412

> <Gold.PLP.Chemscore.CHOScore>
0.0000

> <Gold.PLP.Chemscore.Metal>
0.0000

> <Gold.Chemscore.Hbonds>
donor molecule, donor type, donor heavy atom, donor atom, acceptor molecule, acceptor atom, score
      L1  H    18    59       P1  7948  1.60
      L1  H    22    54       P1 10747  0.60
      P1  H  7997  8009       L1    27  1.00
      P1  H 10752 10765       L1    25  0.77

> <Gold.PLP.Chemscore.Internal.Correction>
0.2504

> <Gold.Rescore>
     Score         DG    S(hbond)    S(metal)    S(lipo)     H(rot)  DE(clash)    DE(int)     intcor
     13.20     -16.22       2.54        0.00      92.53       3.35       0.35       2.67       ----

> <Gold.Chemscore.Fitness>
13.1999

> <Gold.Chemscore.DG>
-16.2163

> <Gold.Chemscore.ZeroCoef>
-5.4800

> <Gold.Chemscore.Hbond>
2.5420

> <Gold.Chemscore.Metal>
0.0000

> <Gold.Chemscore.Lipo>
92.5344

> <Gold.Chemscore.Internal_Hbond>
0.0000

> <Gold.Chemscore.DEClash>
0.3507

> <Gold.Chemscore.DEInternal>
2.6657

> <Gold.Chemscore.Rot>
3.3518

> <Gold.Chemscore.Internal.Correction>
   9.000000E+99

> <Gold.Chemscore.Hbonds>
donor molecule, donor type, donor heavy atom, donor atom, acceptor molecule, acceptor atom, score
      L1  H    18    59       P1  7948  0.12
      L1  H    22    54       P1 10747  0.04
      P1  H  7997  8009       L1    27  0.50
      P1  H 10752 10765       L1    25  0.40

> <Gold.Chemscore.Hbond.Weighted>
-8.4904

> <Gold.Chemscore.Metal.Weighted>
-0.0000

> <Gold.Chemscore.Lipo.Weighted>
-10.8265

> <Gold.Chemscore.Internal_Hbond.Weighted>
0.0000

> <Gold.Chemscore.DEClash.Weighted>
0.3507

> <Gold.Chemscore.DEInternal.Weighted>
2.6657

> <Gold.Chemscore.Rot.Weighted>
8.5806

> <Gold.Chemscore.Internal.Correction.Weighted>
   9.000000E+99

> <Gold.Protein.RotatedTorsions>
[ 6907 6896 6895 6894 ] final   45.09 input  -60.11 | X-H torsion
[ 7974 7965 7964 7962 ] final   98.48 input  175.53 | X-H torsion
[ 8008 7997 7996 7995 ] final -158.03 input   59.86 | X-H torsion
[ 10167 10162 10161 10158 ] final  143.84 input  -65.29 | X-H torsion
[ 10718 10713 10712 10709 ] final  107.14 input   66.30 | X-H torsion
[ 10763 10752 10751 10750 ] final -175.83 input  -60.55 | X-H torsion
[ 11005 11000 10999 10996 ] final  -72.59 input  -57.11 | X-H torsion

> <Gold.Protein.ActiveResidues>
 VAL166  LYS551  ARG553  GLY616  TRP617  ASP618  TYR619  PRO620  LYS621  CYS622 
 ASP623  PHE694  ASN695  SER759  ASP760  ASP761  ALA762  ILE779  LEU786  VAL792 
 PHE793  MET794  SER795  GLU796  ALA797  LYS798  CYS799  TRP800  GLU811  SER814 

> <Gold.Protein.RotatedAtoms>
  152.2404  134.8234  160.0460 H   0  0  0  0  0  0  0  0  0  0  0  0  # atno 6907 bound_to 6896
  151.8951  133.3520  159.3820 H   0  0  0  0  0  0  0  0  0  0  0  0  # atno 6908 bound_to 6896
  150.7052  134.4811  159.5515 H   0  0  0  0  0  0  0  0  0  0  0  0  # atno 6909 bound_to 6896
  145.4116  139.2333  143.3245 H   0  0  0  0  0  0  0  0  0  0  0  0  # atno 7974 bound_to 7965
  155.7414  140.0814  157.2244 H   0  0  0  0  0  0  0  0  0  0  0  0  # atno 8008 bound_to 7997
  154.4021  140.1577  156.2675 H   0  0  0  0  0  0  0  0  0  0  0  0  # atno 8009 bound_to 7997
  155.9017  140.3409  155.6034 H   0  0  0  0  0  0  0  0  0  0  0  0  # atno 8010 bound_to 7997
  139.4960  144.6013  151.6475 H   0  0  0  0  0  0  0  0  0  0  0  0  # atno 10167 bound_to 10162
  157.6640  131.0866  150.6112 H   0  0  0  0  0  0  0  0  0  0  0  0  # atno 10718 bound_to 10713
  154.5797  135.2835  155.0745 H   0  0  0  0  0  0  0  0  0  0  0  0  # atno 10763 bound_to 10752
  154.2086  135.6412  153.5112 H   0  0  0  0  0  0  0  0  0  0  0  0  # atno 10764 bound_to 10752
  153.0084  135.5486  154.6447 H   0  0  0  0  0  0  0  0  0  0  0  0  # atno 10765 bound_to 10752
  141.1610  133.6851  156.7082 H   0  0  0  0  0  0  0  0  0  0  0  0  # atno 11005 bound_to 11000
  146.2702  140.4828  142.8817 LP  0  0  0  0  0  0  0  0  0  0  0  0  # atno 17320 bound_to 7965
  144.8305  140.6699  143.6294 LP  0  0  0  0  0  0  0  0  0  0  0  0  # atno 17321 bound_to 7965
  140.5663  144.0184  150.6194 LP  0  0  0  0  0  0  0  0  0  0  0  0  # atno 17342 bound_to 10162
  140.3287  143.3091  152.0710 LP  0  0  0  0  0  0  0  0  0  0  0  0  # atno 17343 bound_to 10162
  156.6414  130.4459  149.5751 LP  0  0  0  0  0  0  0  0  0  0  0  0  # atno 17370 bound_to 10713
  156.2206  130.6735  151.1365 LP  0  0  0  0  0  0  0  0  0  0  0  0  # atno 17371 bound_to 10713
  140.2907  134.8243  157.4014 LP  0  0  0  0  0  0  0  0  0  0  0  0  # atno 17394 bound_to 11000
  140.1349  134.5047  155.8076 LP  0  0  0  0  0  0  0  0  0  0  0  0  # atno 17395 bound_to 11000

$$$$
