AV-unprocessed.smi:3162|AV-procd|sdf|12064|dock3
  -GOLD-   2272017493D 1   1.00000     0.00000
 Structure written by MMmdl.
 37 37  0  0  0  0  0  0  0  0  2 V2000
  139.6134  138.4748  153.0893 C   0  0  0  0  0  0  0  0  0  0  0  0
  141.0949  138.6118  153.4748 C   0  0  0  0  0  0  0  0  0  0  0  0
  141.9604  137.3736  153.1540 C   0  0  1  0  0  0  0  0  0  0  0  0
  143.3928  137.7519  153.2212 N   0  3  0  0  0  0  0  0  0  0  0  0
  144.3641  136.7307  152.7621 C   0  0  2  0  0  0  0  0  0  0  0  0
  145.6142  137.4343  152.2086 C   0  0  0  0  0  0  0  0  0  0  0  0
  143.7171  135.7819  151.7269 C   0  0  0  0  0  0  0  0  0  0  0  0
  144.6301  134.7589  151.2512 N   0  0  0  0  0  0  0  0  0  0  0  0
  144.4039  133.7709  150.3163 C   0  0  0  0  0  0  0  0  0  0  0  0
  145.5540  133.0424  150.2027 C   0  0  0  0  0  0  0  0  0  0  0  0
  145.8340  131.8617  149.3185 C   0  0  0  0  0  0  0  0  0  0  0  0
  146.4360  133.6696  151.1280 C   0  0  0  0  0  0  0  0  0  0  0  0
  145.8799  134.6929  151.7558 N   0  0  0  0  0  0  0  0  0  0  0  0
  141.6578  136.2146  154.1178 C   0  0  0  0  0  0  0  0  0  0  0  0
  140.3913  135.7981  154.1970 N   0  0  0  0  0  0  0  0  0  0  0  0
  142.5563  135.7065  154.7863 O   0  0  0  0  0  0  0  0  0  0  0  0
  139.0805  139.4083  153.2724 H   0  0  0  0  0  0  0  0  0  0  0  0
  139.1144  137.6973  153.6683 H   0  0  0  0  0  0  0  0  0  0  0  0
  139.5020  138.2322  152.0321 H   0  0  0  0  0  0  0  0  0  0  0  0
  141.5005  139.4726  152.9416 H   0  0  0  0  0  0  0  0  0  0  0  0
  141.1701  138.8569  154.5356 H   0  0  0  0  0  0  0  0  0  0  0  0
  141.7298  137.0588  152.1356 H   0  0  0  0  0  0  0  0  0  0  0  0
  143.5361  138.5861  152.6706 H   0  0  0  0  0  0  0  0  0  0  0  0
  144.6840  136.1456  153.6253 H   0  0  0  0  0  0  0  0  0  0  0  0
  146.3933  136.7191  151.9440 H   0  0  0  0  0  0  0  0  0  0  0  0
  146.0400  138.1132  152.9479 H   0  0  0  0  0  0  0  0  0  0  0  0
  145.3805  138.0172  151.3170 H   0  0  0  0  0  0  0  0  0  0  0  0
  142.8452  135.2785  152.1446 H   0  0  0  0  0  0  0  0  0  0  0  0
  143.3618  136.3513  150.8667 H   0  0  0  0  0  0  0  0  0  0  0  0
  143.4540  133.6695  149.8118 H   0  0  0  0  0  0  0  0  0  0  0  0
  146.6154  131.2234  149.7313 H   0  0  0  0  0  0  0  0  0  0  0  0
  146.1631  132.1726  148.3269 H   0  0  0  0  0  0  0  0  0  0  0  0
  144.9496  131.2385  149.1839 H   0  0  0  0  0  0  0  0  0  0  0  0
  147.4585  133.4114  151.3613 H   0  0  0  0  0  0  0  0  0  0  0  0
  140.1430  135.0374  154.8133 H   0  0  0  0  0  0  0  0  0  0  0  0
  139.6816  136.2456  153.6341 H   0  0  0  0  0  0  0  0  0  0  0  0
  143.5938  137.9690  154.1872 H   0  0  0  0  0  0  0  0  0  0  0  0
  1  2  1  0  0  0  0
  1 17  1  0  0  0  0
  1 18  1  0  0  0  0
  1 19  1  0  0  0  0
  2  3  1  0  0  0  0
  2 20  1  0  0  0  0
  2 21  1  0  0  0  0
  3  4  1  0  0  0  0
  3 14  1  0  0  0  0
  3 22  1  0  0  0  0
  4  5  1  0  0  0  0
  4 23  1  0  0  0  0
  4 37  1  0  0  0  0
  5  6  1  0  0  0  0
  5  7  1  0  0  0  0
  5 24  1  0  0  0  0
  6 25  1  0  0  0  0
  6 26  1  0  0  0  0
  6 27  1  0  0  0  0
  7  8  1  0  0  0  0
  7 28  1  0  0  0  0
  7 29  1  0  0  0  0
  8 13  1  0  0  0  0
  8  9  1  0  0  0  0
  9 10  2  0  0  0  0
  9 30  1  0  0  0  0
 10 11  1  0  0  0  0
 10 12  1  0  0  0  0
 11 31  1  0  0  0  0
 11 32  1  0  0  0  0
 11 33  1  0  0  0  0
 12 13  2  0  0  0  0
 12 34  1  0  0  0  0
 14 15  1  0  0  0  0
 14 16  2  0  0  0  0
 15 35  1  0  0  0  0
 15 36  1  0  0  0  0
M  CHG  1   4   1
M  END
> <s_m_source_file>
AV-unprocessed.smi

> <i_m_source_file_index>
3162

> <i_lp_mmshare_version>
43012

> <i_f3d_flags>
0

> <s_epik_input>
W0NIM11bQ0gyXVtDQEBIXShDKD1PKVtOSDJdKVtOSF1bQ0BIXShbQ0gzXSlbQ0gyXW4xW2NIXWMoW0NIM10pW2NIXW4x

> <s_epik_cmdline>
J2VwaWtfcHl0aG9uJywgJy1waCcsICc3LjAnLCAnLXRuJywgJzgnLCAnLW1hJywgJzIwMCcsICctbWV0YWxfYmluZGluZycsICctaW1hZScsICc8aW5maWxlLm1hZT4nLCAnLW9tYWUnLCAnPG91dGZpbGUubWFlPic=

> <r_lp_tautomer_probability>
1

> <r_epik_Ionization_Penalty>
0.112112

> <r_epik_Ionization_Penalty_Charging>
0.112102

> <r_epik_Ionization_Penalty_Neutral>
9.73799e-06

> <r_epik_State_Penalty>
0.101811

> <r_epik_Charging_Adjusted_Penalty>
0.213914

> <i_epik_Tot_Q>
1

> <i_epik_Tot_abs_Q>
1

> <r_epik_Metal_State_Penalty>
0.101821

> <b_epik_Metal_Only>
0

> <s_lp_Force_Field>
OPLS_2005

> <r_lp_Energy>
4.43066

> <b_lp_Chiralities_Consistent>
1

> <s_lp_Variant>
AV-unprocessed.smi:3162-2

> <Gold.Version>
5.8.1

> <Gold.Id.Protein>
6NUR|6NUR_protein|mol2

> <Gold.PLP.Fitness>
42.0195

> <Gold.PLP.PLP>
-31.1829

> <Gold.PLP.part.hbond>
-2.1017

> <Gold.PLP.part.metal>
0.0000

> <Gold.PLP.part.buried>
-4.0185

> <Gold.PLP.part.nonpolar>
-25.1715

> <Gold.PLP.part.repulsive>
0.3201

> <Gold.PLP.ligand.clash>
0.0197

> <Gold.PLP.ligand.torsion>
0.5400

> <Gold.PLP.Chemscore.Hbond>
3.0000

> <Gold.PLP.Chemscore.CHOScore>
0.9032

> <Gold.PLP.Chemscore.Metal>
0.0000

> <Gold.Chemscore.Hbonds>
donor molecule, donor type, donor heavy atom, donor atom, acceptor molecule, acceptor atom, score
      L1  H     4    23       P1 10175  2.00
      L1  H    15    35       P1 11000  0.94
      L1  C     9    30       P1 10186  0.90

> <Gold.PLP.Chemscore.Internal.Correction>
0.2269

> <Gold.Rescore>
     Score         DG    S(hbond)    S(metal)    S(lipo)     H(rot)  DE(clash)    DE(int)     intcor
     11.48     -13.45       1.95        0.00      67.26       2.51       0.04       1.93       ----

> <Gold.Chemscore.Fitness>
11.4830

> <Gold.Chemscore.DG>
-13.4479

> <Gold.Chemscore.ZeroCoef>
-5.4800

> <Gold.Chemscore.Hbond>
1.9505

> <Gold.Chemscore.Metal>
0.0000

> <Gold.Chemscore.Lipo>
67.2572

> <Gold.Chemscore.Internal_Hbond>
0.0000

> <Gold.Chemscore.DEClash>
0.0372

> <Gold.Chemscore.DEInternal>
1.9277

> <Gold.Chemscore.Rot>
2.5062

> <Gold.Chemscore.Internal.Correction>
   9.000000E+99

> <Gold.Chemscore.Hbonds>
donor molecule, donor type, donor heavy atom, donor atom, acceptor molecule, acceptor atom, score
      L1  H     4    23       P1 10175  0.97
      L1  H    15    35       P1 11000  0.79

> <Gold.Chemscore.Hbond.Weighted>
-6.5147

> <Gold.Chemscore.Metal.Weighted>
-0.0000

> <Gold.Chemscore.Lipo.Weighted>
-7.8691

> <Gold.Chemscore.Internal_Hbond.Weighted>
0.0000

> <Gold.Chemscore.DEClash.Weighted>
0.0372

> <Gold.Chemscore.DEInternal.Weighted>
1.9277

> <Gold.Chemscore.Rot.Weighted>
6.4159

> <Gold.Chemscore.Internal.Correction.Weighted>
   9.000000E+99

> <Gold.Protein.RotatedTorsions>
[ 6907 6896 6895 6894 ] final  -49.47 input  -60.11 | X-H torsion
[ 7974 7965 7964 7962 ] final  -26.12 input  175.53 | X-H torsion
[ 8008 7997 7996 7995 ] final  -21.92 input   59.86 | X-H torsion
[ 10167 10162 10161 10158 ] final  -79.08 input  -65.29 | X-H torsion
[ 10718 10713 10712 10709 ] final   -1.92 input   66.30 | X-H torsion
[ 10763 10752 10751 10750 ] final -162.91 input  -60.55 | X-H torsion
[ 11005 11000 10999 10996 ] final -163.51 input  -57.11 | X-H torsion

> <Gold.Protein.ActiveResidues>
 VAL166  LYS551  ARG553  GLY616  TRP617  ASP618  TYR619  PRO620  LYS621  CYS622 
 ASP623  PHE694  ASN695  SER759  ASP760  ASP761  ALA762  ILE779  LEU786  VAL792 
 PHE793  MET794  SER795  GLU796  ALA797  LYS798  CYS799  TRP800  GLU811  SER814 

> <Gold.Protein.RotatedAtoms>
  150.8802  134.8192  159.7219 H   0  0  0  0  0  0  0  0  0  0  0  0  # atno 6907 bound_to 6896
  152.4773  134.4808  159.9674 H   0  0  0  0  0  0  0  0  0  0  0  0  # atno 6908 bound_to 6896
  151.4883  133.3492  159.2885 H   0  0  0  0  0  0  0  0  0  0  0  0  # atno 6909 bound_to 6896
  146.1446  140.4977  142.8637 H   0  0  0  0  0  0  0  0  0  0  0  0  # atno 7974 bound_to 7965
  154.4676  140.2022  156.0079 H   0  0  0  0  0  0  0  0  0  0  0  0  # atno 8008 bound_to 7997
  156.0954  140.3252  155.7841 H   0  0  0  0  0  0  0  0  0  0  0  0  # atno 8009 bound_to 7997
  155.4887  140.0544  157.2947 H   0  0  0  0  0  0  0  0  0  0  0  0  # atno 8010 bound_to 7997
  140.4625  143.2449  151.8328 H   0  0  0  0  0  0  0  0  0  0  0  0  # atno 10167 bound_to 10162
  156.7985  130.5385  149.5725 H   0  0  0  0  0  0  0  0  0  0  0  0  # atno 10718 bound_to 10713
  154.7171  135.3018  154.9106 H   0  0  0  0  0  0  0  0  0  0  0  0  # atno 10763 bound_to 10752
  153.9990  135.6709  153.4762 H   0  0  0  0  0  0  0  0  0  0  0  0  # atno 10764 bound_to 10752
  153.0802  135.5013  154.8404 H   0  0  0  0  0  0  0  0  0  0  0  0  # atno 10765 bound_to 10752
  140.5973  134.4983  157.5201 H   0  0  0  0  0  0  0  0  0  0  0  0  # atno 11005 bound_to 11000
  144.7832  140.5883  143.6591 LP  0  0  0  0  0  0  0  0  0  0  0  0  # atno 17320 bound_to 7965
  145.4966  139.1485  143.3680 LP  0  0  0  0  0  0  0  0  0  0  0  0  # atno 17321 bound_to 7965
  139.4808  144.4991  151.9084 LP  0  0  0  0  0  0  0  0  0  0  0  0  # atno 17342 bound_to 10162
  140.4076  144.2411  150.5890 LP  0  0  0  0  0  0  0  0  0  0  0  0  # atno 17343 bound_to 10162
  156.1115  130.6044  151.0055 LP  0  0  0  0  0  0  0  0  0  0  0  0  # atno 17370 bound_to 10713
  157.6565  131.0888  150.7935 LP  0  0  0  0  0  0  0  0  0  0  0  0  # atno 17371 bound_to 10713
  139.9248  134.8078  156.1103 LP  0  0  0  0  0  0  0  0  0  0  0  0  # atno 17394 bound_to 11000
  141.0895  133.6720  156.2510 LP  0  0  0  0  0  0  0  0  0  0  0  0  # atno 17395 bound_to 11000

$$$$
