#       Name:                AV-unprocessed.smi:265
#       Creating user name   scv26
#       Creation time:       Thu Mar 26 21:23:10 2020


#       File generated by GOLD software.
#

@<TRIPOS>MOLECULE
AV-unprocessed.smi:265
    64    68     1
SMALL
NO_CHARGES


@<TRIPOS>ATOM
      1 ****        -2.2927  -3.2198  -5.1927 C.3            1 S1                 0.0000
      2 ****        -2.8388  -3.5669  -3.7996 C.3            1 S1                 0.0000
      3 ****        -2.4238  -4.8721  -3.4053 O.3            1 S1                 0.0000
      4 ****        -2.2220  -4.9192  -1.9955 C.3            1 S1                 0.0000
      5 ****        -2.6913  -3.5678  -1.4647 C.3            1 S1                 0.0000
      6 ****        -2.4277  -2.6372  -2.6420 C.3            1 S1                 0.0000
      7 ****        -3.3114  -1.5353  -2.5581 O.3            1 S1                 0.0000
      8 ****        -0.9617  -2.1299  -2.7290 C.3            1 S1                 0.0000
      9 ****        -0.5195  -1.3887  -1.5586 N.pl3          1 S1                 0.0000
     10 ****         0.1600  -1.8919  -0.4723 C.2            1 S1                 0.0000
     11 ****         0.4475  -1.0215   0.4565 N.2            1 S1                 0.0000
     12 ****        -0.0547   0.1781  -0.0346 C.ar           1 S1                 0.0000
     13 ****        -0.0865   1.5142   0.4559 C.ar           1 S1                 0.0000
     14 ****         0.4646   1.8718   1.6438 N.3            1 S1                 0.0000
     15 ****        -0.0276   3.0923   2.2824 C.3            1 S1                 0.0000
     16 ****         0.3861   3.1370   3.7614 C.3            1 S1                 0.0000
     17 ****         1.9012   2.9457   3.9382 C.3            1 S1                 0.0000
     18 ****         2.6030   4.0698   3.4232 O.3            1 S1                 0.0000
     19 ****         4.0027   4.0561   3.7090 C.3            1 S1                 0.0000
     20 ****         4.6587   2.7061   3.3632 C.2            1 S1                 0.0000
     21 ****         5.8814   2.6236   3.2751 O.2            1 S1                 0.0000
     22 ****         3.8616   1.6369   3.2075 N.am           1 S1                 0.0000
     23 ****         2.4039   1.6960   3.1831 C.3            1 S1                 0.0000
     24 ****         1.9117   1.6814   1.7216 C.3            1 S1                 0.0000
     25 ****        -0.6965   2.4502  -0.3202 N.ar           1 S1                 0.0000
     26 ****        -1.2281   2.1093  -1.4977 C.ar           1 S1                 0.0000
     27 ****        -1.2645   0.9098  -2.0807 N.ar           1 S1                 0.0000
     28 ****        -0.6659  -0.0365  -1.3024 C.ar           1 S1                 0.0000
     29 ****         2.1171   2.8552   5.0046 H              1 S1                 0.0000
     30 ****         2.0243   0.8059   3.6862 H              1 S1                 0.0000
     31 ****        -2.5769  -2.2085  -5.4844 H              1 S1                 0.0000
     32 ****        -2.6895  -3.9043  -5.9425 H              1 S1                 0.0000
     33 ****        -1.2058  -3.2915  -5.2308 H              1 S1                 0.0000
     34 ****        -3.9290  -3.5996  -3.8539 H              1 S1                 0.0000
     35 ****        -2.7628  -5.7512  -1.5443 H              1 S1                 0.0000
     36 ****        -1.1588  -5.0608  -1.7993 H              1 S1                 0.0000
     37 ****        -3.7625  -3.6241  -1.2622 H              1 S1                 0.0000
     38 ****        -2.2052  -3.2788  -0.5340 H              1 S1                 0.0000
     39 ****        -3.1834  -0.9887  -3.3184 H              1 S1                 0.0000
     40 ****        -0.2783  -2.9674  -2.8736 H              1 S1                 0.0000
     41 ****        -0.8345  -1.4833  -3.5979 H              1 S1                 0.0000
     42 ****         0.4293  -2.9346  -0.3856 H              1 S1                 0.0000
     43 ****         0.3722   3.9608   1.7569 H              1 S1                 0.0000
     44 ****        -1.1149   3.1440   2.2106 H              1 S1                 0.0000
     45 ****         0.0704   4.0784   4.2118 H              1 S1                 0.0000
     46 ****        -0.1383   2.3469   4.3003 H              1 S1                 0.0000
     47 ****         4.4876   4.8553   3.1483 H              1 S1                 0.0000
     48 ****         4.1585   4.2636   4.7683 H              1 S1                 0.0000
     49 ****         4.2919   0.7434   3.0178 H              1 S1                 0.0000
     50 ****         2.2180   0.7493   1.2478 H              1 S1                 0.0000
     51 ****         2.3901   2.4840   1.1581 H              1 S1                 0.0000
     52 ****        -1.6907   2.9126  -2.0520 H              1 S1                 0.0000
     53 ****        -1.5680  -5.1009  -3.8693 LP             1 S1                 0.0000
     54 ****        -3.1286  -5.5340  -3.6604 LP             1 S1                 0.0000
     55 ****        -3.1180  -1.0104  -1.7291 LP             1 S1                 0.0000
     56 ****        -4.2562  -1.8620  -2.5330 LP             1 S1                 0.0000
     57 ****         0.9207  -1.1809   1.3230 LP             1 S1                 0.0000
     58 ****         0.0751   1.1785   2.2500 LP             1 S1                 0.0000
     59 ****         2.2080   4.8977   3.8215 LP             1 S1                 0.0000
     60 ****         2.4841   4.0880   2.4305 LP             1 S1                 0.0000
     61 ****         6.4494   3.4324   3.4279 LP             1 S1                 0.0000
     62 ****         6.3086   1.7478   3.0507 LP             1 S1                 0.0000
     63 ****        -0.7473   3.3988  -0.0077 LP             1 S1                 0.0000
     64 ****        -1.6774   0.7282  -2.9732 LP             1 S1                 0.0000
@<TRIPOS>BOND
    1    1    2 1     
    2    1   31 1     
    3    1   32 1     
    4    1   33 1     
    5    2    6 1     
    6    2    3 1     
    7    2   34 1     
    8    3    4 1     
    9    4    5 1     
   10    4   35 1     
   11    4   36 1     
   12    5    6 1     
   13    5   37 1     
   14    5   38 1     
   15    6    7 1     
   16    6    8 1     
   17    7   39 1     
   18    8    9 1     
   19    8   40 1     
   20    8   41 1     
   21    9   28 1     
   22    9   10 1     
   23   10   11 2     
   24   10   42 1     
   25   11   12 1     
   26   12   28 ar    
   27   12   13 ar    
   28   13   14 1     
   29   13   25 ar    
   30   14   24 1     
   31   14   15 1     
   32   15   16 1     
   33   15   43 1     
   34   15   44 1     
   35   16   17 1     
   36   16   45 1     
   37   16   46 1     
   38   17   29 1     
   39   17   23 1     
   40   17   18 1     
   41   18   19 1     
   42   19   20 1     
   43   19   47 1     
   44   19   48 1     
   45   20   21 2     
   46   20   22 am    
   47   22   23 1     
   48   22   49 1     
   49   23   30 1     
   50   23   24 1     
   51   24   50 1     
   52   24   51 1     
   53   25   26 ar    
   54   26   27 ar    
   55   26   52 1     
   56   27   28 ar    
   57    3   53 1     
   58    3   54 1     
   59    7   55 1     
   60    7   56 1     
   61   11   57 1     
   62   14   58 1     
   63   18   59 1     
   64   18   60 1     
   65   21   61 1     
   66   21   62 1     
   67   25   63 1     
   68   27   64 1     
@<TRIPOS>SUBSTRUCTURE
      1 S1             1
@<TRIPOS>SET
LONE_PAIRS      STATIC     ATOMS    <user>   **** ""
12 53 54 55 56 57 58 59 60 61 62 63 64
DONOR_HYDROGENS      STATIC     ATOMS    <user>   **** ""
2 39 49
ATOM$BLUE        STATIC     ATOMS    COLORGROUP SYSTEM
12 53 54 55 56 57 58 59 60 61 62 63 64
ATOM$RED        STATIC     ATOMS    COLORGROUP SYSTEM
2 39 49
