#       Name:                AV-unprocessed.smi:86
#       Creating user name   scv26
#       Creation time:       Thu Mar 26 17:21:39 2020


#       File generated by GOLD software.
#

@<TRIPOS>MOLECULE
AV-unprocessed.smi:86
    60    64     1
SMALL
NO_CHARGES


@<TRIPOS>ATOM
      1 ****        -3.1753   0.6385   4.2182 O.3            1 S1                 0.0000
      2 ****        -2.9174  -0.6067   3.6011 C.3            1 S1                 0.0000
      3 ****        -1.7997  -1.3759   4.3269 C.3            1 S1                 0.0000
      4 ****        -0.4838  -0.5696   4.3226 C.3            1 S1                 0.0000
      5 ****        -0.0439  -0.1512   2.9998 N.pl3          1 S1                 0.0000
      6 ****        -0.2562   1.0762   2.4157 C.2            1 S1                 0.0000
      7 ****         0.2386   1.2135   1.2170 N.2            1 S1                 0.0000
      8 ****         0.8551  -0.0054   0.9527 C.ar           1 S1                 0.0000
      9 ****         1.5867  -0.5423  -0.1497 C.ar           1 S1                 0.0000
     10 ****         1.8577   0.1271  -1.3004 N.pl3          1 S1                 0.0000
     11 ****         2.3189  -0.5511  -2.5093 C.3            1 S1                 0.0000
     12 ****         1.8882   0.3471  -3.6791 C.3            1 S1                 0.0000
     13 ****         0.5322  -0.1083  -4.2629 C.3            1 S1                 0.0000
     14 ****        -0.1078   0.9672  -5.1505 C.3            1 S1                 0.0000
     15 ****        -0.3098   2.2652  -4.3543 C.3            1 S1                 0.0000
     16 ****        -0.9029   3.2414  -5.1842 O.3            1 S1                 0.0000
     17 ****         1.0326   2.7937  -3.8226 C.3            1 S1                 0.0000
     18 ****         1.8160   1.7357  -3.0213 C.3            1 S1                 0.0000
     19 ****         1.2940   1.4301  -1.6161 C.3            1 S1                 0.0000
     20 ****         2.0559  -1.8116  -0.0221 N.ar           1 S1                 0.0000
     21 ****         1.8276  -2.5135   1.0906 C.ar           1 S1                 0.0000
     22 ****         1.1632  -2.1449   2.1859 N.ar           1 S1                 0.0000
     23 ****         0.6883  -0.8725   2.0723 C.ar           1 S1                 0.0000
     24 ****        -2.2085  -1.9810   5.6771 C.3            1 S1                 0.0000
     25 ****        -2.4032  -3.2870   5.0950 O.3            1 S1                 0.0000
     26 ****        -1.6860  -2.8523   3.9205 C.3            1 S1                 0.0000
     27 ****        -3.8975   1.0513   3.7695 H              1 S1                 0.0000
     28 ****        -3.8448  -1.1805   3.6125 H              1 S1                 0.0000
     29 ****        -2.6791  -0.4448   2.5500 H              1 S1                 0.0000
     30 ****        -0.5798   0.3208   4.9452 H              1 S1                 0.0000
     31 ****         0.3219  -1.1511   4.7723 H              1 S1                 0.0000
     32 ****        -0.8005   1.8697   2.9071 H              1 S1                 0.0000
     33 ****         3.4056  -0.6310  -2.4678 H              1 S1                 0.0000
     34 ****         1.9108  -1.5579  -2.6084 H              1 S1                 0.0000
     35 ****         2.6353   0.3391  -4.4738 H              1 S1                 0.0000
     36 ****         0.6662  -1.0284  -4.8324 H              1 S1                 0.0000
     37 ****        -0.1596  -0.3514  -3.4550 H              1 S1                 0.0000
     38 ****         0.5249   1.1514  -6.0200 H              1 S1                 0.0000
     39 ****        -1.0648   0.6074  -5.5300 H              1 S1                 0.0000
     40 ****        -0.9893   2.0806  -3.5216 H              1 S1                 0.0000
     41 ****        -0.3238   3.4092  -5.9120 H              1 S1                 0.0000
     42 ****         1.6476   3.1090  -4.6669 H              1 S1                 0.0000
     43 ****         0.8767   3.6837  -3.2117 H              1 S1                 0.0000
     44 ****         2.8382   2.1004  -2.9047 H              1 S1                 0.0000
     45 ****         0.2053   1.3694  -1.5989 H              1 S1                 0.0000
     46 ****         1.6129   2.1912  -0.9035 H              1 S1                 0.0000
     47 ****         2.2370  -3.5128   1.1058 H              1 S1                 0.0000
     48 ****        -1.4104  -1.9852   6.4216 H              1 S1                 0.0000
     49 ****        -3.1265  -1.5653   6.0939 H              1 S1                 0.0000
     50 ****        -2.2028  -3.1006   2.9928 H              1 S1                 0.0000
     51 ****        -0.6663  -3.2389   3.9130 H              1 S1                 0.0000
     52 ****        -2.3637   1.2197   4.1575 LP             1 S1                 0.0000
     53 ****        -3.4121   0.4962   5.1793 LP             1 S1                 0.0000
     54 ****         0.1866   2.0151   0.6214 LP             1 S1                 0.0000
     55 ****        -1.0448   4.0842  -4.6650 LP             1 S1                 0.0000
     56 ****        -1.7821   2.9067  -5.5232 LP             1 S1                 0.0000
     57 ****         2.5774  -2.2239  -0.7691 LP             1 S1                 0.0000
     58 ****         1.0304  -2.7272   2.9879 LP             1 S1                 0.0000
     59 ****        -3.3603  -3.5233   4.9276 LP             1 S1                 0.0000
     60 ****        -1.9590  -4.0300   5.5957 LP             1 S1                 0.0000
@<TRIPOS>BOND
    1    1    2 1     
    2    1   27 1     
    3    2    3 1     
    4    2   28 1     
    5    2   29 1     
    6    3   26 1     
    7    3    4 1     
    8    3   24 1     
    9    4    5 1     
   10    4   30 1     
   11    4   31 1     
   12    5   23 1     
   13    5    6 1     
   14    6    7 2     
   15    6   32 1     
   16    7    8 1     
   17    8   23 ar    
   18    8    9 ar    
   19    9   10 1     
   20    9   20 ar    
   21   10   19 1     
   22   10   11 1     
   23   11   12 1     
   24   11   33 1     
   25   11   34 1     
   26   12   18 1     
   27   12   13 1     
   28   12   35 1     
   29   13   14 1     
   30   13   36 1     
   31   13   37 1     
   32   14   15 1     
   33   14   38 1     
   34   14   39 1     
   35   15   16 1     
   36   15   17 1     
   37   15   40 1     
   38   16   41 1     
   39   17   18 1     
   40   17   42 1     
   41   17   43 1     
   42   18   19 1     
   43   18   44 1     
   44   19   45 1     
   45   19   46 1     
   46   20   21 ar    
   47   21   22 ar    
   48   21   47 1     
   49   22   23 ar    
   50   24   25 1     
   51   24   48 1     
   52   24   49 1     
   53   25   26 1     
   54   26   50 1     
   55   26   51 1     
   56    1   52 1     
   57    1   53 1     
   58    7   54 1     
   59   16   55 1     
   60   16   56 1     
   61   20   57 1     
   62   22   58 1     
   63   25   59 1     
   64   25   60 1     
@<TRIPOS>SUBSTRUCTURE
      1 S1             1
@<TRIPOS>SET
LONE_PAIRS      STATIC     ATOMS    <user>   **** ""
9 52 53 54 55 56 57 58 59 60
DONOR_HYDROGENS      STATIC     ATOMS    <user>   **** ""
2 27 41
ATOM$BLUE        STATIC     ATOMS    COLORGROUP SYSTEM
9 52 53 54 55 56 57 58 59 60
ATOM$RED        STATIC     ATOMS    COLORGROUP SYSTEM
2 27 41
