AV-unprocessed.smi:170|AV-procd|sdf|1407|dock5
  -GOLD-   2262019163D 1   1.00000     0.00000
 Structure written by MMmdl.
 57 61  0  0  0  0  0  0  0  0  1 V2000
  150.1347  136.3226  154.3943 O   0  0  0  0  0  0  0  0  0  0  0  0
  149.7519  135.5478  155.5154 C   0  0  1  0  0  0  0  0  0  0  0  0
  149.0114  136.4163  156.5510 C   0  0  0  0  0  0  0  0  0  0  0  0
  149.9239  137.1665  157.3947 N   0  0  0  0  0  0  0  0  0  0  0  0
  150.0092  137.1198  158.7675 C   0  0  0  0  0  0  0  0  0  0  0  0
  150.9168  137.8959  159.2939 N   0  0  0  0  0  0  0  0  0  0  0  0
  151.4985  138.5281  158.2010 C   0  0  0  0  0  0  0  0  0  0  0  0
  152.5345  139.4921  158.0399 C   0  0  0  0  0  0  0  0  0  0  0  0
  153.2377  140.0523  159.0499 N   0  0  0  0  0  0  0  0  0  0  0  0
  153.7950  139.0240  159.9206 C   0  0  0  0  0  0  0  0  0  0  0  0
  154.7431  139.6552  160.9481 C   0  0  0  0  0  0  0  0  0  0  0  0
  154.0352  140.6461  161.6806 O   0  0  0  0  0  0  0  0  0  0  0  0
  153.5701  141.6978  160.8417 C   0  0  0  0  0  0  0  0  0  0  0  0
  152.5893  141.1511  159.7775 C   0  0  1  0  0  0  0  0  0  0  0  0
  152.0919  142.2736  158.8295 C   0  0  0  0  0  0  0  0  0  0  0  0
  152.4059  143.6868  159.3157 C   0  0  0  0  0  0  0  0  0  0  0  0
  151.8175  144.1868  160.6442 C   0  0  0  0  0  0  0  0  0  0  0  0
  151.7046  145.5784  160.0160 C   0  0  0  0  0  0  0  0  0  0  0  0
  151.7209  144.8891  158.6488 C   0  0  0  0  0  0  0  0  0  0  0  0
  152.8539  139.8786  156.7805 N   0  0  0  0  0  0  0  0  0  0  0  0
  152.1934  139.3675  155.7369 C   0  0  0  0  0  0  0  0  0  0  0  0
  151.2037  138.4715  155.7317 N   0  0  0  0  0  0  0  0  0  0  0  0
  150.8879  138.0752  156.9981 C   0  0  0  0  0  0  0  0  0  0  0  0
  148.9283  134.3252  155.0654 C   0  0  2  0  0  0  0  0  0  0  0  0
  149.6670  133.2841  154.2071 C   0  0  0  0  0  0  0  0  0  0  0  0
  148.7222  133.0345  153.0412 C   0  0  0  0  0  0  0  0  0  0  0  0
  147.3947  133.6033  153.5298 C   0  0  0  0  0  0  0  0  0  0  0  0
  147.7924  134.7208  154.3055 O   0  0  0  0  0  0  0  0  0  0  0  0
  149.6220  136.0432  153.6512 H   0  0  0  0  0  0  0  0  0  0  0  0
  150.6736  135.1802  155.9682 H   0  0  0  0  0  0  0  0  0  0  0  0
  148.3384  137.1179  156.0562 H   0  0  0  0  0  0  0  0  0  0  0  0
  148.3913  135.7899  157.1936 H   0  0  0  0  0  0  0  0  0  0  0  0
  149.3712  136.4894  159.3700 H   0  0  0  0  0  0  0  0  0  0  0  0
  152.9871  138.5007  160.4345 H   0  0  0  0  0  0  0  0  0  0  0  0
  154.3343  138.2828  159.3286 H   0  0  0  0  0  0  0  0  0  0  0  0
  155.1103  138.8955  161.6382 H   0  0  0  0  0  0  0  0  0  0  0  0
  155.6147  140.0946  160.4603 H   0  0  0  0  0  0  0  0  0  0  0  0
  153.0794  142.4314  161.4802 H   0  0  0  0  0  0  0  0  0  0  0  0
  154.4173  142.2004  160.3717 H   0  0  0  0  0  0  0  0  0  0  0  0
  151.7301  140.7420  160.3089 H   0  0  0  0  0  0  0  0  0  0  0  0
  152.5204  142.1236  157.8378 H   0  0  0  0  0  0  0  0  0  0  0  0
  151.0131  142.1948  158.6949 H   0  0  0  0  0  0  0  0  0  0  0  0
  153.4821  143.8707  159.3173 H   0  0  0  0  0  0  0  0  0  0  0  0
  150.8446  143.7456  160.8691 H   0  0  0  0  0  0  0  0  0  0  0  0
  152.4949  144.1213  161.4961 H   0  0  0  0  0  0  0  0  0  0  0  0
  150.7833  146.1129  160.2487 H   0  0  0  0  0  0  0  0  0  0  0  0
  152.5884  146.1946  160.1902 H   0  0  0  0  0  0  0  0  0  0  0  0
  152.3201  145.3925  157.8894 H   0  0  0  0  0  0  0  0  0  0  0  0
  150.7185  144.6599  158.2827 H   0  0  0  0  0  0  0  0  0  0  0  0
  152.5009  139.7295  154.7669 H   0  0  0  0  0  0  0  0  0  0  0  0
  148.5458  133.8194  155.9542 H   0  0  0  0  0  0  0  0  0  0  0  0
  150.6401  133.6260  153.8531 H   0  0  0  0  0  0  0  0  0  0  0  0
  149.8312  132.3717  154.7813 H   0  0  0  0  0  0  0  0  0  0  0  0
  149.0608  133.5937  152.1681 H   0  0  0  0  0  0  0  0  0  0  0  0
  148.6545  131.9825  152.7633 H   0  0  0  0  0  0  0  0  0  0  0  0
  146.7334  133.8933  152.7133 H   0  0  0  0  0  0  0  0  0  0  0  0
  146.8702  132.8856  154.1626 H   0  0  0  0  0  0  0  0  0  0  0  0
  1  2  1  0  0  0  0
  1 29  1  0  0  0  0
  2  3  1  0  0  0  0
  2 24  1  0  0  0  0
  2 30  1  0  0  0  0
  3  4  1  0  0  0  0
  3 31  1  0  0  0  0
  3 32  1  0  0  0  0
  4 23  1  0  0  0  0
  4  5  1  0  0  0  0
  5  6  2  0  0  0  0
  5 33  1  0  0  0  0
  6  7  1  0  0  0  0
  7 23  2  0  0  0  0
  7  8  1  0  0  0  0
  8  9  1  0  0  0  0
  8 20  2  0  0  0  0
  9 14  1  0  0  0  0
  9 10  1  0  0  0  0
 10 11  1  0  0  0  0
 10 34  1  0  0  0  0
 10 35  1  0  0  0  0
 11 12  1  0  0  0  0
 11 36  1  0  0  0  0
 11 37  1  0  0  0  0
 12 13  1  0  0  0  0
 13 14  1  0  0  0  0
 13 38  1  0  0  0  0
 13 39  1  0  0  0  0
 14 15  1  0  0  0  0
 14 40  1  0  0  0  0
 15 16  1  0  0  0  0
 15 41  1  0  0  0  0
 15 42  1  0  0  0  0
 16 19  1  0  0  0  0
 16 17  1  0  0  0  0
 16 43  1  0  0  0  0
 17 18  1  0  0  0  0
 17 44  1  0  0  0  0
 17 45  1  0  0  0  0
 18 19  1  0  0  0  0
 18 46  1  0  0  0  0
 18 47  1  0  0  0  0
 19 48  1  0  0  0  0
 19 49  1  0  0  0  0
 20 21  1  0  0  0  0
 21 22  2  0  0  0  0
 21 50  1  0  0  0  0
 22 23  1  0  0  0  0
 24 28  1  0  0  0  0
 24 25  1  0  0  0  0
 24 51  1  0  0  0  0
 25 26  1  0  0  0  0
 25 52  1  0  0  0  0
 25 53  1  0  0  0  0
 26 27  1  0  0  0  0
 26 54  1  0  0  0  0
 26 55  1  0  0  0  0
 27 28  1  0  0  0  0
 27 56  1  0  0  0  0
 27 57  1  0  0  0  0
M  END
> <s_m_source_file>
AV-unprocessed.smi

> <i_m_source_file_index>
170

> <i_lp_mmshare_version>
43012

> <i_f3d_flags>
0

> <s_epik_input>
TzFbQ0gyXVtDSDJdW0NIMl1bQ0BIXTFbQ0BIXShbT0hdKVtDSDJdbihbY0hdbjIpYyhjMjMpbltjSF1uYzNONFtDSDJdW0NIMl1PW0NIMl1bQ0BIXTRbQ0gyXVtDSF01W0NIMl1bQ0gyXVtDSDJdNQ==

> <s_epik_cmdline>
J2VwaWtfcHl0aG9uJywgJy1waCcsICc3LjAnLCAnLXRuJywgJzgnLCAnLW1hJywgJzIwMCcsICctbWV0YWxfYmluZGluZycsICctaW1hZScsICc8aW5maWxlLm1hZT4nLCAnLW9tYWUnLCAnPG91dGZpbGUubWFlPic=

> <r_lp_tautomer_probability>
1

> <r_epik_Ionization_Penalty>
4.98275e-05

> <r_epik_Ionization_Penalty_Charging>
0

> <r_epik_Ionization_Penalty_Neutral>
4.98275e-05

> <r_epik_State_Penalty>
-0

> <r_epik_Charging_Adjusted_Penalty>
0

> <i_epik_Tot_Q>
0

> <i_epik_Tot_abs_Q>
0

> <r_epik_Metal_State_Penalty>
-0

> <b_epik_Metal_Only>
0

> <s_lp_Force_Field>
OPLS_2005

> <r_lp_Energy>
52.7393

> <b_lp_Chiralities_Consistent>
1

> <s_lp_Variant>
AV-unprocessed.smi:170-2

> <Gold.Version>
5.8.1

> <Gold.Id.Protein>
6NUR|6NUR_protein|mol2

> <Gold.PLP.Fitness>
54.0107

> <Gold.PLP.PLP>
-50.5129

> <Gold.PLP.part.hbond>
-2.8119

> <Gold.PLP.part.metal>
0.0000

> <Gold.PLP.part.buried>
-6.1582

> <Gold.PLP.part.nonpolar>
-42.0222

> <Gold.PLP.part.repulsive>
0.1112

> <Gold.PLP.ligand.clash>
0.0000

> <Gold.PLP.ligand.torsion>
1.3284

> <Gold.PLP.Chemscore.Hbond>
1.9440

> <Gold.PLP.Chemscore.CHOScore>
0.0000

> <Gold.PLP.Chemscore.Metal>
0.0000

> <Gold.Chemscore.Hbonds>
donor molecule, donor type, donor heavy atom, donor atom, acceptor molecule, acceptor atom, score
      L1  H     1    29       P1  7948  1.00
      P1  H  7997  8008       L1    20  0.91

> <Gold.PLP.Chemscore.Internal.Correction>
0.3227

> <Gold.Rescore>
     Score         DG    S(hbond)    S(metal)    S(lipo)     H(rot)  DE(clash)    DE(int)     intcor
     15.60     -18.30       1.75        0.00     116.82       2.61       0.05       2.65       ----

> <Gold.Chemscore.Fitness>
15.6010

> <Gold.Chemscore.DG>
-18.2968

> <Gold.Chemscore.ZeroCoef>
-5.4800

> <Gold.Chemscore.Hbond>
1.7490

> <Gold.Chemscore.Metal>
0.0000

> <Gold.Chemscore.Lipo>
116.8212

> <Gold.Chemscore.Internal_Hbond>
0.0000

> <Gold.Chemscore.DEClash>
0.0460

> <Gold.Chemscore.DEInternal>
2.6499

> <Gold.Chemscore.Rot>
2.6144

> <Gold.Chemscore.Internal.Correction>
   9.000000E+99

> <Gold.Chemscore.Hbonds>
donor molecule, donor type, donor heavy atom, donor atom, acceptor molecule, acceptor atom, score
      L1  H     1    29       P1  7948  0.34
      P1  H  7997  8008       L1    20  0.40

> <Gold.Chemscore.Hbond.Weighted>
-5.8417

> <Gold.Chemscore.Metal.Weighted>
-0.0000

> <Gold.Chemscore.Lipo.Weighted>
-13.6681

> <Gold.Chemscore.Internal_Hbond.Weighted>
0.0000

> <Gold.Chemscore.DEClash.Weighted>
0.0460

> <Gold.Chemscore.DEInternal.Weighted>
2.6499

> <Gold.Chemscore.Rot.Weighted>
6.6929

> <Gold.Chemscore.Internal.Correction.Weighted>
   9.000000E+99

> <Gold.Protein.RotatedTorsions>
[ 6907 6896 6895 6894 ] final   39.53 input  -60.11 | X-H torsion
[ 7974 7965 7964 7962 ] final   83.16 input  175.53 | X-H torsion
[ 8008 7997 7996 7995 ] final  -74.17 input   59.86 | X-H torsion
[ 10167 10162 10161 10158 ] final  129.05 input  -65.29 | X-H torsion
[ 10718 10713 10712 10709 ] final  173.97 input   66.30 | X-H torsion
[ 10763 10752 10751 10750 ] final -127.44 input  -60.55 | X-H torsion
[ 11005 11000 10999 10996 ] final -142.32 input  -57.11 | X-H torsion

> <Gold.Protein.ActiveResidues>
 VAL166  LYS551  ARG553  GLY616  TRP617  ASP618  TYR619  PRO620  LYS621  CYS622 
 ASP623  PHE694  ASN695  SER759  ASP760  ASP761  ALA762  ILE779  LEU786  VAL792 
 PHE793  MET794  SER795  GLU796  ALA797  LYS798  CYS799  TRP800  GLU811  SER814 

> <Gold.Protein.RotatedAtoms>
  152.1707  134.8836  160.0534 H   0  0  0  0  0  0  0  0  0  0  0  0  # atno 6907 bound_to 6896
  151.9797  133.3748  159.4111 H   0  0  0  0  0  0  0  0  0  0  0  0  # atno 6908 bound_to 6896
  150.6901  134.3975  159.5148 H   0  0  0  0  0  0  0  0  0  0  0  0  # atno 6909 bound_to 6896
  145.6155  139.2376  143.2168 H   0  0  0  0  0  0  0  0  0  0  0  0  # atno 7974 bound_to 7965
  154.5308  140.0766  156.8341 H   0  0  0  0  0  0  0  0  0  0  0  0  # atno 8008 bound_to 7997
  155.3379  140.3405  155.4221 H   0  0  0  0  0  0  0  0  0  0  0  0  # atno 8009 bound_to 7997
  156.1779  140.1642  156.8316 H   0  0  0  0  0  0  0  0  0  0  0  0  # atno 8010 bound_to 7997
  139.5497  144.6803  151.4363 H   0  0  0  0  0  0  0  0  0  0  0  0  # atno 10167 bound_to 10162
  156.9565  131.0047  151.2937 H   0  0  0  0  0  0  0  0  0  0  0  0  # atno 10718 bound_to 10713
  154.8752  135.3962  154.3593 H   0  0  0  0  0  0  0  0  0  0  0  0  # atno 10763 bound_to 10752
  153.4368  135.7026  153.6200 H   0  0  0  0  0  0  0  0  0  0  0  0  # atno 10764 bound_to 10752
  153.4798  135.3772  155.2405 H   0  0  0  0  0  0  0  0  0  0  0  0  # atno 10765 bound_to 10752
  140.8236  134.2601  157.4889 H   0  0  0  0  0  0  0  0  0  0  0  0  # atno 11005 bound_to 11000
  146.1471  140.6977  142.9339 LP  0  0  0  0  0  0  0  0  0  0  0  0  # atno 17320 bound_to 7965
  144.7252  140.4502  143.6978 LP  0  0  0  0  0  0  0  0  0  0  0  0  # atno 17321 bound_to 7965
  140.6755  143.8198  150.7053 LP  0  0  0  0  0  0  0  0  0  0  0  0  # atno 17342 bound_to 10162
  140.1636  143.4255  152.2050 LP  0  0  0  0  0  0  0  0  0  0  0  0  # atno 17343 bound_to 10162
  157.5687  130.8295  149.8362 LP  0  0  0  0  0  0  0  0  0  0  0  0  # atno 17370 bound_to 10713
  156.0340  130.3756  150.1610 LP  0  0  0  0  0  0  0  0  0  0  0  0  # atno 17371 bound_to 10713
  139.8707  134.9549  156.4189 LP  0  0  0  0  0  0  0  0  0  0  0  0  # atno 17394 bound_to 11000
  140.9072  133.7737  155.9749 LP  0  0  0  0  0  0  0  0  0  0  0  0  # atno 17395 bound_to 11000

$$$$
