AV-unprocessed.smi:406|AV-procd|sdf|2500|dock2
  -GOLD-   2262022443D 1   1.00000     0.00000
 Structure written by MMmdl.
 34 35  0  0  0  0  0  0  0  0  2 V2000
  151.5105  144.9521  160.3718 C   0  0  0  0  0  0  0  0  0  0  0  0
  152.1408  144.3896  159.0934 C   0  0  0  0  0  0  0  0  0  0  0  0
  152.2960  142.8614  159.1395 C   0  0  0  0  0  0  0  0  0  0  0  0
  151.2984  142.1947  158.3126 N   0  0  0  0  0  0  0  0  0  0  0  0
  151.4037  140.9517  157.8143 C   0  0  0  0  0  0  0  0  0  0  0  0
  152.3910  140.2362  157.9835 O   0  0  0  0  0  0  0  0  0  0  0  0
  150.2178  140.4372  156.9926 C   0  0  0  0  0  0  0  0  0  0  0  0
  149.7775  139.0939  157.4984 C   0  0  0  0  0  0  0  0  0  0  0  0
  150.1009  137.8671  156.9788 C   0  0  0  0  0  0  0  0  0  0  0  0
  149.4225  136.5712  157.9217 S   0  0  0  0  0  0  0  0  0  0  0  0
  148.7148  137.7551  159.0217 C   0  0  0  0  0  0  0  0  0  0  0  0
  147.9969  137.4489  160.1174 N   0  5  0  0  0  0  0  0  0  0  0  0
  147.5241  136.1985  160.3807 C   0  0  0  0  0  0  0  0  0  0  0  0
  147.6620  135.2209  159.6473 O   0  0  0  0  0  0  0  0  0  0  0  0
  146.7429  136.0621  161.6581 C   0  0  0  0  0  0  0  0  0  0  0  0
  147.4424  136.3849  162.9641 C   0  0  0  0  0  0  0  0  0  0  0  0
  147.1422  134.9520  162.6114 C   0  0  0  0  0  0  0  0  0  0  0  0
  148.9612  139.0103  158.6296 N   0  0  0  0  0  0  0  0  0  0  0  0
  151.4107  146.0360  160.3115 H   0  0  0  0  0  0  0  0  0  0  0  0
  152.1214  144.7218  161.2451 H   0  0  0  0  0  0  0  0  0  0  0  0
  150.5171  144.5346  160.5372 H   0  0  0  0  0  0  0  0  0  0  0  0
  151.5270  144.6703  158.2365 H   0  0  0  0  0  0  0  0  0  0  0  0
  153.1147  144.8567  158.9414 H   0  0  0  0  0  0  0  0  0  0  0  0
  153.2993  142.5668  158.8266 H   0  0  0  0  0  0  0  0  0  0  0  0
  152.1733  142.5061  160.1632 H   0  0  0  0  0  0  0  0  0  0  0  0
  150.4467  142.7052  158.1249 H   0  0  0  0  0  0  0  0  0  0  0  0
  149.4048  141.1619  157.0503 H   0  0  0  0  0  0  0  0  0  0  0  0
  150.5028  140.3752  155.9417 H   0  0  0  0  0  0  0  0  0  0  0  0
  150.7071  137.6473  156.1130 H   0  0  0  0  0  0  0  0  0  0  0  0
  145.6741  136.2557  161.5856 H   0  0  0  0  0  0  0  0  0  0  0  0
  148.4827  136.7023  162.9230 H   0  0  0  0  0  0  0  0  0  0  0  0
  146.8427  136.8666  163.7335 H   0  0  0  0  0  0  0  0  0  0  0  0
  146.3397  134.4513  163.1488 H   0  0  0  0  0  0  0  0  0  0  0  0
  147.9886  134.3180  162.3530 H   0  0  0  0  0  0  0  0  0  0  0  0
  1  2  1  0  0  0  0
  1 19  1  0  0  0  0
  1 20  1  0  0  0  0
  1 21  1  0  0  0  0
  2  3  1  0  0  0  0
  2 22  1  0  0  0  0
  2 23  1  0  0  0  0
  3  4  1  0  0  0  0
  3 24  1  0  0  0  0
  3 25  1  0  0  0  0
  4  5  1  0  0  0  0
  4 26  1  0  0  0  0
  5  6  2  0  0  0  0
  5  7  1  0  0  0  0
  7  8  1  0  0  0  0
  7 27  1  0  0  0  0
  7 28  1  0  0  0  0
  8 18  1  0  0  0  0
  8  9  2  0  0  0  0
  9 10  1  0  0  0  0
  9 29  1  0  0  0  0
 10 11  1  0  0  0  0
 11 12  1  0  0  0  0
 11 18  2  0  0  0  0
 12 13  1  0  0  0  0
 13 14  2  0  0  0  0
 13 15  1  0  0  0  0
 15 17  1  0  0  0  0
 15 16  1  0  0  0  0
 15 30  1  0  0  0  0
 16 17  1  0  0  0  0
 16 31  1  0  0  0  0
 16 32  1  0  0  0  0
 17 33  1  0  0  0  0
 17 34  1  0  0  0  0
M  CHG  1  12  -1
M  END
> <s_m_source_file>
AV-unprocessed.smi

> <i_m_source_file_index>
406

> <i_lp_mmshare_version>
43012

> <i_f3d_flags>
0

> <s_epik_input>
W0NIM11bQ0gyXVtDSDJdW05IXUMoPU8pW0NIMl1jMVtjSF1zYyhuMSlbTkhdQyg9TylbQ0hdMltDSDJdW0NIMl0y

> <s_epik_cmdline>
J2VwaWtfcHl0aG9uJywgJy1waCcsICc3LjAnLCAnLXRuJywgJzgnLCAnLW1hJywgJzIwMCcsICctbWV0YWxfYmluZGluZycsICctaW1hZScsICc8aW5maWxlLm1hZT4nLCAnLW9tYWUnLCAnPG91dGZpbGUubWFlPic=

> <r_lp_tautomer_probability>
1

> <r_epik_Ionization_Penalty>
5.51776

> <r_epik_Ionization_Penalty_Charging>
5.00105

> <r_epik_Ionization_Penalty_Neutral>
0.516708

> <r_epik_State_Penalty>
5.00092

> <r_epik_Charging_Adjusted_Penalty>
10.002

> <i_epik_Tot_Q>
-1

> <i_epik_Tot_abs_Q>
1

> <r_epik_Metal_State_Penalty>
1.12078

> <b_epik_Metal_Only>
1

> <s_lp_Force_Field>
OPLS_2005

> <r_lp_Energy>
6.22345

> <b_lp_Chiralities_Consistent>
1

> <s_lp_Variant>
AV-unprocessed.smi:406-2

> <Gold.Version>
5.8.1

> <Gold.Id.Protein>
6NUR|6NUR_protein|mol2

> <Gold.PLP.Fitness>
43.3995

> <Gold.PLP.PLP>
-36.0272

> <Gold.PLP.part.hbond>
-3.5090

> <Gold.PLP.part.metal>
0.0000

> <Gold.PLP.part.buried>
-2.8464

> <Gold.PLP.part.nonpolar>
-30.2673

> <Gold.PLP.part.repulsive>
0.0629

> <Gold.PLP.ligand.clash>
0.0000

> <Gold.PLP.ligand.torsion>
0.9413

> <Gold.PLP.Chemscore.Hbond>
3.0301

> <Gold.PLP.Chemscore.CHOScore>
0.0000

> <Gold.PLP.Chemscore.Metal>
0.0000

> <Gold.Chemscore.Hbonds>
donor molecule, donor type, donor heavy atom, donor atom, acceptor molecule, acceptor atom, score
      P1  H  6931  6943       L1    12  0.62
      P1  H  6934  6947       L1    12  1.34
      P1  H  7997  8010       L1     6  0.14

> <Gold.PLP.Chemscore.Internal.Correction>
0.1647

> <Gold.Rescore>
     Score         DG    S(hbond)    S(metal)    S(lipo)     H(rot)  DE(clash)    DE(int)     intcor
     13.74     -16.01       1.78        0.00      79.72       1.85       0.06       2.21       ----

> <Gold.Chemscore.Fitness>
13.7444

> <Gold.Chemscore.DG>
-16.0095

> <Gold.Chemscore.ZeroCoef>
-5.4800

> <Gold.Chemscore.Hbond>
1.7764

> <Gold.Chemscore.Metal>
0.0000

> <Gold.Chemscore.Lipo>
79.7150

> <Gold.Chemscore.Internal_Hbond>
0.0000

> <Gold.Chemscore.DEClash>
0.0586

> <Gold.Chemscore.DEInternal>
2.2065

> <Gold.Chemscore.Rot>
1.8478

> <Gold.Chemscore.Internal.Correction>
   9.000000E+99

> <Gold.Chemscore.Hbonds>
donor molecule, donor type, donor heavy atom, donor atom, acceptor molecule, acceptor atom, score
      P1  H  6931  6943       L1    12  0.16
      P1  H  6934  6947       L1    12  0.52
      P1  H  7997  8010       L1     6  0.16

> <Gold.Chemscore.Hbond.Weighted>
-5.9333

> <Gold.Chemscore.Metal.Weighted>
-0.0000

> <Gold.Chemscore.Lipo.Weighted>
-9.3267

> <Gold.Chemscore.Internal_Hbond.Weighted>
0.0000

> <Gold.Chemscore.DEClash.Weighted>
0.0586

> <Gold.Chemscore.DEInternal.Weighted>
2.2065

> <Gold.Chemscore.Rot.Weighted>
4.7305

> <Gold.Chemscore.Internal.Correction.Weighted>
   9.000000E+99

> <Gold.Protein.RotatedTorsions>
[ 6907 6896 6895 6894 ] final  -48.21 input  -60.11 | X-H torsion
[ 7974 7965 7964 7962 ] final  -26.22 input  175.53 | X-H torsion
[ 8008 7997 7996 7995 ] final   43.20 input   59.86 | X-H torsion
[ 10167 10162 10161 10158 ] final  120.38 input  -65.29 | X-H torsion
[ 10718 10713 10712 10709 ] final  -24.22 input   66.30 | X-H torsion
[ 10763 10752 10751 10750 ] final   -5.68 input  -60.55 | X-H torsion
[ 11005 11000 10999 10996 ] final  -33.89 input  -57.11 | X-H torsion

> <Gold.Protein.ActiveResidues>
 VAL166  LYS551  ARG553  GLY616  TRP617  ASP618  TYR619  PRO620  LYS621  CYS622 
 ASP623  PHE694  ASN695  SER759  ASP760  ASP761  ALA762  ILE779  LEU786  VAL792 
 PHE793  MET794  SER795  GLU796  ALA797  LYS798  CYS799  TRP800  GLU811  SER814 

> <Gold.Protein.RotatedAtoms>
  150.8929  134.8334  159.7305 H   0  0  0  0  0  0  0  0  0  0  0  0  # atno 6907 bound_to 6896
  152.4847  134.4621  159.9618 H   0  0  0  0  0  0  0  0  0  0  0  0  # atno 6908 bound_to 6896
  151.4681  133.3537  159.2854 H   0  0  0  0  0  0  0  0  0  0  0  0  # atno 6909 bound_to 6896
  146.1440  140.4991  142.8640 H   0  0  0  0  0  0  0  0  0  0  0  0  # atno 7974 bound_to 7965
  155.2989  140.3383  155.4248 H   0  0  0  0  0  0  0  0  0  0  0  0  # atno 8008 bound_to 7997
  156.2011  140.1733  156.7937 H   0  0  0  0  0  0  0  0  0  0  0  0  # atno 8009 bound_to 7997
  154.5560  140.0696  156.8728 H   0  0  0  0  0  0  0  0  0  0  0  0  # atno 8010 bound_to 7997
  139.5986  144.7049  151.3117 H   0  0  0  0  0  0  0  0  0  0  0  0  # atno 10167 bound_to 10162
  156.4805  130.4544  149.6814 H   0  0  0  0  0  0  0  0  0  0  0  0  # atno 10718 bound_to 10713
  153.4019  135.7005  153.6420 H   0  0  0  0  0  0  0  0  0  0  0  0  # atno 10763 bound_to 10752
  153.4950  135.3664  155.2511 H   0  0  0  0  0  0  0  0  0  0  0  0  # atno 10764 bound_to 10752
  154.8711  135.4098  154.3355 H   0  0  0  0  0  0  0  0  0  0  0  0  # atno 10765 bound_to 10752
  140.9672  133.7130  156.1464 H   0  0  0  0  0  0  0  0  0  0  0  0  # atno 11005 bound_to 11000
  144.7824  140.5868  143.6596 LP  0  0  0  0  0  0  0  0  0  0  0  0  # atno 17320 bound_to 7965
  145.4981  139.1485  143.3672 LP  0  0  0  0  0  0  0  0  0  0  0  0  # atno 17321 bound_to 7965
  140.7231  143.7079  150.7793 LP  0  0  0  0  0  0  0  0  0  0  0  0  # atno 17342 bound_to 10162
  140.0650  143.5117  152.2608 LP  0  0  0  0  0  0  0  0  0  0  0  0  # atno 17343 bound_to 10162
  156.3526  130.7440  151.2402 LP  0  0  0  0  0  0  0  0  0  0  0  0  # atno 17370 bound_to 10713
  157.7483  131.0372  150.4448 LP  0  0  0  0  0  0  0  0  0  0  0  0  # atno 17371 bound_to 10713
  140.7382  134.4179  157.5558 LP  0  0  0  0  0  0  0  0  0  0  0  0  # atno 17394 bound_to 11000
  139.8899  134.8819  156.2399 LP  0  0  0  0  0  0  0  0  0  0  0  0  # atno 17395 bound_to 11000

$$$$
