AV-unprocessed.smi:3261|AV-procd|sdf|12481|dock2
  -GOLD-   2272018383D 1   1.00000     0.00000
 Structure written by MMmdl.
 31 32  0  0  0  0  0  0  0  0  2 V2000
  147.1783  133.5605  153.7609 O   0  0  0  0  0  0  0  0  0  0  0  0
  147.6055  132.6998  152.9951 C   0  0  0  0  0  0  0  0  0  0  0  0
  146.9065  132.1638  151.9746 N   0  0  0  0  0  0  0  0  0  0  0  0
  145.5961  132.4804  151.5221 C   0  0  0  0  0  0  0  0  0  0  0  0
  145.1988  131.9609  150.2700 C   0  0  0  0  0  0  0  0  0  0  0  0
  143.9157  132.2585  149.7673 C   0  0  0  0  0  0  0  0  0  0  0  0
  143.0803  133.0436  150.4803 N   0  3  0  0  0  0  0  0  0  0  0  0
  143.4188  133.5742  151.6748 C   0  0  0  0  0  0  0  0  0  0  0  0
  144.6885  133.3112  152.2284 C   0  0  0  0  0  0  0  0  0  0  0  0
  148.8419  132.1909  153.1456 N   0  0  0  0  0  0  0  0  0  0  0  0
  149.8544  132.5435  154.1425 C   0  0  1  0  0  0  0  0  0  0  0  0
  149.8089  134.0482  154.4677 C   0  0  0  0  0  0  0  0  0  0  0  0
  150.6180  134.3006  155.7463 C   0  0  0  0  0  0  0  0  0  0  0  0
  150.4755  132.7733  156.7505 S   0  0  0  0  0  0  0  0  0  0  0  0
  151.8226  132.2354  156.9933 O   0  0  0  0  0  0  0  0  0  0  0  0
  149.5364  132.9948  157.8601 O   0  0  0  0  0  0  0  0  0  0  0  0
  149.6490  131.7740  155.4571 C   0  0  0  0  0  0  0  0  0  0  0  0
  147.3596  131.4059  151.4853 H   0  0  0  0  0  0  0  0  0  0  0  0
  145.8682  131.3347  149.6975 H   0  0  0  0  0  0  0  0  0  0  0  0
  143.5364  131.8966  148.8227 H   0  0  0  0  0  0  0  0  0  0  0  0
  142.6710  134.1944  152.1473 H   0  0  0  0  0  0  0  0  0  0  0  0
  144.9405  133.7632  153.1750 H   0  0  0  0  0  0  0  0  0  0  0  0
  149.1029  131.4579  152.5014 H   0  0  0  0  0  0  0  0  0  0  0  0
  150.8527  132.3264  153.7586 H   0  0  0  0  0  0  0  0  0  0  0  0
  150.1754  134.6541  153.6385 H   0  0  0  0  0  0  0  0  0  0  0  0
  148.7747  134.3469  154.6458 H   0  0  0  0  0  0  0  0  0  0  0  0
  151.6724  134.4526  155.5139 H   0  0  0  0  0  0  0  0  0  0  0  0
  150.2599  135.1601  156.3132 H   0  0  0  0  0  0  0  0  0  0  0  0
  148.5910  131.7094  155.7149 H   0  0  0  0  0  0  0  0  0  0  0  0
  150.0651  130.7668  155.4397 H   0  0  0  0  0  0  0  0  0  0  0  0
  142.1568  133.2489  150.0983 H   0  0  0  0  0  0  0  0  0  0  0  0
  1  2  2  0  0  0  0
  2  3  1  0  0  0  0
  2 10  1  0  0  0  0
  3  4  1  0  0  0  0
  3 18  1  0  0  0  0
  4  9  1  0  0  0  0
  4  5  2  0  0  0  0
  5  6  1  0  0  0  0
  5 19  1  0  0  0  0
  6  7  2  0  0  0  0
  6 20  1  0  0  0  0
  7  8  1  0  0  0  0
  7 31  1  0  0  0  0
  8  9  2  0  0  0  0
  8 21  1  0  0  0  0
  9 22  1  0  0  0  0
 10 11  1  0  0  0  0
 10 23  1  0  0  0  0
 11 17  1  0  0  0  0
 11 12  1  0  0  0  0
 11 24  1  0  0  0  0
 12 13  1  0  0  0  0
 12 25  1  0  0  0  0
 12 26  1  0  0  0  0
 13 14  1  0  0  0  0
 13 27  1  0  0  0  0
 13 28  1  0  0  0  0
 14 15  2  0  0  0  0
 14 16  2  0  0  0  0
 14 17  1  0  0  0  0
 17 29  1  0  0  0  0
 17 30  1  0  0  0  0
M  CHG  1   7   1
M  END
> <s_m_source_file>
AV-unprocessed.smi

> <i_m_source_file_index>
3261

> <i_lp_mmshare_version>
43012

> <i_f3d_flags>
0

> <s_epik_input>
Tz1TMSg9TylbQ0gyXVtDSDJdW0NASF0oW0NIMl0xKVtOSF1DKD1PKVtOSF1jMltjSF1bY0hdbltjSF1bY0hdMg==

> <s_epik_cmdline>
J2VwaWtfcHl0aG9uJywgJy1waCcsICc3LjAnLCAnLXRuJywgJzgnLCAnLW1hJywgJzIwMCcsICctbWV0YWxfYmluZGluZycsICctaW1hZScsICc8aW5maWxlLm1hZT4nLCAnLW9tYWUnLCAnPG91dGZpbGUubWFlPic=

> <r_epik_Ionization_Penalty>
1.10375

> <r_epik_Ionization_Penalty_Charging>
1.10372

> <r_epik_Ionization_Penalty_Neutral>
2.06752e-05

> <r_epik_State_Penalty>
1.16109

> <r_epik_Charging_Adjusted_Penalty>
2.26482

> <i_epik_Tot_Q>
1

> <i_epik_Tot_abs_Q>
1

> <r_epik_Metal_State_Penalty>
1.24883

> <b_epik_Metal_Only>
0

> <s_lp_Force_Field>
OPLS_2005

> <r_lp_Energy>
25.5271

> <b_lp_Chiralities_Consistent>
1

> <s_lp_Variant>
AV-unprocessed.smi:3261-4

> <Gold.Version>
5.8.1

> <Gold.Id.Protein>
6NUR|6NUR_protein|mol2

> <Gold.PLP.Fitness>
41.7482

> <Gold.PLP.PLP>
-29.2407

> <Gold.PLP.part.hbond>
-3.6205

> <Gold.PLP.part.metal>
0.0000

> <Gold.PLP.part.buried>
-5.6846

> <Gold.PLP.part.nonpolar>
-19.4816

> <Gold.PLP.part.repulsive>
0.1188

> <Gold.PLP.ligand.clash>
0.0000

> <Gold.PLP.ligand.torsion>
0.3749

> <Gold.PLP.Chemscore.Hbond>
4.4189

> <Gold.PLP.Chemscore.CHOScore>
0.0000

> <Gold.PLP.Chemscore.Metal>
0.0000

> <Gold.Chemscore.Hbonds>
donor molecule, donor type, donor heavy atom, donor atom, acceptor molecule, acceptor atom, score
      L1  H     3    18       P1 10747  0.77
      L1  H     7    31       P1 10186  1.98
      L1  H    10    23       P1 10747  0.32
      P1  H  6896  6908       L1    16  0.89

> <Gold.PLP.Chemscore.Internal.Correction>
0.0005

> <Gold.Rescore>
     Score         DG    S(hbond)    S(metal)    S(lipo)     H(rot)  DE(clash)    DE(int)     intcor
     15.31     -18.36       2.41        0.00      63.09       1.00       0.06       2.99       ----

> <Gold.Chemscore.Fitness>
15.3116

> <Gold.Chemscore.DG>
-18.3599

> <Gold.Chemscore.ZeroCoef>
-5.4800

> <Gold.Chemscore.Hbond>
2.4128

> <Gold.Chemscore.Metal>
0.0000

> <Gold.Chemscore.Lipo>
63.0871

> <Gold.Chemscore.Internal_Hbond>
0.0000

> <Gold.Chemscore.DEClash>
0.0562

> <Gold.Chemscore.DEInternal>
2.9921

> <Gold.Chemscore.Rot>
1.0000

> <Gold.Chemscore.Internal.Correction>
   9.000000E+99

> <Gold.Chemscore.Hbonds>
donor molecule, donor type, donor heavy atom, donor atom, acceptor molecule, acceptor atom, score
      L1  H     3    18       P1 10747  0.74
      L1  H     7    31       P1 10186  0.94
      L1  H    10    23       P1 10747  0.17
      P1  H  6896  6908       L1    16  0.17

> <Gold.Chemscore.Hbond.Weighted>
-8.0587

> <Gold.Chemscore.Metal.Weighted>
-0.0000

> <Gold.Chemscore.Lipo.Weighted>
-7.3812

> <Gold.Chemscore.Internal_Hbond.Weighted>
0.0000

> <Gold.Chemscore.DEClash.Weighted>
0.0562

> <Gold.Chemscore.DEInternal.Weighted>
2.9921

> <Gold.Chemscore.Rot.Weighted>
2.5600

> <Gold.Chemscore.Internal.Correction.Weighted>
   9.000000E+99

> <Gold.Protein.RotatedTorsions>
[ 6907 6896 6895 6894 ] final  111.85 input  -60.11 | X-H torsion
[ 7974 7965 7964 7962 ] final -124.39 input  175.53 | X-H torsion
[ 8008 7997 7996 7995 ] final    1.76 input   59.86 | X-H torsion
[ 10167 10162 10161 10158 ] final  -20.75 input  -65.29 | X-H torsion
[ 10718 10713 10712 10709 ] final   -1.88 input   66.30 | X-H torsion
[ 10763 10752 10751 10750 ] final  -32.45 input  -60.55 | X-H torsion
[ 11005 11000 10999 10996 ] final  114.09 input  -57.11 | X-H torsion

> <Gold.Protein.ActiveResidues>
 VAL166  LYS551  ARG553  GLY616  TRP617  ASP618  TYR619  PRO620  LYS621  CYS622 
 ASP623  PHE694  ASN695  SER759  ASP760  ASP761  ALA762  ILE779  LEU786  VAL792 
 PHE793  MET794  SER795  GLU796  ALA797  LYS798  CYS799  TRP800  GLU811  SER814 

> <Gold.Protein.RotatedAtoms>
  152.4947  133.8598  159.7244 H   0  0  0  0  0  0  0  0  0  0  0  0  # atno 6907 bound_to 6896
  150.9113  133.6985  159.2861 H   0  0  0  0  0  0  0  0  0  0  0  0  # atno 6908 bound_to 6896
  151.4393  135.1023  159.9718 H   0  0  0  0  0  0  0  0  0  0  0  0  # atno 6909 bound_to 6896
  145.0086  140.7885  143.4452 H   0  0  0  0  0  0  0  0  0  0  0  0  # atno 7974 bound_to 7965
  154.6836  140.2638  155.6883 H   0  0  0  0  0  0  0  0  0  0  0  0  # atno 8008 bound_to 7997
  156.2706  140.2805  156.1312 H   0  0  0  0  0  0  0  0  0  0  0  0  # atno 8009 bound_to 7997
  155.0996  140.0374  157.2683 H   0  0  0  0  0  0  0  0  0  0  0  0  # atno 8010 bound_to 7997
  140.7278  143.4693  151.0269 H   0  0  0  0  0  0  0  0  0  0  0  0  # atno 10167 bound_to 10162
  156.7991  130.5387  149.5724 H   0  0  0  0  0  0  0  0  0  0  0  0  # atno 10718 bound_to 10713
  153.8140  135.6880  153.4837 H   0  0  0  0  0  0  0  0  0  0  0  0  # atno 10763 bound_to 10752
  153.1611  135.4579  154.9771 H   0  0  0  0  0  0  0  0  0  0  0  0  # atno 10764 bound_to 10752
  154.7955  135.3317  154.7618 H   0  0  0  0  0  0  0  0  0  0  0  0  # atno 10765 bound_to 10752
  139.8971  134.9561  156.6838 H   0  0  0  0  0  0  0  0  0  0  0  0  # atno 11005 bound_to 11000
  145.2054  139.2231  143.5171 LP  0  0  0  0  0  0  0  0  0  0  0  0  # atno 17320 bound_to 7965
  146.3466  140.1881  142.8589 LP  0  0  0  0  0  0  0  0  0  0  0  0  # atno 17321 bound_to 7965
  139.8384  143.7597  152.3180 LP  0  0  0  0  0  0  0  0  0  0  0  0  # atno 17342 bound_to 10162
  139.7737  144.7468  151.0187 LP  0  0  0  0  0  0  0  0  0  0  0  0  # atno 17343 bound_to 10162
  156.1112  130.6041  151.0050 LP  0  0  0  0  0  0  0  0  0  0  0  0  # atno 17370 bound_to 10713
  157.6562  131.0889  150.7941 LP  0  0  0  0  0  0  0  0  0  0  0  0  # atno 17371 bound_to 10713
  140.7278  133.9085  155.8190 LP  0  0  0  0  0  0  0  0  0  0  0  0  # atno 17394 bound_to 11000
  141.0177  134.0933  157.4154 LP  0  0  0  0  0  0  0  0  0  0  0  0  # atno 17395 bound_to 11000

$$$$
