AV-unprocessed.smi:1867|AV-procd|sdf|7561|dock6
  -GOLD-   22720 9273D 1   1.00000     0.00000
 Structure written by MMmdl.
 52 55  0  0  0  0  0  0  0  0  2 V2000
  147.3822  140.4145  154.8370 O   0  0  0  0  0  0  0  0  0  0  0  0
  148.2169  139.6209  154.4097 C   0  0  0  0  0  0  0  0  0  0  0  0
  149.4722  139.4972  154.8833 N   0  0  0  0  0  0  0  0  0  0  0  0
  150.1207  140.2630  155.8885 C   0  0  0  0  0  0  0  0  0  0  0  0
  151.0795  139.6195  156.6941 C   0  0  0  0  0  0  0  0  0  0  0  0
  151.7529  140.3565  157.6862 C   0  0  0  0  0  0  0  0  0  0  0  0
  151.4518  141.7298  157.8445 C   0  0  0  0  0  0  0  0  0  0  0  0
  152.1019  142.5054  158.8250 N   0  0  0  0  0  0  0  0  0  0  0  0
  152.8020  141.8880  159.9435 C   0  0  0  0  0  0  0  0  0  0  0  0
  152.7678  142.9202  161.0768 C   0  0  0  0  0  0  0  0  0  0  0  0
  152.4981  144.2476  160.3680 C   0  0  0  0  0  0  0  0  0  0  0  0
  151.6307  143.8351  159.1805 C   0  0  0  0  0  0  0  0  0  0  0  0
  150.5465  142.3549  157.0548 N   0  0  0  0  0  0  0  0  0  0  0  0
  149.9014  141.6437  156.1067 C   0  0  0  0  0  0  0  0  0  0  0  0
  147.9188  138.7769  153.4049 N   0  0  0  0  0  0  0  0  0  0  0  0
  146.6603  138.6412  152.6646 C   0  0  1  0  0  0  0  0  0  0  0  0
  146.8451  138.8157  151.1445 C   0  0  0  0  0  0  0  0  0  0  0  0
  145.9373  137.7533  150.5177 C   0  0  0  0  0  0  0  0  0  0  0  0
  146.0030  136.6549  151.4876 N   0  3  2  0  0  0  0  0  0  0  0  0
  145.0571  135.5296  151.3456 C   0  0  0  0  0  0  0  0  0  0  0  0
  145.4530  134.4305  152.3548 C   0  0  0  0  0  0  0  0  0  0  0  0
  145.5861  134.9779  153.7941 C   0  0  0  0  0  0  0  0  0  0  0  0
  146.4852  136.2322  153.8518 C   0  0  0  0  0  0  0  0  0  0  0  0
  145.9724  137.2630  152.8293 C   0  0  1  0  0  0  0  0  0  0  0  0
  150.0170  138.7380  154.5021 H   0  0  0  0  0  0  0  0  0  0  0  0
  151.2988  138.5704  156.5576 H   0  0  0  0  0  0  0  0  0  0  0  0
  152.4906  139.8644  158.3024 H   0  0  0  0  0  0  0  0  0  0  0  0
  152.3348  140.9537  160.2564 H   0  0  0  0  0  0  0  0  0  0  0  0
  153.8286  141.6759  159.6439 H   0  0  0  0  0  0  0  0  0  0  0  0
  151.9410  142.6933  161.7508 H   0  0  0  0  0  0  0  0  0  0  0  0
  153.6854  142.9313  161.6657 H   0  0  0  0  0  0  0  0  0  0  0  0
  152.0162  144.9858  161.0094 H   0  0  0  0  0  0  0  0  0  0  0  0
  153.4375  144.6712  160.0104 H   0  0  0  0  0  0  0  0  0  0  0  0
  151.7271  144.5332  158.3482 H   0  0  0  0  0  0  0  0  0  0  0  0
  150.5802  143.7845  159.4704 H   0  0  0  0  0  0  0  0  0  0  0  0
  149.2137  142.2171  155.5052 H   0  0  0  0  0  0  0  0  0  0  0  0
  148.6634  138.1598  153.1138 H   0  0  0  0  0  0  0  0  0  0  0  0
  145.9638  139.4152  152.9920 H   0  0  0  0  0  0  0  0  0  0  0  0
  146.6038  139.8233  150.8039 H   0  0  0  0  0  0  0  0  0  0  0  0
  147.8800  138.6131  150.8628 H   0  0  0  0  0  0  0  0  0  0  0  0
  144.9120  138.1191  150.4412 H   0  0  0  0  0  0  0  0  0  0  0  0
  146.2713  137.4446  149.5266 H   0  0  0  0  0  0  0  0  0  0  0  0
  144.0358  135.8712  151.5211 H   0  0  0  0  0  0  0  0  0  0  0  0
  145.0988  135.1383  150.3286 H   0  0  0  0  0  0  0  0  0  0  0  0
  144.7247  133.6194  152.3288 H   0  0  0  0  0  0  0  0  0  0  0  0
  146.4059  133.9948  152.0517 H   0  0  0  0  0  0  0  0  0  0  0  0
  144.5950  135.2294  154.1740 H   0  0  0  0  0  0  0  0  0  0  0  0
  145.9794  134.2042  154.4542 H   0  0  0  0  0  0  0  0  0  0  0  0
  146.4679  136.6460  154.8601 H   0  0  0  0  0  0  0  0  0  0  0  0
  147.5197  135.9622  153.6353 H   0  0  0  0  0  0  0  0  0  0  0  0
  144.9274  137.4736  153.0679 H   0  0  0  0  0  0  0  0  0  0  0  0
  146.9282  136.2631  151.3830 H   0  0  0  0  0  0  0  0  0  0  0  0
  1  2  2  0  0  0  0
  2  3  1  0  0  0  0
  2 15  1  0  0  0  0
  3  4  1  0  0  0  0
  3 25  1  0  0  0  0
  4 14  1  0  0  0  0
  4  5  2  0  0  0  0
  5  6  1  0  0  0  0
  5 26  1  0  0  0  0
  6  7  2  0  0  0  0
  6 27  1  0  0  0  0
  7  8  1  0  0  0  0
  7 13  1  0  0  0  0
  8 12  1  0  0  0  0
  8  9  1  0  0  0  0
  9 10  1  0  0  0  0
  9 28  1  0  0  0  0
  9 29  1  0  0  0  0
 10 11  1  0  0  0  0
 10 30  1  0  0  0  0
 10 31  1  0  0  0  0
 11 12  1  0  0  0  0
 11 32  1  0  0  0  0
 11 33  1  0  0  0  0
 12 34  1  0  0  0  0
 12 35  1  0  0  0  0
 13 14  2  0  0  0  0
 14 36  1  0  0  0  0
 15 16  1  0  0  0  0
 15 37  1  0  0  0  0
 16 24  1  0  0  0  0
 16 17  1  0  0  0  0
 16 38  1  0  0  0  0
 17 18  1  0  0  0  0
 17 39  1  0  0  0  0
 17 40  1  0  0  0  0
 18 19  1  0  0  0  0
 18 41  1  0  0  0  0
 18 42  1  0  0  0  0
 19 24  1  0  0  0  0
 19 20  1  0  0  0  0
 19 52  1  0  0  0  0
 20 21  1  0  0  0  0
 20 43  1  0  0  0  0
 20 44  1  0  0  0  0
 21 22  1  0  0  0  0
 21 45  1  0  0  0  0
 21 46  1  0  0  0  0
 22 23  1  0  0  0  0
 22 47  1  0  0  0  0
 22 48  1  0  0  0  0
 23 24  1  0  0  0  0
 23 49  1  0  0  0  0
 23 50  1  0  0  0  0
 24 51  1  0  0  0  0
M  CHG  1  19   1
M  END
> <s_m_source_file>
AV-unprocessed.smi

> <i_m_source_file_index>
1867

> <i_lp_mmshare_version>
43012

> <i_f3d_flags>
0

> <s_epik_input>
W0NIMl0xW0NIMl1bQ0gyXVtDSDJdW0NASF0oTjEyKVtDQEBIXShbQ0gyXVtDSDJdMilbTkhdQyg9TylbTkhdYzNbY0hdW2NIXWMobltjSF0zKU40W0NIMl1bQ0gyXVtDSDJdW0NIMl00

> <s_epik_cmdline>
J2VwaWtfcHl0aG9uJywgJy1waCcsICc3LjAnLCAnLXRuJywgJzgnLCAnLW1hJywgJzIwMCcsICctbWV0YWxfYmluZGluZycsICctaW1hZScsICc8aW5maWxlLm1hZT4nLCAnLW9tYWUnLCAnPG91dGZpbGUubWFlPic=

> <r_lp_tautomer_probability>
1

> <r_epik_Ionization_Penalty>
0.0751123

> <r_epik_Ionization_Penalty_Charging>
0.000974069

> <r_epik_Ionization_Penalty_Neutral>
0.0741382

> <r_epik_State_Penalty>
0.0647261

> <r_epik_Charging_Adjusted_Penalty>
0.0657002

> <i_epik_Tot_Q>
1

> <i_epik_Tot_abs_Q>
1

> <r_epik_Metal_State_Penalty>
0.0580571

> <b_epik_Metal_Only>
0

> <s_lp_Force_Field>
OPLS_2005

> <r_lp_Energy>
77.0679

> <b_lp_Chiralities_Consistent>
1

> <s_lp_Variant>
AV-unprocessed.smi:1867-2

> <Gold.Version>
5.8.1

> <Gold.Id.Protein>
6NUR|6NUR_protein|mol2

> <Gold.PLP.Fitness>
47.4686

> <Gold.PLP.PLP>
-38.4673

> <Gold.PLP.part.hbond>
-2.5065

> <Gold.PLP.part.metal>
0.0000

> <Gold.PLP.part.buried>
4.8054

> <Gold.PLP.part.nonpolar>
-41.6703

> <Gold.PLP.part.repulsive>
0.3631

> <Gold.PLP.ligand.clash>
0.0000

> <Gold.PLP.ligand.torsion>
0.3395

> <Gold.PLP.Chemscore.Hbond>
2.2425

> <Gold.PLP.Chemscore.CHOScore>
0.9165

> <Gold.PLP.Chemscore.Metal>
0.0000

> <Gold.Chemscore.Hbonds>
donor molecule, donor type, donor heavy atom, donor atom, acceptor molecule, acceptor atom, score
      L1  H    15    37       P1  7948  0.27
      L1  H    19    52       P1  7948  1.95
      L1  C    14    36       P1  8028  0.91

> <Gold.PLP.Chemscore.Internal.Correction>
0.2033

> <Gold.Rescore>
     Score         DG    S(hbond)    S(metal)    S(lipo)     H(rot)  DE(clash)    DE(int)     intcor
     17.49     -21.26       1.47        0.00     114.76       1.00       2.75       1.01       ----

> <Gold.Chemscore.Fitness>
17.4947

> <Gold.Chemscore.DG>
-21.2563

> <Gold.Chemscore.ZeroCoef>
-5.4800

> <Gold.Chemscore.Hbond>
1.4699

> <Gold.Chemscore.Metal>
0.0000

> <Gold.Chemscore.Lipo>
114.7598

> <Gold.Chemscore.Internal_Hbond>
0.0000

> <Gold.Chemscore.DEClash>
2.7486

> <Gold.Chemscore.DEInternal>
1.0131

> <Gold.Chemscore.Rot>
1.0000

> <Gold.Chemscore.Internal.Correction>
   9.000000E+99

> <Gold.Chemscore.Hbonds>
donor molecule, donor type, donor heavy atom, donor atom, acceptor molecule, acceptor atom, score
      L1  H    15    37       P1  7948  0.26
      L1  H    19    52       P1  7948  0.88

> <Gold.Chemscore.Hbond.Weighted>
-4.9094

> <Gold.Chemscore.Metal.Weighted>
-0.0000

> <Gold.Chemscore.Lipo.Weighted>
-13.4269

> <Gold.Chemscore.Internal_Hbond.Weighted>
0.0000

> <Gold.Chemscore.DEClash.Weighted>
2.7486

> <Gold.Chemscore.DEInternal.Weighted>
1.0131

> <Gold.Chemscore.Rot.Weighted>
2.5600

> <Gold.Chemscore.Internal.Correction.Weighted>
   9.000000E+99

> <Gold.Protein.RotatedTorsions>
[ 6907 6896 6895 6894 ] final  -47.59 input  -60.11 | X-H torsion
[ 7974 7965 7964 7962 ] final  131.72 input  175.53 | X-H torsion
[ 8008 7997 7996 7995 ] final  -71.19 input   59.86 | X-H torsion
[ 10167 10162 10161 10158 ] final   98.67 input  -65.29 | X-H torsion
[ 10718 10713 10712 10709 ] final   -4.09 input   66.30 | X-H torsion
[ 10763 10752 10751 10750 ] final  -20.90 input  -60.55 | X-H torsion
[ 11005 11000 10999 10996 ] final   14.64 input  -57.11 | X-H torsion

> <Gold.Protein.ActiveResidues>
 VAL166  LYS551  ARG553  GLY616  TRP617  ASP618  TYR619  PRO620  LYS621  CYS622 
 ASP623  PHE694  ASN695  SER759  ASP760  ASP761  ALA762  ILE779  LEU786  VAL792 
 PHE793  MET794  SER795  GLU796  ALA797  LYS798  CYS799  TRP800  GLU811  SER814 

> <Gold.Protein.RotatedAtoms>
  150.8992  134.8403  159.7348 H   0  0  0  0  0  0  0  0  0  0  0  0  # atno 6907 bound_to 6896
  152.4883  134.4528  159.9590 H   0  0  0  0  0  0  0  0  0  0  0  0  # atno 6908 bound_to 6896
  151.4582  133.3560  159.2840 H   0  0  0  0  0  0  0  0  0  0  0  0  # atno 6909 bound_to 6896
  145.0043  139.4281  143.5276 H   0  0  0  0  0  0  0  0  0  0  0  0  # atno 7974 bound_to 7965
  154.5069  140.0820  156.7912 H   0  0  0  0  0  0  0  0  0  0  0  0  # atno 8008 bound_to 7997
  155.3873  140.3431  155.4231 H   0  0  0  0  0  0  0  0  0  0  0  0  # atno 8009 bound_to 7997
  156.1526  140.1563  156.8732 H   0  0  0  0  0  0  0  0  0  0  0  0  # atno 8010 bound_to 7997
  139.7687  144.6930  151.0186 H   0  0  0  0  0  0  0  0  0  0  0  0  # atno 10167 bound_to 10162
  156.7664  130.5286  149.5775 H   0  0  0  0  0  0  0  0  0  0  0  0  # atno 10718 bound_to 10713
  153.6277  135.6990  153.5287 H   0  0  0  0  0  0  0  0  0  0  0  0  # atno 10763 bound_to 10752
  153.2885  135.4164  155.1144 H   0  0  0  0  0  0  0  0  0  0  0  0  # atno 10764 bound_to 10752
  154.8529  135.3619  154.5819 H   0  0  0  0  0  0  0  0  0  0  0  0  # atno 10765 bound_to 10752
  140.4672  134.1067  155.7726 H   0  0  0  0  0  0  0  0  0  0  0  0  # atno 11005 bound_to 11000
  146.3458  139.9450  142.8736 LP  0  0  0  0  0  0  0  0  0  0  0  0  # atno 17320 bound_to 7965
  145.2110  140.9895  143.4101 LP  0  0  0  0  0  0  0  0  0  0  0  0  # atno 17321 bound_to 7965
  140.7812  143.4613  151.0274 LP  0  0  0  0  0  0  0  0  0  0  0  0  # atno 17342 bound_to 10162
  139.8297  143.7708  152.3179 LP  0  0  0  0  0  0  0  0  0  0  0  0  # atno 17343 bound_to 10162
  156.1306  130.6175  151.0328 LP  0  0  0  0  0  0  0  0  0  0  0  0  # atno 17370 bound_to 10713
  157.6711  131.0861  150.7609 LP  0  0  0  0  0  0  0  0  0  0  0  0  # atno 17371 bound_to 10713
  141.1594  133.8822  157.1890 LP  0  0  0  0  0  0  0  0  0  0  0  0  # atno 17394 bound_to 11000
  139.9908  135.0065  156.9970 LP  0  0  0  0  0  0  0  0  0  0  0  0  # atno 17395 bound_to 11000

$$$$
