AV-unprocessed.smi:817|AV-procd|sdf|3828|dock2
  -GOLD-   22720 1273D 1   1.00000     0.00000
 Structure written by MMmdl.
 48 49  0  0  0  0  0  0  0  0  2 V2000
  150.9586  139.0207  154.9156 C   0  0  0  0  0  0  0  0  0  0  0  0
  149.4681  139.3853  154.9647 C   0  0  2  0  0  0  0  0  0  0  0  0
  148.7446  138.6234  156.0901 C   0  0  0  0  0  0  0  0  0  0  0  0
  147.2397  138.9282  156.1069 C   0  0  0  0  0  0  0  0  0  0  0  0
  146.6066  138.6691  154.7277 C   0  0  0  0  0  0  0  0  0  0  0  0
  147.2698  139.5082  153.5939 C   0  0  1  0  0  0  0  0  0  0  0  0
  146.6379  139.1304  152.2192 C   0  0  0  0  0  0  0  0  0  0  0  0
  146.7744  137.7101  151.8900 N   0  0  0  0  0  0  0  0  0  0  0  0
  145.7947  136.8406  151.5882 C   0  0  0  0  0  0  0  0  0  0  0  0
  144.6172  137.1909  151.5802 O   0  0  0  0  0  0  0  0  0  0  0  0
  146.2298  135.5918  151.3286 N   0  0  0  0  0  0  0  0  0  0  0  0
  145.4747  134.4422  150.9716 C   0  0  0  0  0  0  0  0  0  0  0  0
  146.1701  133.2303  150.7807 C   0  0  0  0  0  0  0  0  0  0  0  0
  145.4525  132.0771  150.4113 C   0  0  0  0  0  0  0  0  0  0  0  0
  144.0591  132.1830  150.2381 C   0  0  0  0  0  0  0  0  0  0  0  0
  143.3793  133.3373  150.4009 N   0  0  0  0  0  0  0  0  0  0  0  0
  144.0737  134.4396  150.7565 C   0  0  0  0  0  0  0  0  0  0  0  0
  147.0987  140.9854  153.8639 N   0  3  0  0  0  0  0  0  0  0  0  0
  145.6967  141.4707  153.9657 C   0  0  0  0  0  0  0  0  0  0  0  0
  147.8996  141.9003  153.0075 C   0  0  0  0  0  0  0  0  0  0  0  0
  148.7807  139.1192  153.6067 C   0  0  0  0  0  0  0  0  0  0  0  0
  151.1018  137.9624  154.6943 H   0  0  0  0  0  0  0  0  0  0  0  0
  151.4459  139.2297  155.8685 H   0  0  0  0  0  0  0  0  0  0  0  0
  151.4786  139.5940  154.1476 H   0  0  0  0  0  0  0  0  0  0  0  0
  149.4073  140.4515  155.1855 H   0  0  0  0  0  0  0  0  0  0  0  0
  148.8915  137.5504  155.9590 H   0  0  0  0  0  0  0  0  0  0  0  0
  149.1816  138.8769  157.0567 H   0  0  0  0  0  0  0  0  0  0  0  0
  146.7505  138.3075  156.8581 H   0  0  0  0  0  0  0  0  0  0  0  0
  147.0738  139.9618  156.4122 H   0  0  0  0  0  0  0  0  0  0  0  0
  146.7184  137.6056  154.5137 H   0  0  0  0  0  0  0  0  0  0  0  0
  145.5293  138.8235  154.7699 H   0  0  0  0  0  0  0  0  0  0  0  0
  145.5743  139.3694  152.2101 H   0  0  0  0  0  0  0  0  0  0  0  0
  147.1017  139.7037  151.4165 H   0  0  0  0  0  0  0  0  0  0  0  0
  147.7152  137.3426  151.8946 H   0  0  0  0  0  0  0  0  0  0  0  0
  147.2192  135.4356  151.4513 H   0  0  0  0  0  0  0  0  0  0  0  0
  147.2403  133.1807  150.9186 H   0  0  0  0  0  0  0  0  0  0  0  0
  145.9571  131.1337  150.2644 H   0  0  0  0  0  0  0  0  0  0  0  0
  143.4758  131.3191  149.9559 H   0  0  0  0  0  0  0  0  0  0  0  0
  143.4779  135.3342  150.8460 H   0  0  0  0  0  0  0  0  0  0  0  0
  145.1666  141.3861  153.0177 H   0  0  0  0  0  0  0  0  0  0  0  0
  145.6841  142.5240  154.2476 H   0  0  0  0  0  0  0  0  0  0  0  0
  145.1268  140.9513  154.7336 H   0  0  0  0  0  0  0  0  0  0  0  0
  147.6121  141.8337  151.9587 H   0  0  0  0  0  0  0  0  0  0  0  0
  148.9701  141.7202  153.0894 H   0  0  0  0  0  0  0  0  0  0  0  0
  147.7491  142.9350  153.3175 H   0  0  0  0  0  0  0  0  0  0  0  0
  149.3231  139.6112  152.8000 H   0  0  0  0  0  0  0  0  0  0  0  0
  148.8871  138.0552  153.3912 H   0  0  0  0  0  0  0  0  0  0  0  0
  147.4782  141.1129  154.7916 H   0  0  0  0  0  0  0  0  0  0  0  0
  1  2  1  0  0  0  0
  1 22  1  0  0  0  0
  1 23  1  0  0  0  0
  1 24  1  0  0  0  0
  2 21  1  0  0  0  0
  2  3  1  0  0  0  0
  2 25  1  0  0  0  0
  3  4  1  0  0  0  0
  3 26  1  0  0  0  0
  3 27  1  0  0  0  0
  4  5  1  0  0  0  0
  4 28  1  0  0  0  0
  4 29  1  0  0  0  0
  5  6  1  0  0  0  0
  5 30  1  0  0  0  0
  5 31  1  0  0  0  0
  6  7  1  0  0  0  0
  6 18  1  0  0  0  0
  6 21  1  0  0  0  0
  7  8  1  0  0  0  0
  7 32  1  0  0  0  0
  7 33  1  0  0  0  0
  8  9  1  0  0  0  0
  8 34  1  0  0  0  0
  9 10  2  0  0  0  0
  9 11  1  0  0  0  0
 11 12  1  0  0  0  0
 11 35  1  0  0  0  0
 12 17  1  0  0  0  0
 12 13  2  0  0  0  0
 13 14  1  0  0  0  0
 13 36  1  0  0  0  0
 14 15  2  0  0  0  0
 14 37  1  0  0  0  0
 15 16  1  0  0  0  0
 15 38  1  0  0  0  0
 16 17  2  0  0  0  0
 17 39  1  0  0  0  0
 18 19  1  0  0  0  0
 18 20  1  0  0  0  0
 18 48  1  0  0  0  0
 19 40  1  0  0  0  0
 19 41  1  0  0  0  0
 19 42  1  0  0  0  0
 20 43  1  0  0  0  0
 20 44  1  0  0  0  0
 20 45  1  0  0  0  0
 21 46  1  0  0  0  0
 21 47  1  0  0  0  0
M  CHG  1  18   1
M  END
> <s_m_source_file>
AV-unprocessed.smi

> <i_m_source_file_index>
817

> <i_lp_mmshare_version>
43012

> <i_f3d_flags>
0

> <s_epik_input>
W0NIM11bQ0BASF0oW0NIMl0xKVtDSDJdW0NIMl1bQ0gyXVtDQF0xKE4oW0NIM10pW0NIM10pW0NIMl1bTkhdQyg9TylbTkhdYzJbY0hdW2NIXVtjSF1uW2NIXTI=

> <s_epik_cmdline>
J2VwaWtfcHl0aG9uJywgJy1waCcsICc3LjAnLCAnLXRuJywgJzgnLCAnLW1hJywgJzIwMCcsICctbWV0YWxfYmluZGluZycsICctaW1hZScsICc8aW5maWxlLm1hZT4nLCAnLW9tYWUnLCAnPG91dGZpbGUubWFlPic=

> <r_lp_tautomer_probability>
1

> <r_epik_Ionization_Penalty>
0.00584939

> <r_epik_Ionization_Penalty_Charging>
0.00160539

> <r_epik_Ionization_Penalty_Neutral>
0.004244

> <r_epik_State_Penalty>
-0

> <r_epik_Charging_Adjusted_Penalty>
0.00160539

> <i_epik_Tot_Q>
1

> <i_epik_Tot_abs_Q>
1

> <r_epik_Metal_State_Penalty>
-0

> <b_epik_Metal_Only>
0

> <s_lp_Force_Field>
OPLS_2005

> <r_lp_Energy>
44.2375

> <b_lp_Chiralities_Consistent>
1

> <s_lp_Variant>
AV-unprocessed.smi:817-1

> <Gold.Version>
5.8.1

> <Gold.Id.Protein>
6NUR|6NUR_protein|mol2

> <Gold.PLP.Fitness>
37.2805

> <Gold.PLP.PLP>
-31.4525

> <Gold.PLP.part.hbond>
-2.0000

> <Gold.PLP.part.metal>
0.0000

> <Gold.PLP.part.buried>
-2.4106

> <Gold.PLP.part.nonpolar>
-26.8082

> <Gold.PLP.part.repulsive>
0.9270

> <Gold.PLP.ligand.clash>
0.0000

> <Gold.PLP.ligand.torsion>
0.0888

> <Gold.PLP.Chemscore.Hbond>
1.9600

> <Gold.PLP.Chemscore.CHOScore>
0.0000

> <Gold.PLP.Chemscore.Metal>
0.0000

> <Gold.Chemscore.Hbonds>
donor molecule, donor type, donor heavy atom, donor atom, acceptor molecule, acceptor atom, score
      L1  H     8    34       P1  7948  1.00
      L1  H    11    35       P1  7948  0.94
      L1  C    15    38       P1 10952  0.19
      L1  C    17    39       P1 10186  0.01

> <Gold.PLP.Chemscore.Internal.Correction>
0.1256

> <Gold.Rescore>
     Score         DG    S(hbond)    S(metal)    S(lipo)     H(rot)  DE(clash)    DE(int)     intcor
     15.72     -17.25       1.90        0.00      77.98       1.44       0.23       1.31       ----

> <Gold.Chemscore.Fitness>
15.7205

> <Gold.Chemscore.DG>
-17.2548

> <Gold.Chemscore.ZeroCoef>
-5.4800

> <Gold.Chemscore.Hbond>
1.8978

> <Gold.Chemscore.Metal>
0.0000

> <Gold.Chemscore.Lipo>
77.9807

> <Gold.Chemscore.Internal_Hbond>
0.0000

> <Gold.Chemscore.DEClash>
0.2290

> <Gold.Chemscore.DEInternal>
1.3052

> <Gold.Chemscore.Rot>
1.4405

> <Gold.Chemscore.Internal.Correction>
   9.000000E+99

> <Gold.Chemscore.Hbonds>
donor molecule, donor type, donor heavy atom, donor atom, acceptor molecule, acceptor atom, score
      L1  H     8    34       P1  7948  0.99
      L1  H    11    35       P1  7948  0.87

> <Gold.Chemscore.Hbond.Weighted>
-6.3388

> <Gold.Chemscore.Metal.Weighted>
-0.0000

> <Gold.Chemscore.Lipo.Weighted>
-9.1237

> <Gold.Chemscore.Internal_Hbond.Weighted>
0.0000

> <Gold.Chemscore.DEClash.Weighted>
0.2290

> <Gold.Chemscore.DEInternal.Weighted>
1.3052

> <Gold.Chemscore.Rot.Weighted>
3.6878

> <Gold.Chemscore.Internal.Correction.Weighted>
   9.000000E+99

> <Gold.Protein.RotatedTorsions>
[ 6907 6896 6895 6894 ] final -174.80 input  -60.11 | X-H torsion
[ 7974 7965 7964 7962 ] final -153.56 input  175.53 | X-H torsion
[ 8008 7997 7996 7995 ] final -174.26 input   59.86 | X-H torsion
[ 10167 10162 10161 10158 ] final   18.27 input  -65.29 | X-H torsion
[ 10718 10713 10712 10709 ] final  -23.94 input   66.30 | X-H torsion
[ 10763 10752 10751 10750 ] final  -23.71 input  -60.55 | X-H torsion
[ 11005 11000 10999 10996 ] final  106.67 input  -57.11 | X-H torsion

> <Gold.Protein.ActiveResidues>
 VAL166  LYS551  ARG553  GLY616  TRP617  ASP618  TYR619  PRO620  LYS621  CYS622 
 ASP623  PHE694  ASN695  SER759  ASP760  ASP761  ALA762  ILE779  LEU786  VAL792 
 PHE793  MET794  SER795  GLU796  ALA797  LYS798  CYS799  TRP800  GLU811  SER814 

> <Gold.Protein.RotatedAtoms>
  151.5782  133.3381  159.3002 H   0  0  0  0  0  0  0  0  0  0  0  0  # atno 6907 bound_to 6896
  150.8328  134.7592  159.6879 H   0  0  0  0  0  0  0  0  0  0  0  0  # atno 6908 bound_to 6896
  152.4409  134.5598  159.9942 H   0  0  0  0  0  0  0  0  0  0  0  0  # atno 6909 bound_to 6896
  144.7734  140.4509  143.5890 H   0  0  0  0  0  0  0  0  0  0  0  0  # atno 7974 bound_to 7965
  155.9679  140.1157  157.0838 H   0  0  0  0  0  0  0  0  0  0  0  0  # atno 8008 bound_to 7997
  154.4148  140.1169  156.5334 H   0  0  0  0  0  0  0  0  0  0  0  0  # atno 8009 bound_to 7997
  155.6635  140.3473  155.4794 H   0  0  0  0  0  0  0  0  0  0  0  0  # atno 8010 bound_to 7997
  140.5665  143.9241  150.6680 H   0  0  0  0  0  0  0  0  0  0  0  0  # atno 10167 bound_to 10162
  156.4843  130.4552  149.6793 H   0  0  0  0  0  0  0  0  0  0  0  0  # atno 10718 bound_to 10713
  153.6721  135.6971  153.5144 H   0  0  0  0  0  0  0  0  0  0  0  0  # atno 10763 bound_to 10752
  153.2549  135.4263  155.0835 H   0  0  0  0  0  0  0  0  0  0  0  0  # atno 10764 bound_to 10752
  154.8423  135.3540  154.6265 H   0  0  0  0  0  0  0  0  0  0  0  0  # atno 10765 bound_to 10752
  139.8817  134.9376  156.5701 H   0  0  0  0  0  0  0  0  0  0  0  0  # atno 11005 bound_to 11000
  145.6256  139.1529  143.2998 LP  0  0  0  0  0  0  0  0  0  0  0  0  # atno 17320 bound_to 7965
  146.1897  140.6363  142.9151 LP  0  0  0  0  0  0  0  0  0  0  0  0  # atno 17321 bound_to 7965
  140.2705  143.3459  152.1242 LP  0  0  0  0  0  0  0  0  0  0  0  0  # atno 17342 bound_to 10162
  139.5096  144.6869  151.5863 LP  0  0  0  0  0  0  0  0  0  0  0  0  # atno 17343 bound_to 10162
  156.3490  130.7422  151.2378 LP  0  0  0  0  0  0  0  0  0  0  0  0  # atno 17370 bound_to 10713
  157.7480  131.0382  150.4494 LP  0  0  0  0  0  0  0  0  0  0  0  0  # atno 17371 bound_to 10713
  140.8104  133.8433  155.8805 LP  0  0  0  0  0  0  0  0  0  0  0  0  # atno 17394 bound_to 11000
  140.9511  134.1777  157.4727 LP  0  0  0  0  0  0  0  0  0  0  0  0  # atno 17395 bound_to 11000

$$$$
