#       Name:                AV-unprocessed.smi:2510
#       Creating user name   scv26
#       Creation time:       Fri Mar 27 13:50:05 2020


#       File generated by GOLD software.
#

@<TRIPOS>MOLECULE
AV-unprocessed.smi:2510
    53    54     1
SMALL
NO_CHARGES


@<TRIPOS>ATOM
      1 ****        -0.5572  -0.4810   3.5570 C.3            1 S1                 0.0000
      2 ****        -0.6823  -1.1673   2.1864 C.3            1 S1                 0.0000
      3 ****        -1.6419  -0.4700   1.1871 C.3            1 S1                 0.0000
      4 ****        -3.0797  -0.5415   1.7605 C.3            1 S1                 0.0000
      5 ****        -3.6564  -1.9570   1.9360 C.3            1 S1                 0.0000
      6 ****        -1.2398   0.9510   0.6924 C.3            1 S1                 0.0000
      7 ****         0.2023   1.1928   0.7348 N.am           1 S1                 0.0000
      8 ****         0.7966   2.3922   0.6553 C.2            1 S1                 0.0000
      9 ****         0.1779   3.4553   0.6158 O.2            1 S1                 0.0000
     10 ****         2.3260   2.3874   0.5955 C.3            1 S1                 0.0000
     11 ****         2.7954   1.5529  -0.5682 C.2            1 S1                 0.0000
     12 ****         2.8329   1.9132  -1.9478 C.2            1 S1                 0.0000
     13 ****         3.2904   0.7909  -2.5784 C.2            1 S1                 0.0000
     14 ****         3.5383   0.5001  -4.0193 C.3            1 S1                 0.0000
     15 ****         3.5088  -0.1425  -1.5917 N.pl3          1 S1                 0.0000
     16 ****         3.2146   0.3116  -0.3597 N.2            1 S1                 0.0000
     17 ****        -1.7166   0.5684  -0.7218 C.3            1 S1                 0.0000
     18 ****        -1.0338   1.1012  -1.9810 C.3            1 S1                 0.0000
     19 ****        -1.5399  -0.9009  -0.3064 C.3            1 S1                 0.0000
     20 ****        -0.2538  -1.3756  -0.6902 O.3            1 S1                 0.0000
     21 ****        -0.1718  -2.7895  -0.7351 C.3            1 S1                 0.0000
     22 ****         3.8520  -1.0805  -1.7429 H              1 S1                 0.0000
     23 ****         0.2238  -0.9560   4.1507 H              1 S1                 0.0000
     24 ****        -1.4802  -0.5477   4.1317 H              1 S1                 0.0000
     25 ****        -0.2970   0.5728   3.4567 H              1 S1                 0.0000
     26 ****         0.3214  -1.2247   1.7656 H              1 S1                 0.0000
     27 ****        -0.9633  -2.2085   2.3362 H              1 S1                 0.0000
     28 ****        -3.1438  -0.0102   2.7093 H              1 S1                 0.0000
     29 ****        -3.7640   0.0009   1.1083 H              1 S1                 0.0000
     30 ****        -4.7065  -1.9043   2.2238 H              1 S1                 0.0000
     31 ****        -3.1416  -2.5145   2.7175 H              1 S1                 0.0000
     32 ****        -3.6000  -2.5355   1.0144 H              1 S1                 0.0000
     33 ****        -1.8325   1.7470   1.1468 H              1 S1                 0.0000
     34 ****         0.7961   0.3760   0.7595 H              1 S1                 0.0000
     35 ****         2.6909   3.4104   0.4977 H              1 S1                 0.0000
     36 ****         2.7176   2.0044   1.5388 H              1 S1                 0.0000
     37 ****         2.5479   2.8495  -2.4044 H              1 S1                 0.0000
     38 ****         3.3666   1.3865  -4.6304 H              1 S1                 0.0000
     39 ****         2.8733  -0.2873  -4.3747 H              1 S1                 0.0000
     40 ****         4.5664   0.1748  -4.1790 H              1 S1                 0.0000
     41 ****        -2.7846   0.7819  -0.7843 H              1 S1                 0.0000
     42 ****         0.0256   0.8477  -2.0126 H              1 S1                 0.0000
     43 ****        -1.1125   2.1867  -2.0408 H              1 S1                 0.0000
     44 ****        -1.4919   0.6877  -2.8792 H              1 S1                 0.0000
     45 ****        -2.3558  -1.5261  -0.6718 H              1 S1                 0.0000
     46 ****         0.8442  -3.0868  -0.9941 H              1 S1                 0.0000
     47 ****        -0.8442  -3.1952  -1.4918 H              1 S1                 0.0000
     48 ****        -0.4197  -3.2385   0.2266 H              1 S1                 0.0000
     49 ****        -0.8217   3.4533   0.6430 LP             1 S1                 0.0000
     50 ****         0.6748   4.3210   0.5566 LP             1 S1                 0.0000
     51 ****         3.2936  -0.1739   0.5110 LP             1 S1                 0.0000
     52 ****         0.4190  -1.0389  -0.0314 LP             1 S1                 0.0000
     53 ****        -0.0400  -1.0158  -1.5984 LP             1 S1                 0.0000
@<TRIPOS>BOND
    1    1    2 1     
    2    1   23 1     
    3    1   24 1     
    4    1   25 1     
    5    2    3 1     
    6    2   26 1     
    7    2   27 1     
    8    3   19 1     
    9    3    4 1     
   10    3    6 1     
   11    4    5 1     
   12    4   28 1     
   13    4   29 1     
   14    5   30 1     
   15    5   31 1     
   16    5   32 1     
   17    6    7 1     
   18    6   17 1     
   19    6   33 1     
   20    7    8 am    
   21    7   34 1     
   22    8    9 2     
   23    8   10 1     
   24   10   11 1     
   25   10   35 1     
   26   10   36 1     
   27   11   16 2     
   28   11   12 1     
   29   12   13 2     
   30   12   37 1     
   31   13   14 1     
   32   13   15 1     
   33   14   38 1     
   34   14   39 1     
   35   14   40 1     
   36   15   22 1     
   37   15   16 1     
   38   17   18 1     
   39   17   19 1     
   40   17   41 1     
   41   18   42 1     
   42   18   43 1     
   43   18   44 1     
   44   19   20 1     
   45   19   45 1     
   46   20   21 1     
   47   21   46 1     
   48   21   47 1     
   49   21   48 1     
   50    9   49 1     
   51    9   50 1     
   52   16   51 1     
   53   20   52 1     
   54   20   53 1     
@<TRIPOS>SUBSTRUCTURE
      1 S1             1
@<TRIPOS>SET
LONE_PAIRS      STATIC     ATOMS    <user>   **** ""
5 49 50 51 52 53
DONOR_HYDROGENS      STATIC     ATOMS    <user>   **** ""
2 34 22
ATOM$BLUE        STATIC     ATOMS    COLORGROUP SYSTEM
5 49 50 51 52 53
ATOM$RED        STATIC     ATOMS    COLORGROUP SYSTEM
2 34 22
