#       Name:                AV-unprocessed.smi:109
#       Creating user name   scv26
#       Creation time:       Thu Mar 26 18:06:21 2020


#       File generated by GOLD software.
#

@<TRIPOS>MOLECULE
AV-unprocessed.smi:109
    71    74     1
SMALL
NO_CHARGES


@<TRIPOS>ATOM
      1 ****        -1.3359   4.4830  -3.4212 O.3            1 S1                 0.0000
      2 ****        -1.0000   3.6197  -2.3565 C.3            1 S1                 0.0000
      3 ****        -2.2809   3.0862  -1.6918 C.3            1 S1                 0.0000
      4 ****        -2.0269   2.1886  -0.4558 C.3            1 S1                 0.0000
      5 ****        -1.2517   1.0132  -0.8584 N.pl3          1 S1                 0.0000
      6 ****         0.0715   0.8981  -0.6060 C.ar           1 S1                 0.0000
      7 ****         0.7761   1.9034  -0.0245 N.ar           1 S1                 0.0000
      8 ****         2.0858   1.7607   0.1993 C.ar           1 S1                 0.0000
      9 ****         2.8689   0.7144  -0.0720 N.ar           1 S1                 0.0000
     10 ****         2.1643  -0.3024  -0.6480 C.ar           1 S1                 0.0000
     11 ****         0.7752  -0.2838  -0.9528 C.ar           1 S1                 0.0000
     12 ****         0.4104  -1.4796  -1.5560 N.2            1 S1                 0.0000
     13 ****         1.5247  -2.1584  -1.6092 C.2            1 S1                 0.0000
     14 ****         2.6251  -1.5383  -1.0532 N.pl3          1 S1                 0.0000
     15 ****         4.0419  -2.0239  -0.9780 C.3            1 S1                 0.0000
     16 ****         4.0642  -3.3750  -1.3422 O.3            1 S1                 0.0000
     17 ****         4.2387  -4.2164  -0.2036 C.3            1 S1                 0.0000
     18 ****         2.8679  -4.6020   0.3984 C.3            1 S1                 0.0000
     19 ****         2.2468  -5.5730  -0.4159 O.3            1 S1                 0.0000
     20 ****         5.1268  -3.3426   0.6918 C.3            1 S1                 0.0000
     21 ****         5.0681  -3.7081   2.0569 O.3            1 S1                 0.0000
     22 ****         4.5973  -1.9336   0.4574 C.3            1 S1                 0.0000
     23 ****         5.6613  -1.0070   0.5515 O.3            1 S1                 0.0000
     24 ****        -3.3296   1.7246   0.2575 C.3            1 S1                 0.0000
     25 ****        -4.2439   2.8988   0.6883 C.3            1 S1                 0.0000
     26 ****        -5.5058   2.4204   1.4255 C.3            1 S1                 0.0000
     27 ****        -5.1523   1.5594   2.6441 C.3            1 S1                 0.0000
     28 ****        -4.2696   0.3762   2.2302 C.3            1 S1                 0.0000
     29 ****        -3.0056   0.8557   1.5005 C.3            1 S1                 0.0000
     30 ****         4.5748  -1.4163  -1.7108 H              1 S1                 0.0000
     31 ****         4.7766  -5.1221  -0.4869 H              1 S1                 0.0000
     32 ****         6.1580  -3.4227   0.3430 H              1 S1                 0.0000
     33 ****         3.7986  -1.6910   1.1606 H              1 S1                 0.0000
     34 ****        -1.8309   3.9934  -4.0601 H              1 S1                 0.0000
     35 ****        -0.3896   2.8071  -2.7504 H              1 S1                 0.0000
     36 ****        -0.3923   4.1669  -1.6353 H              1 S1                 0.0000
     37 ****        -2.8684   3.9557  -1.4023 H              1 S1                 0.0000
     38 ****        -2.8772   2.5417  -2.4254 H              1 S1                 0.0000
     39 ****        -1.4740   2.7824   0.2717 H              1 S1                 0.0000
     40 ****        -1.7844   0.2731  -1.2925 H              1 S1                 0.0000
     41 ****         2.5760   2.6044   0.6622 H              1 S1                 0.0000
     42 ****         1.5670  -3.1414  -2.0547 H              1 S1                 0.0000
     43 ****         2.9940  -5.0613   1.3787 H              1 S1                 0.0000
     44 ****         2.2133  -3.7436   0.5395 H              1 S1                 0.0000
     45 ****         2.1148  -5.2040  -1.2757 H              1 S1                 0.0000
     46 ****         5.4081  -4.5852   2.1485 H              1 S1                 0.0000
     47 ****         6.3335  -1.2565  -0.0637 H              1 S1                 0.0000
     48 ****        -3.8949   1.1084  -0.4437 H              1 S1                 0.0000
     49 ****        -3.6862   3.5846   1.3274 H              1 S1                 0.0000
     50 ****        -4.5713   3.4739  -0.1761 H              1 S1                 0.0000
     51 ****        -6.0999   3.2793   1.7388 H              1 S1                 0.0000
     52 ****        -6.1317   1.8458   0.7416 H              1 S1                 0.0000
     53 ****        -4.6309   2.1665   3.3853 H              1 S1                 0.0000
     54 ****        -6.0627   1.1971   3.1226 H              1 S1                 0.0000
     55 ****        -3.9917  -0.2048   3.1101 H              1 S1                 0.0000
     56 ****        -4.8345  -0.2948   1.5816 H              1 S1                 0.0000
     57 ****        -2.4224  -0.0215   1.2195 H              1 S1                 0.0000
     58 ****        -2.3827   1.4251   2.1918 H              1 S1                 0.0000
     59 ****        -0.5019   4.8398  -3.8421 LP             1 S1                 0.0000
     60 ****        -1.8874   5.2432  -3.0778 LP             1 S1                 0.0000
     61 ****         0.3142   2.7512   0.2363 LP             1 S1                 0.0000
     62 ****         3.8492   0.6800   0.1225 LP             1 S1                 0.0000
     63 ****        -0.4957  -1.7569  -1.8757 LP             1 S1                 0.0000
     64 ****         4.8197  -3.5281  -1.9792 LP             1 S1                 0.0000
     65 ****         3.1997  -3.6062  -1.7886 LP             1 S1                 0.0000
     66 ****         1.3651  -5.8306  -0.0206 LP             1 S1                 0.0000
     67 ****         2.8314  -6.3815  -0.4821 LP             1 S1                 0.0000
     68 ****         4.1198  -3.6795   2.3730 LP             1 S1                 0.0000
     69 ****         5.6195  -3.0744   2.5995 LP             1 S1                 0.0000
     70 ****         6.0340  -1.0150   1.4794 LP             1 S1                 0.0000
     71 ****         5.3291  -0.0893   0.3337 LP             1 S1                 0.0000
@<TRIPOS>BOND
    1    1    2 1     
    2    1   34 1     
    3    2    3 1     
    4    2   35 1     
    5    2   36 1     
    6    3    4 1     
    7    3   37 1     
    8    3   38 1     
    9    4    5 1     
   10    4   24 1     
   11    4   39 1     
   12    5    6 1     
   13    5   40 1     
   14    6   11 ar    
   15    6    7 ar    
   16    7    8 ar    
   17    8    9 ar    
   18    8   41 1     
   19    9   10 ar    
   20   10   14 1     
   21   10   11 ar    
   22   11   12 1     
   23   12   13 2     
   24   13   14 1     
   25   13   42 1     
   26   14   15 1     
   27   15   30 1     
   28   15   22 1     
   29   15   16 1     
   30   16   17 1     
   31   17   31 1     
   32   17   18 1     
   33   17   20 1     
   34   18   19 1     
   35   18   43 1     
   36   18   44 1     
   37   19   45 1     
   38   20   32 1     
   39   20   21 1     
   40   20   22 1     
   41   21   46 1     
   42   22   33 1     
   43   22   23 1     
   44   23   47 1     
   45   24   29 1     
   46   24   25 1     
   47   24   48 1     
   48   25   26 1     
   49   25   49 1     
   50   25   50 1     
   51   26   27 1     
   52   26   51 1     
   53   26   52 1     
   54   27   28 1     
   55   27   53 1     
   56   27   54 1     
   57   28   29 1     
   58   28   55 1     
   59   28   56 1     
   60   29   57 1     
   61   29   58 1     
   62    1   59 1     
   63    1   60 1     
   64    7   61 1     
   65    9   62 1     
   66   12   63 1     
   67   16   64 1     
   68   16   65 1     
   69   19   66 1     
   70   19   67 1     
   71   21   68 1     
   72   21   69 1     
   73   23   70 1     
   74   23   71 1     
@<TRIPOS>SUBSTRUCTURE
      1 S1             1
@<TRIPOS>SET
LONE_PAIRS      STATIC     ATOMS    <user>   **** ""
13 59 60 61 62 63 64 65 66 67 68 69 70 71
DONOR_HYDROGENS      STATIC     ATOMS    <user>   **** ""
5 34 40 45 46 47
ATOM$BLUE        STATIC     ATOMS    COLORGROUP SYSTEM
13 59 60 61 62 63 64 65 66 67 68 69 70 71
ATOM$RED        STATIC     ATOMS    COLORGROUP SYSTEM
5 34 40 45 46 47
