#       Name:                AV-unprocessed.smi:1019
#       Creating user name   scv26
#       Creation time:       Fri Mar 27 02:40:35 2020


#       File generated by GOLD software.
#

@<TRIPOS>MOLECULE
AV-unprocessed.smi:1019
    47    49     1
SMALL
NO_CHARGES


@<TRIPOS>ATOM
      1 ****        -1.2702   0.0425  -0.6687 C.3            1 S1                 0.0000
      2 ****        -0.8830   0.3279   0.7359 N.4            1 S1                 1.0000
      3 ****        -1.4694   1.5940   1.2450 C.3            1 S1                 0.0000
      4 ****        -2.9804   1.5162   1.3766 C.ar           1 S1                 0.0000
      5 ****        -3.5575   0.8080   2.4519 C.ar           1 S1                 0.0000
      6 ****        -4.9581   0.7305   2.5778 C.ar           1 S1                 0.0000
      7 ****        -5.7868   1.3627   1.6310 C.ar           1 S1                 0.0000
      8 ****        -5.2144   2.0732   0.5580 C.ar           1 S1                 0.0000
      9 ****        -3.8138   2.1508   0.4308 C.ar           1 S1                 0.0000
     10 ****         0.5866   0.2650   0.9467 C.3            1 S1                 0.0000
     11 ****         1.1094  -1.1857   1.0626 C.3            1 S1                 0.0000
     12 ****         0.6235  -1.7594   2.2598 O.3            1 S1                 0.0000
     13 ****         2.6484  -1.2857   1.0915 C.3            1 S1                 0.0000
     14 ****         3.2721  -0.6595  -0.0605 N.pl3          1 S1                 0.0000
     15 ****         4.0441   0.4448  -0.0647 C.2            1 S1                 0.0000
     16 ****         4.5036   0.8623  -1.2404 N.2            1 S1                 0.0000
     17 ****         3.9824  -0.0899  -2.0991 C.ar           1 S1                 0.0000
     18 ****         4.0983  -0.2218  -3.5013 C.ar           1 S1                 0.0000
     19 ****         3.4702  -1.2915  -4.1727 C.ar           1 S1                 0.0000
     20 ****         2.7204  -2.2451  -3.4541 C.ar           1 S1                 0.0000
     21 ****         2.5894  -2.1340  -2.0565 C.ar           1 S1                 0.0000
     22 ****         3.2135  -1.0623  -1.3908 C.ar           1 S1                 0.0000
     23 ****        -0.9190   0.8299  -1.3371 H              1 S1                 0.0000
     24 ****        -2.3526  -0.0317  -0.7724 H              1 S1                 0.0000
     25 ****        -0.8557  -0.9024  -1.0173 H              1 S1                 0.0000
     26 ****        -1.0713   1.8199   2.2353 H              1 S1                 0.0000
     27 ****        -1.1835   2.4256   0.5985 H              1 S1                 0.0000
     28 ****        -2.9277   0.3212   3.1821 H              1 S1                 0.0000
     29 ****        -5.3970   0.1863   3.4013 H              1 S1                 0.0000
     30 ****        -6.8609   1.3040   1.7285 H              1 S1                 0.0000
     31 ****        -5.8505   2.5594  -0.1671 H              1 S1                 0.0000
     32 ****        -3.3829   2.6971  -0.3957 H              1 S1                 0.0000
     33 ****         1.0699   0.7983   0.1271 H              1 S1                 0.0000
     34 ****         0.8674   0.7997   1.8554 H              1 S1                 0.0000
     35 ****         0.7441  -1.7905   0.2343 H              1 S1                 0.0000
     36 ****        -0.3108  -1.8790   2.1880 H              1 S1                 0.0000
     37 ****         3.0407  -0.8153   1.9947 H              1 S1                 0.0000
     38 ****         2.9612  -2.3303   1.1223 H              1 S1                 0.0000
     39 ****         4.2724   0.9801   0.8455 H              1 S1                 0.0000
     40 ****         4.6730   0.5006  -4.0621 H              1 S1                 0.0000
     41 ****         3.5669  -1.3822  -5.2448 H              1 S1                 0.0000
     42 ****         2.2469  -3.0632  -3.9771 H              1 S1                 0.0000
     43 ****         2.0175  -2.8650  -1.5049 H              1 S1                 0.0000
     44 ****        -1.2778  -0.4046   1.3081 H              1 S1                 0.0000
     45 ****         0.8254  -1.1521   3.0282 LP             1 S1                 0.0000
     46 ****         1.0640  -2.6446   2.4098 LP             1 S1                 0.0000
     47 ****         5.0754   1.6556  -1.4494 LP             1 S1                 0.0000
@<TRIPOS>BOND
    1    1    2 1     
    2    1   23 1     
    3    1   24 1     
    4    1   25 1     
    5    2    3 1     
    6    2   10 1     
    7    2   44 1     
    8    3    4 1     
    9    3   26 1     
   10    3   27 1     
   11    4    9 ar    
   12    4    5 ar    
   13    5    6 ar    
   14    5   28 1     
   15    6    7 ar    
   16    6   29 1     
   17    7    8 ar    
   18    7   30 1     
   19    8    9 ar    
   20    8   31 1     
   21    9   32 1     
   22   10   11 1     
   23   10   33 1     
   24   10   34 1     
   25   11   12 1     
   26   11   13 1     
   27   11   35 1     
   28   12   36 1     
   29   13   14 1     
   30   13   37 1     
   31   13   38 1     
   32   14   22 1     
   33   14   15 1     
   34   15   16 2     
   35   15   39 1     
   36   16   17 1     
   37   17   22 ar    
   38   17   18 ar    
   39   18   19 ar    
   40   18   40 1     
   41   19   20 ar    
   42   19   41 1     
   43   20   21 ar    
   44   20   42 1     
   45   21   22 ar    
   46   21   43 1     
   47   12   45 1     
   48   12   46 1     
   49   16   47 1     
@<TRIPOS>SUBSTRUCTURE
      1 S1             1
@<TRIPOS>SET
LONE_PAIRS      STATIC     ATOMS    <user>   **** ""
3 45 46 47
DONOR_HYDROGENS      STATIC     ATOMS    <user>   **** ""
2 44 36
ATOM$BLUE        STATIC     ATOMS    COLORGROUP SYSTEM
3 45 46 47
ATOM$RED        STATIC     ATOMS    COLORGROUP SYSTEM
2 44 36
