#       Name:                AV-unprocessed.smi:2893
#       Creating user name   scv26
#       Creation time:       Fri Mar 27 15:59:55 2020


#       File generated by GOLD software.
#

@<TRIPOS>MOLECULE
AV-unprocessed.smi:2893
    43    45     1
SMALL
NO_CHARGES


@<TRIPOS>ATOM
      1 ****        -6.3451  -0.3246  -0.4571 C.3            1 S1                 0.0000
      2 ****        -5.7056  -0.3650   0.9371 C.3            1 S1                 0.0000
      3 ****        -4.2681  -0.1292   0.8752 N.am           1 S1                 0.0000
      4 ****        -3.6821   1.0781   0.7989 C.2            1 S1                 0.0000
      5 ****        -4.3146   2.1350   0.7832 O.2            1 S1                 0.0000
      6 ****        -2.1767   1.0780   0.7748 C.ar           1 S1                 0.0000
      7 ****        -1.4632   2.2632   1.0569 C.ar           1 S1                 0.0000
      8 ****        -0.0596   2.2122   1.0082 C.ar           1 S1                 0.0000
      9 ****         0.5396   0.9825   0.6763 C.ar           1 S1                 0.0000
     10 ****         1.9381   0.9036   0.6189 N.pl3          1 S1                 0.0000
     11 ****         2.6052  -0.2792   0.0856 C.3            1 S1                 0.0000
     12 ****         2.4774  -0.4074  -1.4380 C.3            1 S1                 0.0000
     13 ****         3.9453  -0.4897  -1.8736 C.3            1 S1                 0.0000
     14 ****         4.6091  -1.8032  -1.4379 C.3            1 S1                 0.0000
     15 ****         4.7737  -1.5862   0.0660 C.3            1 S1                 0.0000
     16 ****         4.1318  -0.2056   0.2583 C.3            1 S1                 0.0000
     17 ****         4.5260   0.4174  -0.9537 O.3            1 S1                 0.0000
     18 ****        -0.1987  -0.1236   0.4135 N.ar           1 S1                 0.0000
     19 ****        -1.5340  -0.0751   0.4586 N.ar           1 S1                 0.0000
     20 ****        -7.4137  -0.5319  -0.3984 H              1 S1                 0.0000
     21 ****        -5.8983  -1.0684  -1.1175 H              1 S1                 0.0000
     22 ****        -6.2237   0.6542  -0.9221 H              1 S1                 0.0000
     23 ****        -6.1814   0.3638   1.5953 H              1 S1                 0.0000
     24 ****        -5.8699  -1.3437   1.3882 H              1 S1                 0.0000
     25 ****        -3.6683  -0.9419   0.8919 H              1 S1                 0.0000
     26 ****        -1.9684   3.1855   1.3044 H              1 S1                 0.0000
     27 ****         0.5341   3.0901   1.2170 H              1 S1                 0.0000
     28 ****         2.4875   1.7377   0.7673 H              1 S1                 0.0000
     29 ****         2.2211  -1.1646   0.5942 H              1 S1                 0.0000
     30 ****         1.9028  -1.2840  -1.7384 H              1 S1                 0.0000
     31 ****         2.0050   0.4723  -1.8782 H              1 S1                 0.0000
     32 ****         4.1107  -0.2349  -2.9206 H              1 S1                 0.0000
     33 ****         3.9978  -2.6743  -1.6765 H              1 S1                 0.0000
     34 ****         5.5819  -1.9258  -1.9151 H              1 S1                 0.0000
     35 ****         4.2896  -2.3600   0.6628 H              1 S1                 0.0000
     36 ****         5.8307  -1.5606   0.3334 H              1 S1                 0.0000
     37 ****         4.4629   0.3064   1.1627 H              1 S1                 0.0000
     38 ****        -5.3134   2.1206   0.8283 LP             1 S1                 0.0000
     39 ****        -3.8292   3.0073   0.7253 LP             1 S1                 0.0000
     40 ****         4.1439   1.3371  -1.0433 LP             1 S1                 0.0000
     41 ****         5.5208   0.4592  -1.0467 LP             1 S1                 0.0000
     42 ****         0.2591  -0.9826   0.1841 LP             1 S1                 0.0000
     43 ****        -2.0655  -0.8979   0.2570 LP             1 S1                 0.0000
@<TRIPOS>BOND
    1    1    2 1     
    2    1   20 1     
    3    1   21 1     
    4    1   22 1     
    5    2    3 1     
    6    2   23 1     
    7    2   24 1     
    8    3    4 am    
    9    3   25 1     
   10    4    5 2     
   11    4    6 1     
   12    6   19 ar    
   13    6    7 ar    
   14    7    8 ar    
   15    7   26 1     
   16    8    9 ar    
   17    8   27 1     
   18    9   10 1     
   19    9   18 ar    
   20   10   11 1     
   21   10   28 1     
   22   11   16 1     
   23   11   12 1     
   24   11   29 1     
   25   12   13 1     
   26   12   30 1     
   27   12   31 1     
   28   13   17 1     
   29   13   14 1     
   30   13   32 1     
   31   14   15 1     
   32   14   33 1     
   33   14   34 1     
   34   15   16 1     
   35   15   35 1     
   36   15   36 1     
   37   16   17 1     
   38   16   37 1     
   39   18   19 ar    
   40    5   38 1     
   41    5   39 1     
   42   17   40 1     
   43   17   41 1     
   44   18   42 1     
   45   19   43 1     
@<TRIPOS>SUBSTRUCTURE
      1 S1             1
@<TRIPOS>SET
LONE_PAIRS      STATIC     ATOMS    <user>   **** ""
6 38 39 40 41 42 43
DONOR_HYDROGENS      STATIC     ATOMS    <user>   **** ""
2 25 28
ATOM$BLUE        STATIC     ATOMS    COLORGROUP SYSTEM
6 38 39 40 41 42 43
ATOM$RED        STATIC     ATOMS    COLORGROUP SYSTEM
2 25 28
