AV-unprocessed.smi:1867|AV-procd|sdf|7563|dock3
  -GOLD-   22720 9283D 1   1.00000     0.00000
 Structure written by MMmdl.
 52 55  0  0  0  0  0  0  0  0  2 V2000
  146.3264  136.9768  155.4496 O   0  0  0  0  0  0  0  0  0  0  0  0
  147.0281  136.6843  154.4847 C   0  0  0  0  0  0  0  0  0  0  0  0
  148.2274  137.2333  154.2090 N   0  0  0  0  0  0  0  0  0  0  0  0
  148.9379  138.2321  154.9276 C   0  0  0  0  0  0  0  0  0  0  0  0
  148.7060  138.5623  156.2844 C   0  0  0  0  0  0  0  0  0  0  0  0
  149.4934  139.5632  156.8849 C   0  0  0  0  0  0  0  0  0  0  0  0
  150.4927  140.1976  156.1190 C   0  0  0  0  0  0  0  0  0  0  0  0
  151.2755  141.1937  156.7221 N   0  0  0  0  0  0  0  0  0  0  0  0
  150.5664  142.4104  157.0829 C   0  0  0  0  0  0  0  0  0  0  0  0
  151.5024  143.1578  158.0351 C   0  0  0  0  0  0  0  0  0  0  0  0
  152.4212  142.0741  158.6120 C   0  0  0  0  0  0  0  0  0  0  0  0
  151.9882  140.7784  157.9193 C   0  0  0  0  0  0  0  0  0  0  0  0
  150.7273  139.8780  154.8238 N   0  0  0  0  0  0  0  0  0  0  0  0
  149.9692  138.9181  154.2540 C   0  0  0  0  0  0  0  0  0  0  0  0
  146.6223  135.7688  153.5865 N   0  0  0  0  0  0  0  0  0  0  0  0
  145.3819  134.9890  153.5837 C   0  0  1  0  0  0  0  0  0  0  0  0
  144.1667  135.8010  153.1144 C   0  0  0  0  0  0  0  0  0  0  0  0
  143.2478  134.7845  152.4140 C   0  0  0  0  0  0  0  0  0  0  0  0
  143.9544  133.4854  152.4671 N   0  3  1  0  0  0  0  0  0  0  0  0
  143.6076  132.5004  151.4107 C   0  0  0  0  0  0  0  0  0  0  0  0
  144.2927  132.8042  150.0679 C   0  0  0  0  0  0  0  0  0  0  0  0
  145.8070  132.9431  150.2542 C   0  0  0  0  0  0  0  0  0  0  0  0
  146.1005  134.0453  151.2773 C   0  0  0  0  0  0  0  0  0  0  0  0
  145.3956  133.7786  152.6325 C   0  0  1  0  0  0  0  0  0  0  0  0
  148.6597  136.9372  153.3465 H   0  0  0  0  0  0  0  0  0  0  0  0
  147.9565  138.0650  156.8792 H   0  0  0  0  0  0  0  0  0  0  0  0
  149.3340  139.8339  157.9185 H   0  0  0  0  0  0  0  0  0  0  0  0
  150.3320  143.0059  156.2001 H   0  0  0  0  0  0  0  0  0  0  0  0
  149.6293  142.1741  157.5891 H   0  0  0  0  0  0  0  0  0  0  0  0
  152.0948  143.8892  157.4841 H   0  0  0  0  0  0  0  0  0  0  0  0
  150.9492  143.6917  158.8082 H   0  0  0  0  0  0  0  0  0  0  0  0
  153.4613  142.3039  158.3771 H   0  0  0  0  0  0  0  0  0  0  0  0
  152.3358  141.9936  159.6961 H   0  0  0  0  0  0  0  0  0  0  0  0
  151.3332  140.2035  158.5755 H   0  0  0  0  0  0  0  0  0  0  0  0
  152.8453  140.1530  157.6682 H   0  0  0  0  0  0  0  0  0  0  0  0
  150.1930  138.6927  153.2214 H   0  0  0  0  0  0  0  0  0  0  0  0
  147.2556  135.5871  152.8208 H   0  0  0  0  0  0  0  0  0  0  0  0
  145.1690  134.6398  154.5963 H   0  0  0  0  0  0  0  0  0  0  0  0
  143.6700  136.2992  153.9475 H   0  0  0  0  0  0  0  0  0  0  0  0
  144.4647  136.5732  152.4034 H   0  0  0  0  0  0  0  0  0  0  0  0
  142.2794  134.7016  152.9081 H   0  0  0  0  0  0  0  0  0  0  0  0
  143.0703  135.0928  151.3831 H   0  0  0  0  0  0  0  0  0  0  0  0
  143.9228  131.5152  151.7567 H   0  0  0  0  0  0  0  0  0  0  0  0
  142.5246  132.4540  151.2906 H   0  0  0  0  0  0  0  0  0  0  0  0
  144.0769  132.0085  149.3544 H   0  0  0  0  0  0  0  0  0  0  0  0
  143.8870  133.7197  149.6358 H   0  0  0  0  0  0  0  0  0  0  0  0
  146.2312  131.9966  150.5917 H   0  0  0  0  0  0  0  0  0  0  0  0
  146.2826  133.1791  149.3017 H   0  0  0  0  0  0  0  0  0  0  0  0
  147.1781  134.1245  151.4239 H   0  0  0  0  0  0  0  0  0  0  0  0
  145.7778  135.0027  150.8659 H   0  0  0  0  0  0  0  0  0  0  0  0
  145.8724  132.9219  153.1112 H   0  0  0  0  0  0  0  0  0  0  0  0
  143.6630  133.0722  153.3415 H   0  0  0  0  0  0  0  0  0  0  0  0
  1  2  2  0  0  0  0
  2  3  1  0  0  0  0
  2 15  1  0  0  0  0
  3  4  1  0  0  0  0
  3 25  1  0  0  0  0
  4 14  1  0  0  0  0
  4  5  2  0  0  0  0
  5  6  1  0  0  0  0
  5 26  1  0  0  0  0
  6  7  2  0  0  0  0
  6 27  1  0  0  0  0
  7  8  1  0  0  0  0
  7 13  1  0  0  0  0
  8 12  1  0  0  0  0
  8  9  1  0  0  0  0
  9 10  1  0  0  0  0
  9 28  1  0  0  0  0
  9 29  1  0  0  0  0
 10 11  1  0  0  0  0
 10 30  1  0  0  0  0
 10 31  1  0  0  0  0
 11 12  1  0  0  0  0
 11 32  1  0  0  0  0
 11 33  1  0  0  0  0
 12 34  1  0  0  0  0
 12 35  1  0  0  0  0
 13 14  2  0  0  0  0
 14 36  1  0  0  0  0
 15 16  1  0  0  0  0
 15 37  1  0  0  0  0
 16 24  1  0  0  0  0
 16 17  1  0  0  0  0
 16 38  1  0  0  0  0
 17 18  1  0  0  0  0
 17 39  1  0  0  0  0
 17 40  1  0  0  0  0
 18 19  1  0  0  0  0
 18 41  1  0  0  0  0
 18 42  1  0  0  0  0
 19 24  1  0  0  0  0
 19 20  1  0  0  0  0
 19 52  1  0  0  0  0
 20 21  1  0  0  0  0
 20 43  1  0  0  0  0
 20 44  1  0  0  0  0
 21 22  1  0  0  0  0
 21 45  1  0  0  0  0
 21 46  1  0  0  0  0
 22 23  1  0  0  0  0
 22 47  1  0  0  0  0
 22 48  1  0  0  0  0
 23 24  1  0  0  0  0
 23 49  1  0  0  0  0
 23 50  1  0  0  0  0
 24 51  1  0  0  0  0
M  CHG  1  19   1
M  END
> <s_m_source_file>
AV-unprocessed.smi

> <i_m_source_file_index>
1867

> <i_lp_mmshare_version>
43012

> <i_f3d_flags>
0

> <s_epik_input>
W0NIMl0xW0NIMl1bQ0gyXVtDSDJdW0NASF0oTjEyKVtDQEBIXShbQ0gyXVtDSDJdMilbTkhdQyg9TylbTkhdYzNbY0hdW2NIXWMobltjSF0zKU40W0NIMl1bQ0gyXVtDSDJdW0NIMl00

> <s_epik_cmdline>
J2VwaWtfcHl0aG9uJywgJy1waCcsICc3LjAnLCAnLXRuJywgJzgnLCAnLW1hJywgJzIwMCcsICctbWV0YWxfYmluZGluZycsICctaW1hZScsICc8aW5maWxlLm1hZT4nLCAnLW9tYWUnLCAnPG91dGZpbGUubWFlPic=

> <r_lp_tautomer_probability>
1

> <r_epik_Ionization_Penalty>
0.0751123

> <r_epik_Ionization_Penalty_Charging>
0.000974069

> <r_epik_Ionization_Penalty_Neutral>
0.0741382

> <r_epik_State_Penalty>
0.0647261

> <r_epik_Charging_Adjusted_Penalty>
0.0657002

> <i_epik_Tot_Q>
1

> <i_epik_Tot_abs_Q>
1

> <r_epik_Metal_State_Penalty>
0.0580571

> <b_epik_Metal_Only>
0

> <s_lp_Force_Field>
OPLS_2005

> <r_lp_Energy>
77.3857

> <b_lp_Chiralities_Consistent>
1

> <s_lp_Variant>
AV-unprocessed.smi:1867-4

> <Gold.Version>
5.8.1

> <Gold.Id.Protein>
6NUR|6NUR_protein|mol2

> <Gold.PLP.Fitness>
48.8698

> <Gold.PLP.PLP>
-34.2639

> <Gold.PLP.part.hbond>
-3.5591

> <Gold.PLP.part.metal>
0.0000

> <Gold.PLP.part.buried>
-5.6771

> <Gold.PLP.part.nonpolar>
-25.9159

> <Gold.PLP.part.repulsive>
0.1158

> <Gold.PLP.ligand.clash>
0.0000

> <Gold.PLP.ligand.torsion>
0.3478

> <Gold.PLP.Chemscore.Hbond>
4.1145

> <Gold.PLP.Chemscore.CHOScore>
0.9795

> <Gold.PLP.Chemscore.Metal>
0.0000

> <Gold.Chemscore.Hbonds>
donor molecule, donor type, donor heavy atom, donor atom, acceptor molecule, acceptor atom, score
      L1  H     3    25       P1  7948  1.00
      L1  H    15    37       P1  7948  0.89
      L1  H    19    52       P1 10957  1.24
      P1  H  7989  7998       L1    13  1.00
      L1  C    14    36       P1  7957  0.99

> <Gold.PLP.Chemscore.Internal.Correction>
0.0195

> <Gold.Rescore>
     Score         DG    S(hbond)    S(metal)    S(lipo)     H(rot)  DE(clash)    DE(int)     intcor
     23.50     -25.03       3.46        0.00      94.20       1.18       0.05       1.47       ----

> <Gold.Chemscore.Fitness>
23.5018

> <Gold.Chemscore.DG>
-25.0255

> <Gold.Chemscore.ZeroCoef>
-5.4800

> <Gold.Chemscore.Hbond>
3.4599

> <Gold.Chemscore.Metal>
0.0000

> <Gold.Chemscore.Lipo>
94.2024

> <Gold.Chemscore.Internal_Hbond>
0.0000

> <Gold.Chemscore.DEClash>
0.0534

> <Gold.Chemscore.DEInternal>
1.4703

> <Gold.Chemscore.Rot>
1.1845

> <Gold.Chemscore.Internal.Correction>
   9.000000E+99

> <Gold.Chemscore.Hbonds>
donor molecule, donor type, donor heavy atom, donor atom, acceptor molecule, acceptor atom, score
      L1  H     3    25       P1  7948  1.00
      L1  H    15    37       P1  7948  0.83
      L1  H    19    52       P1 10957  0.51
      P1  H  7989  7998       L1    13  0.74

> <Gold.Chemscore.Hbond.Weighted>
-11.5562

> <Gold.Chemscore.Metal.Weighted>
-0.0000

> <Gold.Chemscore.Lipo.Weighted>
-11.0217

> <Gold.Chemscore.Internal_Hbond.Weighted>
0.0000

> <Gold.Chemscore.DEClash.Weighted>
0.0534

> <Gold.Chemscore.DEInternal.Weighted>
1.4703

> <Gold.Chemscore.Rot.Weighted>
3.0324

> <Gold.Chemscore.Internal.Correction.Weighted>
   9.000000E+99

> <Gold.Protein.RotatedTorsions>
[ 6907 6896 6895 6894 ] final -146.67 input  -60.11 | X-H torsion
[ 7974 7965 7964 7962 ] final -110.21 input  175.53 | X-H torsion
[ 8008 7997 7996 7995 ] final -130.47 input   59.86 | X-H torsion
[ 10167 10162 10161 10158 ] final  133.56 input  -65.29 | X-H torsion
[ 10718 10713 10712 10709 ] final   70.35 input   66.30 | X-H torsion
[ 10763 10752 10751 10750 ] final  161.41 input  -60.55 | X-H torsion
[ 11005 11000 10999 10996 ] final  -93.02 input  -57.11 | X-H torsion

> <Gold.Protein.ActiveResidues>
 VAL166  LYS551  ARG553  GLY616  TRP617  ASP618  TYR619  PRO620  LYS621  CYS622 
 ASP623  PHE694  ASN695  SER759  ASP760  ASP761  ALA762  ILE779  LEU786  VAL792 
 PHE793  MET794  SER795  GLU796  ALA797  LYS798  CYS799  TRP800  GLU811  SER814 

> <Gold.Protein.RotatedAtoms>
  151.1449  133.4946  159.2595 H   0  0  0  0  0  0  0  0  0  0  0  0  # atno 6907 bound_to 6896
  151.1615  135.0275  159.8722 H   0  0  0  0  0  0  0  0  0  0  0  0  # atno 6908 bound_to 6896
  152.5463  134.1323  159.8497 H   0  0  0  0  0  0  0  0  0  0  0  0  # atno 6909 bound_to 6896
  145.1710  140.8926  143.3535 H   0  0  0  0  0  0  0  0  0  0  0  0  # atno 7974 bound_to 7965
  155.2963  140.0450  157.3026 H   0  0  0  0  0  0  0  0  0  0  0  0  # atno 8008 bound_to 7997
  154.5512  140.2318  155.8449 H   0  0  0  0  0  0  0  0  0  0  0  0  # atno 8009 bound_to 7997
  156.1968  140.3036  155.9451 H   0  0  0  0  0  0  0  0  0  0  0  0  # atno 8010 bound_to 7997
  139.5292  144.6610  151.5013 H   0  0  0  0  0  0  0  0  0  0  0  0  # atno 10167 bound_to 10162
  157.6395  130.9473  150.0639 H   0  0  0  0  0  0  0  0  0  0  0  0  # atno 10718 bound_to 10713
  154.2625  135.2768  155.2772 H   0  0  0  0  0  0  0  0  0  0  0  0  # atno 10763 bound_to 10752
  154.5371  135.5713  153.6811 H   0  0  0  0  0  0  0  0  0  0  0  0  # atno 10764 bound_to 10752
  152.9959  135.6242  154.2776 H   0  0  0  0  0  0  0  0  0  0  0  0  # atno 10765 bound_to 10752
  141.1508  133.7859  157.0101 H   0  0  0  0  0  0  0  0  0  0  0  0  # atno 11005 bound_to 11000
  145.0232  139.3405  143.6062 LP  0  0  0  0  0  0  0  0  0  0  0  0  # atno 17320 bound_to 7965
  146.3468  139.9541  142.8725 LP  0  0  0  0  0  0  0  0  0  0  0  0  # atno 17321 bound_to 7965
  140.6458  143.8797  150.6736 LP  0  0  0  0  0  0  0  0  0  0  0  0  # atno 17342 bound_to 10162
  140.2146  143.3856  152.1691 LP  0  0  0  0  0  0  0  0  0  0  0  0  # atno 17343 bound_to 10162
  156.1663  130.3645  149.9227 LP  0  0  0  0  0  0  0  0  0  0  0  0  # atno 17370 bound_to 10713
  156.7213  130.9008  151.3618 LP  0  0  0  0  0  0  0  0  0  0  0  0  # atno 17371 bound_to 10713
  140.0883  134.9607  157.1736 LP  0  0  0  0  0  0  0  0  0  0  0  0  # atno 17394 bound_to 11000
  140.3481  134.2629  155.7202 LP  0  0  0  0  0  0  0  0  0  0  0  0  # atno 17395 bound_to 11000

$$$$
