AV-unprocessed.smi:1333|AV-procd|sdf|5490|dock7
  -GOLD-   22720 5 63D 1   1.00000     0.00000
 Structure written by MMmdl.
 33 34  0  0  0  0  0  0  0  0  1 V2000
  151.6330  141.0610  157.6946 O   0  0  0  0  0  0  0  0  0  0  0  0
  151.2581  142.2140  157.4641 C   0  0  0  0  0  0  0  0  0  0  0  0
  152.0691  143.4087  157.9844 C   0  0  0  0  0  0  0  0  0  0  0  0
  152.1878  143.4303  159.4327 N   0  0  0  0  0  0  0  0  0  0  0  0
  152.7470  142.4506  160.2437 C   0  0  0  0  0  0  0  0  0  0  0  0
  152.6326  142.9005  161.5396 C   0  0  0  0  0  0  0  0  0  0  0  0
  152.0112  144.1471  161.5502 N   0  0  0  0  0  0  0  0  0  0  0  0
  151.7762  144.3948  160.2680 C   0  0  0  0  0  0  0  0  0  0  0  0
  150.1505  142.5545  156.7654 N   0  0  0  0  0  0  0  0  0  0  0  0
  149.2061  141.7917  156.1648 C   0  0  0  0  0  0  0  0  0  0  0  0
  149.4022  140.5933  155.9687 O   0  0  0  0  0  0  0  0  0  0  0  0
  148.0640  142.4029  155.7975 N   0  0  0  0  0  0  0  0  0  0  0  0
  146.9302  141.7591  155.1401 C   0  0  0  0  0  0  0  0  0  0  0  0
  146.5711  142.4612  153.8149 C   0  0  0  0  0  0  0  0  0  0  0  0
  145.2634  143.2088  154.0762 C   0  0  0  0  0  0  0  0  0  0  0  0
  144.5483  142.3541  155.1174 C   0  0  0  0  0  0  0  0  0  0  0  0
  145.6700  141.8423  156.0233 C   0  0  0  0  0  0  0  0  0  0  0  0
  153.0709  143.3848  157.5531 H   0  0  0  0  0  0  0  0  0  0  0  0
  151.5985  144.3369  157.6579 H   0  0  0  0  0  0  0  0  0  0  0  0
  153.1649  141.5386  159.8431 H   0  0  0  0  0  0  0  0  0  0  0  0
  152.9460  142.4260  162.4576 H   0  0  0  0  0  0  0  0  0  0  0  0
  151.2914  145.2985  159.9285 H   0  0  0  0  0  0  0  0  0  0  0  0
  149.9989  143.5485  156.6752 H   0  0  0  0  0  0  0  0  0  0  0  0
  147.9767  143.3909  155.9898 H   0  0  0  0  0  0  0  0  0  0  0  0
  147.1697  140.7120  154.9455 H   0  0  0  0  0  0  0  0  0  0  0  0
  147.3533  143.1256  153.4453 H   0  0  0  0  0  0  0  0  0  0  0  0
  146.4051  141.7065  153.0451 H   0  0  0  0  0  0  0  0  0  0  0  0
  145.4793  144.1932  154.4936 H   0  0  0  0  0  0  0  0  0  0  0  0
  144.6730  143.3514  153.1706 H   0  0  0  0  0  0  0  0  0  0  0  0
  143.7859  142.9087  155.6651 H   0  0  0  0  0  0  0  0  0  0  0  0
  144.0591  141.5121  154.6258 H   0  0  0  0  0  0  0  0  0  0  0  0
  145.4203  140.8817  156.4755 H   0  0  0  0  0  0  0  0  0  0  0  0
  145.8176  142.5521  156.8391 H   0  0  0  0  0  0  0  0  0  0  0  0
  1  2  2  0  0  0  0
  2  3  1  0  0  0  0
  2  9  1  0  0  0  0
  3  4  1  0  0  0  0
  3 18  1  0  0  0  0
  3 19  1  0  0  0  0
  4  8  1  0  0  0  0
  4  5  1  0  0  0  0
  5  6  2  0  0  0  0
  5 20  1  0  0  0  0
  6  7  1  0  0  0  0
  6 21  1  0  0  0  0
  7  8  2  0  0  0  0
  8 22  1  0  0  0  0
  9 10  1  0  0  0  0
  9 23  1  0  0  0  0
 10 11  2  0  0  0  0
 10 12  1  0  0  0  0
 12 13  1  0  0  0  0
 12 24  1  0  0  0  0
 13 17  1  0  0  0  0
 13 14  1  0  0  0  0
 13 25  1  0  0  0  0
 14 15  1  0  0  0  0
 14 26  1  0  0  0  0
 14 27  1  0  0  0  0
 15 16  1  0  0  0  0
 15 28  1  0  0  0  0
 15 29  1  0  0  0  0
 16 17  1  0  0  0  0
 16 30  1  0  0  0  0
 16 31  1  0  0  0  0
 17 32  1  0  0  0  0
 17 33  1  0  0  0  0
M  END
> <s_m_source_file>
AV-unprocessed.smi

> <i_m_source_file_index>
1333

> <i_lp_mmshare_version>
43012

> <i_f3d_flags>
0

> <s_epik_input>
W2NIXTFuW2NIXVtjSF1uMVtDSDJdQyg9TylbTkhdQyg9TylbTkhdW0NIXTJbQ0gyXVtDSDJdW0NIMl1bQ0gyXTI=

> <s_epik_cmdline>
J2VwaWtfcHl0aG9uJywgJy1waCcsICc3LjAnLCAnLXRuJywgJzgnLCAnLW1hJywgJzIwMCcsICctbWV0YWxfYmluZGluZycsICctaW1hZScsICc8aW5maWxlLm1hZT4nLCAnLW9tYWUnLCAnPG91dGZpbGUubWFlPic=

> <r_lp_tautomer_probability>
1

> <r_epik_Ionization_Penalty>
0.171964

> <r_epik_Ionization_Penalty_Charging>
0.171937

> <r_epik_Ionization_Penalty_Neutral>
2.73302e-05

> <r_epik_State_Penalty>
0.161333

> <r_epik_Charging_Adjusted_Penalty>
0.33327

> <i_epik_Tot_Q>
0

> <i_epik_Tot_abs_Q>
0

> <r_epik_Metal_State_Penalty>
0.124658

> <b_epik_Metal_Only>
0

> <s_lp_Force_Field>
OPLS_2005

> <r_lp_Energy>
24.334

> <b_lp_Chiralities_Consistent>
1

> <s_lp_Variant>
AV-unprocessed.smi:1333-1

> <Gold.Version>
5.8.1

> <Gold.Id.Protein>
6NUR|6NUR_protein|mol2

> <Gold.PLP.Fitness>
39.9650

> <Gold.PLP.PLP>
-34.8548

> <Gold.PLP.part.hbond>
-1.9412

> <Gold.PLP.part.metal>
0.0000

> <Gold.PLP.part.buried>
-5.1731

> <Gold.PLP.part.nonpolar>
-28.4429

> <Gold.PLP.part.repulsive>
0.2949

> <Gold.PLP.ligand.clash>
0.0000

> <Gold.PLP.ligand.torsion>
0.0589

> <Gold.PLP.Chemscore.Hbond>
1.7396

> <Gold.PLP.Chemscore.CHOScore>
0.0000

> <Gold.PLP.Chemscore.Metal>
0.0000

> <Gold.Chemscore.Hbonds>
donor molecule, donor type, donor heavy atom, donor atom, acceptor molecule, acceptor atom, score
      L1  H     9    23       P1  8028  0.77
      L1  H    12    24       P1  8028  0.72

> <Gold.PLP.Chemscore.Internal.Correction>
0.0091

> <Gold.Rescore>
     Score         DG    S(hbond)    S(metal)    S(lipo)     H(rot)  DE(clash)    DE(int)     intcor
     11.02     -12.98       1.51        0.00      58.85       1.73       0.56       1.40       ----

> <Gold.Chemscore.Fitness>
11.0167

> <Gold.Chemscore.DG>
-12.9754

> <Gold.Chemscore.ZeroCoef>
-5.4800

> <Gold.Chemscore.Hbond>
1.5058

> <Gold.Chemscore.Metal>
0.0000

> <Gold.Chemscore.Lipo>
58.8483

> <Gold.Chemscore.Internal_Hbond>
0.0000

> <Gold.Chemscore.DEClash>
0.5572

> <Gold.Chemscore.DEInternal>
1.4015

> <Gold.Chemscore.Rot>
1.7263

> <Gold.Chemscore.Internal.Correction>
   9.000000E+99

> <Gold.Chemscore.Hbonds>
donor molecule, donor type, donor heavy atom, donor atom, acceptor molecule, acceptor atom, score
      L1  H     9    23       P1  8028  0.78
      L1  H    12    24       P1  8028  0.18

> <Gold.Chemscore.Hbond.Weighted>
-5.0295

> <Gold.Chemscore.Metal.Weighted>
-0.0000

> <Gold.Chemscore.Lipo.Weighted>
-6.8853

> <Gold.Chemscore.Internal_Hbond.Weighted>
0.0000

> <Gold.Chemscore.DEClash.Weighted>
0.5572

> <Gold.Chemscore.DEInternal.Weighted>
1.4015

> <Gold.Chemscore.Rot.Weighted>
4.4193

> <Gold.Chemscore.Internal.Correction.Weighted>
   9.000000E+99

> <Gold.Protein.RotatedTorsions>
[ 6907 6896 6895 6894 ] final  156.66 input  -60.11 | X-H torsion
[ 7974 7965 7964 7962 ] final -149.34 input  175.53 | X-H torsion
[ 8008 7997 7996 7995 ] final   12.48 input   59.86 | X-H torsion
[ 10167 10162 10161 10158 ] final -119.63 input  -65.29 | X-H torsion
[ 10718 10713 10712 10709 ] final -131.24 input   66.30 | X-H torsion
[ 10763 10752 10751 10750 ] final -163.59 input  -60.55 | X-H torsion
[ 11005 11000 10999 10996 ] final -177.45 input  -57.11 | X-H torsion

> <Gold.Protein.ActiveResidues>
 VAL166  LYS551  ARG553  GLY616  TRP617  ASP618  TYR619  PRO620  LYS621  CYS622 
 ASP623  PHE694  ASN695  SER759  ASP760  ASP761  ALA762  ILE779  LEU786  VAL792 
 PHE793  MET794  SER795  GLU796  ALA797  LYS798  CYS799  TRP800  GLU811  SER814 

> <Gold.Protein.RotatedAtoms>
  152.0264  133.3919  159.4278 H   0  0  0  0  0  0  0  0  0  0  0  0  # atno 6907 bound_to 6896
  150.6886  134.3569  159.4943 H   0  0  0  0  0  0  0  0  0  0  0  0  # atno 6908 bound_to 6896
  152.1350  134.9106  160.0607 H   0  0  0  0  0  0  0  0  0  0  0  0  # atno 6909 bound_to 6896
  144.7973  140.5077  143.5731 H   0  0  0  0  0  0  0  0  0  0  0  0  # atno 7974 bound_to 7965
  154.8212  140.2884  155.5786 H   0  0  0  0  0  0  0  0  0  0  0  0  # atno 8008 bound_to 7997
  156.2997  140.2550  156.3049 H   0  0  0  0  0  0  0  0  0  0  0  0  # atno 8009 bound_to 7997
  154.9337  140.0383  157.2050 H   0  0  0  0  0  0  0  0  0  0  0  0  # atno 8010 bound_to 7997
  140.0446  143.5120  152.2113 H   0  0  0  0  0  0  0  0  0  0  0  0  # atno 10167 bound_to 10162
  156.2224  130.6986  151.0770 H   0  0  0  0  0  0  0  0  0  0  0  0  # atno 10718 bound_to 10713
  154.7108  135.3006  154.9199 H   0  0  0  0  0  0  0  0  0  0  0  0  # atno 10763 bound_to 10752
  154.0102  135.6696  153.4769 H   0  0  0  0  0  0  0  0  0  0  0  0  # atno 10764 bound_to 10752
  153.0754  135.5038  154.8306 H   0  0  0  0  0  0  0  0  0  0  0  0  # atno 10765 bound_to 10752
  140.4408  134.6433  157.4757 H   0  0  0  0  0  0  0  0  0  0  0  0  # atno 11005 bound_to 11000
  145.5641  139.1480  143.3325 LP  0  0  0  0  0  0  0  0  0  0  0  0  # atno 17320 bound_to 7965
  146.2245  140.5776  142.9002 LP  0  0  0  0  0  0  0  0  0  0  0  0  # atno 17321 bound_to 7965
  139.5992  144.7577  151.3212 LP  0  0  0  0  0  0  0  0  0  0  0  0  # atno 17342 bound_to 10162
  140.7245  143.7043  150.7820 LP  0  0  0  0  0  0  0  0  0  0  0  0  # atno 17343 bound_to 10162
  157.7094  131.0741  150.6555 LP  0  0  0  0  0  0  0  0  0  0  0  0  # atno 17370 bound_to 10713
  156.6618  130.4514  149.5685 LP  0  0  0  0  0  0  0  0  0  0  0  0  # atno 17371 bound_to 10713
  140.0071  134.6747  155.9438 LP  0  0  0  0  0  0  0  0  0  0  0  0  # atno 17394 bound_to 11000
  141.1706  133.6537  156.4638 LP  0  0  0  0  0  0  0  0  0  0  0  0  # atno 17395 bound_to 11000

$$$$
