AV-unprocessed.smi:2100|AV-procd|sdf|8577|dock6
  -GOLD-   2272011303D 1   1.00000     0.00000
 Structure written by MMmdl.
 40 41  0  0  0  0  0  0  0  0  2 V2000
  155.9276  133.7952  161.0937 C   0  0  0  0  0  0  0  0  0  0  0  0
  155.1909  135.1389  161.0633 C   0  0  1  0  0  0  0  0  0  0  0  0
  154.3297  135.2969  159.7970 C   0  0  0  0  0  0  0  0  0  0  0  0
  153.5214  136.5265  159.8560 N   0  0  0  0  0  0  0  0  0  0  0  0
  152.7741  137.0902  158.3935 S   0  0  0  0  0  0  0  0  0  0  0  0
  153.3127  136.2575  157.3055 O   0  0  0  0  0  0  0  0  0  0  0  0
  151.3218  137.0548  158.6317 O   0  0  0  0  0  0  0  0  0  0  0  0
  153.3930  138.5882  158.4213 N   0  5  0  0  0  0  0  0  0  0  0  0
  152.6252  139.6579  159.0341 C   0  0  0  0  0  0  0  0  0  0  0  0
  152.5361  140.8565  158.0651 C   0  0  0  0  0  0  0  0  0  0  0  0
  152.4981  142.2181  158.7521 C   0  0  0  0  0  0  0  0  0  0  0  0
  152.5348  142.3122  160.1623 C   0  0  0  0  0  0  0  0  0  0  0  0
  152.4829  143.5881  160.7556 C   0  0  0  0  0  0  0  0  0  0  0  0
  152.3918  144.7202  159.9238 C   0  0  0  0  0  0  0  0  0  0  0  0
  152.3559  144.5248  158.5290 C   0  0  0  0  0  0  0  0  0  0  0  0
  152.4045  143.3066  157.9493 N   0  0  0  0  0  0  0  0  0  0  0  0
  152.7935  136.7009  161.1243 C   0  0  0  0  0  0  0  0  0  0  0  0
  153.7247  136.4817  162.3305 C   0  0  1  0  0  0  0  0  0  0  0  0
  152.9624  136.5145  163.6599 C   0  0  0  0  0  0  0  0  0  0  0  0
  154.3644  135.2178  162.2169 O   0  0  0  0  0  0  0  0  0  0  0  0
  156.5874  133.6902  160.2322 H   0  0  0  0  0  0  0  0  0  0  0  0
  155.2265  132.9603  161.0824 H   0  0  0  0  0  0  0  0  0  0  0  0
  156.5379  133.7057  161.9926 H   0  0  0  0  0  0  0  0  0  0  0  0
  155.9335  135.9381  161.1001 H   0  0  0  0  0  0  0  0  0  0  0  0
  154.9696  135.3179  158.9149 H   0  0  0  0  0  0  0  0  0  0  0  0
  153.6609  134.4425  159.6859 H   0  0  0  0  0  0  0  0  0  0  0  0
  151.6160  139.3293  159.2848 H   0  0  0  0  0  0  0  0  0  0  0  0
  153.0751  139.9873  159.9712 H   0  0  0  0  0  0  0  0  0  0  0  0
  153.3839  140.8386  157.3783 H   0  0  0  0  0  0  0  0  0  0  0  0
  151.6446  140.7607  157.4435 H   0  0  0  0  0  0  0  0  0  0  0  0
  152.6050  141.4252  160.7747 H   0  0  0  0  0  0  0  0  0  0  0  0
  152.5115  143.6961  161.8297 H   0  0  0  0  0  0  0  0  0  0  0  0
  152.3493  145.7140  160.3443 H   0  0  0  0  0  0  0  0  0  0  0  0
  152.2839  145.3704  157.8610 H   0  0  0  0  0  0  0  0  0  0  0  0
  152.3621  137.7008  161.1675 H   0  0  0  0  0  0  0  0  0  0  0  0
  151.9641  135.9932  161.1530 H   0  0  0  0  0  0  0  0  0  0  0  0
  154.4835  137.2661  162.3514 H   0  0  0  0  0  0  0  0  0  0  0  0
  152.4618  137.4726  163.8013 H   0  0  0  0  0  0  0  0  0  0  0  0
  153.6397  136.3660  164.5011 H   0  0  0  0  0  0  0  0  0  0  0  0
  152.2047  135.7313  163.6998 H   0  0  0  0  0  0  0  0  0  0  0  0
  1  2  1  0  0  0  0
  1 21  1  0  0  0  0
  1 22  1  0  0  0  0
  1 23  1  0  0  0  0
  2 20  1  0  0  0  0
  2  3  1  0  0  0  0
  2 24  1  0  0  0  0
  3  4  1  0  0  0  0
  3 25  1  0  0  0  0
  3 26  1  0  0  0  0
  4  5  1  0  0  0  0
  4 17  1  0  0  0  0
  5  6  2  0  0  0  0
  5  7  2  0  0  0  0
  5  8  1  0  0  0  0
  8  9  1  0  0  0  0
  9 10  1  0  0  0  0
  9 27  1  0  0  0  0
  9 28  1  0  0  0  0
 10 11  1  0  0  0  0
 10 29  1  0  0  0  0
 10 30  1  0  0  0  0
 11 16  1  0  0  0  0
 11 12  2  0  0  0  0
 12 13  1  0  0  0  0
 12 31  1  0  0  0  0
 13 14  2  0  0  0  0
 13 32  1  0  0  0  0
 14 15  1  0  0  0  0
 14 33  1  0  0  0  0
 15 16  2  0  0  0  0
 15 34  1  0  0  0  0
 17 18  1  0  0  0  0
 17 35  1  0  0  0  0
 17 36  1  0  0  0  0
 18 19  1  0  0  0  0
 18 20  1  0  0  0  0
 18 37  1  0  0  0  0
 19 38  1  0  0  0  0
 19 39  1  0  0  0  0
 19 40  1  0  0  0  0
M  CHG  1   8  -1
M  END
> <s_m_source_file>
AV-unprocessed.smi

> <i_m_source_file_index>
2100

> <i_lp_mmshare_version>
43012

> <i_f3d_flags>
0

> <s_epik_input>
W0NIM11bQ0BASF0xW0NIMl1OKFtDSDJdW0NASF0oTzEpW0NIM10pUyg9TykoPU8pW05IXVtDSDJdW0NIMl1jMltjSF1bY0hdW2NIXVtjSF1uMg==

> <s_epik_cmdline>
J2VwaWtfcHl0aG9uJywgJy1waCcsICc3LjAnLCAnLXRuJywgJzgnLCAnLW1hJywgJzIwMCcsICctbWV0YWxfYmluZGluZycsICctaW1hZScsICc8aW5maWxlLm1hZT4nLCAnLW9tYWUnLCAnPG91dGZpbGUubWFlPic=

> <r_epik_Ionization_Penalty>
1.27779

> <r_epik_Ionization_Penalty_Charging>
1.20871

> <r_epik_Ionization_Penalty_Neutral>
0.0690773

> <r_epik_State_Penalty>
1.64557

> <r_epik_Charging_Adjusted_Penalty>
2.85428

> <i_epik_Tot_Q>
-1

> <i_epik_Tot_abs_Q>
1

> <r_epik_Metal_State_Penalty>
0.643506

> <b_epik_Metal_Only>
0

> <s_lp_Force_Field>
OPLS_2005

> <r_lp_Energy>
4.91885

> <b_lp_Chiralities_Consistent>
1

> <s_lp_Variant>
AV-unprocessed.smi:2100-5

> <Gold.Version>
5.8.1

> <Gold.Id.Protein>
6NUR|6NUR_protein|mol2

> <Gold.PLP.Fitness>
44.8995

> <Gold.PLP.PLP>
-34.1355

> <Gold.PLP.part.hbond>
-3.0000

> <Gold.PLP.part.metal>
0.0000

> <Gold.PLP.part.buried>
-4.4537

> <Gold.PLP.part.nonpolar>
-26.3967

> <Gold.PLP.part.repulsive>
0.0472

> <Gold.PLP.ligand.clash>
0.0000

> <Gold.PLP.ligand.torsion>
1.8074

> <Gold.PLP.Chemscore.Hbond>
3.7605

> <Gold.PLP.Chemscore.CHOScore>
0.0000

> <Gold.PLP.Chemscore.Metal>
0.0000

> <Gold.Chemscore.Hbonds>
donor molecule, donor type, donor heavy atom, donor atom, acceptor molecule, acceptor atom, score
      P1  H  6896  6907       L1     7  0.10
      P1  H  7997  8009       L1     8  0.39
      P1  H 10752 10765       L1     6  0.67

> <Gold.PLP.Chemscore.Internal.Correction>
3.0975

> <Gold.Rescore>
     Score         DG    S(hbond)    S(metal)    S(lipo)     H(rot)  DE(clash)    DE(int)     intcor
     18.73     -20.66       2.48        0.00      87.57       1.30       0.00       1.93       ----

> <Gold.Chemscore.Fitness>
18.7304

> <Gold.Chemscore.DG>
-20.6557

> <Gold.Chemscore.ZeroCoef>
-5.4800

> <Gold.Chemscore.Hbond>
2.4754

> <Gold.Chemscore.Metal>
0.0000

> <Gold.Chemscore.Lipo>
87.5700

> <Gold.Chemscore.Internal_Hbond>
0.0000

> <Gold.Chemscore.DEClash>
0.0000

> <Gold.Chemscore.DEInternal>
1.9253

> <Gold.Chemscore.Rot>
1.3039

> <Gold.Chemscore.Internal.Correction>
   9.000000E+99

> <Gold.Chemscore.Hbonds>
donor molecule, donor type, donor heavy atom, donor atom, acceptor molecule, acceptor atom, score
      P1  H  7997  8009       L1     8  0.02
      P1  H 10752 10765       L1     6  0.67

> <Gold.Chemscore.Hbond.Weighted>
-8.2680

> <Gold.Chemscore.Metal.Weighted>
-0.0000

> <Gold.Chemscore.Lipo.Weighted>
-10.2457

> <Gold.Chemscore.Internal_Hbond.Weighted>
0.0000

> <Gold.Chemscore.DEClash.Weighted>
0.0000

> <Gold.Chemscore.DEInternal.Weighted>
1.9253

> <Gold.Chemscore.Rot.Weighted>
3.3379

> <Gold.Chemscore.Internal.Correction.Weighted>
   9.000000E+99

> <Gold.Protein.RotatedTorsions>
[ 6907 6896 6895 6894 ] final    1.89 input  -60.11 | X-H torsion
[ 7974 7965 7964 7962 ] final   74.00 input  175.53 | X-H torsion
[ 8008 7997 7996 7995 ] final  143.63 input   59.86 | X-H torsion
[ 10167 10162 10161 10158 ] final   14.03 input  -65.29 | X-H torsion
[ 10718 10713 10712 10709 ] final   -8.65 input   66.30 | X-H torsion
[ 10763 10752 10751 10750 ] final -107.09 input  -60.55 | X-H torsion
[ 11005 11000 10999 10996 ] final  133.28 input  -57.11 | X-H torsion

> <Gold.Protein.ActiveResidues>
 VAL166  LYS551  ARG553  GLY616  TRP617  ASP618  TYR619  PRO620  LYS621  CYS622 
 ASP623  PHE694  ASN695  SER759  ASP760  ASP761  ALA762  ILE779  LEU786  VAL792 
 PHE793  MET794  SER795  GLU796  ALA797  LYS798  CYS799  TRP800  GLU811  SER814 

> <Gold.Protein.RotatedAtoms>
  151.6000  135.1048  160.0057 H   0  0  0  0  0  0  0  0  0  0  0  0  # atno 6907 bound_to 6896
  152.4263  133.7196  159.6536 H   0  0  0  0  0  0  0  0  0  0  0  0  # atno 6908 bound_to 6896
  150.8152  133.8278  159.3186 H   0  0  0  0  0  0  0  0  0  0  0  0  # atno 6909 bound_to 6896
  145.7338  139.2694  143.1526 H   0  0  0  0  0  0  0  0  0  0  0  0  # atno 7974 bound_to 7965
  156.2926  140.2257  156.4922 H   0  0  0  0  0  0  0  0  0  0  0  0  # atno 8008 bound_to 7997
  154.7761  140.0463  157.1111 H   0  0  0  0  0  0  0  0  0  0  0  0  # atno 8009 bound_to 7997
  154.9815  140.3079  155.4947 H   0  0  0  0  0  0  0  0  0  0  0  0  # atno 8010 bound_to 7997
  140.5963  143.8695  150.6921 H   0  0  0  0  0  0  0  0  0  0  0  0  # atno 10167 bound_to 10162
  156.6995  130.5089  149.5921 H   0  0  0  0  0  0  0  0  0  0  0  0  # atno 10718 bound_to 10713
  154.8054  135.4687  154.0378 H   0  0  0  0  0  0  0  0  0  0  0  0  # atno 10763 bound_to 10752
  153.1852  135.6846  153.8432 H   0  0  0  0  0  0  0  0  0  0  0  0  # atno 10764 bound_to 10752
  153.7969  135.3235  155.3363 H   0  0  0  0  0  0  0  0  0  0  0  0  # atno 10765 bound_to 10752
  139.9842  134.9538  156.9702 H   0  0  0  0  0  0  0  0  0  0  0  0  # atno 11005 bound_to 11000
  146.0512  140.8067  142.9780 LP  0  0  0  0  0  0  0  0  0  0  0  0  # atno 17320 bound_to 7965
  144.6886  140.3056  143.7256 LP  0  0  0  0  0  0  0  0  0  0  0  0  # atno 17321 bound_to 7965
  140.2231  143.3794  152.1627 LP  0  0  0  0  0  0  0  0  0  0  0  0  # atno 17342 bound_to 10162
  139.5260  144.7103  151.5228 LP  0  0  0  0  0  0  0  0  0  0  0  0  # atno 17343 bound_to 10162
  156.1739  130.6455  151.0870 LP  0  0  0  0  0  0  0  0  0  0  0  0  # atno 17370 bound_to 10713
  157.6978  131.0787  150.6914 LP  0  0  0  0  0  0  0  0  0  0  0  0  # atno 17371 bound_to 10713
  140.5036  134.1073  155.7255 LP  0  0  0  0  0  0  0  0  0  0  0  0  # atno 17394 bound_to 11000
  141.1510  133.8969  157.2099 LP  0  0  0  0  0  0  0  0  0  0  0  0  # atno 17395 bound_to 11000

$$$$
