AV-unprocessed.smi:1898|AV-procd|sdf|7702|dock2
  -GOLD-   22720 9443D 1   1.00000     0.00000
 Structure written by MMmdl.
 47 48  0  0  0  0  0  0  0  0  2 V2000
  149.7859  132.8397  153.1364 C   0  0  0  0  0  0  0  0  0  0  0  0
  149.2435  134.0670  153.6994 N   0  0  0  0  0  0  0  0  0  0  0  0
  149.2488  134.3628  155.0067 C   0  0  0  0  0  0  0  0  0  0  0  0
  149.7127  133.6127  155.8662 O   0  0  0  0  0  0  0  0  0  0  0  0
  148.6173  135.7020  155.4011 C   0  0  0  0  0  0  0  0  0  0  0  0
  149.2882  136.8689  154.7722 N   0  3  2  0  0  0  0  0  0  0  0  0
  150.6709  137.0670  155.2761 C   0  0  0  0  0  0  0  0  0  0  0  0
  151.3918  138.1854  154.5012 C   0  0  0  0  0  0  0  0  0  0  0  0
  150.6065  139.5080  154.5279 C   0  0  2  0  0  0  0  0  0  0  0  0
  150.6659  140.1113  155.8591 N   0  0  0  0  0  0  0  0  0  0  0  0
  151.7543  140.1570  156.6407 C   0  0  0  0  0  0  0  0  0  0  0  0
  152.8497  139.7087  156.3039 O   0  0  0  0  0  0  0  0  0  0  0  0
  151.4882  140.7680  157.8074 N   0  0  0  0  0  0  0  0  0  0  0  0
  152.3611  141.0008  158.9060 C   0  0  0  0  0  0  0  0  0  0  0  0
  153.3111  140.0569  159.3669 C   0  0  0  0  0  0  0  0  0  0  0  0
  154.1104  140.3798  160.4789 C   0  0  0  0  0  0  0  0  0  0  0  0
  153.9268  141.6307  161.0958 C   0  0  0  0  0  0  0  0  0  0  0  0
  153.0171  142.5342  160.6768 N   0  0  0  0  0  0  0  0  0  0  0  0
  152.2445  142.2250  159.6051 C   0  0  0  0  0  0  0  0  0  0  0  0
  151.3086  143.1493  159.1812 O   0  0  0  0  0  0  0  0  0  0  0  0
  151.3438  144.4575  159.7412 C   0  0  0  0  0  0  0  0  0  0  0  0
  149.1546  139.2607  154.0725 C   0  0  0  0  0  0  0  0  0  0  0  0
  148.4891  138.1203  154.8623 C   0  0  0  0  0  0  0  0  0  0  0  0
  149.6665  132.8425  152.0528 H   0  0  0  0  0  0  0  0  0  0  0  0
  149.2657  131.9670  153.5338 H   0  0  0  0  0  0  0  0  0  0  0  0
  150.8488  132.7441  153.3620 H   0  0  0  0  0  0  0  0  0  0  0  0
  148.8375  134.7296  153.0541 H   0  0  0  0  0  0  0  0  0  0  0  0
  147.5520  135.7094  155.1639 H   0  0  0  0  0  0  0  0  0  0  0  0
  148.6966  135.7737  156.4866 H   0  0  0  0  0  0  0  0  0  0  0  0
  150.6422  137.2980  156.3420 H   0  0  0  0  0  0  0  0  0  0  0  0
  151.2374  136.1411  155.1694 H   0  0  0  0  0  0  0  0  0  0  0  0
  152.3959  138.3326  154.9014 H   0  0  0  0  0  0  0  0  0  0  0  0
  151.5231  137.8701  153.4651 H   0  0  0  0  0  0  0  0  0  0  0  0
  151.0824  140.1964  153.8269 H   0  0  0  0  0  0  0  0  0  0  0  0
  149.8095  140.5041  156.2214 H   0  0  0  0  0  0  0  0  0  0  0  0
  150.5652  141.1656  157.9028 H   0  0  0  0  0  0  0  0  0  0  0  0
  153.4316  139.0903  158.9032 H   0  0  0  0  0  0  0  0  0  0  0  0
  154.8433  139.6808  160.8542 H   0  0  0  0  0  0  0  0  0  0  0  0
  154.5211  141.9107  161.9527 H   0  0  0  0  0  0  0  0  0  0  0  0
  150.5472  145.0584  159.3030 H   0  0  0  0  0  0  0  0  0  0  0  0
  152.2896  144.9578  159.5282 H   0  0  0  0  0  0  0  0  0  0  0  0
  151.1852  144.4347  160.8204 H   0  0  0  0  0  0  0  0  0  0  0  0
  148.5621  140.1721  154.1602 H   0  0  0  0  0  0  0  0  0  0  0  0
  149.1531  139.0048  153.0120 H   0  0  0  0  0  0  0  0  0  0  0  0
  147.4859  137.9547  154.4687 H   0  0  0  0  0  0  0  0  0  0  0  0
  148.3707  138.4053  155.9088 H   0  0  0  0  0  0  0  0  0  0  0  0
  149.3732  136.6445  153.7906 H   0  0  0  0  0  0  0  0  0  0  0  0
  1  2  1  0  0  0  0
  1 24  1  0  0  0  0
  1 25  1  0  0  0  0
  1 26  1  0  0  0  0
  2  3  1  0  0  0  0
  2 27  1  0  0  0  0
  3  4  2  0  0  0  0
  3  5  1  0  0  0  0
  5  6  1  0  0  0  0
  5 28  1  0  0  0  0
  5 29  1  0  0  0  0
  6 23  1  0  0  0  0
  6  7  1  0  0  0  0
  6 47  1  0  0  0  0
  7  8  1  0  0  0  0
  7 30  1  0  0  0  0
  7 31  1  0  0  0  0
  8  9  1  0  0  0  0
  8 32  1  0  0  0  0
  8 33  1  0  0  0  0
  9 10  1  0  0  0  0
  9 22  1  0  0  0  0
  9 34  1  0  0  0  0
 10 11  1  0  0  0  0
 10 35  1  0  0  0  0
 11 12  2  0  0  0  0
 11 13  1  0  0  0  0
 13 14  1  0  0  0  0
 13 36  1  0  0  0  0
 14 19  1  0  0  0  0
 14 15  2  0  0  0  0
 15 16  1  0  0  0  0
 15 37  1  0  0  0  0
 16 17  2  0  0  0  0
 16 38  1  0  0  0  0
 17 18  1  0  0  0  0
 17 39  1  0  0  0  0
 18 19  2  0  0  0  0
 19 20  1  0  0  0  0
 20 21  1  0  0  0  0
 21 40  1  0  0  0  0
 21 41  1  0  0  0  0
 21 42  1  0  0  0  0
 22 23  1  0  0  0  0
 22 43  1  0  0  0  0
 22 44  1  0  0  0  0
 23 45  1  0  0  0  0
 23 46  1  0  0  0  0
M  CHG  1   6   1
M  END
> <s_m_source_file>
AV-unprocessed.smi

> <i_m_source_file_index>
1898

> <i_lp_mmshare_version>
43012

> <i_f3d_flags>
0

> <s_epik_input>
W0NIM11bTkhdQyg9TylbQ0gyXU4xW0NIMl1bQ0gyXVtDSF0oW0NIMl1bQ0gyXTEpW05IXUMoPU8pW05IXWMyW2NIXVtjSF1bY0hdbmMyT1tDSDNd

> <s_epik_cmdline>
J2VwaWtfcHl0aG9uJywgJy1waCcsICc3LjAnLCAnLXRuJywgJzgnLCAnLW1hJywgJzIwMCcsICctbWV0YWxfYmluZGluZycsICctaW1hZScsICc8aW5maWxlLm1hZT4nLCAnLW9tYWUnLCAnPG91dGZpbGUubWFlPic=

> <r_lp_tautomer_probability>
1

> <r_epik_Ionization_Penalty>
0.838943

> <r_epik_Ionization_Penalty_Charging>
0.838844

> <r_epik_Ionization_Penalty_Neutral>
9.87395e-05

> <r_epik_State_Penalty>
0.8734

> <r_epik_Charging_Adjusted_Penalty>
1.71224

> <i_epik_Tot_Q>
1

> <i_epik_Tot_abs_Q>
1

> <r_epik_Metal_State_Penalty>
0.877926

> <b_epik_Metal_Only>
0

> <s_lp_Force_Field>
OPLS_2005

> <r_lp_Energy>
16.0451

> <b_lp_Chiralities_Consistent>
1

> <s_lp_Variant>
AV-unprocessed.smi:1898-3

> <Gold.Version>
5.8.1

> <Gold.Id.Protein>
6NUR|6NUR_protein|mol2

> <Gold.PLP.Fitness>
49.0508

> <Gold.PLP.PLP>
-38.4149

> <Gold.PLP.part.hbond>
-2.9799

> <Gold.PLP.part.metal>
0.0000

> <Gold.PLP.part.buried>
-2.2442

> <Gold.PLP.part.nonpolar>
-32.8344

> <Gold.PLP.part.repulsive>
0.2288

> <Gold.PLP.ligand.clash>
0.0000

> <Gold.PLP.ligand.torsion>
0.6982

> <Gold.PLP.Chemscore.Hbond>
4.0000

> <Gold.PLP.Chemscore.CHOScore>
0.0000

> <Gold.PLP.Chemscore.Metal>
0.0000

> <Gold.Chemscore.Hbonds>
donor molecule, donor type, donor heavy atom, donor atom, acceptor molecule, acceptor atom, score
      L1  H     2    27       P1  7948  0.85
      L1  H     6    47       P1  7948  2.00
      P1  H  7997  8010       L1    12  0.98

> <Gold.PLP.Chemscore.Internal.Correction>
0.0324

> <Gold.Rescore>
     Score         DG    S(hbond)    S(metal)    S(lipo)     H(rot)  DE(clash)    DE(int)     intcor
     14.42     -19.16       2.69        0.00      83.92       2.00       1.67       3.07       ----

> <Gold.Chemscore.Fitness>
14.4217

> <Gold.Chemscore.DG>
-19.1584

> <Gold.Chemscore.ZeroCoef>
-5.4800

> <Gold.Chemscore.Hbond>
2.6858

> <Gold.Chemscore.Metal>
0.0000

> <Gold.Chemscore.Lipo>
83.9176

> <Gold.Chemscore.Internal_Hbond>
0.0000

> <Gold.Chemscore.DEClash>
1.6651

> <Gold.Chemscore.DEInternal>
3.0715

> <Gold.Chemscore.Rot>
1.9963

> <Gold.Chemscore.Internal.Correction>
   9.000000E+99

> <Gold.Chemscore.Hbonds>
donor molecule, donor type, donor heavy atom, donor atom, acceptor molecule, acceptor atom, score
      L1  H     2    27       P1  7948  0.14
      L1  H     6    47       P1  7948  0.90
      P1  H  7997  8010       L1    12  0.93

> <Gold.Chemscore.Hbond.Weighted>
-8.9706

> <Gold.Chemscore.Metal.Weighted>
-0.0000

> <Gold.Chemscore.Lipo.Weighted>
-9.8184

> <Gold.Chemscore.Internal_Hbond.Weighted>
0.0000

> <Gold.Chemscore.DEClash.Weighted>
1.6651

> <Gold.Chemscore.DEInternal.Weighted>
3.0715

> <Gold.Chemscore.Rot.Weighted>
5.1105

> <Gold.Chemscore.Internal.Correction.Weighted>
   9.000000E+99

> <Gold.Protein.RotatedTorsions>
[ 6907 6896 6895 6894 ] final  -12.66 input  -60.11 | X-H torsion
[ 7974 7965 7964 7962 ] final -119.72 input  175.53 | X-H torsion
[ 8008 7997 7996 7995 ] final   56.16 input   59.86 | X-H torsion
[ 10167 10162 10161 10158 ] final   28.03 input  -65.29 | X-H torsion
[ 10718 10713 10712 10709 ] final -110.78 input   66.30 | X-H torsion
[ 10763 10752 10751 10750 ] final -101.21 input  -60.55 | X-H torsion
[ 11005 11000 10999 10996 ] final  112.09 input  -57.11 | X-H torsion

> <Gold.Protein.ActiveResidues>
 VAL166  LYS551  ARG553  GLY616  TRP617  ASP618  TYR619  PRO620  LYS621  CYS622 
 ASP623  PHE694  ASN695  SER759  ASP760  ASP761  ALA762  ILE779  LEU786  VAL792 
 PHE793  MET794  SER795  GLU796  ALA797  LYS798  CYS799  TRP800  GLU811  SER814 

> <Gold.Protein.RotatedAtoms>
  151.3670  135.0915  159.9452 H   0  0  0  0  0  0  0  0  0  0  0  0  # atno 6907 bound_to 6896
  152.5146  133.9202  159.7541 H   0  0  0  0  0  0  0  0  0  0  0  0  # atno 6908 bound_to 6896
  150.9608  133.6393  159.2784 H   0  0  0  0  0  0  0  0  0  0  0  0  # atno 6909 bound_to 6896
  145.0594  140.8279  143.4161 H   0  0  0  0  0  0  0  0  0  0  0  0  # atno 7974 bound_to 7965
  155.5129  140.3477  155.4392 H   0  0  0  0  0  0  0  0  0  0  0  0  # atno 8008 bound_to 7997
  156.0837  140.1393  156.9707 H   0  0  0  0  0  0  0  0  0  0  0  0  # atno 8009 bound_to 7997
  154.4594  140.0940  156.6827 H   0  0  0  0  0  0  0  0  0  0  0  0  # atno 8010 bound_to 7997
  140.4887  144.0501  150.6289 H   0  0  0  0  0  0  0  0  0  0  0  0  # atno 10167 bound_to 10162
  156.0610  130.5833  150.8284 H   0  0  0  0  0  0  0  0  0  0  0  0  # atno 10718 bound_to 10713
  154.7640  135.4906  153.9518 H   0  0  0  0  0  0  0  0  0  0  0  0  # atno 10763 bound_to 10752
  153.1285  135.6747  153.9225 H   0  0  0  0  0  0  0  0  0  0  0  0  # atno 10764 bound_to 10752
  153.8935  135.3118  155.3426 H   0  0  0  0  0  0  0  0  0  0  0  0  # atno 10765 bound_to 10752
  139.8919  134.9522  156.6533 H   0  0  0  0  0  0  0  0  0  0  0  0  # atno 11005 bound_to 11000
  145.1428  139.2562  143.5481 LP  0  0  0  0  0  0  0  0  0  0  0  0  # atno 17320 bound_to 7965
  146.3523  140.1109  142.8604 LP  0  0  0  0  0  0  0  0  0  0  0  0  # atno 17321 bound_to 7965
  140.3764  143.2826  152.0220 LP  0  0  0  0  0  0  0  0  0  0  0  0  # atno 17342 bound_to 10162
  139.4847  144.6190  151.7292 LP  0  0  0  0  0  0  0  0  0  0  0  0  # atno 17343 bound_to 10162
  157.5618  131.0946  150.9548 LP  0  0  0  0  0  0  0  0  0  0  0  0  # atno 17370 bound_to 10713
  156.9784  130.5517  149.5295 LP  0  0  0  0  0  0  0  0  0  0  0  0  # atno 17371 bound_to 10713
  140.7504  133.8902  155.8342 LP  0  0  0  0  0  0  0  0  0  0  0  0  # atno 17394 bound_to 11000
  141.0005  134.1156  157.4321 LP  0  0  0  0  0  0  0  0  0  0  0  0  # atno 17395 bound_to 11000

$$$$
