#       Name:                AV-unprocessed.smi:2131
#       Creating user name   scv26
#       Creation time:       Fri Mar 27 11:44:05 2020


#       File generated by GOLD software.
#

@<TRIPOS>MOLECULE
AV-unprocessed.smi:2131
    46    48     1
SMALL
NO_CHARGES


@<TRIPOS>ATOM
      1 ****        -4.0643   6.8254   3.0739 N.1            1 S1                 0.0000
      2 ****        -3.9013   6.3965   2.0117 C.1            1 S1                 0.0000
      3 ****        -3.6939   5.8517   0.6613 C.3            1 S1                 0.0000
      4 ****        -2.9647   4.5245   0.6887 C.ar           1 S1                 0.0000
      5 ****        -3.6891   3.3168   0.7080 C.ar           1 S1                 0.0000
      6 ****        -3.0072   2.0849   0.7310 C.ar           1 S1                 0.0000
      7 ****        -1.5978   2.0384   0.7360 C.ar           1 S1                 0.0000
      8 ****        -1.0124   0.7903   0.7554 O.3            1 S1                 0.0000
      9 ****         0.4073   0.7130   0.7355 C.3            1 S1                 0.0000
     10 ****         0.8331  -0.7626   0.7334 C.3            1 S1                 0.0000
     11 ****         2.2329  -0.8227   0.9257 O.3            1 S1                 0.0000
     12 ****         0.4551  -1.4843  -0.5749 C.3            1 S1                 0.0000
     13 ****         0.8419  -2.8843  -0.5690 N.pl3          1 S1                 0.0000
     14 ****         0.1566  -3.9099  -0.0283 C.2            1 S1                 0.0000
     15 ****         0.6904  -5.1233  -0.1342 N.2            1 S1                 0.0000
     16 ****         1.8592  -4.8549  -0.8259 C.ar           1 S1                 0.0000
     17 ****         2.8874  -5.7218  -1.2607 C.ar           1 S1                 0.0000
     18 ****         4.0030  -5.2136  -1.9582 C.ar           1 S1                 0.0000
     19 ****         4.1085  -3.8340  -2.2304 C.ar           1 S1                 0.0000
     20 ****         3.0968  -2.9506  -1.8072 C.ar           1 S1                 0.0000
     21 ****         1.9844  -3.4619  -1.1130 C.ar           1 S1                 0.0000
     22 ****        -0.8754   3.2585   0.7216 C.ar           1 S1                 0.0000
     23 ****        -1.5565   4.4912   0.6970 C.ar           1 S1                 0.0000
     24 ****        -4.6663   5.7371   0.1816 H              1 S1                 0.0000
     25 ****        -3.1253   6.5779   0.0797 H              1 S1                 0.0000
     26 ****        -4.7691   3.3317   0.7049 H              1 S1                 0.0000
     27 ****        -3.5726   1.1647   0.7438 H              1 S1                 0.0000
     28 ****         0.8103   1.2187  -0.1438 H              1 S1                 0.0000
     29 ****         0.8063   1.2069   1.6235 H              1 S1                 0.0000
     30 ****         0.3644  -1.2684   1.5786 H              1 S1                 0.0000
     31 ****         2.4924  -1.7311   0.9538 H              1 S1                 0.0000
     32 ****        -0.6223  -1.4317  -0.7373 H              1 S1                 0.0000
     33 ****         0.9209  -0.9955  -1.4315 H              1 S1                 0.0000
     34 ****        -0.7879  -3.7556   0.4731 H              1 S1                 0.0000
     35 ****         2.8181  -6.7802  -1.0572 H              1 S1                 0.0000
     36 ****         4.7826  -5.8857  -2.2857 H              1 S1                 0.0000
     37 ****         4.9673  -3.4541  -2.7641 H              1 S1                 0.0000
     38 ****         3.1758  -1.8932  -2.0119 H              1 S1                 0.0000
     39 ****         0.2037   3.2768   0.7291 H              1 S1                 0.0000
     40 ****        -0.9940   5.4132   0.6851 H              1 S1                 0.0000
     41 ****        -4.2051   7.1961   3.9919 LP             1 S1                 0.0000
     42 ****        -1.3475   0.2933  -0.0450 LP             1 S1                 0.0000
     43 ****        -1.3226   0.3303   1.5874 LP             1 S1                 0.0000
     44 ****         2.4748  -0.3758   1.7870 LP             1 S1                 0.0000
     45 ****         2.6976  -0.3622   0.1694 LP             1 S1                 0.0000
     46 ****         0.3399  -5.9989   0.1982 LP             1 S1                 0.0000
@<TRIPOS>BOND
    1    1    2 3     
    2    2    3 1     
    3    3    4 1     
    4    3   24 1     
    5    3   25 1     
    6    4   23 ar    
    7    4    5 ar    
    8    5    6 ar    
    9    5   26 1     
   10    6    7 ar    
   11    6   27 1     
   12    7    8 1     
   13    7   22 ar    
   14    8    9 1     
   15    9   10 1     
   16    9   28 1     
   17    9   29 1     
   18   10   11 1     
   19   10   12 1     
   20   10   30 1     
   21   11   31 1     
   22   12   13 1     
   23   12   32 1     
   24   12   33 1     
   25   13   21 1     
   26   13   14 1     
   27   14   15 2     
   28   14   34 1     
   29   15   16 1     
   30   16   21 ar    
   31   16   17 ar    
   32   17   18 ar    
   33   17   35 1     
   34   18   19 ar    
   35   18   36 1     
   36   19   20 ar    
   37   19   37 1     
   38   20   21 ar    
   39   20   38 1     
   40   22   23 ar    
   41   22   39 1     
   42   23   40 1     
   43    1   41 1     
   44    8   42 1     
   45    8   43 1     
   46   11   44 1     
   47   11   45 1     
   48   15   46 1     
@<TRIPOS>SUBSTRUCTURE
      1 S1             1
@<TRIPOS>SET
LONE_PAIRS      STATIC     ATOMS    <user>   **** ""
6 41 42 43 44 45 46
DONOR_HYDROGENS      STATIC     ATOMS    <user>   **** ""
1 31
ATOM$BLUE        STATIC     ATOMS    COLORGROUP SYSTEM
6 41 42 43 44 45 46
ATOM$RED        STATIC     ATOMS    COLORGROUP SYSTEM
1 31
