AV-unprocessed.smi:2499|AV-procd|sdf|9831|dock3
  -GOLD-   2272013463D 1   1.00000     0.00000
 Structure written by MMmdl.
 27 28  0  0  0  0  0  0  0  0  1 V2000
  151.6783  145.2278  158.5973 C   0  0  0  0  0  0  0  0  0  0  0  0
  151.9910  143.7693  158.2358 C   0  0  2  0  0  0  0  0  0  0  0  0
  151.0420  143.3277  157.2185 N   0  0  0  0  0  0  0  0  0  0  0  0
  150.9063  142.0689  156.7761 C   0  0  0  0  0  0  0  0  0  0  0  0
  151.5844  141.1259  157.1846 O   0  0  0  0  0  0  0  0  0  0  0  0
  149.9454  141.9824  155.8410 N   0  0  0  0  0  0  0  0  0  0  0  0
  149.5139  140.8212  155.1516 C   0  0  0  0  0  0  0  0  0  0  0  0
  150.2763  139.7983  154.7621 N   0  0  0  0  0  0  0  0  0  0  0  0
  149.3972  138.9241  154.1395 C   0  0  0  0  0  0  0  0  0  0  0  0
  148.1419  139.4737  154.1872 C   0  0  0  0  0  0  0  0  0  0  0  0
  148.2006  140.6813  154.8298 O   0  0  0  0  0  0  0  0  0  0  0  0
  151.9984  142.8939  159.4779 C   0  0  0  0  0  0  0  0  0  0  0  0
  152.7638  143.3059  160.7132 C   0  0  0  0  0  0  0  0  0  0  0  0
  153.2310  142.1255  159.8934 C   0  0  0  0  0  0  0  0  0  0  0  0
  152.4002  145.6177  159.3157 H   0  0  0  0  0  0  0  0  0  0  0  0
  150.6858  145.3241  159.0390 H   0  0  0  0  0  0  0  0  0  0  0  0
  151.7154  145.8689  157.7158 H   0  0  0  0  0  0  0  0  0  0  0  0
  152.9938  143.7517  157.8042 H   0  0  0  0  0  0  0  0  0  0  0  0
  150.4405  144.0362  156.8244 H   0  0  0  0  0  0  0  0  0  0  0  0
  149.4705  142.8381  155.5952 H   0  0  0  0  0  0  0  0  0  0  0  0
  149.7302  137.9884  153.7153 H   0  0  0  0  0  0  0  0  0  0  0  0
  147.1707  139.1566  153.8371 H   0  0  0  0  0  0  0  0  0  0  0  0
  151.0464  142.4001  159.6651 H   0  0  0  0  0  0  0  0  0  0  0  0
  153.3574  144.2165  160.6631 H   0  0  0  0  0  0  0  0  0  0  0  0
  152.3071  143.0991  161.6789 H   0  0  0  0  0  0  0  0  0  0  0  0
  153.0848  141.1315  160.3108 H   0  0  0  0  0  0  0  0  0  0  0  0
  154.1357  142.2540  159.3026 H   0  0  0  0  0  0  0  0  0  0  0  0
  1  2  1  0  0  0  0
  1 15  1  0  0  0  0
  1 16  1  0  0  0  0
  1 17  1  0  0  0  0
  2  3  1  0  0  0  0
  2 12  1  0  0  0  0
  2 18  1  0  0  0  0
  3  4  1  0  0  0  0
  3 19  1  0  0  0  0
  4  5  2  0  0  0  0
  4  6  1  0  0  0  0
  6  7  1  0  0  0  0
  6 20  1  0  0  0  0
  7 11  1  0  0  0  0
  7  8  2  0  0  0  0
  8  9  1  0  0  0  0
  9 10  2  0  0  0  0
  9 21  1  0  0  0  0
 10 11  1  0  0  0  0
 10 22  1  0  0  0  0
 12 14  1  0  0  0  0
 12 13  1  0  0  0  0
 12 23  1  0  0  0  0
 13 14  1  0  0  0  0
 13 24  1  0  0  0  0
 13 25  1  0  0  0  0
 14 26  1  0  0  0  0
 14 27  1  0  0  0  0
M  END
> <s_m_source_file>
AV-unprocessed.smi

> <i_m_source_file_index>
2499

> <i_lp_mmshare_version>
43012

> <i_f3d_flags>
0

> <s_epik_input>
W0NIMl0xW0NIMl1bQ0hdMVtDQEhdKFtDSDNdKVtOSF1DKD1PKVtOSF1jMm5bY0hdW2NIXW8y

> <s_epik_cmdline>
J2VwaWtfcHl0aG9uJywgJy1waCcsICc3LjAnLCAnLXRuJywgJzgnLCAnLW1hJywgJzIwMCcsICctbWV0YWxfYmluZGluZycsICctaW1hZScsICc8aW5maWxlLm1hZT4nLCAnLW9tYWUnLCAnPG91dGZpbGUubWFlPic=

> <r_lp_tautomer_probability>
0.785861

> <r_epik_Ionization_Penalty>
5.39182e-05

> <r_epik_Ionization_Penalty_Charging>
0

> <r_epik_Ionization_Penalty_Neutral>
5.39182e-05

> <r_epik_State_Penalty>
0.0482803

> <r_epik_Charging_Adjusted_Penalty>
0.0482803

> <i_epik_Tot_Q>
0

> <i_epik_Tot_abs_Q>
0

> <r_epik_Metal_State_Penalty>
0.0621274

> <b_epik_Metal_Only>
0

> <s_lp_Force_Field>
OPLS_2005

> <r_lp_Energy>
12.2154

> <b_lp_Chiralities_Consistent>
1

> <s_lp_Variant>
AV-unprocessed.smi:2499-1

> <Gold.Version>
5.8.1

> <Gold.Id.Protein>
6NUR|6NUR_protein|mol2

> <Gold.PLP.Fitness>
42.0292

> <Gold.PLP.PLP>
-31.2793

> <Gold.PLP.part.hbond>
-3.0000

> <Gold.PLP.part.metal>
0.0000

> <Gold.PLP.part.buried>
-2.7275

> <Gold.PLP.part.nonpolar>
-25.9589

> <Gold.PLP.part.repulsive>
0.3650

> <Gold.PLP.ligand.clash>
0.0000

> <Gold.PLP.ligand.torsion>
1.1541

> <Gold.PLP.Chemscore.Hbond>
3.0000

> <Gold.PLP.Chemscore.CHOScore>
0.9972

> <Gold.PLP.Chemscore.Metal>
0.0000

> <Gold.Chemscore.Hbonds>
donor molecule, donor type, donor heavy atom, donor atom, acceptor molecule, acceptor atom, score
      L1  H     3    19       P1  8028  0.98
      L1  H     6    20       P1  8028  1.00
      P1  H  7989  7998       L1     8  0.69
      L1  C     9    21       P1  7948  0.74

> <Gold.PLP.Chemscore.Internal.Correction>
1.0667

> <Gold.Rescore>
     Score         DG    S(hbond)    S(metal)    S(lipo)     H(rot)  DE(clash)    DE(int)     intcor
     17.19     -19.97       2.82        0.00      71.55       1.29       0.58       2.21       ----

> <Gold.Chemscore.Fitness>
17.1873

> <Gold.Chemscore.DG>
-19.9734

> <Gold.Chemscore.ZeroCoef>
-5.4800

> <Gold.Chemscore.Hbond>
2.8227

> <Gold.Chemscore.Metal>
0.0000

> <Gold.Chemscore.Lipo>
71.5548

> <Gold.Chemscore.Internal_Hbond>
0.0000

> <Gold.Chemscore.DEClash>
0.5760

> <Gold.Chemscore.DEInternal>
2.2100

> <Gold.Chemscore.Rot>
1.2915

> <Gold.Chemscore.Internal.Correction>
   9.000000E+99

> <Gold.Chemscore.Hbonds>
donor molecule, donor type, donor heavy atom, donor atom, acceptor molecule, acceptor atom, score
      L1  H     3    19       P1  8028  0.91
      L1  H     6    20       P1  8028  0.98
      P1  H  7989  7998       L1     8  0.15

> <Gold.Chemscore.Hbond.Weighted>
-9.4277

> <Gold.Chemscore.Metal.Weighted>
-0.0000

> <Gold.Chemscore.Lipo.Weighted>
-8.3719

> <Gold.Chemscore.Internal_Hbond.Weighted>
0.0000

> <Gold.Chemscore.DEClash.Weighted>
0.5760

> <Gold.Chemscore.DEInternal.Weighted>
2.2100

> <Gold.Chemscore.Rot.Weighted>
3.3062

> <Gold.Chemscore.Internal.Correction.Weighted>
   9.000000E+99

> <Gold.Protein.RotatedTorsions>
[ 6907 6896 6895 6894 ] final   25.03 input  -60.11 | X-H torsion
[ 7974 7965 7964 7962 ] final -115.28 input  175.53 | X-H torsion
[ 8008 7997 7996 7995 ] final  -27.90 input   59.86 | X-H torsion
[ 10167 10162 10161 10158 ] final -160.32 input  -65.29 | X-H torsion
[ 10718 10713 10712 10709 ] final   34.02 input   66.30 | X-H torsion
[ 10763 10752 10751 10750 ] final  -92.08 input  -60.55 | X-H torsion
[ 11005 11000 10999 10996 ] final  153.83 input  -57.11 | X-H torsion

> <Gold.Protein.ActiveResidues>
 VAL166  LYS551  ARG553  GLY616  TRP617  ASP618  TYR619  PRO620  LYS621  CYS622 
 ASP623  PHE694  ASN695  SER759  ASP760  ASP761  ALA762  ILE779  LEU786  VAL792 
 PHE793  MET794  SER795  GLU796  ALA797  LYS798  CYS799  TRP800  GLU811  SER814 

> <Gold.Protein.RotatedAtoms>
  151.9664  135.0098  160.0550 H   0  0  0  0  0  0  0  0  0  0  0  0  # atno 6907 bound_to 6896
  152.1823  133.4711  159.4972 H   0  0  0  0  0  0  0  0  0  0  0  0  # atno 6908 bound_to 6896
  150.6919  134.1735  159.4264 H   0  0  0  0  0  0  0  0  0  0  0  0  # atno 6909 bound_to 6896
  145.1103  140.8607  143.3874 H   0  0  0  0  0  0  0  0  0  0  0  0  # atno 7974 bound_to 7965
  154.4356  140.1860  156.1005 H   0  0  0  0  0  0  0  0  0  0  0  0  # atno 8008 bound_to 7997
  156.0296  140.3332  155.7099 H   0  0  0  0  0  0  0  0  0  0  0  0  # atno 8009 bound_to 7997
  155.5859  140.0626  157.2762 H   0  0  0  0  0  0  0  0  0  0  0  0  # atno 8010 bound_to 7997
  139.6548  144.0019  152.2186 H   0  0  0  0  0  0  0  0  0  0  0  0  # atno 10167 bound_to 10162
  157.3051  130.7371  149.6690 H   0  0  0  0  0  0  0  0  0  0  0  0  # atno 10718 bound_to 10713
  154.6825  135.5244  153.8282 H   0  0  0  0  0  0  0  0  0  0  0  0  # atno 10763 bound_to 10752
  153.0574  135.6556  154.0553 H   0  0  0  0  0  0  0  0  0  0  0  0  # atno 10764 bound_to 10752
  154.0439  135.2975  155.3330 H   0  0  0  0  0  0  0  0  0  0  0  0  # atno 10765 bound_to 10752
  140.1433  134.8724  157.2360 H   0  0  0  0  0  0  0  0  0  0  0  0  # atno 11005 bound_to 11000
  145.0855  139.2928  143.5762 LP  0  0  0  0  0  0  0  0  0  0  0  0  # atno 17320 bound_to 7965
  146.3526  140.0375  142.8645 LP  0  0  0  0  0  0  0  0  0  0  0  0  # atno 17321 bound_to 7965
  139.9742  144.6473  150.7960 LP  0  0  0  0  0  0  0  0  0  0  0  0  # atno 17342 bound_to 10162
  140.7554  143.3046  151.2995 LP  0  0  0  0  0  0  0  0  0  0  0  0  # atno 17343 bound_to 10162
  155.9674  130.4268  150.4715 LP  0  0  0  0  0  0  0  0  0  0  0  0  # atno 17370 bound_to 10713
  157.2703  131.0586  151.2264 LP  0  0  0  0  0  0  0  0  0  0  0  0  # atno 17371 bound_to 10713
  140.2694  134.3477  155.7378 LP  0  0  0  0  0  0  0  0  0  0  0  0  # atno 17394 bound_to 11000
  141.2189  133.7415  156.9201 LP  0  0  0  0  0  0  0  0  0  0  0  0  # atno 17395 bound_to 11000

$$$$
