AV-unprocessed.smi:287|AV-procd|sdf|2192|dock5
  -GOLD-   2262021583D 1   1.00000     0.00000
 Structure written by MMmdl.
 55 58  0  0  0  0  0  0  0  0  1 V2000
  152.0287  137.9932  154.0744 C   0  0  0  0  0  0  0  0  0  0  0  0
  150.8679  138.8647  154.4118 C   0  0  0  0  0  0  0  0  0  0  0  0
  149.5169  138.7330  154.2747 C   0  0  0  0  0  0  0  0  0  0  0  0
  148.9175  139.9169  154.7994 C   0  0  0  0  0  0  0  0  0  0  0  0
  147.4251  140.2142  154.8592 C   0  0  2  0  0  0  0  0  0  0  0  0
  147.1682  141.6716  154.4423 C   0  0  0  0  0  0  0  0  0  0  0  0
  146.8935  140.0971  156.1647 O   0  0  0  0  0  0  0  0  0  0  0  0
  146.5964  139.2532  153.9762 C   0  0  0  0  0  0  0  0  0  0  0  0
  145.2221  139.0999  154.4425 N   0  0  0  0  0  0  0  0  0  0  0  0
  144.4118  138.1816  153.8772 C   0  0  0  0  0  0  0  0  0  0  0  0
  143.0951  138.1134  154.2049 N   0  0  0  0  0  0  0  0  0  0  0  0
  142.3117  137.1982  153.6267 C   0  0  0  0  0  0  0  0  0  0  0  0
  142.6361  136.2779  152.7166 N   0  0  0  0  0  0  0  0  0  0  0  0
  143.9589  136.3417  152.3856 C   0  0  0  0  0  0  0  0  0  0  0  0
  144.9054  137.2595  152.9191 C   0  0  0  0  0  0  0  0  0  0  0  0
  146.1525  137.0352  152.3505 N   0  0  0  0  0  0  0  0  0  0  0  0
  145.9495  136.0424  151.5266 C   0  0  0  0  0  0  0  0  0  0  0  0
  144.6580  135.5666  151.4810 N   0  0  0  0  0  0  0  0  0  0  0  0
  144.1281  134.4542  150.6320 C   0  0  1  0  0  0  0  0  0  0  0  0
  145.1521  133.9481  149.8406 O   0  0  0  0  0  0  0  0  0  0  0  0
  144.8763  132.5860  149.5319 C   0  0  1  0  0  0  0  0  0  0  0  0
  146.1882  131.7809  149.5715 C   0  0  0  0  0  0  0  0  0  0  0  0
  146.8034  131.8311  150.8423 O   0  0  0  0  0  0  0  0  0  0  0  0
  143.7633  132.1112  150.4913 C   0  0  2  0  0  0  0  0  0  0  0  0
  142.5731  131.8925  149.7572 O   0  0  0  0  0  0  0  0  0  0  0  0
  143.5713  133.2806  151.4503 C   0  0  1  0  0  0  0  0  0  0  0  0
  144.2625  133.0613  152.6663 O   0  0  0  0  0  0  0  0  0  0  0  0
  149.9755  140.6942  155.2061 C   0  0  0  0  0  0  0  0  0  0  0  0
  150.0905  142.0484  155.8245 C   0  0  0  0  0  0  0  0  0  0  0  0
  151.1604  140.0616  154.9792 O   0  0  0  0  0  0  0  0  0  0  0  0
  143.3733  134.9152  149.9932 H   0  0  0  0  0  0  0  0  0  0  0  0
  144.5118  132.5750  148.5032 H   0  0  0  0  0  0  0  0  0  0  0  0
  144.0101  131.1845  151.0111 H   0  0  0  0  0  0  0  0  0  0  0  0
  142.5238  133.4683  151.6907 H   0  0  0  0  0  0  0  0  0  0  0  0
  151.6933  137.0213  153.7120 H   0  0  0  0  0  0  0  0  0  0  0  0
  152.6563  137.8285  154.9503 H   0  0  0  0  0  0  0  0  0  0  0  0
  152.6422  138.4505  153.2981 H   0  0  0  0  0  0  0  0  0  0  0  0
  149.0114  137.8778  153.8509 H   0  0  0  0  0  0  0  0  0  0  0  0
  147.5121  141.8578  153.4243 H   0  0  0  0  0  0  0  0  0  0  0  0
  147.6918  142.3691  155.0977 H   0  0  0  0  0  0  0  0  0  0  0  0
  146.1063  141.9174  154.4789 H   0  0  0  0  0  0  0  0  0  0  0  0
  146.9317  140.9447  156.5808 H   0  0  0  0  0  0  0  0  0  0  0  0
  146.6108  139.5700  152.9322 H   0  0  0  0  0  0  0  0  0  0  0  0
  147.0600  138.2660  154.0088 H   0  0  0  0  0  0  0  0  0  0  0  0
  144.9569  139.6664  155.2358 H   0  0  0  0  0  0  0  0  0  0  0  0
  141.2769  137.2045  153.9360 H   0  0  0  0  0  0  0  0  0  0  0  0
  146.7427  135.6292  150.9207 H   0  0  0  0  0  0  0  0  0  0  0  0
  145.9835  130.7350  149.3422 H   0  0  0  0  0  0  0  0  0  0  0  0
  146.8844  132.1433  148.8148 H   0  0  0  0  0  0  0  0  0  0  0  0
  147.7170  131.6110  150.7442 H   0  0  0  0  0  0  0  0  0  0  0  0
  142.0719  132.6934  149.7510 H   0  0  0  0  0  0  0  0  0  0  0  0
  143.6789  132.6242  153.2676 H   0  0  0  0  0  0  0  0  0  0  0  0
  149.5457  142.7886  155.2381 H   0  0  0  0  0  0  0  0  0  0  0  0
  151.1310  142.3689  155.8837 H   0  0  0  0  0  0  0  0  0  0  0  0
  149.6814  142.0473  156.8349 H   0  0  0  0  0  0  0  0  0  0  0  0
  1  2  1  0  0  0  0
  1 35  1  0  0  0  0
  1 36  1  0  0  0  0
  1 37  1  0  0  0  0
  2 30  1  0  0  0  0
  2  3  2  0  0  0  0
  3  4  1  0  0  0  0
  3 38  1  0  0  0  0
  4  5  1  0  0  0  0
  4 28  2  0  0  0  0
  5  6  1  0  0  0  0
  5  7  1  0  0  0  0
  5  8  1  0  0  0  0
  6 39  1  0  0  0  0
  6 40  1  0  0  0  0
  6 41  1  0  0  0  0
  7 42  1  0  0  0  0
  8  9  1  0  0  0  0
  8 43  1  0  0  0  0
  8 44  1  0  0  0  0
  9 10  1  0  0  0  0
  9 45  1  0  0  0  0
 10 15  1  0  0  0  0
 10 11  2  0  0  0  0
 11 12  1  0  0  0  0
 12 13  2  0  0  0  0
 12 46  1  0  0  0  0
 13 14  1  0  0  0  0
 14 18  1  0  0  0  0
 14 15  2  0  0  0  0
 15 16  1  0  0  0  0
 16 17  2  0  0  0  0
 17 18  1  0  0  0  0
 17 47  1  0  0  0  0
 18 19  1  0  0  0  0
 19 31  1  0  0  0  0
 19 26  1  0  0  0  0
 19 20  1  0  0  0  0
 20 21  1  0  0  0  0
 21 32  1  0  0  0  0
 21 22  1  0  0  0  0
 21 24  1  0  0  0  0
 22 23  1  0  0  0  0
 22 48  1  0  0  0  0
 22 49  1  0  0  0  0
 23 50  1  0  0  0  0
 24 33  1  0  0  0  0
 24 25  1  0  0  0  0
 24 26  1  0  0  0  0
 25 51  1  0  0  0  0
 26 34  1  0  0  0  0
 26 27  1  0  0  0  0
 27 52  1  0  0  0  0
 28 29  1  0  0  0  0
 28 30  1  0  0  0  0
 29 53  1  0  0  0  0
 29 54  1  0  0  0  0
 29 55  1  0  0  0  0
M  END
> <s_m_source_file>
AV-unprocessed.smi

> <i_m_source_file_index>
287

> <i_lp_mmshare_version>
43012

> <i_f3d_flags>
0

> <s_epik_input>
W0NIM11jMVtjSF1jKGMobzEpW0NIM10pW0NAQF0oW0NIM10pKFtPSF0pW0NIMl1bTkhdYyhuW2NIXW4yKWMoYzIzKW5bY0hdbjNbQ0BASF00T1tDQEhdKFtDSDJdW09IXSlbQ0BASF0oW09IXSlbQ0BIXTRbT0hd

> <s_epik_cmdline>
J2VwaWtfcHl0aG9uJywgJy1waCcsICc3LjAnLCAnLXRuJywgJzgnLCAnLW1hJywgJzIwMCcsICctbWV0YWxfYmluZGluZycsICctaW1hZScsICc8aW5maWxlLm1hZT4nLCAnLW9tYWUnLCAnPG91dGZpbGUubWFlPic=

> <r_lp_tautomer_probability>
1

> <r_epik_Ionization_Penalty>
0.000992612

> <r_epik_Ionization_Penalty_Charging>
0

> <r_epik_Ionization_Penalty_Neutral>
0.000992612

> <r_epik_State_Penalty>
-0

> <r_epik_Charging_Adjusted_Penalty>
0

> <i_epik_Tot_Q>
0

> <i_epik_Tot_abs_Q>
0

> <r_epik_Metal_State_Penalty>
-0

> <b_epik_Metal_Only>
0

> <s_epik_Chemistry_Notes>
This compound contains an acetal/aminal-like group ( X-CH(R)-Y where X, Y are N, S, or O) that may be acid/base labile, releasing an aldehyde.

> <s_lp_Force_Field>
OPLS_2005

> <r_lp_Energy>
44.6889

> <b_lp_Chiralities_Consistent>
1

> <s_lp_Variant>
AV-unprocessed.smi:287-16

> <Gold.Version>
5.8.1

> <Gold.Id.Protein>
6NUR|6NUR_protein|mol2

> <Gold.PLP.Fitness>
52.9800

> <Gold.PLP.PLP>
-39.5079

> <Gold.PLP.part.hbond>
-5.7824

> <Gold.PLP.part.metal>
0.0000

> <Gold.PLP.part.buried>
-0.5324

> <Gold.PLP.part.nonpolar>
-39.9465

> <Gold.PLP.part.repulsive>
6.5869

> <Gold.PLP.ligand.clash>
0.0000

> <Gold.PLP.ligand.torsion>
1.0845

> <Gold.PLP.Chemscore.Hbond>
4.5388

> <Gold.PLP.Chemscore.CHOScore>
0.6397

> <Gold.PLP.Chemscore.Metal>
0.0000

> <Gold.Chemscore.Hbonds>
donor molecule, donor type, donor heavy atom, donor atom, acceptor molecule, acceptor atom, score
      L1  H    23    50       P1 10747  1.00
      L1  H    25    51       P1 10186  1.00
      L1  H    27    52       P1 10957  1.00
      P1  H  7989  7998       L1    30  0.85
      P1  H 10785 10796       L1    25  0.72
      L1  C    17    47       P1  7948  0.64

> <Gold.PLP.Chemscore.Internal.Correction>
0.1057

> <Gold.Rescore>
     Score         DG    S(hbond)    S(metal)    S(lipo)     H(rot)  DE(clash)    DE(int)     intcor
      8.40     -12.41       2.86        0.00      92.74       5.27       1.56       2.44       ----

> <Gold.Chemscore.Fitness>
8.4033

> <Gold.Chemscore.DG>
-12.4104

> <Gold.Chemscore.ZeroCoef>
-5.4800

> <Gold.Chemscore.Hbond>
2.8636

> <Gold.Chemscore.Metal>
0.0000

> <Gold.Chemscore.Lipo>
92.7353

> <Gold.Chemscore.Internal_Hbond>
0.0000

> <Gold.Chemscore.DEClash>
1.5626

> <Gold.Chemscore.DEInternal>
2.4445

> <Gold.Chemscore.Rot>
5.2672

> <Gold.Chemscore.Internal.Correction>
   9.000000E+99

> <Gold.Chemscore.Hbonds>
donor molecule, donor type, donor heavy atom, donor atom, acceptor molecule, acceptor atom, score
      L1  H    23    50       P1 10747  0.94
      L1  H    25    51       P1 10186  0.93
      L1  H    27    52       P1 10957  0.29
      P1  H  7989  7998       L1    30  0.04
      P1  H 10785 10796       L1    25  0.14

> <Gold.Chemscore.Hbond.Weighted>
-9.5643

> <Gold.Chemscore.Metal.Weighted>
-0.0000

> <Gold.Chemscore.Lipo.Weighted>
-10.8500

> <Gold.Chemscore.Internal_Hbond.Weighted>
0.0000

> <Gold.Chemscore.DEClash.Weighted>
1.5626

> <Gold.Chemscore.DEInternal.Weighted>
2.4445

> <Gold.Chemscore.Rot.Weighted>
13.4839

> <Gold.Chemscore.Internal.Correction.Weighted>
   9.000000E+99

> <Gold.Protein.RotatedTorsions>
[ 6907 6896 6895 6894 ] final  -34.18 input  -60.11 | X-H torsion
[ 7974 7965 7964 7962 ] final   15.96 input  175.53 | X-H torsion
[ 8008 7997 7996 7995 ] final  -34.24 input   59.86 | X-H torsion
[ 10167 10162 10161 10158 ] final  -74.81 input  -65.29 | X-H torsion
[ 10718 10713 10712 10709 ] final -112.11 input   66.30 | X-H torsion
[ 10763 10752 10751 10750 ] final  -32.99 input  -60.55 | X-H torsion
[ 11005 11000 10999 10996 ] final  132.71 input  -57.11 | X-H torsion

> <Gold.Protein.ActiveResidues>
 VAL166  LYS551  ARG553  GLY616  TRP617  ASP618  TYR619  PRO620  LYS621  CYS622 
 ASP623  PHE694  ASN695  SER759  ASP760  ASP761  ALA762  ILE779  LEU786  VAL792 
 PHE793  MET794  SER795  GLU796  ALA797  LYS798  CYS799  TRP800  GLU811  SER814 

> <Gold.Protein.RotatedAtoms>
  151.0559  134.9704  159.8235 H   0  0  0  0  0  0  0  0  0  0  0  0  # atno 6907 bound_to 6896
  152.5388  134.2478  159.8897 H   0  0  0  0  0  0  0  0  0  0  0  0  # atno 6908 bound_to 6896
  151.2496  133.4314  159.2644 H   0  0  0  0  0  0  0  0  0  0  0  0  # atno 6909 bound_to 6896
  146.2263  139.8818  142.8569 H   0  0  0  0  0  0  0  0  0  0  0  0  # atno 7974 bound_to 7965
  154.4126  140.1689  156.2017 H   0  0  0  0  0  0  0  0  0  0  0  0  # atno 8008 bound_to 7997
  155.9518  140.3400  155.6391 H   0  0  0  0  0  0  0  0  0  0  0  0  # atno 8009 bound_to 7997
  155.6859  140.0728  157.2457 H   0  0  0  0  0  0  0  0  0  0  0  0  # atno 8010 bound_to 7997
  140.4996  143.2364  151.7774 H   0  0  0  0  0  0  0  0  0  0  0  0  # atno 10167 bound_to 10162
  156.0686  130.5902  150.8464 H   0  0  0  0  0  0  0  0  0  0  0  0  # atno 10718 bound_to 10713
  153.8228  135.6873  153.4825 H   0  0  0  0  0  0  0  0  0  0  0  0  # atno 10763 bound_to 10752
  153.1558  135.4599  154.9701 H   0  0  0  0  0  0  0  0  0  0  0  0  # atno 10764 bound_to 10752
  154.7920  135.3305  154.7699 H   0  0  0  0  0  0  0  0  0  0  0  0  # atno 10765 bound_to 10752
  139.9807  134.9549  156.9621 H   0  0  0  0  0  0  0  0  0  0  0  0  # atno 11005 bound_to 11000
  145.2505  141.0042  143.3884 LP  0  0  0  0  0  0  0  0  0  0  0  0  # atno 17320 bound_to 7965
  144.9378  139.4223  143.6463 LP  0  0  0  0  0  0  0  0  0  0  0  0  # atno 17321 bound_to 7965
  139.4869  144.4540  151.9620 LP  0  0  0  0  0  0  0  0  0  0  0  0  # atno 17342 bound_to 10162
  140.3629  144.2951  150.5931 LP  0  0  0  0  0  0  0  0  0  0  0  0  # atno 17343 bound_to 10162
  157.5743  131.0946  150.9369 LP  0  0  0  0  0  0  0  0  0  0  0  0  # atno 17370 bound_to 10713
  156.9579  130.5444  149.5285 LP  0  0  0  0  0  0  0  0  0  0  0  0  # atno 17371 bound_to 10713
  140.5103  134.1009  155.7269 LP  0  0  0  0  0  0  0  0  0  0  0  0  # atno 17394 bound_to 11000
  141.1479  133.9022  157.2170 LP  0  0  0  0  0  0  0  0  0  0  0  0  # atno 17395 bound_to 11000

$$$$
