AV-unprocessed.smi:3027|AV-procd|sdf|11516|dock3
  -GOLD-   2272016453D 1   1.00000     0.00000
 Structure written by MMmdl.
 37 38  0  0  0  0  0  0  0  0  2 V2000
  150.7070  135.8526  155.2149 C   0  0  0  0  0  0  0  0  0  0  0  0
  151.0858  137.3054  155.2376 C   0  0  0  0  0  0  0  0  0  0  0  0
  151.6206  138.0872  154.1743 C   0  0  0  0  0  0  0  0  0  0  0  0
  151.8427  139.3442  154.5223 N   0  0  0  0  0  0  0  0  0  0  0  0
  151.4620  139.4079  155.8159 N   0  0  0  0  0  0  0  0  0  0  0  0
  151.5555  140.6652  156.5345 C   0  0  0  0  0  0  0  0  0  0  0  0
  150.7268  141.7900  155.8798 C   0  0  1  0  0  0  0  0  0  0  0  0
  149.6354  141.2050  154.9739 C   0  0  0  0  0  0  0  0  0  0  0  0
  150.1009  142.6588  156.9040 N   0  3  0  0  0  0  0  0  0  0  0  0
  151.0051  143.1357  157.9736 C   0  0  0  0  0  0  0  0  0  0  0  0
  150.2391  143.7450  159.1465 C   0  0  0  0  0  0  0  0  0  0  0  0
  151.2811  144.5971  159.8769 C   0  0  0  0  0  0  0  0  0  0  0  0
  152.3256  144.9920  158.8199 C   0  0  0  0  0  0  0  0  0  0  0  0
  151.9217  144.2769  157.5242 C   0  0  0  0  0  0  0  0  0  0  0  0
  151.0033  138.1914  156.2740 C   0  0  0  0  0  0  0  0  0  0  0  0
  150.9318  135.3894  154.2541 H   0  0  0  0  0  0  0  0  0  0  0  0
  149.6415  135.7124  155.3977 H   0  0  0  0  0  0  0  0  0  0  0  0
  151.2422  135.2859  155.9772 H   0  0  0  0  0  0  0  0  0  0  0  0
  151.8507  137.7801  153.1646 H   0  0  0  0  0  0  0  0  0  0  0  0
  151.2076  140.4909  157.5537 H   0  0  0  0  0  0  0  0  0  0  0  0
  152.6050  140.9544  156.6127 H   0  0  0  0  0  0  0  0  0  0  0  0
  151.3837  142.3883  155.2466 H   0  0  0  0  0  0  0  0  0  0  0  0
  150.0678  140.5844  154.1884 H   0  0  0  0  0  0  0  0  0  0  0  0
  149.0635  141.9962  154.4877 H   0  0  0  0  0  0  0  0  0  0  0  0
  148.9369  140.5870  155.5391 H   0  0  0  0  0  0  0  0  0  0  0  0
  149.7116  143.4701  156.4456 H   0  0  0  0  0  0  0  0  0  0  0  0
  151.6115  142.3106  158.3490 H   0  0  0  0  0  0  0  0  0  0  0  0
  149.4383  144.3886  158.7790 H   0  0  0  0  0  0  0  0  0  0  0  0
  149.7895  142.9897  159.7921 H   0  0  0  0  0  0  0  0  0  0  0  0
  150.8281  145.4668  160.3539 H   0  0  0  0  0  0  0  0  0  0  0  0
  151.7587  144.0072  160.6605 H   0  0  0  0  0  0  0  0  0  0  0  0
  152.3657  146.0721  158.6751 H   0  0  0  0  0  0  0  0  0  0  0  0
  153.3173  144.6702  159.1402 H   0  0  0  0  0  0  0  0  0  0  0  0
  152.7858  143.9258  156.9595 H   0  0  0  0  0  0  0  0  0  0  0  0
  151.3707  144.9703  156.8869 H   0  0  0  0  0  0  0  0  0  0  0  0
  150.6552  138.0590  157.2881 H   0  0  0  0  0  0  0  0  0  0  0  0
  149.3457  142.1391  157.3286 H   0  0  0  0  0  0  0  0  0  0  0  0
  1  2  1  0  0  0  0
  1 16  1  0  0  0  0
  1 17  1  0  0  0  0
  1 18  1  0  0  0  0
  2 15  2  0  0  0  0
  2  3  1  0  0  0  0
  3  4  2  0  0  0  0
  3 19  1  0  0  0  0
  4  5  1  0  0  0  0
  5  6  1  0  0  0  0
  5 15  1  0  0  0  0
  6  7  1  0  0  0  0
  6 20  1  0  0  0  0
  6 21  1  0  0  0  0
  7  8  1  0  0  0  0
  7  9  1  0  0  0  0
  7 22  1  0  0  0  0
  8 23  1  0  0  0  0
  8 24  1  0  0  0  0
  8 25  1  0  0  0  0
  9 10  1  0  0  0  0
  9 26  1  0  0  0  0
  9 37  1  0  0  0  0
 10 14  1  0  0  0  0
 10 11  1  0  0  0  0
 10 27  1  0  0  0  0
 11 12  1  0  0  0  0
 11 28  1  0  0  0  0
 11 29  1  0  0  0  0
 12 13  1  0  0  0  0
 12 30  1  0  0  0  0
 12 31  1  0  0  0  0
 13 14  1  0  0  0  0
 13 32  1  0  0  0  0
 13 33  1  0  0  0  0
 14 34  1  0  0  0  0
 14 35  1  0  0  0  0
 15 36  1  0  0  0  0
M  CHG  1   9   1
M  END
> <s_m_source_file>
AV-unprocessed.smi

> <i_m_source_file_index>
3027

> <i_lp_mmshare_version>
43012

> <i_f3d_flags>
0

> <s_epik_input>
W0NIM11jMVtjSF1ubihbY0hdMSlbQ0gyXVtDQEhdKFtDSDNdKVtOSF1bQ0hdMltDSDJdW0NIMl1bQ0gyXVtDSDJdMg==

> <s_epik_cmdline>
J2VwaWtfcHl0aG9uJywgJy1waCcsICc3LjAnLCAnLXRuJywgJzgnLCAnLW1hJywgJzIwMCcsICctbWV0YWxfYmluZGluZycsICctaW1hZScsICc8aW5maWxlLm1hZT4nLCAnLW9tYWUnLCAnPG91dGZpbGUubWFlPic=

> <r_lp_tautomer_probability>
1

> <r_epik_Ionization_Penalty>
0.00150056

> <r_epik_Ionization_Penalty_Charging>
0.00149132

> <r_epik_Ionization_Penalty_Neutral>
9.24096e-06

> <r_epik_State_Penalty>
0.00099871

> <r_epik_Charging_Adjusted_Penalty>
0.00249003

> <i_epik_Tot_Q>
1

> <i_epik_Tot_abs_Q>
1

> <r_epik_Metal_State_Penalty>
-0

> <b_epik_Metal_Only>
0

> <s_lp_Force_Field>
OPLS_2005

> <r_lp_Energy>
25.7776

> <b_lp_Chiralities_Consistent>
1

> <s_lp_Variant>
AV-unprocessed.smi:3027-2

> <Gold.Version>
5.8.1

> <Gold.Id.Protein>
6NUR|6NUR_protein|mol2

> <Gold.PLP.Fitness>
46.8979

> <Gold.PLP.PLP>
-36.2805

> <Gold.PLP.part.hbond>
-2.0000

> <Gold.PLP.part.metal>
0.0000

> <Gold.PLP.part.buried>
-5.4727

> <Gold.PLP.part.nonpolar>
-28.8859

> <Gold.PLP.part.repulsive>
0.1006

> <Gold.PLP.ligand.clash>
0.0000

> <Gold.PLP.ligand.torsion>
0.6948

> <Gold.PLP.Chemscore.Hbond>
3.0000

> <Gold.PLP.Chemscore.CHOScore>
0.9915

> <Gold.PLP.Chemscore.Metal>
0.0000

> <Gold.Chemscore.Hbonds>
donor molecule, donor type, donor heavy atom, donor atom, acceptor molecule, acceptor atom, score
      L1  H     9    26       P1  8028  2.00
      P1  H  7989  7998       L1     4  0.98
      L1  C     3    19       P1  7949  0.98

> <Gold.PLP.Chemscore.Internal.Correction>
0.0323

> <Gold.Rescore>
     Score         DG    S(hbond)    S(metal)    S(lipo)     H(rot)  DE(clash)    DE(int)     intcor
     18.19     -20.41       1.95        0.00     102.61       1.40       0.22       2.00       ----

> <Gold.Chemscore.Fitness>
18.1911

> <Gold.Chemscore.DG>
-20.4103

> <Gold.Chemscore.ZeroCoef>
-5.4800

> <Gold.Chemscore.Hbond>
1.9481

> <Gold.Chemscore.Metal>
0.0000

> <Gold.Chemscore.Lipo>
102.6096

> <Gold.Chemscore.Internal_Hbond>
0.0000

> <Gold.Chemscore.DEClash>
0.2196

> <Gold.Chemscore.DEInternal>
1.9997

> <Gold.Chemscore.Rot>
1.3991

> <Gold.Chemscore.Internal.Correction>
   9.000000E+99

> <Gold.Chemscore.Hbonds>
donor molecule, donor type, donor heavy atom, donor atom, acceptor molecule, acceptor atom, score
      L1  H     9    26       P1  8028  1.00
      P1  H  7989  7998       L1     4  0.89

> <Gold.Chemscore.Hbond.Weighted>
-6.5068

> <Gold.Chemscore.Metal.Weighted>
-0.0000

> <Gold.Chemscore.Lipo.Weighted>
-12.0053

> <Gold.Chemscore.Internal_Hbond.Weighted>
0.0000

> <Gold.Chemscore.DEClash.Weighted>
0.2196

> <Gold.Chemscore.DEInternal.Weighted>
1.9997

> <Gold.Chemscore.Rot.Weighted>
3.5818

> <Gold.Chemscore.Internal.Correction.Weighted>
   9.000000E+99

> <Gold.Protein.RotatedTorsions>
[ 6907 6896 6895 6894 ] final   13.70 input  -60.11 | X-H torsion
[ 7974 7965 7964 7962 ] final  123.31 input  175.53 | X-H torsion
[ 8008 7997 7996 7995 ] final -142.08 input   59.86 | X-H torsion
[ 10167 10162 10161 10158 ] final   38.09 input  -65.29 | X-H torsion
[ 10718 10713 10712 10709 ] final   -9.60 input   66.30 | X-H torsion
[ 10763 10752 10751 10750 ] final -124.64 input  -60.55 | X-H torsion
[ 11005 11000 10999 10996 ] final  155.00 input  -57.11 | X-H torsion

> <Gold.Protein.ActiveResidues>
 VAL166  LYS551  ARG553  GLY616  TRP617  ASP618  TYR619  PRO620  LYS621  CYS622 
 ASP623  PHE694  ASN695  SER759  ASP760  ASP761  ALA762  ILE779  LEU786  VAL792 
 PHE793  MET794  SER795  GLU796  ALA797  LYS798  CYS799  TRP800  GLU811  SER814 

> <Gold.Protein.RotatedAtoms>
  151.7905  135.0737  160.0386 H   0  0  0  0  0  0  0  0  0  0  0  0  # atno 6907 bound_to 6896
  152.3160  133.5798  159.5721 H   0  0  0  0  0  0  0  0  0  0  0  0  # atno 6908 bound_to 6896
  150.7344  133.9998  159.3676 H   0  0  0  0  0  0  0  0  0  0  0  0  # atno 6909 bound_to 6896
  145.0974  139.3543  143.4829 H   0  0  0  0  0  0  0  0  0  0  0  0  # atno 7974 bound_to 7965
  155.4884  140.0566  157.2957 H   0  0  0  0  0  0  0  0  0  0  0  0  # atno 8008 bound_to 7997
  154.4633  140.2006  156.0138 H   0  0  0  0  0  0  0  0  0  0  0  0  # atno 8009 bound_to 7997
  156.0929  140.3230  155.7844 H   0  0  0  0  0  0  0  0  0  0  0  0  # atno 8010 bound_to 7997
  140.3969  144.1776  150.6132 H   0  0  0  0  0  0  0  0  0  0  0  0  # atno 10167 bound_to 10162
  156.6857  130.5050  149.5958 H   0  0  0  0  0  0  0  0  0  0  0  0  # atno 10718 bound_to 10713
  154.8726  135.4057  154.3138 H   0  0  0  0  0  0  0  0  0  0  0  0  # atno 10763 bound_to 10752
  153.3978  135.7017  153.6454 H   0  0  0  0  0  0  0  0  0  0  0  0  # atno 10764 bound_to 10752
  153.5209  135.3687  155.2602 H   0  0  0  0  0  0  0  0  0  0  0  0  # atno 10765 bound_to 10752
  140.1541  134.8654  157.2492 H   0  0  0  0  0  0  0  0  0  0  0  0  # atno 11005 bound_to 11000
  146.3530  140.0836  142.8616 LP  0  0  0  0  0  0  0  0  0  0  0  0  # atno 17320 bound_to 7965
  145.0995  140.9336  143.4721 LP  0  0  0  0  0  0  0  0  0  0  0  0  # atno 17321 bound_to 7965
  140.4780  143.2389  151.8995 LP  0  0  0  0  0  0  0  0  0  0  0  0  # atno 17342 bound_to 10162
  139.4786  144.5299  151.8681 LP  0  0  0  0  0  0  0  0  0  0  0  0  # atno 17343 bound_to 10162
  156.1834  130.6514  151.0978 LP  0  0  0  0  0  0  0  0  0  0  0  0  # atno 17370 bound_to 10713
  157.7027  131.0769  150.6768 LP  0  0  0  0  0  0  0  0  0  0  0  0  # atno 17371 bound_to 10713
  140.2569  134.3617  155.7421 LP  0  0  0  0  0  0  0  0  0  0  0  0  # atno 17394 bound_to 11000
  141.2202  133.7347  156.9020 LP  0  0  0  0  0  0  0  0  0  0  0  0  # atno 17395 bound_to 11000

$$$$
