AV-unprocessed.smi:1546|AV-procd|sdf|6219|dock6
  -GOLD-   22720 6393D 1   1.00000     0.00000
 Structure written by MMmdl.
 29 30  0  0  0  0  0  0  0  0  2 V2000
  149.6400  142.4672  157.2540 O   0  0  0  0  0  0  0  0  0  0  0  0
  150.8286  142.2497  157.4915 C   0  0  0  0  0  0  0  0  0  0  0  0
  151.5799  143.1102  158.5088 C   0  0  0  0  0  0  0  0  0  0  0  0
  152.0466  142.2974  159.5752 O   0  0  0  0  0  0  0  0  0  0  0  0
  152.8939  143.0022  160.4651 C   0  0  0  0  0  0  0  0  0  0  0  0
  152.6500  142.5090  161.8751 C   0  0  0  0  0  0  0  0  0  0  0  0
  153.1232  143.3178  163.0617 C   0  0  0  0  0  0  0  0  0  0  0  0
  153.7959  142.0107  162.7262 C   0  0  0  0  0  0  0  0  0  0  0  0
  151.5672  141.2940  156.8997 N   0  0  0  0  0  0  0  0  0  0  0  0
  151.1780  140.3379  155.9197 C   0  0  0  0  0  0  0  0  0  0  0  0
  150.0056  140.4545  155.1309 C   0  0  0  0  0  0  0  0  0  0  0  0
  149.6266  139.5369  154.2153 N   0  0  0  0  0  0  0  0  0  0  0  0
  150.4071  138.4488  154.0510 C   0  0  0  0  0  0  0  0  0  0  0  0
  151.5835  138.2218  154.7904 C   0  0  0  0  0  0  0  0  0  0  0  0
  151.9737  139.1807  155.7455 C   0  0  0  0  0  0  0  0  0  0  0  0
  153.1094  138.9761  156.4798 O   0  5  0  0  0  0  0  0  0  0  0  0
  152.4185  143.6020  158.0129 H   0  0  0  0  0  0  0  0  0  0  0  0
  150.9108  143.8843  158.8878 H   0  0  0  0  0  0  0  0  0  0  0  0
  153.9406  142.8504  160.1965 H   0  0  0  0  0  0  0  0  0  0  0  0
  152.6863  144.0723  160.4223 H   0  0  0  0  0  0  0  0  0  0  0  0
  151.7014  141.9902  162.0007 H   0  0  0  0  0  0  0  0  0  0  0  0
  153.6794  144.2324  162.8648 H   0  0  0  0  0  0  0  0  0  0  0  0
  152.4808  143.3434  163.9395 H   0  0  0  0  0  0  0  0  0  0  0  0
  153.6021  141.1617  163.3788 H   0  0  0  0  0  0  0  0  0  0  0  0
  154.7981  142.0548  162.3042 H   0  0  0  0  0  0  0  0  0  0  0  0
  152.5517  141.2895  157.1253 H   0  0  0  0  0  0  0  0  0  0  0  0
  149.3275  141.2866  155.2354 H   0  0  0  0  0  0  0  0  0  0  0  0
  150.0805  137.7331  153.3112 H   0  0  0  0  0  0  0  0  0  0  0  0
  152.1703  137.3299  154.6271 H   0  0  0  0  0  0  0  0  0  0  0  0
  1  2  2  0  0  0  0
  2  3  1  0  0  0  0
  2  9  1  0  0  0  0
  3  4  1  0  0  0  0
  3 17  1  0  0  0  0
  3 18  1  0  0  0  0
  4  5  1  0  0  0  0
  5  6  1  0  0  0  0
  5 19  1  0  0  0  0
  5 20  1  0  0  0  0
  6  8  1  0  0  0  0
  6  7  1  0  0  0  0
  6 21  1  0  0  0  0
  7  8  1  0  0  0  0
  7 22  1  0  0  0  0
  7 23  1  0  0  0  0
  8 24  1  0  0  0  0
  8 25  1  0  0  0  0
  9 26  1  0  0  0  0
  9 10  1  0  0  0  0
 10 15  1  0  0  0  0
 10 11  2  0  0  0  0
 11 27  1  0  0  0  0
 11 12  1  0  0  0  0
 12 13  2  0  0  0  0
 13 28  1  0  0  0  0
 13 14  1  0  0  0  0
 14 15  2  0  0  0  0
 14 29  1  0  0  0  0
 15 16  1  0  0  0  0
M  CHG  1  16  -1
M  END
> <s_m_source_file>
AV-unprocessed.smi

> <i_m_source_file_index>
1546

> <i_lp_mmshare_version>
43012

> <i_f3d_flags>
0

> <s_epik_input>
W0NIMl0xW0NIMl1bQ0hdMVtDSDJdT1tDSDJdQyg9TylbTkhdYzJbY0hdbltjSF1bY0hdYzJbT0hd

> <s_epik_cmdline>
J2VwaWtfcHl0aG9uJywgJy1waCcsICc3LjAnLCAnLXRuJywgJzgnLCAnLW1hJywgJzIwMCcsICctbWV0YWxfYmluZGluZycsICctaW1hZScsICc8aW5maWxlLm1hZT4nLCAnLW9tYWUnLCAnPG91dGZpbGUubWFlPic=

> <r_lp_tautomer_probability>
1

> <r_epik_Ionization_Penalty>
6.21828

> <r_epik_Ionization_Penalty_Charging>
1.1523

> <r_epik_Ionization_Penalty_Neutral>
5.06598

> <r_epik_State_Penalty>
5.06586

> <r_epik_Charging_Adjusted_Penalty>
6.21817

> <i_epik_Tot_Q>
-1

> <i_epik_Tot_abs_Q>
1

> <r_epik_Metal_State_Penalty>
1.16681

> <b_epik_Metal_Only>
1

> <s_lp_Force_Field>
OPLS_2005

> <r_lp_Energy>
16.9925

> <b_lp_Chiralities_Consistent>
1

> <s_lp_Variant>
AV-unprocessed.smi:1546-2

> <Gold.Version>
5.8.1

> <Gold.Id.Protein>
6NUR|6NUR_protein|mol2

> <Gold.PLP.Fitness>
43.3808

> <Gold.PLP.PLP>
-35.0379

> <Gold.PLP.part.hbond>
-0.8254

> <Gold.PLP.part.metal>
0.0000

> <Gold.PLP.part.buried>
-4.3735

> <Gold.PLP.part.nonpolar>
-31.7259

> <Gold.PLP.part.repulsive>
0.8793

> <Gold.PLP.ligand.clash>
0.0000

> <Gold.PLP.ligand.torsion>
0.7697

> <Gold.PLP.Chemscore.Hbond>
2.0000

> <Gold.PLP.Chemscore.CHOScore>
1.1073

> <Gold.PLP.Chemscore.Metal>
0.0000

> <Gold.Chemscore.Hbonds>
donor molecule, donor type, donor heavy atom, donor atom, acceptor molecule, acceptor atom, score
      P1  H  7997  8010       L1    16  2.00
      L1  C    13    28       P1  7948  1.00
      L1  C    13    28       P1  7949  0.06

> <Gold.PLP.Chemscore.Internal.Correction>
0.5603

> <Gold.Rescore>
     Score         DG    S(hbond)    S(metal)    S(lipo)     H(rot)  DE(clash)    DE(int)     intcor
     13.40     -15.43       0.99        0.00      92.38       1.62       0.06       1.97       ----

> <Gold.Chemscore.Fitness>
13.4032

> <Gold.Chemscore.DG>
-15.4336

> <Gold.Chemscore.ZeroCoef>
-5.4800

> <Gold.Chemscore.Hbond>
0.9858

> <Gold.Chemscore.Metal>
0.0000

> <Gold.Chemscore.Lipo>
92.3813

> <Gold.Chemscore.Internal_Hbond>
0.0000

> <Gold.Chemscore.DEClash>
0.0601

> <Gold.Chemscore.DEInternal>
1.9704

> <Gold.Chemscore.Rot>
1.6202

> <Gold.Chemscore.Internal.Correction>
   9.000000E+99

> <Gold.Chemscore.Hbonds>
donor molecule, donor type, donor heavy atom, donor atom, acceptor molecule, acceptor atom, score
      P1  H  7997  8010       L1    16  0.99

> <Gold.Chemscore.Hbond.Weighted>
-3.2926

> <Gold.Chemscore.Metal.Weighted>
-0.0000

> <Gold.Chemscore.Lipo.Weighted>
-10.8086

> <Gold.Chemscore.Internal_Hbond.Weighted>
0.0000

> <Gold.Chemscore.DEClash.Weighted>
0.0601

> <Gold.Chemscore.DEInternal.Weighted>
1.9704

> <Gold.Chemscore.Rot.Weighted>
4.1476

> <Gold.Chemscore.Internal.Correction.Weighted>
   9.000000E+99

> <Gold.Protein.RotatedTorsions>
[ 6907 6896 6895 6894 ] final -136.03 input  -60.11 | X-H torsion
[ 7974 7965 7964 7962 ] final  148.59 input  175.53 | X-H torsion
[ 8008 7997 7996 7995 ] final   59.40 input   59.86 | X-H torsion
[ 10167 10162 10161 10158 ] final  136.89 input  -65.29 | X-H torsion
[ 10718 10713 10712 10709 ] final   -1.69 input   66.30 | X-H torsion
[ 10763 10752 10751 10750 ] final   25.06 input  -60.55 | X-H torsion
[ 11005 11000 10999 10996 ] final  -30.47 input  -57.11 | X-H torsion

> <Gold.Protein.ActiveResidues>
 VAL166  LYS551  ARG553  GLY616  TRP617  ASP618  TYR619  PRO620  LYS621  CYS622 
 ASP623  PHE694  ASN695  SER759  ASP760  ASP761  ALA762  ILE779  LEU786  VAL792 
 PHE793  MET794  SER795  GLU796  ALA797  LYS798  CYS799  TRP800  GLU811  SER814 

> <Gold.Protein.RotatedAtoms>
  151.0051  133.6019  159.2689 H   0  0  0  0  0  0  0  0  0  0  0  0  # atno 6907 bound_to 6896
  151.3191  135.0813  159.9309 H   0  0  0  0  0  0  0  0  0  0  0  0  # atno 6908 bound_to 6896
  152.5284  133.9701  159.7812 H   0  0  0  0  0  0  0  0  0  0  0  0  # atno 6909 bound_to 6896
  144.8502  139.6173  143.5977 H   0  0  0  0  0  0  0  0  0  0  0  0  # atno 7974 bound_to 7965
  155.5656  140.3489  155.4502 H   0  0  0  0  0  0  0  0  0  0  0  0  # atno 8008 bound_to 7997
  156.0482  140.1311  157.0106 H   0  0  0  0  0  0  0  0  0  0  0  0  # atno 8009 bound_to 7997
  154.4422  140.1010  156.6322 H   0  0  0  0  0  0  0  0  0  0  0  0  # atno 8010 bound_to 7997
  139.5164  144.6440  151.5491 H   0  0  0  0  0  0  0  0  0  0  0  0  # atno 10167 bound_to 10162
  156.8018  130.5395  149.5720 H   0  0  0  0  0  0  0  0  0  0  0  0  # atno 10718 bound_to 10713
  153.0719  135.6591  154.0229 H   0  0  0  0  0  0  0  0  0  0  0  0  # atno 10763 bound_to 10752
  153.9872  135.2949  155.3416 H   0  0  0  0  0  0  0  0  0  0  0  0  # atno 10764 bound_to 10752
  154.7096  135.5211  153.8716 H   0  0  0  0  0  0  0  0  0  0  0  0  # atno 10765 bound_to 10752
  140.9385  133.7293  156.1041 H   0  0  0  0  0  0  0  0  0  0  0  0  # atno 11005 bound_to 11000
  146.2778  139.6799  142.9250 LP  0  0  0  0  0  0  0  0  0  0  0  0  # atno 17320 bound_to 7965
  145.4515  141.0428  143.2802 LP  0  0  0  0  0  0  0  0  0  0  0  0  # atno 17321 bound_to 7965
  140.6218  143.9244  150.6532 LP  0  0  0  0  0  0  0  0  0  0  0  0  # atno 17342 bound_to 10162
  140.2520  143.3586  152.1397 LP  0  0  0  0  0  0  0  0  0  0  0  0  # atno 17343 bound_to 10162
  156.1096  130.6030  151.0026 LP  0  0  0  0  0  0  0  0  0  0  0  0  # atno 17370 bound_to 10713
  157.6550  131.0891  150.7968 LP  0  0  0  0  0  0  0  0  0  0  0  0  # atno 17371 bound_to 10713
  140.7766  134.3772  157.5496 LP  0  0  0  0  0  0  0  0  0  0  0  0  # atno 17394 bound_to 11000
  139.8814  134.9056  156.2902 LP  0  0  0  0  0  0  0  0  0  0  0  0  # atno 17395 bound_to 11000

$$$$
