AV-unprocessed.smi:1088|AV-procd|sdf|4731|dock2
  -GOLD-   22720 3263D 1   1.00000     0.00000
 Structure written by MMmdl.
 48 49  0  0  0  0  0  0  0  0  2 V2000
  145.9224  132.7606  148.7586 C   0  0  0  0  0  0  0  0  0  0  0  0
  146.5279  132.6381  150.0338 O   0  0  0  0  0  0  0  0  0  0  0  0
  146.3509  133.7958  150.8330 C   0  0  0  0  0  0  0  0  0  0  0  0
  146.8137  133.4875  152.2642 C   0  0  0  0  0  0  0  0  0  0  0  0
  147.0863  134.7191  153.0444 N   0  3  1  0  0  0  0  0  0  0  0  0
  146.1675  135.8454  152.7758 C   0  0  0  0  0  0  0  0  0  0  0  0
  146.2430  136.7209  154.0198 C   0  0  0  0  0  0  0  0  0  0  0  0
  146.3794  135.7011  155.1440 C   0  0  0  0  0  0  0  0  0  0  0  0
  147.1337  134.5127  154.5138 C   0  0  2  0  0  0  0  0  0  0  0  0
  148.5978  134.3861  154.9864 C   0  0  0  0  0  0  0  0  0  0  0  0
  149.4127  135.5228  154.5727 N   0  0  0  0  0  0  0  0  0  0  0  0
  150.2831  136.1695  155.3620 C   0  0  0  0  0  0  0  0  0  0  0  0
  150.5185  135.8339  156.5234 O   0  0  0  0  0  0  0  0  0  0  0  0
  151.0018  137.3724  154.7383 C   0  0  0  0  0  0  0  0  0  0  0  0
  150.2166  138.6086  154.8412 N   0  0  0  0  0  0  0  0  0  0  0  0
  149.2164  138.8669  153.9216 C   0  0  0  0  0  0  0  0  0  0  0  0
  148.4528  139.9811  153.9451 C   0  0  0  0  0  0  0  0  0  0  0  0
  148.6488  141.0022  154.9674 C   0  0  0  0  0  0  0  0  0  0  0  0
  147.9617  142.0219  155.0371 O   0  0  0  0  0  0  0  0  0  0  0  0
  149.6887  140.7208  155.8857 N   0  0  0  0  0  0  0  0  0  0  0  0
  149.9515  141.6691  156.9485 C   0  0  0  0  0  0  0  0  0  0  0  0
  150.4728  139.5461  155.8656 C   0  0  0  0  0  0  0  0  0  0  0  0
  151.3503  139.3329  156.7066 O   0  0  0  0  0  0  0  0  0  0  0  0
  146.0845  131.8465  148.1873 H   0  0  0  0  0  0  0  0  0  0  0  0
  146.3534  133.5898  148.1959 H   0  0  0  0  0  0  0  0  0  0  0  0
  144.8465  132.9169  148.8450 H   0  0  0  0  0  0  0  0  0  0  0  0
  146.8982  134.6423  150.4162 H   0  0  0  0  0  0  0  0  0  0  0  0
  145.2949  134.0704  150.8452 H   0  0  0  0  0  0  0  0  0  0  0  0
  146.0653  132.8855  152.7815 H   0  0  0  0  0  0  0  0  0  0  0  0
  147.7212  132.8831  152.2182 H   0  0  0  0  0  0  0  0  0  0  0  0
  146.4454  136.3875  151.8714 H   0  0  0  0  0  0  0  0  0  0  0  0
  145.1487  135.4746  152.6509 H   0  0  0  0  0  0  0  0  0  0  0  0
  147.1336  137.3495  153.9785 H   0  0  0  0  0  0  0  0  0  0  0  0
  145.3750  137.3702  154.1367 H   0  0  0  0  0  0  0  0  0  0  0  0
  146.8720  136.1214  156.0214 H   0  0  0  0  0  0  0  0  0  0  0  0
  145.3871  135.3741  155.4580 H   0  0  0  0  0  0  0  0  0  0  0  0
  146.5922  133.5988  154.7665 H   0  0  0  0  0  0  0  0  0  0  0  0
  148.6408  134.2854  156.0724 H   0  0  0  0  0  0  0  0  0  0  0  0
  149.0456  133.4805  154.5757 H   0  0  0  0  0  0  0  0  0  0  0  0
  149.2875  135.8581  153.6282 H   0  0  0  0  0  0  0  0  0  0  0  0
  151.9619  137.4929  155.2418 H   0  0  0  0  0  0  0  0  0  0  0  0
  151.2395  137.1704  153.6920 H   0  0  0  0  0  0  0  0  0  0  0  0
  149.0333  138.1422  153.1416 H   0  0  0  0  0  0  0  0  0  0  0  0
  147.6853  140.1190  153.1975 H   0  0  0  0  0  0  0  0  0  0  0  0
  151.0321  141.7638  157.0691 H   0  0  0  0  0  0  0  0  0  0  0  0
  149.4819  141.2723  157.8496 H   0  0  0  0  0  0  0  0  0  0  0  0
  149.5502  142.6502  156.6953 H   0  0  0  0  0  0  0  0  0  0  0  0
  148.0088  135.0381  152.7842 H   0  0  0  0  0  0  0  0  0  0  0  0
  1  2  1  0  0  0  0
  1 24  1  0  0  0  0
  1 25  1  0  0  0  0
  1 26  1  0  0  0  0
  2  3  1  0  0  0  0
  3  4  1  0  0  0  0
  3 27  1  0  0  0  0
  3 28  1  0  0  0  0
  4  5  1  0  0  0  0
  4 29  1  0  0  0  0
  4 30  1  0  0  0  0
  5  9  1  0  0  0  0
  5  6  1  0  0  0  0
  5 48  1  0  0  0  0
  6  7  1  0  0  0  0
  6 31  1  0  0  0  0
  6 32  1  0  0  0  0
  7  8  1  0  0  0  0
  7 33  1  0  0  0  0
  7 34  1  0  0  0  0
  8  9  1  0  0  0  0
  8 35  1  0  0  0  0
  8 36  1  0  0  0  0
  9 10  1  0  0  0  0
  9 37  1  0  0  0  0
 10 11  1  0  0  0  0
 10 38  1  0  0  0  0
 10 39  1  0  0  0  0
 11 12  1  0  0  0  0
 11 40  1  0  0  0  0
 12 13  2  0  0  0  0
 12 14  1  0  0  0  0
 14 15  1  0  0  0  0
 14 41  1  0  0  0  0
 14 42  1  0  0  0  0
 15 22  1  0  0  0  0
 15 16  1  0  0  0  0
 16 17  2  0  0  0  0
 16 43  1  0  0  0  0
 17 18  1  0  0  0  0
 17 44  1  0  0  0  0
 18 19  2  0  0  0  0
 18 20  1  0  0  0  0
 20 21  1  0  0  0  0
 20 22  1  0  0  0  0
 21 45  1  0  0  0  0
 21 46  1  0  0  0  0
 21 47  1  0  0  0  0
 22 23  2  0  0  0  0
M  CHG  1   5   1
M  END
> <s_m_source_file>
AV-unprocessed.smi

> <i_m_source_file_index>
1088

> <i_lp_mmshare_version>
43012

> <i_f3d_flags>
0

> <s_epik_input>
W0NIM11PW0NIMl1bQ0gyXU4xW0NIMl1bQ0gyXVtDSDJdW0NASF0xW0NIMl1bTkhdQyg9TylbQ0gyXW4yW2NIXVtjSF1jKD1PKW4oW0NIM10pYzI9Tw==

> <s_epik_cmdline>
J2VwaWtfcHl0aG9uJywgJy1waCcsICc3LjAnLCAnLXRuJywgJzgnLCAnLW1hJywgJzIwMCcsICctbWV0YWxfYmluZGluZycsICctaW1hZScsICc8aW5maWxlLm1hZT4nLCAnLW9tYWUnLCAnPG91dGZpbGUubWFlPic=

> <r_lp_tautomer_probability>
1

> <r_epik_Ionization_Penalty>
0.0127388

> <r_epik_Ionization_Penalty_Charging>
0.0127387

> <r_epik_Ionization_Penalty_Neutral>
8.26414e-08

> <r_epik_State_Penalty>
0.00987716

> <r_epik_Charging_Adjusted_Penalty>
0.0226159

> <i_epik_Tot_Q>
1

> <i_epik_Tot_abs_Q>
1

> <r_epik_Metal_State_Penalty>
0.00987836

> <b_epik_Metal_Only>
0

> <s_lp_Force_Field>
OPLS_2005

> <r_lp_Energy>
36.9775

> <b_lp_Chiralities_Consistent>
1

> <s_lp_Variant>
AV-unprocessed.smi:1088-4

> <Gold.Version>
5.8.1

> <Gold.Id.Protein>
6NUR|6NUR_protein|mol2

> <Gold.PLP.Fitness>
47.4039

> <Gold.PLP.PLP>
-33.2206

> <Gold.PLP.part.hbond>
-4.7110

> <Gold.PLP.part.metal>
0.0000

> <Gold.PLP.part.buried>
-1.3055

> <Gold.PLP.part.nonpolar>
-29.6750

> <Gold.PLP.part.repulsive>
2.0176

> <Gold.PLP.ligand.clash>
0.0000

> <Gold.PLP.ligand.torsion>
1.0688

> <Gold.PLP.Chemscore.Hbond>
4.3014

> <Gold.PLP.Chemscore.CHOScore>
1.0402

> <Gold.PLP.Chemscore.Metal>
0.0000

> <Gold.Chemscore.Hbonds>
donor molecule, donor type, donor heavy atom, donor atom, acceptor molecule, acceptor atom, score
      L1  H     5    48       P1  7948  1.89
      L1  H    11    40       P1  7948  1.00
      L1  C    16    43       P1  7948  1.00
      L1  C    16    43       P1  7957  0.09

> <Gold.PLP.Chemscore.Internal.Correction>
0.2961

> <Gold.Rescore>
     Score         DG    S(hbond)    S(metal)    S(lipo)     H(rot)  DE(clash)    DE(int)     intcor
     12.03     -13.30       2.36        0.00      55.62       2.57       0.06       1.21       ----

> <Gold.Chemscore.Fitness>
12.0261

> <Gold.Chemscore.DG>
-13.2988

> <Gold.Chemscore.ZeroCoef>
-5.4800

> <Gold.Chemscore.Hbond>
2.3618

> <Gold.Chemscore.Metal>
0.0000

> <Gold.Chemscore.Lipo>
55.6208

> <Gold.Chemscore.Internal_Hbond>
0.0000

> <Gold.Chemscore.DEClash>
0.0613

> <Gold.Chemscore.DEInternal>
1.2115

> <Gold.Chemscore.Rot>
2.5692

> <Gold.Chemscore.Internal.Correction>
   9.000000E+99

> <Gold.Chemscore.Hbonds>
donor molecule, donor type, donor heavy atom, donor atom, acceptor molecule, acceptor atom, score
      L1  H     5    48       P1  7948  0.87
      L1  H    11    40       P1  7948  0.65

> <Gold.Chemscore.Hbond.Weighted>
-7.8884

> <Gold.Chemscore.Metal.Weighted>
-0.0000

> <Gold.Chemscore.Lipo.Weighted>
-6.5076

> <Gold.Chemscore.Internal_Hbond.Weighted>
0.0000

> <Gold.Chemscore.DEClash.Weighted>
0.0613

> <Gold.Chemscore.DEInternal.Weighted>
1.2115

> <Gold.Chemscore.Rot.Weighted>
6.5772

> <Gold.Chemscore.Internal.Correction.Weighted>
   9.000000E+99

> <Gold.Protein.RotatedTorsions>
[ 6907 6896 6895 6894 ] final  176.40 input  -60.11 | X-H torsion
[ 7974 7965 7964 7962 ] final   98.66 input  175.53 | X-H torsion
[ 8008 7997 7996 7995 ] final  177.63 input   59.86 | X-H torsion
[ 10167 10162 10161 10158 ] final -166.14 input  -65.29 | X-H torsion
[ 10718 10713 10712 10709 ] final -118.56 input   66.30 | X-H torsion
[ 10763 10752 10751 10750 ] final   88.99 input  -60.55 | X-H torsion
[ 11005 11000 10999 10996 ] final  109.60 input  -57.11 | X-H torsion

> <Gold.Protein.ActiveResidues>
 VAL166  LYS551  ARG553  GLY616  TRP617  ASP618  TYR619  PRO620  LYS621  CYS622 
 ASP623  PHE694  ASN695  SER759  ASP760  ASP761  ALA762  ILE779  LEU786  VAL792 
 PHE793  MET794  SER795  GLU796  ALA797  LYS798  CYS799  TRP800  GLU811  SER814 

> <Gold.Protein.RotatedAtoms>
  151.7208  133.3314  159.3314 H   0  0  0  0  0  0  0  0  0  0  0  0  # atno 6907 bound_to 6896
  150.7654  134.6450  159.6267 H   0  0  0  0  0  0  0  0  0  0  0  0  # atno 6908 bound_to 6896
  152.3653  134.6815  160.0245 H   0  0  0  0  0  0  0  0  0  0  0  0  # atno 6909 bound_to 6896
  145.4093  139.2336  143.3257 H   0  0  0  0  0  0  0  0  0  0  0  0  # atno 7974 bound_to 7965
  156.0635  140.1353  156.9913 H   0  0  0  0  0  0  0  0  0  0  0  0  # atno 8008 bound_to 7997
  154.4494  140.0986  156.6624 H   0  0  0  0  0  0  0  0  0  0  0  0  # atno 8009 bound_to 7997
  155.5340  140.3459  155.4434 H   0  0  0  0  0  0  0  0  0  0  0  0  # atno 8010 bound_to 7997
  139.6135  144.0767  152.1865 H   0  0  0  0  0  0  0  0  0  0  0  0  # atno 10167 bound_to 10162
  156.1115  130.6252  150.9306 H   0  0  0  0  0  0  0  0  0  0  0  0  # atno 10718 bound_to 10713
  153.1825  135.4487  155.0046 H   0  0  0  0  0  0  0  0  0  0  0  0  # atno 10763 bound_to 10752
  154.8039  135.3266  154.7483 H   0  0  0  0  0  0  0  0  0  0  0  0  # atno 10764 bound_to 10752
  153.7946  135.6967  153.4921 H   0  0  0  0  0  0  0  0  0  0  0  0  # atno 10765 bound_to 10752
  139.8865  134.9462  156.6150 H   0  0  0  0  0  0  0  0  0  0  0  0  # atno 11005 bound_to 11000
  146.2713  140.4802  142.8813 LP  0  0  0  0  0  0  0  0  0  0  0  0  # atno 17320 bound_to 7965
  144.8320  140.6722  143.6285 LP  0  0  0  0  0  0  0  0  0  0  0  0  # atno 17321 bound_to 7965
  140.0392  144.6021  150.7425 LP  0  0  0  0  0  0  0  0  0  0  0  0  # atno 17342 bound_to 10162
  140.7335  143.2718  151.3866 LP  0  0  0  0  0  0  0  0  0  0  0  0  # atno 17343 bound_to 10162
  157.6296  131.0922  150.8466 LP  0  0  0  0  0  0  0  0  0  0  0  0  # atno 17370 bound_to 10713
  156.8576  130.5102  149.5306 LP  0  0  0  0  0  0  0  0  0  0  0  0  # atno 17371 bound_to 10713
  140.7782  133.8682  155.8546 LP  0  0  0  0  0  0  0  0  0  0  0  0  # atno 17394 bound_to 11000
  140.9783  134.1439  157.4517 LP  0  0  0  0  0  0  0  0  0  0  0  0  # atno 17395 bound_to 11000

$$$$
