AV-unprocessed.smi:1607|AV-procd|sdf|6465|dock10
  -GOLD-   22720 7123D 1   1.00000     0.00000
 Structure written by MMmdl.
 39 40  0  0  0  0  0  0  0  0  2 V2000
  148.1659  133.5941  153.3248 C   0  0  0  0  0  0  0  0  0  0  0  0
  146.6271  133.5857  153.3005 C   0  0  2  0  0  0  0  0  0  0  0  0
  146.0530  132.8950  152.0494 C   0  0  0  0  0  0  0  0  0  0  0  0
  146.2102  133.7781  150.8035 C   0  0  0  0  0  0  0  0  0  0  0  0
  145.6199  135.1773  151.0397 C   0  0  0  0  0  0  0  0  0  0  0  0
  146.2320  135.8216  152.2303 N   0  3  1  0  0  0  0  0  0  0  0  0
  145.7967  137.2310  152.3965 C   0  0  0  0  0  0  0  0  0  0  0  0
  146.4910  137.9190  153.5882 C   0  0  0  0  0  0  0  0  0  0  0  0
  147.9422  137.9065  153.4453 N   0  0  0  0  0  0  0  0  0  0  0  0
  148.8040  138.4101  154.3427 C   0  0  0  0  0  0  0  0  0  0  0  0
  148.4467  138.9569  155.3862 O   0  0  0  0  0  0  0  0  0  0  0  0
  150.2928  138.2753  154.0155 C   0  0  0  0  0  0  0  0  0  0  0  0
  151.1026  139.0780  154.9135 N   0  0  0  0  0  0  0  0  0  0  0  0
  152.0674  138.7337  155.7693 C   0  0  0  0  0  0  0  0  0  0  0  0
  152.5540  139.7870  156.4073 N   0  0  0  0  0  0  0  0  0  0  0  0
  151.8187  140.8382  155.8858 N   0  0  0  0  0  0  0  0  0  0  0  0
  150.9564  140.4238  154.9985 N   0  0  0  0  0  0  0  0  0  0  0  0
  146.0341  135.0013  153.4566 C   0  0  0  0  0  0  0  0  0  0  0  0
  148.5844  134.1795  152.5064 H   0  0  0  0  0  0  0  0  0  0  0  0
  148.5642  132.5822  153.2463 H   0  0  0  0  0  0  0  0  0  0  0  0
  148.5388  134.0197  154.2569 H   0  0  0  0  0  0  0  0  0  0  0  0
  146.3110  133.0021  154.1661 H   0  0  0  0  0  0  0  0  0  0  0  0
  146.5303  131.9272  151.8921 H   0  0  0  0  0  0  0  0  0  0  0  0
  144.9933  132.6895  152.2077 H   0  0  0  0  0  0  0  0  0  0  0  0
  147.2641  133.8632  150.5371 H   0  0  0  0  0  0  0  0  0  0  0  0
  145.7183  133.3066  149.9521 H   0  0  0  0  0  0  0  0  0  0  0  0
  145.7963  135.7901  150.1546 H   0  0  0  0  0  0  0  0  0  0  0  0
  144.5385  135.1150  151.1726 H   0  0  0  0  0  0  0  0  0  0  0  0
  146.0417  137.7952  151.4954 H   0  0  0  0  0  0  0  0  0  0  0  0
  144.7106  137.2678  152.4947 H   0  0  0  0  0  0  0  0  0  0  0  0
  146.1545  138.9489  153.7098 H   0  0  0  0  0  0  0  0  0  0  0  0
  146.2376  137.4009  154.5135 H   0  0  0  0  0  0  0  0  0  0  0  0
  148.3186  137.4737  152.6138 H   0  0  0  0  0  0  0  0  0  0  0  0
  150.6161  137.2361  154.0929 H   0  0  0  0  0  0  0  0  0  0  0  0
  150.4686  138.5919  152.9863 H   0  0  0  0  0  0  0  0  0  0  0  0
  152.4075  137.7205  155.9253 H   0  0  0  0  0  0  0  0  0  0  0  0
  144.9656  134.9306  153.6667 H   0  0  0  0  0  0  0  0  0  0  0  0
  146.4851  135.4859  154.3218 H   0  0  0  0  0  0  0  0  0  0  0  0
  147.2257  135.8496  152.0517 H   0  0  0  0  0  0  0  0  0  0  0  0
  1  2  1  0  0  0  0
  1 19  1  0  0  0  0
  1 20  1  0  0  0  0
  1 21  1  0  0  0  0
  2 18  1  0  0  0  0
  2  3  1  0  0  0  0
  2 22  1  0  0  0  0
  3  4  1  0  0  0  0
  3 23  1  0  0  0  0
  3 24  1  0  0  0  0
  4  5  1  0  0  0  0
  4 25  1  0  0  0  0
  4 26  1  0  0  0  0
  5  6  1  0  0  0  0
  5 27  1  0  0  0  0
  5 28  1  0  0  0  0
  6  7  1  0  0  0  0
  6 18  1  0  0  0  0
  6 39  1  0  0  0  0
  7  8  1  0  0  0  0
  7 29  1  0  0  0  0
  7 30  1  0  0  0  0
  8  9  1  0  0  0  0
  8 31  1  0  0  0  0
  8 32  1  0  0  0  0
  9 10  1  0  0  0  0
  9 33  1  0  0  0  0
 10 11  2  0  0  0  0
 10 12  1  0  0  0  0
 12 13  1  0  0  0  0
 12 34  1  0  0  0  0
 12 35  1  0  0  0  0
 13 17  1  0  0  0  0
 13 14  1  0  0  0  0
 14 15  2  0  0  0  0
 14 36  1  0  0  0  0
 15 16  1  0  0  0  0
 16 17  2  0  0  0  0
 18 37  1  0  0  0  0
 18 38  1  0  0  0  0
M  CHG  1   6   1
M  END
> <s_m_source_file>
AV-unprocessed.smi

> <i_m_source_file_index>
1607

> <i_lp_mmshare_version>
43012

> <i_f3d_flags>
0

> <s_epik_input>
W0NIM11bQ0BASF0xW0NIMl1bQ0gyXVtDSDJdTihbQ0gyXTEpW0NIMl1bQ0gyXVtOSF1DKD1PKVtDSDJdbjJbY0hdbm5uMg==

> <s_epik_cmdline>
J2VwaWtfcHl0aG9uJywgJy1waCcsICc3LjAnLCAnLXRuJywgJzgnLCAnLW1hJywgJzIwMCcsICctbWV0YWxfYmluZGluZycsICctaW1hZScsICc8aW5maWxlLm1hZT4nLCAnLW9tYWUnLCAnPG91dGZpbGUubWFlPic=

> <r_lp_tautomer_probability>
1

> <r_epik_Ionization_Penalty>
0.00268321

> <r_epik_Ionization_Penalty_Charging>
0.00267875

> <r_epik_Ionization_Penalty_Neutral>
4.46125e-06

> <r_epik_State_Penalty>
0.00186642

> <r_epik_Charging_Adjusted_Penalty>
0.00454517

> <i_epik_Tot_Q>
1

> <i_epik_Tot_abs_Q>
1

> <r_epik_Metal_State_Penalty>
-0

> <b_epik_Metal_Only>
0

> <s_lp_Force_Field>
OPLS_2005

> <r_lp_Energy>
22.0016

> <b_lp_Chiralities_Consistent>
1

> <s_lp_Variant>
AV-unprocessed.smi:1607-3

> <Gold.Version>
5.8.1

> <Gold.Id.Protein>
6NUR|6NUR_protein|mol2

> <Gold.PLP.Fitness>
41.1531

> <Gold.PLP.PLP>
-26.3888

> <Gold.PLP.part.hbond>
-4.4239

> <Gold.PLP.part.metal>
0.0000

> <Gold.PLP.part.buried>
-2.1093

> <Gold.PLP.part.nonpolar>
-20.6474

> <Gold.PLP.part.repulsive>
0.1461

> <Gold.PLP.ligand.clash>
0.0000

> <Gold.PLP.ligand.torsion>
0.1271

> <Gold.PLP.Chemscore.Hbond>
5.0000

> <Gold.PLP.Chemscore.CHOScore>
0.0000

> <Gold.PLP.Chemscore.Metal>
0.0000

> <Gold.Chemscore.Hbonds>
donor molecule, donor type, donor heavy atom, donor atom, acceptor molecule, acceptor atom, score
      L1  H     6    39       P1  7948  2.00
      L1  H     9    33       P1  7948  1.00
      P1  H  7989  7998       L1    17  1.00
      P1  H  7997  8008       L1    15  1.00

> <Gold.PLP.Chemscore.Internal.Correction>
0.0184

> <Gold.Rescore>
     Score         DG    S(hbond)    S(metal)    S(lipo)     H(rot)  DE(clash)    DE(int)     intcor
     11.81     -13.49       2.82        0.00      46.74       2.69       0.22       1.46       ----

> <Gold.Chemscore.Fitness>
11.8082

> <Gold.Chemscore.DG>
-13.4852

> <Gold.Chemscore.ZeroCoef>
-5.4800

> <Gold.Chemscore.Hbond>
2.8238

> <Gold.Chemscore.Metal>
0.0000

> <Gold.Chemscore.Lipo>
46.7374

> <Gold.Chemscore.Internal_Hbond>
0.0000

> <Gold.Chemscore.DEClash>
0.2189

> <Gold.Chemscore.DEInternal>
1.4582

> <Gold.Chemscore.Rot>
2.6932

> <Gold.Chemscore.Internal.Correction>
   9.000000E+99

> <Gold.Chemscore.Hbonds>
donor molecule, donor type, donor heavy atom, donor atom, acceptor molecule, acceptor atom, score
      L1  H     6    39       P1  7948  1.00
      L1  H     9    33       P1  7948  0.93
      P1  H  7989  7998       L1    17  0.11
      P1  H  7997  8008       L1    15  0.65

> <Gold.Chemscore.Hbond.Weighted>
-9.4315

> <Gold.Chemscore.Metal.Weighted>
-0.0000

> <Gold.Chemscore.Lipo.Weighted>
-5.4683

> <Gold.Chemscore.Internal_Hbond.Weighted>
0.0000

> <Gold.Chemscore.DEClash.Weighted>
0.2189

> <Gold.Chemscore.DEInternal.Weighted>
1.4582

> <Gold.Chemscore.Rot.Weighted>
6.8945

> <Gold.Chemscore.Internal.Correction.Weighted>
   9.000000E+99

> <Gold.Protein.RotatedTorsions>
[ 6907 6896 6895 6894 ] final  129.30 input  -60.11 | X-H torsion
[ 7974 7965 7964 7962 ] final  -64.41 input  175.53 | X-H torsion
[ 8008 7997 7996 7995 ] final  -33.04 input   59.86 | X-H torsion
[ 10167 10162 10161 10158 ] final  151.37 input  -65.29 | X-H torsion
[ 10718 10713 10712 10709 ] final  -28.01 input   66.30 | X-H torsion
[ 10763 10752 10751 10750 ] final  137.04 input  -60.55 | X-H torsion
[ 11005 11000 10999 10996 ] final  -69.16 input  -57.11 | X-H torsion

> <Gold.Protein.ActiveResidues>
 VAL166  LYS551  ARG553  GLY616  TRP617  ASP618  TYR619  PRO620  LYS621  CYS622 
 ASP623  PHE694  ASN695  SER759  ASP760  ASP761  ALA762  ILE779  LEU786  VAL792 
 PHE793  MET794  SER795  GLU796  ALA797  LYS798  CYS799  TRP800  GLU811  SER814 

> <Gold.Protein.RotatedAtoms>
  152.3637  133.6330  159.6034 H   0  0  0  0  0  0  0  0  0  0  0  0  # atno 6907 bound_to 6896
  150.7619  133.9382  159.3456 H   0  0  0  0  0  0  0  0  0  0  0  0  # atno 6908 bound_to 6896
  151.7216  135.0894  160.0336 H   0  0  0  0  0  0  0  0  0  0  0  0  # atno 6909 bound_to 6896
  145.7670  140.8832  143.0400 H   0  0  0  0  0  0  0  0  0  0  0  0  # atno 7974 bound_to 7965
  154.4161  140.1721  156.1825 H   0  0  0  0  0  0  0  0  0  0  0  0  # atno 8008 bound_to 7997
  155.9670  140.3389  155.6518 H   0  0  0  0  0  0  0  0  0  0  0  0  # atno 8009 bound_to 7997
  155.6674  140.0708  157.2523 H   0  0  0  0  0  0  0  0  0  0  0  0  # atno 8010 bound_to 7997
  139.4841  144.5446  151.7506 H   0  0  0  0  0  0  0  0  0  0  0  0  # atno 10167 bound_to 10162
  156.4308  130.4445  149.7119 H   0  0  0  0  0  0  0  0  0  0  0  0  # atno 10718 bound_to 10713
  153.8664  135.3061  155.3440 H   0  0  0  0  0  0  0  0  0  0  0  0  # atno 10763 bound_to 10752
  154.7825  135.4827  153.9879 H   0  0  0  0  0  0  0  0  0  0  0  0  # atno 10764 bound_to 10752
  153.1431  135.6828  153.9091 H   0  0  0  0  0  0  0  0  0  0  0  0  # atno 10765 bound_to 10752
  141.1548  133.6758  156.6557 H   0  0  0  0  0  0  0  0  0  0  0  0  # atno 11005 bound_to 11000
  144.6819  139.9802  143.7483 LP  0  0  0  0  0  0  0  0  0  0  0  0  # atno 17320 bound_to 7965
  146.0207  139.3249  143.0814 LP  0  0  0  0  0  0  0  0  0  0  0  0  # atno 17321 bound_to 7965
  140.4990  144.1197  150.5967 LP  0  0  0  0  0  0  0  0  0  0  0  0  # atno 17342 bound_to 10162
  140.4083  143.2669  151.9863 LP  0  0  0  0  0  0  0  0  0  0  0  0  # atno 17343 bound_to 10162
  156.4022  130.7680  151.2689 LP  0  0  0  0  0  0  0  0  0  0  0  0  # atno 17370 bound_to 10713
  157.7508  131.0236  150.3842 LP  0  0  0  0  0  0  0  0  0  0  0  0  # atno 17371 bound_to 10713
  140.3286  134.7948  157.4308 LP  0  0  0  0  0  0  0  0  0  0  0  0  # atno 17394 bound_to 11000
  140.1036  134.5440  155.8330 LP  0  0  0  0  0  0  0  0  0  0  0  0  # atno 17395 bound_to 11000

$$$$
