#       Name:                AV-unprocessed.smi:1208
#       Creating user name   scv26
#       Creation time:       Fri Mar 27 04:10:46 2020


#       File generated by GOLD software.
#

@<TRIPOS>MOLECULE
AV-unprocessed.smi:1208
    45    46     1
SMALL
NO_CHARGES


@<TRIPOS>ATOM
      1 ****        -2.1689  -0.1223   3.0712 C.3            1 S1                 0.0000
      2 ****        -1.6947   0.0528   1.6213 C.3            1 S1                 0.0000
      3 ****        -0.2402  -0.0856   1.5804 N.am           1 S1                 0.0000
      4 ****         0.6075   0.7047   0.9032 C.2            1 S1                 0.0000
      5 ****         0.2473   1.6846   0.2496 O.2            1 S1                 0.0000
      6 ****         2.0934   0.3299   0.9900 C.3            1 S1                 0.0000
      7 ****         2.8328   0.6330  -0.2434 N.am           1 S1                 0.0000
      8 ****         3.5989   1.7870  -0.1775 N.2            1 S1                 0.0000
      9 ****         4.2834   2.1655  -1.2034 C.2            1 S1                 0.0000
     10 ****         5.0242   3.3166  -1.0964 O.3            1 S1                 0.0000
     11 ****         4.2746   1.4029  -2.4324 C.2            1 S1                 0.0000
     12 ****         3.5283   0.2780  -2.4858 C.2            1 S1                 0.0000
     13 ****         2.7374  -0.1786  -1.3416 C.2            1 S1                 0.0000
     14 ****         2.0472  -1.1978  -1.3626 O.2            1 S1                 0.0000
     15 ****        -2.3581  -0.9690   0.6749 C.3            1 S1                 0.0000
     16 ****        -1.9564  -0.8524  -0.7962 C.3            1 S1                 0.0000
     17 ****        -3.1156  -1.5073  -1.5275 C.3            1 S1                 0.0000
     18 ****        -4.2599  -1.4785  -0.5097 C.3            1 S1                 0.0000
     19 ****        -3.7596  -0.7569   0.6086 O.3            1 S1                 0.0000
     20 ****         4.8687   3.6337  -0.2200 H              1 S1                 0.0000
     21 ****        -3.2489   0.0047   3.1501 H              1 S1                 0.0000
     22 ****        -1.7047   0.6142   3.7279 H              1 S1                 0.0000
     23 ****        -1.9222  -1.1134   3.4537 H              1 S1                 0.0000
     24 ****        -1.9800   1.0568   1.3018 H              1 S1                 0.0000
     25 ****         0.1519  -0.8626   2.0922 H              1 S1                 0.0000
     26 ****         2.5271   0.8665   1.8356 H              1 S1                 0.0000
     27 ****         2.1967  -0.7300   1.2312 H              1 S1                 0.0000
     28 ****         4.8545   1.7330  -3.2816 H              1 S1                 0.0000
     29 ****         3.5126  -0.3013  -3.3973 H              1 S1                 0.0000
     30 ****        -2.1726  -1.9862   1.0257 H              1 S1                 0.0000
     31 ****        -1.8894   0.1972  -1.0855 H              1 S1                 0.0000
     32 ****        -0.9974  -1.3238  -1.0135 H              1 S1                 0.0000
     33 ****        -3.3644  -0.9670  -2.4414 H              1 S1                 0.0000
     34 ****        -2.8760  -2.5359  -1.7995 H              1 S1                 0.0000
     35 ****        -5.1574  -1.0021  -0.9052 H              1 S1                 0.0000
     36 ****        -4.5214  -2.4907  -0.1985 H              1 S1                 0.0000
     37 ****        -0.7219   1.9266   0.2043 LP             1 S1                 0.0000
     38 ****         0.9241   2.2382  -0.2357 LP             1 S1                 0.0000
     39 ****         3.6208   2.3255   0.6649 LP             1 S1                 0.0000
     40 ****         4.7232   3.9906  -1.7710 LP             1 S1                 0.0000
     41 ****         5.9957   3.1214  -1.2308 LP             1 S1                 0.0000
     42 ****         1.5244  -1.4643  -0.5529 LP             1 S1                 0.0000
     43 ****         2.0095  -1.7591  -2.1893 LP             1 S1                 0.0000
     44 ****        -3.9504   0.2183   0.4964 LP             1 S1                 0.0000
     45 ****        -4.1929  -1.0870   1.4472 LP             1 S1                 0.0000
@<TRIPOS>BOND
    1    1    2 1     
    2    1   21 1     
    3    1   22 1     
    4    1   23 1     
    5    2    3 1     
    6    2   15 1     
    7    2   24 1     
    8    3    4 am    
    9    3   25 1     
   10    4    5 2     
   11    4    6 1     
   12    6   26 1     
   13    6   27 1     
   14    6    7 1     
   15    7    8 1     
   16    7   13 am    
   17    8    9 2     
   18    9   10 1     
   19    9   11 1     
   20   10   20 1     
   21   11   28 1     
   22   11   12 2     
   23   12   29 1     
   24   12   13 1     
   25   13   14 2     
   26   15   19 1     
   27   15   16 1     
   28   15   30 1     
   29   16   17 1     
   30   16   31 1     
   31   16   32 1     
   32   17   18 1     
   33   17   33 1     
   34   17   34 1     
   35   18   19 1     
   36   18   35 1     
   37   18   36 1     
   38    5   37 1     
   39    5   38 1     
   40    8   39 1     
   41   10   40 1     
   42   10   41 1     
   43   14   42 1     
   44   14   43 1     
   45   19   44 1     
   46   19   45 1     
@<TRIPOS>SUBSTRUCTURE
      1 S1             1
@<TRIPOS>SET
LONE_PAIRS      STATIC     ATOMS    <user>   **** ""
9 37 38 39 40 41 42 43 44 45
DONOR_HYDROGENS      STATIC     ATOMS    <user>   **** ""
2 25 20
ATOM$BLUE        STATIC     ATOMS    COLORGROUP SYSTEM
9 37 38 39 40 41 42 43 44 45
ATOM$RED        STATIC     ATOMS    COLORGROUP SYSTEM
2 25 20
