#       Name:                AV-unprocessed.smi:2990
#       Creating user name   scv26
#       Creation time:       Fri Mar 27 16:31:59 2020


#       File generated by GOLD software.
#

@<TRIPOS>MOLECULE
AV-unprocessed.smi:2990
    44    46     1
SMALL
NO_CHARGES


@<TRIPOS>ATOM
      1 ****        -1.2174   1.9224   2.4703 C.3            1 S1                 0.0000
      2 ****        -1.3899   2.3916   1.0647 C.2            1 S1                 0.0000
      3 ****        -1.8540   3.6130   0.6774 N.pl3          1 S1                 1.0000
      4 ****        -1.8766   3.6894  -0.7159 C.ar           1 S1                 0.0000
      5 ****        -2.2663   4.7209  -1.5649 C.ar           1 S1                 0.0000
      6 ****        -2.1606   4.4749  -2.9497 C.ar           1 S1                 0.0000
      7 ****        -1.6819   3.2435  -3.4418 C.ar           1 S1                 0.0000
      8 ****        -1.2920   2.2043  -2.5711 C.ar           1 S1                 0.0000
      9 ****        -1.4014   2.4542  -1.2032 C.ar           1 S1                 0.0000
     10 ****        -1.1164   1.6844  -0.0685 N.pl3          1 S1                 0.0000
     11 ****        -0.6005   0.3145  -0.2227 C.3            1 S1                 0.0000
     12 ****         0.9382   0.2426  -0.1576 C.3            1 S1                 0.0000
     13 ****         1.5064   0.9981  -1.2085 O.3            1 S1                 0.0000
     14 ****         1.4671  -1.1960  -0.2520 C.3            1 S1                 0.0000
     15 ****         1.0636  -1.9114   0.9081 O.3            1 S1                 0.0000
     16 ****         1.4389  -3.2325   1.0244 C.ar           1 S1                 0.0000
     17 ****         0.9952  -3.9239   2.1707 C.ar           1 S1                 0.0000
     18 ****         1.3341  -5.2754   2.3740 C.ar           1 S1                 0.0000
     19 ****         2.1253  -5.9523   1.4279 C.ar           1 S1                 0.0000
     20 ****         2.5739  -5.2754   0.2787 C.ar           1 S1                 0.0000
     21 ****         2.2339  -3.9236   0.0746 C.ar           1 S1                 0.0000
     22 ****        -1.4836   2.7117   3.1736 H              1 S1                 0.0000
     23 ****        -0.1807   1.6357   2.6472 H              1 S1                 0.0000
     24 ****        -1.8557   1.0591   2.6591 H              1 S1                 0.0000
     25 ****        -2.6315   5.6659  -1.1900 H              1 S1                 0.0000
     26 ****        -2.4507   5.2469  -3.6479 H              1 S1                 0.0000
     27 ****        -1.6114   3.0922  -4.5093 H              1 S1                 0.0000
     28 ****        -0.9212   1.2673  -2.9597 H              1 S1                 0.0000
     29 ****        -1.0346  -0.2820   0.5804 H              1 S1                 0.0000
     30 ****        -0.9793  -0.1133  -1.1511 H              1 S1                 0.0000
     31 ****         1.2824   0.6817   0.7796 H              1 S1                 0.0000
     32 ****         1.9928   1.7159  -0.8325 H              1 S1                 0.0000
     33 ****         1.0881  -1.6784  -1.1549 H              1 S1                 0.0000
     34 ****         2.5572  -1.1803  -0.3070 H              1 S1                 0.0000
     35 ****         0.3877  -3.4120   2.9025 H              1 S1                 0.0000
     36 ****         0.9870  -5.7919   3.2566 H              1 S1                 0.0000
     37 ****         2.3876  -6.9884   1.5836 H              1 S1                 0.0000
     38 ****         3.1814  -5.7942  -0.4482 H              1 S1                 0.0000
     39 ****         2.5978  -3.4394  -0.8187 H              1 S1                 0.0000
     40 ****        -2.1344   4.3407   1.3221 H              1 S1                 0.0000
     41 ****         0.7816   1.3540  -1.7983 LP             1 S1                 0.0000
     42 ****         2.1200   0.4198  -1.7463 LP             1 S1                 0.0000
     43 ****         0.0646  -1.8835   0.9406 LP             1 S1                 0.0000
     44 ****         1.4366  -1.4269   1.6994 LP             1 S1                 0.0000
@<TRIPOS>BOND
    1    1    2 1     
    2    1   22 1     
    3    1   23 1     
    4    1   24 1     
    5    2   10 1     
    6    2    3 2     
    7    3    4 1     
    8    3   40 1     
    9    4    9 ar    
   10    4    5 ar    
   11    5    6 ar    
   12    5   25 1     
   13    6    7 ar    
   14    6   26 1     
   15    7    8 ar    
   16    7   27 1     
   17    8    9 ar    
   18    8   28 1     
   19    9   10 1     
   20   10   11 1     
   21   11   12 1     
   22   11   29 1     
   23   11   30 1     
   24   12   13 1     
   25   12   14 1     
   26   12   31 1     
   27   13   32 1     
   28   14   15 1     
   29   14   33 1     
   30   14   34 1     
   31   15   16 1     
   32   16   21 ar    
   33   16   17 ar    
   34   17   18 ar    
   35   17   35 1     
   36   18   19 ar    
   37   18   36 1     
   38   19   20 ar    
   39   19   37 1     
   40   20   21 ar    
   41   20   38 1     
   42   21   39 1     
   43   13   41 1     
   44   13   42 1     
   45   15   43 1     
   46   15   44 1     
@<TRIPOS>SUBSTRUCTURE
      1 S1             1
@<TRIPOS>SET
LONE_PAIRS      STATIC     ATOMS    <user>   **** ""
4 41 42 43 44
DONOR_HYDROGENS      STATIC     ATOMS    <user>   **** ""
2 40 32
ATOM$BLUE        STATIC     ATOMS    COLORGROUP SYSTEM
4 41 42 43 44
ATOM$RED        STATIC     ATOMS    COLORGROUP SYSTEM
2 40 32
