AV-unprocessed.smi:1643|AV-procd|sdf|6575|dock4
  -GOLD-   22720 7263D 1   1.00000     0.00000
 Structure written by MMmdl.
 54 56  0  0  0  0  0  0  0  0  2 V2000
  143.7996  145.7528  154.2840 C   0  0  0  0  0  0  0  0  0  0  0  0
  143.6072  144.3947  154.9659 C   0  0  0  0  0  0  0  0  0  0  0  0
  142.6243  144.2466  155.6921 O   0  0  0  0  0  0  0  0  0  0  0  0
  144.5125  143.4098  154.7437 N   0  0  0  0  0  0  0  0  0  0  0  0
  144.3354  142.0726  155.3308 C   0  0  0  0  0  0  0  0  0  0  0  0
  145.2010  141.8916  156.5907 C   0  0  0  0  0  0  0  0  0  0  0  0
  146.5603  142.6217  156.5473 C   0  0  0  0  0  0  0  0  0  0  0  0
  147.4094  142.2679  155.3772 N   0  3  1  0  0  0  0  0  0  0  0  0
  148.0199  140.9167  155.5019 C   0  0  0  0  0  0  0  0  0  0  0  0
  149.4569  140.8545  154.9476 C   0  0  1  0  0  0  0  0  0  0  0  0
  149.4200  141.0969  153.5538 O   0  0  0  0  0  0  0  0  0  0  0  0
  150.3775  141.8900  155.6214 C   0  0  0  0  0  0  0  0  0  0  0  0
  151.2503  141.2896  156.6141 N   0  0  0  0  0  0  0  0  0  0  0  0
  151.8920  140.1082  156.5292 C   0  0  0  0  0  0  0  0  0  0  0  0
  152.6430  139.7476  157.5656 N   0  0  0  0  0  0  0  0  0  0  0  0
  152.4711  140.8215  158.4222 C   0  0  0  0  0  0  0  0  0  0  0  0
  153.0023  141.0637  159.7079 C   0  0  0  0  0  0  0  0  0  0  0  0
  152.6866  142.2483  160.4109 C   0  0  0  0  0  0  0  0  0  0  0  0
  153.2798  142.4675  161.7915 C   0  0  0  0  0  0  0  0  0  0  0  0
  151.8279  143.2141  159.8270 C   0  0  0  0  0  0  0  0  0  0  0  0
  151.4784  144.4959  160.5624 C   0  0  0  0  0  0  0  0  0  0  0  0
  151.2877  142.9874  158.5439 C   0  0  0  0  0  0  0  0  0  0  0  0
  151.6079  141.8042  157.8553 C   0  0  0  0  0  0  0  0  0  0  0  0
  146.8239  142.5288  154.0250 C   0  0  0  0  0  0  0  0  0  0  0  0
  145.7358  143.6332  153.9437 C   0  0  0  0  0  0  0  0  0  0  0  0
  143.9320  145.6382  153.2081 H   0  0  0  0  0  0  0  0  0  0  0  0
  144.6651  146.2733  154.6941 H   0  0  0  0  0  0  0  0  0  0  0  0
  142.9264  146.3865  154.4425 H   0  0  0  0  0  0  0  0  0  0  0  0
  143.2929  141.8682  155.5806 H   0  0  0  0  0  0  0  0  0  0  0  0
  144.5677  141.3070  154.5922 H   0  0  0  0  0  0  0  0  0  0  0  0
  144.6467  142.2710  157.4500 H   0  0  0  0  0  0  0  0  0  0  0  0
  145.3467  140.8278  156.7801 H   0  0  0  0  0  0  0  0  0  0  0  0
  146.4114  143.7018  156.5639 H   0  0  0  0  0  0  0  0  0  0  0  0
  147.1097  142.4118  157.4657 H   0  0  0  0  0  0  0  0  0  0  0  0
  148.0384  140.6131  156.5498 H   0  0  0  0  0  0  0  0  0  0  0  0
  147.3863  140.1919  154.9887 H   0  0  0  0  0  0  0  0  0  0  0  0
  149.8800  139.8632  155.1103 H   0  0  0  0  0  0  0  0  0  0  0  0
  149.2908  140.2746  153.1057 H   0  0  0  0  0  0  0  0  0  0  0  0
  150.9905  142.4023  154.8782 H   0  0  0  0  0  0  0  0  0  0  0  0
  149.7816  142.6576  156.1168 H   0  0  0  0  0  0  0  0  0  0  0  0
  151.7994  139.4744  155.6591 H   0  0  0  0  0  0  0  0  0  0  0  0
  153.6572  140.3285  160.1518 H   0  0  0  0  0  0  0  0  0  0  0  0
  152.4896  142.5861  162.5334 H   0  0  0  0  0  0  0  0  0  0  0  0
  153.9021  143.3627  161.8017 H   0  0  0  0  0  0  0  0  0  0  0  0
  153.9008  141.6247  162.0966 H   0  0  0  0  0  0  0  0  0  0  0  0
  150.8176  145.1279  159.9686 H   0  0  0  0  0  0  0  0  0  0  0  0
  152.3800  145.0683  160.7819 H   0  0  0  0  0  0  0  0  0  0  0  0
  150.9724  144.2719  161.5017 H   0  0  0  0  0  0  0  0  0  0  0  0
  150.6329  143.7148  158.0877 H   0  0  0  0  0  0  0  0  0  0  0  0
  147.6463  142.8236  153.3727 H   0  0  0  0  0  0  0  0  0  0  0  0
  146.4461  141.6032  153.5903 H   0  0  0  0  0  0  0  0  0  0  0  0
  145.4418  143.7519  152.9000 H   0  0  0  0  0  0  0  0  0  0  0  0
  146.2016  144.5739  154.2403 H   0  0  0  0  0  0  0  0  0  0  0  0
  148.1882  142.9079  155.4488 H   0  0  0  0  0  0  0  0  0  0  0  0
  1  2  1  0  0  0  0
  1 26  1  0  0  0  0
  1 27  1  0  0  0  0
  1 28  1  0  0  0  0
  2  3  2  0  0  0  0
  2  4  1  0  0  0  0
  4 25  1  0  0  0  0
  4  5  1  0  0  0  0
  5  6  1  0  0  0  0
  5 29  1  0  0  0  0
  5 30  1  0  0  0  0
  6  7  1  0  0  0  0
  6 31  1  0  0  0  0
  6 32  1  0  0  0  0
  7  8  1  0  0  0  0
  7 33  1  0  0  0  0
  7 34  1  0  0  0  0
  8  9  1  0  0  0  0
  8 24  1  0  0  0  0
  8 54  1  0  0  0  0
  9 10  1  0  0  0  0
  9 35  1  0  0  0  0
  9 36  1  0  0  0  0
 10 11  1  0  0  0  0
 10 12  1  0  0  0  0
 10 37  1  0  0  0  0
 11 38  1  0  0  0  0
 12 13  1  0  0  0  0
 12 39  1  0  0  0  0
 12 40  1  0  0  0  0
 13 23  1  0  0  0  0
 13 14  1  0  0  0  0
 14 15  2  0  0  0  0
 14 41  1  0  0  0  0
 15 16  1  0  0  0  0
 16 23  2  0  0  0  0
 16 17  1  0  0  0  0
 17 18  2  0  0  0  0
 17 42  1  0  0  0  0
 18 19  1  0  0  0  0
 18 20  1  0  0  0  0
 19 43  1  0  0  0  0
 19 44  1  0  0  0  0
 19 45  1  0  0  0  0
 20 21  1  0  0  0  0
 20 22  2  0  0  0  0
 21 46  1  0  0  0  0
 21 47  1  0  0  0  0
 21 48  1  0  0  0  0
 22 23  1  0  0  0  0
 22 49  1  0  0  0  0
 24 25  1  0  0  0  0
 24 50  1  0  0  0  0
 24 51  1  0  0  0  0
 25 52  1  0  0  0  0
 25 53  1  0  0  0  0
M  CHG  1   8   1
M  END
> <s_m_source_file>
AV-unprocessed.smi

> <i_m_source_file_index>
1643

> <i_lp_mmshare_version>
43012

> <i_f3d_flags>
0

> <s_epik_input>
W0NIM11DKD1PKU4xW0NIMl1bQ0gyXVtDSDJdTihbQ0gyXVtDSDJdMSlbQ0gyXVtDQEhdKFtPSF0pW0NIMl1uKFtjSF1uMiljKGMyMylbY0hdYyhbQ0gzXSljKFtjSF0zKVtDSDNd

> <s_epik_cmdline>
J2VwaWtfcHl0aG9uJywgJy1waCcsICc3LjAnLCAnLXRuJywgJzgnLCAnLW1hJywgJzIwMCcsICctbWV0YWxfYmluZGluZycsICctaW1hZScsICc8aW5maWxlLm1hZT4nLCAnLW9tYWUnLCAnPG91dGZpbGUubWFlPic=

> <r_epik_Ionization_Penalty>
0.189467

> <r_epik_Ionization_Penalty_Charging>
0.101761

> <r_epik_Ionization_Penalty_Neutral>
0.0877056

> <r_epik_State_Penalty>
0.170758

> <r_epik_Charging_Adjusted_Penalty>
0.272519

> <i_epik_Tot_Q>
1

> <i_epik_Tot_abs_Q>
1

> <r_epik_Metal_State_Penalty>
0.0948013

> <b_epik_Metal_Only>
0

> <s_lp_Force_Field>
OPLS_2005

> <r_lp_Energy>
48.4896

> <b_lp_Chiralities_Consistent>
1

> <s_lp_Variant>
AV-unprocessed.smi:1643-4

> <Gold.Version>
5.8.1

> <Gold.Id.Protein>
6NUR|6NUR_protein|mol2

> <Gold.PLP.Fitness>
64.0575

> <Gold.PLP.PLP>
-53.0735

> <Gold.PLP.part.hbond>
-5.0000

> <Gold.PLP.part.metal>
0.0000

> <Gold.PLP.part.buried>
-6.4035

> <Gold.PLP.part.nonpolar>
-40.6532

> <Gold.PLP.part.repulsive>
0.1273

> <Gold.PLP.ligand.clash>
0.0000

> <Gold.PLP.ligand.torsion>
1.2847

> <Gold.PLP.Chemscore.Hbond>
4.4901

> <Gold.PLP.Chemscore.CHOScore>
0.0000

> <Gold.PLP.Chemscore.Metal>
0.0000

> <Gold.Chemscore.Hbonds>
donor molecule, donor type, donor heavy atom, donor atom, acceptor molecule, acceptor atom, score
      L1  H     8    54       P1  8028  1.98
      L1  H    11    38       P1  7957  0.45
      P1  H  7989  7998       L1    11  0.04
      P1  H  7997  8010       L1    15  1.00
      P1  H  8011  8017       L1    11  1.00

> <Gold.PLP.Chemscore.Internal.Correction>
0.0830

> <Gold.Rescore>
     Score         DG    S(hbond)    S(metal)    S(lipo)     H(rot)  DE(clash)    DE(int)     intcor
     21.72     -24.61       2.84        0.00     128.69       2.12       1.52       1.37       ----

> <Gold.Chemscore.Fitness>
21.7212

> <Gold.Chemscore.DG>
-24.6133

> <Gold.Chemscore.ZeroCoef>
-5.4800

> <Gold.Chemscore.Hbond>
2.8438

> <Gold.Chemscore.Metal>
0.0000

> <Gold.Chemscore.Lipo>
128.6886

> <Gold.Chemscore.Internal_Hbond>
0.0000

> <Gold.Chemscore.DEClash>
1.5189

> <Gold.Chemscore.DEInternal>
1.3733

> <Gold.Chemscore.Rot>
2.1178

> <Gold.Chemscore.Internal.Correction>
   9.000000E+99

> <Gold.Chemscore.Hbonds>
donor molecule, donor type, donor heavy atom, donor atom, acceptor molecule, acceptor atom, score
      L1  H     8    54       P1  8028  0.89
      L1  H    11    38       P1  7957  0.45
      P1  H  7997  8010       L1    15  0.14
      P1  H  8011  8017       L1    11  0.71

> <Gold.Chemscore.Hbond.Weighted>
-9.4983

> <Gold.Chemscore.Metal.Weighted>
-0.0000

> <Gold.Chemscore.Lipo.Weighted>
-15.0566

> <Gold.Chemscore.Internal_Hbond.Weighted>
0.0000

> <Gold.Chemscore.DEClash.Weighted>
1.5189

> <Gold.Chemscore.DEInternal.Weighted>
1.3733

> <Gold.Chemscore.Rot.Weighted>
5.4215

> <Gold.Chemscore.Internal.Correction.Weighted>
   9.000000E+99

> <Gold.Protein.RotatedTorsions>
[ 6907 6896 6895 6894 ] final  135.64 input  -60.11 | X-H torsion
[ 7974 7965 7964 7962 ] final  112.72 input  175.53 | X-H torsion
[ 8008 7997 7996 7995 ] final   37.76 input   59.86 | X-H torsion
[ 10167 10162 10161 10158 ] final -124.20 input  -65.29 | X-H torsion
[ 10718 10713 10712 10709 ] final  148.70 input   66.30 | X-H torsion
[ 10763 10752 10751 10750 ] final  -96.92 input  -60.55 | X-H torsion
[ 11005 11000 10999 10996 ] final  -51.46 input  -57.11 | X-H torsion

> <Gold.Protein.ActiveResidues>
 VAL166  LYS551  ARG553  GLY616  TRP617  ASP618  TYR619  PRO620  LYS621  CYS622 
 ASP623  PHE694  ASN695  SER759  ASP760  ASP761  ALA762  ILE779  LEU786  VAL792 
 PHE793  MET794  SER795  GLU796  ALA797  LYS798  CYS799  TRP800  GLU811  SER814 

> <Gold.Protein.RotatedAtoms>
  152.2981  133.5628  159.5600 H   0  0  0  0  0  0  0  0  0  0  0  0  # atno 6907 bound_to 6896
  150.7265  134.0331  159.3749 H   0  0  0  0  0  0  0  0  0  0  0  0  # atno 6908 bound_to 6896
  151.8232  135.0645  160.0478 H   0  0  0  0  0  0  0  0  0  0  0  0  # atno 6909 bound_to 6896
  145.2260  139.2840  143.4193 H   0  0  0  0  0  0  0  0  0  0  0  0  # atno 7974 bound_to 7965
  155.2091  140.3322  155.4331 H   0  0  0  0  0  0  0  0  0  0  0  0  # atno 8008 bound_to 7997
  156.2377  140.1880  156.7123 H   0  0  0  0  0  0  0  0  0  0  0  0  # atno 8009 bound_to 7997
  154.6090  140.0612  156.9454 H   0  0  0  0  0  0  0  0  0  0  0  0  # atno 8010 bound_to 7997
  139.9953  143.5597  152.2325 H   0  0  0  0  0  0  0  0  0  0  0  0  # atno 10167 bound_to 10162
  157.3054  131.0878  151.1358 H   0  0  0  0  0  0  0  0  0  0  0  0  # atno 10718 bound_to 10713
  154.7282  135.5066  153.8920 H   0  0  0  0  0  0  0  0  0  0  0  0  # atno 10763 bound_to 10752
  153.0924  135.6663  153.9836 H   0  0  0  0  0  0  0  0  0  0  0  0  # atno 10764 bound_to 10752
  153.9643  135.3044  155.3411 H   0  0  0  0  0  0  0  0  0  0  0  0  # atno 10765 bound_to 10752
  141.0872  133.6640  156.3880 H   0  0  0  0  0  0  0  0  0  0  0  0  # atno 11005 bound_to 11000
  146.3364  140.2580  142.8601 LP  0  0  0  0  0  0  0  0  0  0  0  0  # atno 17320 bound_to 7965
  144.9721  140.8378  143.5449 LP  0  0  0  0  0  0  0  0  0  0  0  0  # atno 17321 bound_to 7965
  139.6310  144.7644  151.2536 LP  0  0  0  0  0  0  0  0  0  0  0  0  # atno 17342 bound_to 10162
  140.7439  143.6479  150.8275 LP  0  0  0  0  0  0  0  0  0  0  0  0  # atno 17343 bound_to 10162
  157.2701  130.6700  149.6015 LP  0  0  0  0  0  0  0  0  0  0  0  0  # atno 17370 bound_to 10713
  155.9674  130.4482  150.5609 LP  0  0  0  0  0  0  0  0  0  0  0  0  # atno 17371 bound_to 10713
  140.5336  134.6189  157.5358 LP  0  0  0  0  0  0  0  0  0  0  0  0  # atno 17394 bound_to 11000
  139.9692  134.7322  156.0076 LP  0  0  0  0  0  0  0  0  0  0  0  0  # atno 17395 bound_to 11000

$$$$
