#       Name:                AV-unprocessed.smi:1371
#       Creating user name   scv26
#       Creation time:       Fri Mar 27 05:18:01 2020


#       File generated by GOLD software.
#

@<TRIPOS>MOLECULE
AV-unprocessed.smi:1371
    35    35     1
SMALL
NO_CHARGES


@<TRIPOS>ATOM
      1 ****        -4.2263   1.5816  -1.3772 C.3            1 S1                 0.0000
      2 ****        -3.9021   0.5382  -0.3018 C.3            1 S1                 0.0000
      3 ****        -4.3183   1.0268   1.0954 C.3            1 S1                 0.0000
      4 ****        -2.5006   0.3070  -0.3577 O.3            1 S1                 0.0000
      5 ****        -2.0753  -0.9169   0.2250 C.3            1 S1                 0.0000
      6 ****        -0.5585  -1.0451   0.0571 C.3            1 S1                 0.0000
      7 ****         0.3282   0.2441   0.9849 S.3            1 S1                 0.0000
      8 ****         2.0332  -0.0489   0.5428 C.ar           1 S1                 0.0000
      9 ****         2.3126  -1.1361  -0.1833 N.ar           1 S1                 0.0000
     10 ****         3.6090  -1.3306  -0.5050 C.ar           1 S1                 0.0000
     11 ****         3.9187  -2.4572  -1.2629 N.pl3          1 S1                 0.0000
     12 ****         4.6187  -0.4347  -0.0955 C.ar           1 S1                 0.0000
     13 ****         4.1968   0.6732   0.6691 C.ar           1 S1                 0.0000
     14 ****         5.1145   1.6170   1.1233 N.pl3          1 S1                 0.0000
     15 ****         2.8991   0.8644   0.9889 N.ar           1 S1                 0.0000
     16 ****        -5.2954   1.7922  -1.4121 H              1 S1                 0.0000
     17 ****        -3.9257   1.2300  -2.3645 H              1 S1                 0.0000
     18 ****        -3.7065   2.5209  -1.1858 H              1 S1                 0.0000
     19 ****        -4.4411  -0.3786  -0.5463 H              1 S1                 0.0000
     20 ****        -5.3781   1.2816   1.1187 H              1 S1                 0.0000
     21 ****        -3.7565   1.9155   1.3843 H              1 S1                 0.0000
     22 ****        -4.1547   0.2658   1.8577 H              1 S1                 0.0000
     23 ****        -2.3359  -0.9630   1.2822 H              1 S1                 0.0000
     24 ****        -2.5689  -1.7534  -0.2710 H              1 S1                 0.0000
     25 ****        -0.2320  -2.0227   0.4128 H              1 S1                 0.0000
     26 ****        -0.2979  -0.9781  -0.9996 H              1 S1                 0.0000
     27 ****         3.2056  -3.1062  -1.5626 H              1 S1                 0.0000
     28 ****         4.8684  -2.6577  -1.5411 H              1 S1                 0.0000
     29 ****         5.6567  -0.5887  -0.3524 H              1 S1                 0.0000
     30 ****         6.1004   1.5371   0.9207 H              1 S1                 0.0000
     31 ****         4.8169   2.4282   1.6465 H              1 S1                 0.0000
     32 ****        -2.0424   1.0556   0.1216 LP             1 S1                 0.0000
     33 ****        -2.2233   0.3071  -1.3185 LP             1 S1                 0.0000
     34 ****         1.5978  -1.7725  -0.4732 LP             1 S1                 0.0000
     35 ****         2.6017   1.6497   1.5320 LP             1 S1                 0.0000
@<TRIPOS>BOND
    1    1    2 1     
    2    1   16 1     
    3    1   17 1     
    4    1   18 1     
    5    2    3 1     
    6    2    4 1     
    7    2   19 1     
    8    3   20 1     
    9    3   21 1     
   10    3   22 1     
   11    4    5 1     
   12    5    6 1     
   13    5   23 1     
   14    5   24 1     
   15    6    7 1     
   16    6   25 1     
   17    6   26 1     
   18    7    8 1     
   19    8   15 ar    
   20    8    9 ar    
   21    9   10 ar    
   22   10   11 1     
   23   10   12 ar    
   24   11   27 1     
   25   11   28 1     
   26   12   13 ar    
   27   12   29 1     
   28   13   14 1     
   29   13   15 ar    
   30   14   30 1     
   31   14   31 1     
   32    4   32 1     
   33    4   33 1     
   34    9   34 1     
   35   15   35 1     
@<TRIPOS>SUBSTRUCTURE
      1 S1             1
@<TRIPOS>SET
LONE_PAIRS      STATIC     ATOMS    <user>   **** ""
4 32 33 34 35
DONOR_HYDROGENS      STATIC     ATOMS    <user>   **** ""
4 27 28 30 31
ATOM$BLUE        STATIC     ATOMS    COLORGROUP SYSTEM
4 32 33 34 35
ATOM$RED        STATIC     ATOMS    COLORGROUP SYSTEM
4 27 28 30 31
