AV-unprocessed.smi:265|AV-procd|sdf|2030|dock5
  -GOLD-   2262021233D 1   1.00000     0.00000
 Structure written by MMmdl.
 52 56  0  0  0  0  0  0  0  0  1 V2000
  151.3348  140.5665  157.7042 C   0  0  0  0  0  0  0  0  0  0  0  0
  151.5900  140.2588  156.2205 C   0  0  1  0  0  0  0  0  0  0  0  0
  152.7694  139.4618  156.1418 O   0  0  0  0  0  0  0  0  0  0  0  0
  152.6696  138.6018  155.0208 C   0  0  0  0  0  0  0  0  0  0  0  0
  151.2111  138.1741  155.0668 C   0  0  0  0  0  0  0  0  0  0  0  0
  150.4887  139.4567  155.4707 C   0  0  2  0  0  0  0  0  0  0  0  0
  150.1729  140.1667  154.2850 O   0  0  0  0  0  0  0  0  0  0  0  0
  149.1688  139.2056  156.2468 C   0  0  0  0  0  0  0  0  0  0  0  0
  148.2469  138.3214  155.5502 N   0  0  0  0  0  0  0  0  0  0  0  0
  147.8146  137.0839  155.9708 C   0  0  0  0  0  0  0  0  0  0  0  0
  146.9856  136.4805  155.1642 N   0  0  0  0  0  0  0  0  0  0  0  0
  146.8206  137.3756  154.1133 C   0  0  0  0  0  0  0  0  0  0  0  0
  146.0622  137.3612  152.9081 C   0  0  0  0  0  0  0  0  0  0  0  0
  145.2480  136.3306  152.5648 N   0  0  0  0  0  0  0  0  0  0  0  0
  144.7826  135.4431  153.6368 C   0  0  0  0  0  0  0  0  0  0  0  0
  143.6173  134.5528  153.1635 C   0  0  0  0  0  0  0  0  0  0  0  0
  144.0144  133.8066  151.8832 C   0  0  1  0  0  0  0  0  0  0  0  0
  142.9378  133.0503  151.3500 O   0  0  0  0  0  0  0  0  0  0  0  0
  143.3197  132.2204  150.2474 C   0  0  0  0  0  0  0  0  0  0  0  0
  144.1690  132.9712  149.1995 C   0  0  0  0  0  0  0  0  0  0  0  0
  144.3596  132.4711  148.0934 O   0  0  0  0  0  0  0  0  0  0  0  0
  144.7159  134.1464  149.5510 N   0  0  0  0  0  0  0  0  0  0  0  0
  144.4146  134.8246  150.8044 C   0  0  2  0  0  0  0  0  0  0  0  0
  145.5931  135.6756  151.3005 C   0  0  0  0  0  0  0  0  0  0  0  0
  146.1736  138.4401  152.0876 N   0  0  0  0  0  0  0  0  0  0  0  0
  146.9576  139.4681  152.4256 C   0  0  0  0  0  0  0  0  0  0  0  0
  147.7067  139.6219  153.5188 N   0  0  0  0  0  0  0  0  0  0  0  0
  147.6114  138.5375  154.3399 C   0  0  0  0  0  0  0  0  0  0  0  0
  144.8480  133.1384  152.1108 H   0  0  0  0  0  0  0  0  0  0  0  0
  143.5689  135.4858  150.6066 H   0  0  0  0  0  0  0  0  0  0  0  0
  150.4497  141.1891  157.8362 H   0  0  0  0  0  0  0  0  0  0  0  0
  152.1786  141.1066  158.1339 H   0  0  0  0  0  0  0  0  0  0  0  0
  151.2026  139.6539  158.2854 H   0  0  0  0  0  0  0  0  0  0  0  0
  151.7929  141.1998  155.7056 H   0  0  0  0  0  0  0  0  0  0  0  0
  152.8907  139.1554  154.1070 H   0  0  0  0  0  0  0  0  0  0  0  0
  153.3596  137.7611  155.0943 H   0  0  0  0  0  0  0  0  0  0  0  0
  150.8582  137.7435  154.1285 H   0  0  0  0  0  0  0  0  0  0  0  0
  151.0941  137.4176  155.8441 H   0  0  0  0  0  0  0  0  0  0  0  0
  149.2925  139.9415  154.0259 H   0  0  0  0  0  0  0  0  0  0  0  0
  149.3772  138.7586  157.2191 H   0  0  0  0  0  0  0  0  0  0  0  0
  148.6553  140.1474  156.4435 H   0  0  0  0  0  0  0  0  0  0  0  0
  148.1399  136.6370  156.8989 H   0  0  0  0  0  0  0  0  0  0  0  0
  145.6126  134.8183  153.9701 H   0  0  0  0  0  0  0  0  0  0  0  0
  144.4593  136.0335  154.4952 H   0  0  0  0  0  0  0  0  0  0  0  0
  143.3449  133.8439  153.9456 H   0  0  0  0  0  0  0  0  0  0  0  0
  142.7359  135.1679  152.9768 H   0  0  0  0  0  0  0  0  0  0  0  0
  143.8951  131.3720  150.6197 H   0  0  0  0  0  0  0  0  0  0  0  0
  142.4220  131.8194  149.7763 H   0  0  0  0  0  0  0  0  0  0  0  0
  145.3013  134.6286  148.8845 H   0  0  0  0  0  0  0  0  0  0  0  0
  145.8620  136.4011  150.5339 H   0  0  0  0  0  0  0  0  0  0  0  0
  146.4711  135.0477  151.4580 H   0  0  0  0  0  0  0  0  0  0  0  0
  146.9887  140.2854  151.7202 H   0  0  0  0  0  0  0  0  0  0  0  0
  1  2  1  0  0  0  0
  1 31  1  0  0  0  0
  1 32  1  0  0  0  0
  1 33  1  0  0  0  0
  2  6  1  0  0  0  0
  2  3  1  0  0  0  0
  2 34  1  0  0  0  0
  3  4  1  0  0  0  0
  4  5  1  0  0  0  0
  4 35  1  0  0  0  0
  4 36  1  0  0  0  0
  5  6  1  0  0  0  0
  5 37  1  0  0  0  0
  5 38  1  0  0  0  0
  6  7  1  0  0  0  0
  6  8  1  0  0  0  0
  7 39  1  0  0  0  0
  8  9  1  0  0  0  0
  8 40  1  0  0  0  0
  8 41  1  0  0  0  0
  9 28  1  0  0  0  0
  9 10  1  0  0  0  0
 10 11  2  0  0  0  0
 10 42  1  0  0  0  0
 11 12  1  0  0  0  0
 12 28  2  0  0  0  0
 12 13  1  0  0  0  0
 13 14  1  0  0  0  0
 13 25  2  0  0  0  0
 14 24  1  0  0  0  0
 14 15  1  0  0  0  0
 15 16  1  0  0  0  0
 15 43  1  0  0  0  0
 15 44  1  0  0  0  0
 16 17  1  0  0  0  0
 16 45  1  0  0  0  0
 16 46  1  0  0  0  0
 17 29  1  0  0  0  0
 17 23  1  0  0  0  0
 17 18  1  0  0  0  0
 18 19  1  0  0  0  0
 19 20  1  0  0  0  0
 19 47  1  0  0  0  0
 19 48  1  0  0  0  0
 20 21  2  0  0  0  0
 20 22  1  0  0  0  0
 22 23  1  0  0  0  0
 22 49  1  0  0  0  0
 23 30  1  0  0  0  0
 23 24  1  0  0  0  0
 24 50  1  0  0  0  0
 24 51  1  0  0  0  0
 25 26  1  0  0  0  0
 26 27  2  0  0  0  0
 26 52  1  0  0  0  0
 27 28  1  0  0  0  0
M  END
> <s_m_source_file>
AV-unprocessed.smi

> <i_m_source_file_index>
265

> <i_lp_mmshare_version>
43012

> <i_f3d_flags>
0

> <s_epik_input>
W0NIMl0xW0NIMl1PW0NAQEhdKFtDSDNdKVtDQEBdMShbT0hdKVtDSDJdbihbY0hdbjIpYyhjMjMpbltjSF1uYzNOKFtDSDJdW0NIMl00KVtDSDJdW0NAQEhdKFtDQEhdNDUpW05IXUMoPU8pW0NIMl1PNQ==

> <s_epik_cmdline>
J2VwaWtfcHl0aG9uJywgJy1waCcsICc3LjAnLCAnLXRuJywgJzgnLCAnLW1hJywgJzIwMCcsICctbWV0YWxfYmluZGluZycsICctaW1hZScsICc8aW5maWxlLm1hZT4nLCAnLW9tYWUnLCAnPG91dGZpbGUubWFlPic=

> <r_lp_tautomer_probability>
1

> <r_epik_Ionization_Penalty>
0.00221504

> <r_epik_Ionization_Penalty_Charging>
0

> <r_epik_Ionization_Penalty_Neutral>
0.00221504

> <r_epik_State_Penalty>
-0

> <r_epik_Charging_Adjusted_Penalty>
0

> <i_epik_Tot_Q>
0

> <i_epik_Tot_abs_Q>
0

> <r_epik_Metal_State_Penalty>
-0

> <b_epik_Metal_Only>
0

> <s_lp_Force_Field>
OPLS_2005

> <r_lp_Energy>
44.2788

> <b_lp_Chiralities_Consistent>
1

> <s_lp_Variant>
AV-unprocessed.smi:265-16

> <Gold.Version>
5.8.1

> <Gold.Id.Protein>
6NUR|6NUR_protein|mol2

> <Gold.PLP.Fitness>
49.2531

> <Gold.PLP.PLP>
-40.2037

> <Gold.PLP.part.hbond>
-5.5002

> <Gold.PLP.part.metal>
0.0000

> <Gold.PLP.part.buried>
-5.5699

> <Gold.PLP.part.nonpolar>
-33.3696

> <Gold.PLP.part.repulsive>
3.9976

> <Gold.PLP.ligand.clash>
0.0000

> <Gold.PLP.ligand.torsion>
0.3445

> <Gold.PLP.Chemscore.Hbond>
2.9377

> <Gold.PLP.Chemscore.CHOScore>
0.1683

> <Gold.PLP.Chemscore.Metal>
0.0000

> <Gold.Chemscore.Hbonds>
donor molecule, donor type, donor heavy atom, donor atom, acceptor molecule, acceptor atom, score
      L1  H    22    49       P1  7921  0.96
      P1  H  7918  7932       L1    21  0.06
      P1  H  7989  7998       L1     7  1.00
      P1  H  7997  8008       L1     3  1.00
      L1  C    26    52       P1  7957  0.23

> <Gold.PLP.Chemscore.Internal.Correction>
0.4203

> <Gold.Rescore>
     Score         DG    S(hbond)    S(metal)    S(lipo)     H(rot)  DE(clash)    DE(int)     intcor
     14.10     -17.39       2.86        0.00      69.41       2.25       0.20       3.09       ----

> <Gold.Chemscore.Fitness>
14.1039

> <Gold.Chemscore.DG>
-17.3901

> <Gold.Chemscore.ZeroCoef>
-5.4800

> <Gold.Chemscore.Hbond>
2.8554

> <Gold.Chemscore.Metal>
0.0000

> <Gold.Chemscore.Lipo>
69.4110

> <Gold.Chemscore.Internal_Hbond>
0.0000

> <Gold.Chemscore.DEClash>
0.1976

> <Gold.Chemscore.DEInternal>
3.0885

> <Gold.Chemscore.Rot>
2.2453

> <Gold.Chemscore.Internal.Correction>
   9.000000E+99

> <Gold.Chemscore.Hbonds>
donor molecule, donor type, donor heavy atom, donor atom, acceptor molecule, acceptor atom, score
      L1  H    22    49       P1  7921  0.90
      P1  H  7918  7932       L1    21  0.06
      P1  H  7989  7998       L1     7  0.81
      P1  H  7997  8008       L1     3  0.84

> <Gold.Chemscore.Hbond.Weighted>
-9.5369

> <Gold.Chemscore.Metal.Weighted>
-0.0000

> <Gold.Chemscore.Lipo.Weighted>
-8.1211

> <Gold.Chemscore.Internal_Hbond.Weighted>
0.0000

> <Gold.Chemscore.DEClash.Weighted>
0.1976

> <Gold.Chemscore.DEInternal.Weighted>
3.0885

> <Gold.Chemscore.Rot.Weighted>
5.7479

> <Gold.Chemscore.Internal.Correction.Weighted>
   9.000000E+99

> <Gold.Protein.RotatedTorsions>
[ 6907 6896 6895 6894 ] final  -11.03 input  -60.11 | X-H torsion
[ 7974 7965 7964 7962 ] final  132.59 input  175.53 | X-H torsion
[ 8008 7997 7996 7995 ] final  -43.60 input   59.86 | X-H torsion
[ 10167 10162 10161 10158 ] final  -51.64 input  -65.29 | X-H torsion
[ 10718 10713 10712 10709 ] final  113.81 input   66.30 | X-H torsion
[ 10763 10752 10751 10750 ] final    4.71 input  -60.55 | X-H torsion
[ 11005 11000 10999 10996 ] final  -59.73 input  -57.11 | X-H torsion

> <Gold.Protein.ActiveResidues>
 VAL166  LYS551  ARG553  GLY616  TRP617  ASP618  TYR619  PRO620  LYS621  CYS622 
 ASP623  PHE694  ASN695  SER759  ASP760  ASP761  ALA762  ILE779  LEU786  VAL792 
 PHE793  MET794  SER795  GLU796  ALA797  LYS798  CYS799  TRP800  GLU811  SER814 

> <Gold.Protein.RotatedAtoms>
  151.3926  135.0958  159.9530 H   0  0  0  0  0  0  0  0  0  0  0  0  # atno 6907 bound_to 6896
  152.5075  133.8965  159.7430 H   0  0  0  0  0  0  0  0  0  0  0  0  # atno 6908 bound_to 6896
  150.9422  133.6588  159.2817 H   0  0  0  0  0  0  0  0  0  0  0  0  # atno 6909 bound_to 6896
  144.9953  139.4366  143.5319 H   0  0  0  0  0  0  0  0  0  0  0  0  # atno 7974 bound_to 7965
  154.3997  140.1443  156.3546 H   0  0  0  0  0  0  0  0  0  0  0  0  # atno 8008 bound_to 7997
  155.8237  140.3468  155.5509 H   0  0  0  0  0  0  0  0  0  0  0  0  # atno 8009 bound_to 7997
  155.8261  140.0905  157.1811 H   0  0  0  0  0  0  0  0  0  0  0  0  # atno 8010 bound_to 7997
  140.6578  143.2612  151.4533 H   0  0  0  0  0  0  0  0  0  0  0  0  # atno 10167 bound_to 10162
  157.6317  131.0989  150.7094 H   0  0  0  0  0  0  0  0  0  0  0  0  # atno 10718 bound_to 10713
  153.2680  135.6929  153.7510 H   0  0  0  0  0  0  0  0  0  0  0  0  # atno 10763 bound_to 10752
  153.6544  135.3371  155.3110 H   0  0  0  0  0  0  0  0  0  0  0  0  # atno 10764 bound_to 10752
  154.8454  135.4462  154.1692 H   0  0  0  0  0  0  0  0  0  0  0  0  # atno 10765 bound_to 10752
  141.1260  133.6618  156.5116 H   0  0  0  0  0  0  0  0  0  0  0  0  # atno 11005 bound_to 11000
  146.3440  139.9309  142.8754 LP  0  0  0  0  0  0  0  0  0  0  0  0  # atno 17320 bound_to 7965
  145.2229  140.9942  143.4035 LP  0  0  0  0  0  0  0  0  0  0  0  0  # atno 17321 bound_to 7965
  139.5804  144.1722  152.1961 LP  0  0  0  0  0  0  0  0  0  0  0  0  # atno 17342 bound_to 10162
  140.1046  144.5510  150.6966 LP  0  0  0  0  0  0  0  0  0  0  0  0  # atno 17343 bound_to 10162
  156.7433  130.4746  149.5473 LP  0  0  0  0  0  0  0  0  0  0  0  0  # atno 17370 bound_to 10713
  156.1526  130.6320  151.0615 LP  0  0  0  0  0  0  0  0  0  0  0  0  # atno 17371 bound_to 10713
  140.4364  134.7055  157.4969 LP  0  0  0  0  0  0  0  0  0  0  0  0  # atno 17394 bound_to 11000
  140.0258  134.6479  155.9174 LP  0  0  0  0  0  0  0  0  0  0  0  0  # atno 17395 bound_to 11000

$$$$
