AV-unprocessed.smi:1726|AV-procd|sdf|6958|dock10
  -GOLD-   22720 8173D 1   1.00000     0.00000
 Structure written by MMmdl.
 43 44  0  0  0  0  0  0  0  0  2 V2000
  146.4631  138.3895  151.7726 C   0  0  0  0  0  0  0  0  0  0  0  0
  146.5408  138.4520  153.3051 C   0  0  0  0  0  0  0  0  0  0  0  0
  146.1862  139.7928  153.8331 N   0  3  2  0  0  0  0  0  0  0  0  0
  147.2007  140.8242  153.4930 C   0  0  0  0  0  0  0  0  0  0  0  0
  146.7329  142.2273  153.9185 C   0  0  0  0  0  0  0  0  0  0  0  0
  146.3586  142.2675  155.4098 C   0  0  0  0  0  0  0  0  0  0  0  0
  145.3454  141.1607  155.7526 C   0  0  1  0  0  0  0  0  0  0  0  0
  144.0520  141.4628  155.1382 N   0  0  0  0  0  0  0  0  0  0  0  0
  142.8923  140.8572  155.4308 C   0  0  0  0  0  0  0  0  0  0  0  0
  142.7948  139.9574  156.2644 O   0  0  0  0  0  0  0  0  0  0  0  0
  141.8914  141.3477  154.6773 N   0  0  0  0  0  0  0  0  0  0  0  0
  140.5314  140.9954  154.6685 C   0  0  0  0  0  0  0  0  0  0  0  0
  140.0429  139.7730  155.0052 C   0  0  0  0  0  0  0  0  0  0  0  0
  138.6195  139.4793  154.9858 C   0  0  0  0  0  0  0  0  0  0  0  0
  138.0906  138.0848  155.2823 C   0  0  0  0  0  0  0  0  0  0  0  0
  136.7722  138.0164  155.0909 F   0  0  0  0  0  0  0  0  0  0  0  0
  138.6749  137.1757  154.5014 F   0  0  0  0  0  0  0  0  0  0  0  0
  138.3429  137.7655  156.5510 F   0  0  0  0  0  0  0  0  0  0  0  0
  137.8048  140.4825  154.6101 C   0  0  0  0  0  0  0  0  0  0  0  0
  138.2972  141.7482  154.2844 N   0  0  0  0  0  0  0  0  0  0  0  0
  139.6083  142.0772  154.2875 C   0  0  0  0  0  0  0  0  0  0  0  0
  139.9650  143.2152  153.9835 O   0  0  0  0  0  0  0  0  0  0  0  0
  145.8928  139.7917  155.2911 C   0  0  0  0  0  0  0  0  0  0  0  0
  137.6200  142.4520  154.0273 H   0  0  0  0  0  0  0  0  0  0  0  0
  146.8182  137.4246  151.4103 H   0  0  0  0  0  0  0  0  0  0  0  0
  147.0831  139.1613  151.3152 H   0  0  0  0  0  0  0  0  0  0  0  0
  145.4447  138.5158  151.4063 H   0  0  0  0  0  0  0  0  0  0  0  0
  145.9052  137.6894  153.7577 H   0  0  0  0  0  0  0  0  0  0  0  0
  147.5647  138.2111  153.5937 H   0  0  0  0  0  0  0  0  0  0  0  0
  148.1468  140.5788  153.9783 H   0  0  0  0  0  0  0  0  0  0  0  0
  147.3861  140.8218  152.4183 H   0  0  0  0  0  0  0  0  0  0  0  0
  147.5162  142.9579  153.7135 H   0  0  0  0  0  0  0  0  0  0  0  0
  145.8746  142.5239  153.3142 H   0  0  0  0  0  0  0  0  0  0  0  0
  147.2592  142.1306  156.0099 H   0  0  0  0  0  0  0  0  0  0  0  0
  145.9608  143.2480  155.6749 H   0  0  0  0  0  0  0  0  0  0  0  0
  145.2100  141.1434  156.8356 H   0  0  0  0  0  0  0  0  0  0  0  0
  144.0391  142.1972  154.4451 H   0  0  0  0  0  0  0  0  0  0  0  0
  142.1457  142.0403  153.9881 H   0  0  0  0  0  0  0  0  0  0  0  0
  140.7003  138.9802  155.3227 H   0  0  0  0  0  0  0  0  0  0  0  0
  136.7316  140.3948  154.5245 H   0  0  0  0  0  0  0  0  0  0  0  0
  145.1766  139.0086  155.5359 H   0  0  0  0  0  0  0  0  0  0  0  0
  146.8035  139.5506  155.8418 H   0  0  0  0  0  0  0  0  0  0  0  0
  145.3361  140.0671  153.3619 H   0  0  0  0  0  0  0  0  0  0  0  0
  1  2  1  0  0  0  0
  1 25  1  0  0  0  0
  1 26  1  0  0  0  0
  1 27  1  0  0  0  0
  2  3  1  0  0  0  0
  2 28  1  0  0  0  0
  2 29  1  0  0  0  0
  3 23  1  0  0  0  0
  3  4  1  0  0  0  0
  3 43  1  0  0  0  0
  4  5  1  0  0  0  0
  4 30  1  0  0  0  0
  4 31  1  0  0  0  0
  5  6  1  0  0  0  0
  5 32  1  0  0  0  0
  5 33  1  0  0  0  0
  6  7  1  0  0  0  0
  6 34  1  0  0  0  0
  6 35  1  0  0  0  0
  7  8  1  0  0  0  0
  7 23  1  0  0  0  0
  7 36  1  0  0  0  0
  8  9  1  0  0  0  0
  8 37  1  0  0  0  0
  9 10  2  0  0  0  0
  9 11  1  0  0  0  0
 11 12  1  0  0  0  0
 11 38  1  0  0  0  0
 12 21  1  0  0  0  0
 12 13  2  0  0  0  0
 13 14  1  0  0  0  0
 13 39  1  0  0  0  0
 14 15  1  0  0  0  0
 14 19  2  0  0  0  0
 15 16  1  0  0  0  0
 15 17  1  0  0  0  0
 15 18  1  0  0  0  0
 19 20  1  0  0  0  0
 19 40  1  0  0  0  0
 20 24  1  0  0  0  0
 20 21  1  0  0  0  0
 21 22  2  0  0  0  0
 23 41  1  0  0  0  0
 23 42  1  0  0  0  0
M  CHG  1   3   1
M  END
> <s_m_source_file>
AV-unprocessed.smi

> <i_m_source_file_index>
1726

> <i_lp_mmshare_version>
43012

> <i_f3d_flags>
0

> <s_epik_input>
W0NIM11bQ0gyXU4xW0NIMl1bQ0gyXVtDSDJdW0NASF0oW0NIMl0xKVtOSF1DKD1PKVtOSF1jMltjSF1jKEMoRikoRilGKVtjSF1bbkhdYzI9Tw==

> <s_epik_cmdline>
J2VwaWtfcHl0aG9uJywgJy1waCcsICc3LjAnLCAnLXRuJywgJzgnLCAnLW1hJywgJzIwMCcsICctbWV0YWxfYmluZGluZycsICctaW1hZScsICc8aW5maWxlLm1hZT4nLCAnLW9tYWUnLCAnPG91dGZpbGUubWFlPic=

> <r_lp_tautomer_probability>
1

> <r_epik_Ionization_Penalty>
0.00745721

> <r_epik_Ionization_Penalty_Charging>
0.00743804

> <r_epik_Ionization_Penalty_Neutral>
1.91703e-05

> <r_epik_State_Penalty>
-0

> <r_epik_Charging_Adjusted_Penalty>
0.00743804

> <i_epik_Tot_Q>
1

> <i_epik_Tot_abs_Q>
1

> <r_epik_Metal_State_Penalty>
0.37929

> <b_epik_Metal_Only>
0

> <s_lp_Force_Field>
OPLS_2005

> <r_lp_Energy>
34.544

> <b_lp_Chiralities_Consistent>
1

> <s_lp_Variant>
AV-unprocessed.smi:1726-2

> <Gold.Version>
5.8.1

> <Gold.Id.Protein>
6NUR|6NUR_protein|mol2

> <Gold.PLP.Fitness>
44.7878

> <Gold.PLP.PLP>
-35.3875

> <Gold.PLP.part.hbond>
-5.0000

> <Gold.PLP.part.metal>
0.0000

> <Gold.PLP.part.buried>
-1.1040

> <Gold.PLP.part.nonpolar>
-29.0540

> <Gold.PLP.part.repulsive>
0.2218

> <Gold.PLP.ligand.clash>
1.2142

> <Gold.PLP.ligand.torsion>
0.4416

> <Gold.PLP.Chemscore.Hbond>
3.8160

> <Gold.PLP.Chemscore.CHOScore>
0.0000

> <Gold.PLP.Chemscore.Metal>
0.0000

> <Gold.Chemscore.Hbonds>
donor molecule, donor type, donor heavy atom, donor atom, acceptor molecule, acceptor atom, score
      L1  H     3    43       P1 10175  2.00
      L1  H    11    38       P1 10174  0.98
      P1  H 10162 10167       L1    22  1.00

> <Gold.PLP.Chemscore.Internal.Correction>
0.0497

> <Gold.Rescore>
     Score         DG    S(hbond)    S(metal)    S(lipo)     H(rot)  DE(clash)    DE(int)     intcor
     15.04     -17.79       2.39        0.00      65.10       1.29       1.42       1.34       ----

> <Gold.Chemscore.Fitness>
15.0372

> <Gold.Chemscore.DG>
-17.7946

> <Gold.Chemscore.ZeroCoef>
-5.4800

> <Gold.Chemscore.Hbond>
2.3940

> <Gold.Chemscore.Metal>
0.0000

> <Gold.Chemscore.Lipo>
65.1031

> <Gold.Chemscore.Internal_Hbond>
0.0000

> <Gold.Chemscore.DEClash>
1.4209

> <Gold.Chemscore.DEInternal>
1.3364

> <Gold.Chemscore.Rot>
1.2884

> <Gold.Chemscore.Internal.Correction>
   9.000000E+99

> <Gold.Chemscore.Hbonds>
donor molecule, donor type, donor heavy atom, donor atom, acceptor molecule, acceptor atom, score
      L1  H     3    43       P1 10175  1.00
      L1  H    11    38       P1 10174  0.41
      P1  H 10162 10167       L1    22  0.91

> <Gold.Chemscore.Hbond.Weighted>
-7.9958

> <Gold.Chemscore.Metal.Weighted>
-0.0000

> <Gold.Chemscore.Lipo.Weighted>
-7.6171

> <Gold.Chemscore.Internal_Hbond.Weighted>
0.0000

> <Gold.Chemscore.DEClash.Weighted>
1.4209

> <Gold.Chemscore.DEInternal.Weighted>
1.3364

> <Gold.Chemscore.Rot.Weighted>
3.2983

> <Gold.Chemscore.Internal.Correction.Weighted>
   9.000000E+99

> <Gold.Protein.RotatedTorsions>
[ 6907 6896 6895 6894 ] final   31.80 input  -60.11 | X-H torsion
[ 7974 7965 7964 7962 ] final  -39.74 input  175.53 | X-H torsion
[ 8008 7997 7996 7995 ] final  -62.30 input   59.86 | X-H torsion
[ 10167 10162 10161 10158 ] final -122.97 input  -65.29 | X-H torsion
[ 10718 10713 10712 10709 ] final -152.95 input   66.30 | X-H torsion
[ 10763 10752 10751 10750 ] final -112.76 input  -60.55 | X-H torsion
[ 11005 11000 10999 10996 ] final -132.16 input  -57.11 | X-H torsion

> <Gold.Protein.ActiveResidues>
 VAL166  LYS551  ARG553  GLY616  TRP617  ASP618  TYR619  PRO620  LYS621  CYS622 
 ASP623  PHE694  ASN695  SER759  ASP760  ASP761  ALA762  ILE779  LEU786  VAL792 
 PHE793  MET794  SER795  GLU796  ALA797  LYS798  CYS799  TRP800  GLU811  SER814 

> <Gold.Protein.RotatedAtoms>
  152.0654  134.9567  160.0574 H   0  0  0  0  0  0  0  0  0  0  0  0  # atno 6907 bound_to 6896
  152.0914  133.4197  159.4554 H   0  0  0  0  0  0  0  0  0  0  0  0  # atno 6908 bound_to 6896
  150.6837  134.2787  159.4661 H   0  0  0  0  0  0  0  0  0  0  0  0  # atno 6909 bound_to 6896
  146.0368  140.6660  142.9106 H   0  0  0  0  0  0  0  0  0  0  0  0  # atno 7974 bound_to 7965
  154.4492  140.0999  156.6566 H   0  0  0  0  0  0  0  0  0  0  0  0  # atno 8008 bound_to 7997
  155.5340  140.3482  155.4414 H   0  0  0  0  0  0  0  0  0  0  0  0  # atno 8009 bound_to 7997
  156.0644  140.1334  156.9892 H   0  0  0  0  0  0  0  0  0  0  0  0  # atno 8010 bound_to 7997
  140.0085  143.5466  152.2273 H   0  0  0  0  0  0  0  0  0  0  0  0  # atno 10167 bound_to 10162
  156.4793  130.8295  151.2523 H   0  0  0  0  0  0  0  0  0  0  0  0  # atno 10718 bound_to 10713
  154.8364  135.4479  154.1243 H   0  0  0  0  0  0  0  0  0  0  0  0  # atno 10763 bound_to 10752
  153.2471  135.6922  153.7726 H   0  0  0  0  0  0  0  0  0  0  0  0  # atno 10764 bound_to 10752
  153.7052  135.3365  155.3210 H   0  0  0  0  0  0  0  0  0  0  0  0  # atno 10765 bound_to 10752
  140.9195  134.1463  157.4326 H   0  0  0  0  0  0  0  0  0  0  0  0  # atno 11005 bound_to 11000
  144.7056  140.3836  143.7121 LP  0  0  0  0  0  0  0  0  0  0  0  0  # atno 17320 bound_to 7965
  145.6950  139.1648  143.2625 LP  0  0  0  0  0  0  0  0  0  0  0  0  # atno 17321 bound_to 7965
  139.6221  144.7631  151.2717 LP  0  0  0  0  0  0  0  0  0  0  0  0  # atno 17342 bound_to 10162
  140.7391  143.6629  150.8148 LP  0  0  0  0  0  0  0  0  0  0  0  0  # atno 17343 bound_to 10162
  157.7484  131.0050  150.3098 LP  0  0  0  0  0  0  0  0  0  0  0  0  # atno 17370 bound_to 10713
  156.3538  130.3835  149.7307 LP  0  0  0  0  0  0  0  0  0  0  0  0  # atno 17371 bound_to 10713
  139.8772  134.9966  156.5802 LP  0  0  0  0  0  0  0  0  0  0  0  0  # atno 17394 bound_to 11000
  140.8007  133.8508  155.8724 LP  0  0  0  0  0  0  0  0  0  0  0  0  # atno 17395 bound_to 11000

$$$$
