AV-unprocessed.smi:11|AV-procd|sdf|56|dock8
  -GOLD-   2262015173D 1   1.00000     0.00000
 Structure written by MMmdl.
 33 35  0  0  0  0  0  0  0  0  1 V2000
  147.2654  141.3092  155.9122 C   0  0  0  0  0  0  0  0  0  0  0  0
  148.3641  140.2648  155.6497 C   0  0  0  0  0  0  0  0  0  0  0  0
  149.6327  140.8017  154.9410 C   0  0  2  0  0  0  0  0  0  0  0  0
  149.2538  141.3682  153.7017 O   0  0  0  0  0  0  0  0  0  0  0  0
  150.6599  139.6856  154.7055 C   0  0  0  0  0  0  0  0  0  0  0  0
  151.4677  139.6721  156.0015 C   0  0  0  0  0  0  0  0  0  0  0  0
  151.4906  141.0611  156.4361 N   0  0  0  0  0  0  0  0  0  0  0  0
  151.9435  141.4156  157.7232 C   0  0  0  0  0  0  0  0  0  0  0  0
  152.5153  140.4490  158.4872 N   0  0  0  0  0  0  0  0  0  0  0  0
  152.9528  140.7401  159.7154 C   0  0  0  0  0  0  0  0  0  0  0  0
  152.9215  141.9100  160.3573 N   0  0  0  0  0  0  0  0  0  0  0  0
  152.3621  142.8839  159.5859 C   0  0  0  0  0  0  0  0  0  0  0  0
  152.1779  144.2082  159.9240 N   0  0  0  0  0  0  0  0  0  0  0  0
  151.5890  144.8941  158.8766 C   0  0  0  0  0  0  0  0  0  0  0  0
  151.3774  144.0250  157.8368 C   0  0  0  0  0  0  0  0  0  0  0  0
  151.8517  142.7318  158.2639 C   0  0  0  0  0  0  0  0  0  0  0  0
  150.4250  141.8154  155.7898 C   0  0  0  0  0  0  0  0  0  0  0  0
  152.4322  144.6410  160.8002 H   0  0  0  0  0  0  0  0  0  0  0  0
  146.4020  140.8424  156.3864 H   0  0  0  0  0  0  0  0  0  0  0  0
  146.9186  141.7680  154.9863 H   0  0  0  0  0  0  0  0  0  0  0  0
  147.6062  142.1043  156.5740 H   0  0  0  0  0  0  0  0  0  0  0  0
  148.6416  139.8081  156.6003 H   0  0  0  0  0  0  0  0  0  0  0  0
  147.9341  139.4615  155.0497 H   0  0  0  0  0  0  0  0  0  0  0  0
  149.6419  140.8571  153.0081 H   0  0  0  0  0  0  0  0  0  0  0  0
  150.2115  138.7190  154.4733 H   0  0  0  0  0  0  0  0  0  0  0  0
  151.3225  139.9487  153.8790 H   0  0  0  0  0  0  0  0  0  0  0  0
  150.9721  139.0551  156.7522 H   0  0  0  0  0  0  0  0  0  0  0  0
  152.4748  139.2837  155.8466 H   0  0  0  0  0  0  0  0  0  0  0  0
  153.3897  139.9179  160.2626 H   0  0  0  0  0  0  0  0  0  0  0  0
  151.3702  145.9490  158.9554 H   0  0  0  0  0  0  0  0  0  0  0  0
  150.9387  144.2631  156.8797 H   0  0  0  0  0  0  0  0  0  0  0  0
  150.8886  142.5734  155.1571 H   0  0  0  0  0  0  0  0  0  0  0  0
  149.7921  142.3263  156.5141 H   0  0  0  0  0  0  0  0  0  0  0  0
  1  2  1  0  0  0  0
  1 19  1  0  0  0  0
  1 20  1  0  0  0  0
  1 21  1  0  0  0  0
  2  3  1  0  0  0  0
  2 22  1  0  0  0  0
  2 23  1  0  0  0  0
  3 17  1  0  0  0  0
  3  4  1  0  0  0  0
  3  5  1  0  0  0  0
  4 24  1  0  0  0  0
  5  6  1  0  0  0  0
  5 25  1  0  0  0  0
  5 26  1  0  0  0  0
  6  7  1  0  0  0  0
  6 27  1  0  0  0  0
  6 28  1  0  0  0  0
  7  8  1  0  0  0  0
  7 17  1  0  0  0  0
  8 16  1  0  0  0  0
  8  9  2  0  0  0  0
  9 10  1  0  0  0  0
 10 11  2  0  0  0  0
 10 29  1  0  0  0  0
 11 12  1  0  0  0  0
 12 16  2  0  0  0  0
 12 13  1  0  0  0  0
 13 18  1  0  0  0  0
 13 14  1  0  0  0  0
 14 15  2  0  0  0  0
 14 30  1  0  0  0  0
 15 16  1  0  0  0  0
 15 31  1  0  0  0  0
 17 32  1  0  0  0  0
 17 33  1  0  0  0  0
M  END
> <s_m_source_file>
AV-unprocessed.smi

> <i_m_source_file_index>
11

> <i_lp_mmshare_version>
43012

> <i_f3d_flags>
0

> <s_epik_input>
W0NIM11bQ0gyXVtDQEBdMShbT0hdKVtDSDJdW0NIMl1OKFtDSDJdMSljKG5bY0hdbjIpYyhjMjMpW2NIXVtjSF1bbkhdMw==

> <s_epik_cmdline>
J2VwaWtfcHl0aG9uJywgJy1waCcsICc3LjAnLCAnLXRuJywgJzgnLCAnLW1hJywgJzIwMCcsICctbWV0YWxfYmluZGluZycsICctaW1hZScsICc8aW5maWxlLm1hZT4nLCAnLW9tYWUnLCAnPG91dGZpbGUubWFlPic=

> <r_lp_tautomer_probability>
0.999998

> <r_epik_Ionization_Penalty>
0.0511253

> <r_epik_Ionization_Penalty_Charging>
0

> <r_epik_Ionization_Penalty_Neutral>
0.0511253

> <r_epik_State_Penalty>
0.0394181

> <r_epik_Charging_Adjusted_Penalty>
0.0394181

> <i_epik_Tot_Q>
0

> <i_epik_Tot_abs_Q>
0

> <r_epik_Metal_State_Penalty>
0.0367127

> <b_epik_Metal_Only>
0

> <s_lp_Force_Field>
OPLS_2005

> <r_lp_Energy>
27.4112

> <b_lp_Chiralities_Consistent>
1

> <s_lp_Variant>
AV-unprocessed.smi:11-2

> <Gold.Version>
5.8.1

> <Gold.Id.Protein>
6NUR|6NUR_protein|mol2

> <Gold.PLP.Fitness>
40.2391

> <Gold.PLP.PLP>
-37.3130

> <Gold.PLP.part.hbond>
-3.0000

> <Gold.PLP.part.metal>
0.0000

> <Gold.PLP.part.buried>
-5.5890

> <Gold.PLP.part.nonpolar>
-28.2256

> <Gold.PLP.part.repulsive>
0.0295

> <Gold.PLP.ligand.clash>
0.0000

> <Gold.PLP.ligand.torsion>
0.1648

> <Gold.PLP.Chemscore.Hbond>
1.0000

> <Gold.PLP.Chemscore.CHOScore>
0.0000

> <Gold.PLP.Chemscore.Metal>
0.0000

> <Gold.Chemscore.Hbonds>
donor molecule, donor type, donor heavy atom, donor atom, acceptor molecule, acceptor atom, score
      L1  H     4    24       P1  7957  1.00

> <Gold.PLP.Chemscore.Internal.Correction>
0.2557

> <Gold.Rescore>
     Score         DG    S(hbond)    S(metal)    S(lipo)     H(rot)  DE(clash)    DE(int)     intcor
     13.19     -13.39       0.95        0.00      71.58       1.43       0.06       0.14       ----

> <Gold.Chemscore.Fitness>
13.1881

> <Gold.Chemscore.DG>
-13.3866

> <Gold.Chemscore.ZeroCoef>
-5.4800

> <Gold.Chemscore.Hbond>
0.9546

> <Gold.Chemscore.Metal>
0.0000

> <Gold.Chemscore.Lipo>
71.5802

> <Gold.Chemscore.Internal_Hbond>
0.0000

> <Gold.Chemscore.DEClash>
0.0632

> <Gold.Chemscore.DEInternal>
0.1352

> <Gold.Chemscore.Rot>
1.4283

> <Gold.Chemscore.Internal.Correction>
   9.000000E+99

> <Gold.Chemscore.Hbonds>
donor molecule, donor type, donor heavy atom, donor atom, acceptor molecule, acceptor atom, score
      L1  H     4    24       P1  7957  0.92

> <Gold.Chemscore.Hbond.Weighted>
-3.1883

> <Gold.Chemscore.Metal.Weighted>
-0.0000

> <Gold.Chemscore.Lipo.Weighted>
-8.3749

> <Gold.Chemscore.Internal_Hbond.Weighted>
0.0000

> <Gold.Chemscore.DEClash.Weighted>
0.0632

> <Gold.Chemscore.DEInternal.Weighted>
0.1352

> <Gold.Chemscore.Rot.Weighted>
3.6566

> <Gold.Chemscore.Internal.Correction.Weighted>
   9.000000E+99

> <Gold.Protein.RotatedTorsions>
[ 6907 6896 6895 6894 ] final -160.40 input  -60.11 | X-H torsion
[ 7974 7965 7964 7962 ] final -153.86 input  175.53 | X-H torsion
[ 8008 7997 7996 7995 ] final  105.57 input   59.86 | X-H torsion
[ 10167 10162 10161 10158 ] final  169.12 input  -65.29 | X-H torsion
[ 10718 10713 10712 10709 ] final   54.77 input   66.30 | X-H torsion
[ 10763 10752 10751 10750 ] final  -92.24 input  -60.55 | X-H torsion
[ 11005 11000 10999 10996 ] final   24.31 input  -57.11 | X-H torsion

> <Gold.Protein.ActiveResidues>
 VAL166  LYS551  ARG553  GLY616  TRP617  ASP618  TYR619  PRO620  LYS621  CYS622 
 ASP623  PHE694  ASN695  SER759  ASP760  ASP761  ALA762  ILE779  LEU786  VAL792 
 PHE793  MET794  SER795  GLU796  ALA797  LYS798  CYS799  TRP800  GLU811  SER814 

> <Gold.Protein.RotatedAtoms>
  151.3485  133.3934  159.2677 H   0  0  0  0  0  0  0  0  0  0  0  0  # atno 6907 bound_to 6896
  150.9820  134.9174  159.7860 H   0  0  0  0  0  0  0  0  0  0  0  0  # atno 6908 bound_to 6896
  152.5220  134.3449  159.9282 H   0  0  0  0  0  0  0  0  0  0  0  0  # atno 6909 bound_to 6896
  144.7719  140.4467  143.5901 H   0  0  0  0  0  0  0  0  0  0  0  0  # atno 7974 bound_to 7965
  156.1670  140.3128  155.8906 H   0  0  0  0  0  0  0  0  0  0  0  0  # atno 8008 bound_to 7997
  155.3665  140.0479  157.3063 H   0  0  0  0  0  0  0  0  0  0  0  0  # atno 8009 bound_to 7997
  154.5202  140.2195  155.9000 H   0  0  0  0  0  0  0  0  0  0  0  0  # atno 8010 bound_to 7997
  139.4984  144.3740  151.9694 H   0  0  0  0  0  0  0  0  0  0  0  0  # atno 10167 bound_to 10162
  157.5287  130.8615  149.8657 H   0  0  0  0  0  0  0  0  0  0  0  0  # atno 10718 bound_to 10713
  154.6842  135.5238  153.8303 H   0  0  0  0  0  0  0  0  0  0  0  0  # atno 10763 bound_to 10752
  153.0585  135.6560  154.0528 H   0  0  0  0  0  0  0  0  0  0  0  0  # atno 10764 bound_to 10752
  154.0411  135.2977  155.3334 H   0  0  0  0  0  0  0  0  0  0  0  0  # atno 10765 bound_to 10752
  140.3601  134.2134  155.7673 H   0  0  0  0  0  0  0  0  0  0  0  0  # atno 11005 bound_to 11000
  145.6300  139.1535  143.2974 LP  0  0  0  0  0  0  0  0  0  0  0  0  # atno 17320 bound_to 7965
  146.1871  140.6404  142.9162 LP  0  0  0  0  0  0  0  0  0  0  0  0  # atno 17321 bound_to 7965
  140.3176  144.3465  150.6017 LP  0  0  0  0  0  0  0  0  0  0  0  0  # atno 17342 bound_to 10162
  140.5748  143.2177  151.7534 LP  0  0  0  0  0  0  0  0  0  0  0  0  # atno 17343 bound_to 10162
  156.0406  130.3740  150.1446 LP  0  0  0  0  0  0  0  0  0  0  0  0  # atno 17370 bound_to 10713
  156.9631  130.9811  151.3475 LP  0  0  0  0  0  0  0  0  0  0  0  0  # atno 17371 bound_to 10713
  141.1986  133.8030  157.0573 LP  0  0  0  0  0  0  0  0  0  0  0  0  # atno 17394 bound_to 11000
  140.0633  134.9742  157.1343 LP  0  0  0  0  0  0  0  0  0  0  0  0  # atno 17395 bound_to 11000

$$$$
