AV-unprocessed.smi:290|AV-procd|sdf|2230|dock5
  -GOLD-   2262022 93D 1   1.00000     0.00000
 Structure written by MMmdl.
 59 62  0  0  0  0  0  0  0  0  2 V2000
  152.6242  141.8726  159.4797 C   0  0  0  0  0  0  0  0  0  0  0  0
  151.6962  143.0952  159.4101 C   0  0  1  0  0  0  0  0  0  0  0  0
  152.4899  144.1992  159.8481 O   0  0  0  0  0  0  0  0  0  0  0  0
  152.2098  145.3438  159.0617 C   0  0  0  0  0  0  0  0  0  0  0  0
  151.9448  144.7530  157.6857 C   0  0  0  0  0  0  0  0  0  0  0  0
  151.1480  143.4949  158.0079 C   0  0  2  0  0  0  0  0  0  0  0  0
  149.7968  143.8938  158.1666 O   0  0  0  0  0  0  0  0  0  0  0  0
  151.2143  142.4548  156.8536 C   0  0  0  0  0  0  0  0  0  0  0  0
  150.4070  141.2509  157.0286 N   0  0  0  0  0  0  0  0  0  0  0  0
  149.6677  140.8788  158.1314 C   0  0  0  0  0  0  0  0  0  0  0  0
  149.0144  139.7554  158.0140 N   0  0  0  0  0  0  0  0  0  0  0  0
  149.2987  139.3279  156.7235 C   0  0  0  0  0  0  0  0  0  0  0  0
  148.9141  138.1983  155.9447 C   0  0  0  0  0  0  0  0  0  0  0  0
  148.1144  137.2082  156.4230 N   0  0  0  0  0  0  0  0  0  0  0  0
  146.6732  137.4479  156.3827 C   0  0  0  0  0  0  0  0  0  0  0  0
  146.0881  136.8067  157.6455 C   0  0  0  0  0  0  0  0  0  0  0  0
  147.1490  135.7682  158.0248 C   0  0  2  0  0  0  0  0  0  0  0  0
  147.1057  135.2765  159.4320 N   0  3  2  0  0  0  0  0  0  0  0  0
  145.9254  134.4157  159.6822 C   0  0  0  0  0  0  0  0  0  0  0  0
  147.2913  136.3138  160.4838 C   0  0  0  0  0  0  0  0  0  0  0  0
  147.6039  135.6893  161.8531 C   0  0  0  0  0  0  0  0  0  0  0  0
  148.0187  136.6914  162.7580 O   0  0  0  0  0  0  0  0  0  0  0  0
  148.4628  136.4565  157.6288 C   0  0  1  0  0  0  0  0  0  0  0  0
  149.6137  135.4617  157.3952 C   0  0  0  0  0  0  0  0  0  0  0  0
  149.3861  138.1318  154.6715 N   0  0  0  0  0  0  0  0  0  0  0  0
  150.1803  139.0928  154.1919 C   0  0  0  0  0  0  0  0  0  0  0  0
  150.6233  140.1908  154.8053 N   0  0  0  0  0  0  0  0  0  0  0  0
  150.1543  140.2688  156.0837 C   0  0  0  0  0  0  0  0  0  0  0  0
  147.0230  134.9101  157.3608 H   0  0  0  0  0  0  0  0  0  0  0  0
  148.7605  137.1679  158.3980 H   0  0  0  0  0  0  0  0  0  0  0  0
  152.0762  140.9435  159.3375 H   0  0  0  0  0  0  0  0  0  0  0  0
  153.0967  141.8061  160.4599 H   0  0  0  0  0  0  0  0  0  0  0  0
  153.4188  141.9267  158.7353 H   0  0  0  0  0  0  0  0  0  0  0  0
  150.8791  142.9535  160.1199 H   0  0  0  0  0  0  0  0  0  0  0  0
  151.3246  145.8490  159.4512 H   0  0  0  0  0  0  0  0  0  0  0  0
  153.0410  146.0491  159.0672 H   0  0  0  0  0  0  0  0  0  0  0  0
  151.4296  145.4427  157.0154 H   0  0  0  0  0  0  0  0  0  0  0  0
  152.8973  144.4899  157.2231 H   0  0  0  0  0  0  0  0  0  0  0  0
  149.4444  144.1050  157.3155 H   0  0  0  0  0  0  0  0  0  0  0  0
  150.9075  142.9227  155.9172 H   0  0  0  0  0  0  0  0  0  0  0  0
  152.2502  142.1510  156.7011 H   0  0  0  0  0  0  0  0  0  0  0  0
  149.6179  141.4637  159.0371 H   0  0  0  0  0  0  0  0  0  0  0  0
  146.4275  138.5100  156.3342 H   0  0  0  0  0  0  0  0  0  0  0  0
  146.2675  136.9683  155.4913 H   0  0  0  0  0  0  0  0  0  0  0  0
  145.9826  137.5748  158.4115 H   0  0  0  0  0  0  0  0  0  0  0  0
  145.1046  136.3682  157.4747 H   0  0  0  0  0  0  0  0  0  0  0  0
  144.9997  134.9861  159.5949 H   0  0  0  0  0  0  0  0  0  0  0  0
  145.9591  133.9757  160.6783 H   0  0  0  0  0  0  0  0  0  0  0  0
  145.8867  133.5931  158.9674 H   0  0  0  0  0  0  0  0  0  0  0  0
  148.0974  137.0019  160.2337 H   0  0  0  0  0  0  0  0  0  0  0  0
  146.3909  136.9266  160.5496 H   0  0  0  0  0  0  0  0  0  0  0  0
  146.7112  135.2117  162.2583 H   0  0  0  0  0  0  0  0  0  0  0  0
  148.3713  134.9190  161.7833 H   0  0  0  0  0  0  0  0  0  0  0  0
  148.3547  136.2765  163.5385 H   0  0  0  0  0  0  0  0  0  0  0  0
  149.8228  134.8899  158.2997 H   0  0  0  0  0  0  0  0  0  0  0  0
  150.5360  135.9688  157.1127 H   0  0  0  0  0  0  0  0  0  0  0  0
  149.3710  134.7533  156.6026 H   0  0  0  0  0  0  0  0  0  0  0  0
  150.5105  138.9620  153.1718 H   0  0  0  0  0  0  0  0  0  0  0  0
  147.9081  134.6676  159.5140 H   0  0  0  0  0  0  0  0  0  0  0  0
  1  2  1  0  0  0  0
  1 31  1  0  0  0  0
  1 32  1  0  0  0  0
  1 33  1  0  0  0  0
  2  6  1  0  0  0  0
  2  3  1  0  0  0  0
  2 34  1  0  0  0  0
  3  4  1  0  0  0  0
  4  5  1  0  0  0  0
  4 35  1  0  0  0  0
  4 36  1  0  0  0  0
  5  6  1  0  0  0  0
  5 37  1  0  0  0  0
  5 38  1  0  0  0  0
  6  7  1  0  0  0  0
  6  8  1  0  0  0  0
  7 39  1  0  0  0  0
  8  9  1  0  0  0  0
  8 40  1  0  0  0  0
  8 41  1  0  0  0  0
  9 28  1  0  0  0  0
  9 10  1  0  0  0  0
 10 11  2  0  0  0  0
 10 42  1  0  0  0  0
 11 12  1  0  0  0  0
 12 28  2  0  0  0  0
 12 13  1  0  0  0  0
 13 14  1  0  0  0  0
 13 25  2  0  0  0  0
 14 23  1  0  0  0  0
 14 15  1  0  0  0  0
 15 16  1  0  0  0  0
 15 43  1  0  0  0  0
 15 44  1  0  0  0  0
 16 17  1  0  0  0  0
 16 45  1  0  0  0  0
 16 46  1  0  0  0  0
 17 29  1  0  0  0  0
 17 18  1  0  0  0  0
 17 23  1  0  0  0  0
 18 19  1  0  0  0  0
 18 20  1  0  0  0  0
 18 59  1  0  0  0  0
 19 47  1  0  0  0  0
 19 48  1  0  0  0  0
 19 49  1  0  0  0  0
 20 21  1  0  0  0  0
 20 50  1  0  0  0  0
 20 51  1  0  0  0  0
 21 22  1  0  0  0  0
 21 52  1  0  0  0  0
 21 53  1  0  0  0  0
 22 54  1  0  0  0  0
 23 30  1  0  0  0  0
 23 24  1  0  0  0  0
 24 55  1  0  0  0  0
 24 56  1  0  0  0  0
 24 57  1  0  0  0  0
 25 26  1  0  0  0  0
 26 27  2  0  0  0  0
 26 58  1  0  0  0  0
 27 28  1  0  0  0  0
M  CHG  1  18   1
M  END
> <s_m_source_file>
AV-unprocessed.smi

> <i_m_source_file_index>
290

> <i_lp_mmshare_version>
43012

> <i_f3d_flags>
0

> <s_epik_input>
W0NIMl0xW0NIMl1PW0NAQEhdKFtDSDNdKVtDQEBdMShbT0hdKVtDSDJdbihbY0hdbjIpYyhjMjMpbltjSF1uYzNONFtDSDJdW0NIMl1bQ0BIXShbQ0BIXTRbQ0gzXSlOKFtDSDNdKVtDSDJdW0NIMl1bT0hd

> <s_epik_cmdline>
J2VwaWtfcHl0aG9uJywgJy1waCcsICc3LjAnLCAnLXRuJywgJzgnLCAnLW1hJywgJzIwMCcsICctbWV0YWxfYmluZGluZycsICctaW1hZScsICc8aW5maWxlLm1hZT4nLCAnLW9tYWUnLCAnPG91dGZpbGUubWFlPic=

> <r_lp_tautomer_probability>
1

> <r_epik_Ionization_Penalty>
0.0036983

> <r_epik_Ionization_Penalty_Charging>
0.0032725

> <r_epik_Ionization_Penalty_Neutral>
0.000425798

> <r_epik_State_Penalty>
-0

> <r_epik_Charging_Adjusted_Penalty>
0.0032725

> <i_epik_Tot_Q>
1

> <i_epik_Tot_abs_Q>
1

> <r_epik_Metal_State_Penalty>
-0

> <b_epik_Metal_Only>
0

> <s_lp_Force_Field>
OPLS_2005

> <r_lp_Energy>
62.8721

> <b_lp_Chiralities_Consistent>
1

> <s_lp_Variant>
AV-unprocessed.smi:290-16

> <Gold.Version>
5.8.1

> <Gold.Id.Protein>
6NUR|6NUR_protein|mol2

> <Gold.PLP.Fitness>
48.6648

> <Gold.PLP.PLP>
-37.2998

> <Gold.PLP.part.hbond>
-4.0000

> <Gold.PLP.part.metal>
0.0000

> <Gold.PLP.part.buried>
-6.8889

> <Gold.PLP.part.nonpolar>
-26.7137

> <Gold.PLP.part.repulsive>
0.2949

> <Gold.PLP.ligand.clash>
0.0000

> <Gold.PLP.ligand.torsion>
0.5392

> <Gold.PLP.Chemscore.Hbond>
2.9920

> <Gold.PLP.Chemscore.CHOScore>
0.9700

> <Gold.PLP.Chemscore.Metal>
0.0000

> <Gold.Chemscore.Hbonds>
donor molecule, donor type, donor heavy atom, donor atom, acceptor molecule, acceptor atom, score
      L1  H     7    39       P1  8028  1.00
      P1  H  6931  6943       L1    22  0.99
      P1  H  7989  7998       L1    27  1.00
      L1  C    26    58       P1  7957  0.97

> <Gold.PLP.Chemscore.Internal.Correction>
0.5574

> <Gold.Rescore>
     Score         DG    S(hbond)    S(metal)    S(lipo)     H(rot)  DE(clash)    DE(int)     intcor
     13.74     -15.62       2.66        0.00      91.07       3.67       0.76       1.13       ----

> <Gold.Chemscore.Fitness>
13.7378

> <Gold.Chemscore.DG>
-15.6224

> <Gold.Chemscore.ZeroCoef>
-5.4800

> <Gold.Chemscore.Hbond>
2.6564

> <Gold.Chemscore.Metal>
0.0000

> <Gold.Chemscore.Lipo>
91.0654

> <Gold.Chemscore.Internal_Hbond>
0.0000

> <Gold.Chemscore.DEClash>
0.7587

> <Gold.Chemscore.DEInternal>
1.1260

> <Gold.Chemscore.Rot>
3.6658

> <Gold.Chemscore.Internal.Correction>
   9.000000E+99

> <Gold.Chemscore.Hbonds>
donor molecule, donor type, donor heavy atom, donor atom, acceptor molecule, acceptor atom, score
      L1  H     7    39       P1  8028  0.26
      P1  H  6931  6943       L1    22  0.78
      P1  H  7989  7998       L1    27  0.26

> <Gold.Chemscore.Hbond.Weighted>
-8.8722

> <Gold.Chemscore.Metal.Weighted>
-0.0000

> <Gold.Chemscore.Lipo.Weighted>
-10.6546

> <Gold.Chemscore.Internal_Hbond.Weighted>
0.0000

> <Gold.Chemscore.DEClash.Weighted>
0.7587

> <Gold.Chemscore.DEInternal.Weighted>
1.1260

> <Gold.Chemscore.Rot.Weighted>
9.3844

> <Gold.Chemscore.Internal.Correction.Weighted>
   9.000000E+99

> <Gold.Protein.RotatedTorsions>
[ 6907 6896 6895 6894 ] final -178.04 input  -60.11 | X-H torsion
[ 7974 7965 7964 7962 ] final   -2.50 input  175.53 | X-H torsion
[ 8008 7997 7996 7995 ] final   -2.99 input   59.86 | X-H torsion
[ 10167 10162 10161 10158 ] final  -28.57 input  -65.29 | X-H torsion
[ 10718 10713 10712 10709 ] final   68.00 input   66.30 | X-H torsion
[ 10763 10752 10751 10750 ] final -141.86 input  -60.55 | X-H torsion
[ 11005 11000 10999 10996 ] final  -79.51 input  -57.11 | X-H torsion

> <Gold.Protein.ActiveResidues>
 VAL166  LYS551  ARG553  GLY616  TRP617  ASP618  TYR619  PRO620  LYS621  CYS622 
 ASP623  PHE694  ASN695  SER759  ASP760  ASP761  ALA762  ILE779  LEU786  VAL792 
 PHE793  MET794  SER795  GLU796  ALA797  LYS798  CYS799  TRP800  GLU811  SER814 

> <Gold.Protein.RotatedAtoms>
  151.6308  133.3332  159.3108 H   0  0  0  0  0  0  0  0  0  0  0  0  # atno 6907 bound_to 6896
  150.8057  134.7185  159.6654 H   0  0  0  0  0  0  0  0  0  0  0  0  # atno 6908 bound_to 6896
  152.4152  134.6058  160.0064 H   0  0  0  0  0  0  0  0  0  0  0  0  # atno 6909 bound_to 6896
  146.2403  140.1580  142.8333 H   0  0  0  0  0  0  0  0  0  0  0  0  # atno 7974 bound_to 7965
  154.6297  140.2520  155.7448 H   0  0  0  0  0  0  0  0  0  0  0  0  # atno 8008 bound_to 7997
  156.2473  140.2909  156.0563 H   0  0  0  0  0  0  0  0  0  0  0  0  # atno 8009 bound_to 7997
  155.1764  140.0388  157.2863 H   0  0  0  0  0  0  0  0  0  0  0  0  # atno 8010 bound_to 7997
  140.7268  143.3999  151.1283 H   0  0  0  0  0  0  0  0  0  0  0  0  # atno 10167 bound_to 10162
  157.6263  130.9350  150.0318 H   0  0  0  0  0  0  0  0  0  0  0  0  # atno 10718 bound_to 10713
  154.8530  135.3512  154.5935 H   0  0  0  0  0  0  0  0  0  0  0  0  # atno 10763 bound_to 10752
  153.6545  135.6992  153.5202 H   0  0  0  0  0  0  0  0  0  0  0  0  # atno 10764 bound_to 10752
  153.2867  135.4247  155.1087 H   0  0  0  0  0  0  0  0  0  0  0  0  # atno 10765 bound_to 10752
  141.1667  133.7109  156.8133 H   0  0  0  0  0  0  0  0  0  0  0  0  # atno 11005 bound_to 11000
  145.0113  140.8716  143.5223 LP  0  0  0  0  0  0  0  0  0  0  0  0  # atno 17320 bound_to 7965
  145.1614  139.2456  143.5389 LP  0  0  0  0  0  0  0  0  0  0  0  0  # atno 17321 bound_to 7965
  139.7617  143.8626  152.3101 LP  0  0  0  0  0  0  0  0  0  0  0  0  # atno 17342 bound_to 10162
  139.8514  144.7162  150.9210 LP  0  0  0  0  0  0  0  0  0  0  0  0  # atno 17343 bound_to 10162
  156.1438  130.3642  149.9542 LP  0  0  0  0  0  0  0  0  0  0  0  0  # atno 17370 bound_to 10713
  156.7577  130.9139  151.3640 LP  0  0  0  0  0  0  0  0  0  0  0  0  # atno 17371 bound_to 10713
  140.2171  134.8784  157.3338 LP  0  0  0  0  0  0  0  0  0  0  0  0  # atno 17394 bound_to 11000
  140.2026  134.4236  155.7655 LP  0  0  0  0  0  0  0  0  0  0  0  0  # atno 17395 bound_to 11000

$$$$
