#       Name:                AV-unprocessed.smi:1999
#       Creating user name   scv26
#       Creation time:       Fri Mar 27 10:31:28 2020


#       File generated by GOLD software.
#

@<TRIPOS>MOLECULE
AV-unprocessed.smi:1999
    45    46     1
SMALL
NO_CHARGES


@<TRIPOS>ATOM
      1 ****        -6.3509   2.3260   0.8212 C.3            1 S1                 0.0000
      2 ****        -4.9311   1.8774   0.8902 C.2            1 S1                 0.0000
      3 ****        -3.9209   2.6053   0.3988 N.2            1 S1                 0.0000
      4 ****        -2.6917   1.9859   0.5754 N.2            1 S1                 0.0000
      5 ****        -2.8119   0.8057   1.1986 C.2            1 S1                 0.0000
      6 ****        -1.7134  -0.0428   1.4987 N.am           1 S1                 0.0000
      7 ****        -0.4068   0.1783   1.2728 C.2            1 S1                 0.0000
      8 ****         0.0683   1.2071   0.7918 O.2            1 S1                 0.0000
      9 ****         0.3356  -0.8802   1.6314 N.am           1 S1                 0.0000
     10 ****         1.7941  -0.9765   1.5500 C.3            1 S1                 0.0000
     11 ****         2.2984  -1.8594   2.6995 C.3            1 S1                 0.0000
     12 ****         2.2528  -1.5290   0.1797 C.3            1 S1                 0.0000
     13 ****         1.8384  -0.6768  -0.9637 N.4            1 S1                 1.0000
     14 ****         2.6863   0.5267  -1.1441 C.3            1 S1                 0.0000
     15 ****         2.1382   1.3932  -2.2898 C.3            1 S1                 0.0000
     16 ****         2.0833   0.6209  -3.4833 O.3            1 S1                 0.0000
     17 ****         1.2159  -0.4992  -3.3546 C.3            1 S1                 0.0000
     18 ****         1.7261  -1.4254  -2.2370 C.3            1 S1                 0.0000
     19 ****        -4.4536   0.3478   1.6179 S.3            1 S1                 0.0000
     20 ****        -6.4424   3.3445   1.1993 H              1 S1                 0.0000
     21 ****        -6.9853   1.6737   1.4218 H              1 S1                 0.0000
     22 ****        -6.7004   2.3008  -0.2110 H              1 S1                 0.0000
     23 ****        -1.9542  -0.9258   1.9245 H              1 S1                 0.0000
     24 ****        -0.1447  -1.6799   2.0178 H              1 S1                 0.0000
     25 ****         2.2244   0.0142   1.7028 H              1 S1                 0.0000
     26 ****         3.3868  -1.9245   2.6956 H              1 S1                 0.0000
     27 ****         1.9050  -2.8740   2.6262 H              1 S1                 0.0000
     28 ****         1.9986  -1.4547   3.6669 H              1 S1                 0.0000
     29 ****         3.3357  -1.6621   0.1593 H              1 S1                 0.0000
     30 ****         1.8245  -2.5250   0.0563 H              1 S1                 0.0000
     31 ****         2.7148   1.1149  -0.2275 H              1 S1                 0.0000
     32 ****         3.7120   0.2256  -1.3621 H              1 S1                 0.0000
     33 ****         1.1482   1.7826  -2.0459 H              1 S1                 0.0000
     34 ****         2.7874   2.2534  -2.4541 H              1 S1                 0.0000
     35 ****         0.1982  -0.1637  -3.1474 H              1 S1                 0.0000
     36 ****         1.1875  -1.0349  -4.3036 H              1 S1                 0.0000
     37 ****         2.6987  -1.8408  -2.5059 H              1 S1                 0.0000
     38 ****         1.0391  -2.2637  -2.1161 H              1 S1                 0.0000
     39 ****         0.9076  -0.3472  -0.7487 H              1 S1                 0.0000
     40 ****        -4.0385   3.4938  -0.0448 LP             1 S1                 0.0000
     41 ****        -1.8207   2.3738   0.2737 LP             1 S1                 0.0000
     42 ****        -0.5335   1.9633   0.5350 LP             1 S1                 0.0000
     43 ****         1.0561   1.2867   0.6578 LP             1 S1                 0.0000
     44 ****         3.0034   0.2936  -3.6985 LP             1 S1                 0.0000
     45 ****         1.7532   1.2009  -4.2281 LP             1 S1                 0.0000
@<TRIPOS>BOND
    1    1    2 1     
    2    1   20 1     
    3    1   21 1     
    4    1   22 1     
    5    2   19 1     
    6    2    3 2     
    7    3    4 1     
    8    4    5 2     
    9    5    6 1     
   10    5   19 1     
   11    6    7 am    
   12    6   23 1     
   13    7    8 2     
   14    7    9 am    
   15    9   10 1     
   16    9   24 1     
   17   10   11 1     
   18   10   12 1     
   19   10   25 1     
   20   11   26 1     
   21   11   27 1     
   22   11   28 1     
   23   12   13 1     
   24   12   29 1     
   25   12   30 1     
   26   13   18 1     
   27   13   14 1     
   28   13   39 1     
   29   14   15 1     
   30   14   31 1     
   31   14   32 1     
   32   15   16 1     
   33   15   33 1     
   34   15   34 1     
   35   16   17 1     
   36   17   18 1     
   37   17   35 1     
   38   17   36 1     
   39   18   37 1     
   40   18   38 1     
   41    3   40 1     
   42    4   41 1     
   43    8   42 1     
   44    8   43 1     
   45   16   44 1     
   46   16   45 1     
@<TRIPOS>SUBSTRUCTURE
      1 S1             1
@<TRIPOS>SET
LONE_PAIRS      STATIC     ATOMS    <user>   **** ""
6 40 41 42 43 44 45
DONOR_HYDROGENS      STATIC     ATOMS    <user>   **** ""
3 23 24 39
ATOM$BLUE        STATIC     ATOMS    COLORGROUP SYSTEM
6 40 41 42 43 44 45
ATOM$RED        STATIC     ATOMS    COLORGROUP SYSTEM
3 23 24 39
