AV-unprocessed.smi:877|AV-procd|sdf|4027|dock10
  -GOLD-   22720 1513D 1   1.00000     0.00000
 Structure written by MMmdl.
 43 45  0  0  0  0  0  0  0  0  1 V2000
  155.8504  135.3411  162.3231 C   0  0  0  0  0  0  0  0  0  0  0  0
  155.7569  135.3691  160.9064 O   0  0  0  0  0  0  0  0  0  0  0  0
  154.7344  136.0983  160.3383 C   0  0  0  0  0  0  0  0  0  0  0  0
  153.8375  136.9172  161.0698 C   0  0  0  0  0  0  0  0  0  0  0  0
  152.8203  137.6308  160.4069 C   0  0  0  0  0  0  0  0  0  0  0  0
  152.6815  137.5379  159.0073 C   0  0  0  0  0  0  0  0  0  0  0  0
  151.5844  138.3070  158.2916 C   0  0  0  0  0  0  0  0  0  0  0  0
  151.6668  139.7929  158.5088 C   0  0  0  0  0  0  0  0  0  0  0  0
  152.6200  140.3391  159.2668 N   0  0  0  0  0  0  0  0  0  0  0  0
  152.3345  141.6879  159.1968 C   0  0  0  0  0  0  0  0  0  0  0  0
  152.9865  142.7963  159.7831 C   0  0  0  0  0  0  0  0  0  0  0  0
  152.5064  144.1043  159.5648 C   0  0  0  0  0  0  0  0  0  0  0  0
  151.3697  144.3218  158.7597 C   0  0  0  0  0  0  0  0  0  0  0  0
  150.7043  143.2308  158.1682 C   0  0  0  0  0  0  0  0  0  0  0  0
  151.1880  141.9270  158.3886 C   0  0  0  0  0  0  0  0  0  0  0  0
  150.7793  140.6656  157.9644 N   0  0  0  0  0  0  0  0  0  0  0  0
  149.6280  140.3801  157.1173 C   0  0  0  0  0  0  0  0  0  0  0  0
  149.6479  141.1699  155.7933 C   0  0  2  0  0  0  0  0  0  0  0  0
  148.7597  142.2667  155.8940 O   0  0  0  0  0  0  0  0  0  0  0  0
  149.2181  140.2958  154.6034 C   0  0  0  0  0  0  0  0  0  0  0  0
  149.5003  140.9545  153.3872 O   0  0  0  0  0  0  0  0  0  0  0  0
  153.5691  136.7239  158.2755 C   0  0  0  0  0  0  0  0  0  0  0  0
  154.5866  136.0122  158.9388 C   0  0  0  0  0  0  0  0  0  0  0  0
  156.7064  134.7329  162.6149 H   0  0  0  0  0  0  0  0  0  0  0  0
  154.9614  134.8966  162.7728 H   0  0  0  0  0  0  0  0  0  0  0  0
  156.0017  136.3409  162.7321 H   0  0  0  0  0  0  0  0  0  0  0  0
  153.9094  137.0160  162.1422 H   0  0  0  0  0  0  0  0  0  0  0  0
  152.1473  138.2519  160.9798 H   0  0  0  0  0  0  0  0  0  0  0  0
  151.6443  138.0589  157.2335 H   0  0  0  0  0  0  0  0  0  0  0  0
  150.6067  137.9645  158.6316 H   0  0  0  0  0  0  0  0  0  0  0  0
  153.8584  142.6399  160.4008 H   0  0  0  0  0  0  0  0  0  0  0  0
  153.0131  144.9444  160.0168 H   0  0  0  0  0  0  0  0  0  0  0  0
  151.0084  145.3267  158.5962 H   0  0  0  0  0  0  0  0  0  0  0  0
  149.8344  143.3959  157.5500 H   0  0  0  0  0  0  0  0  0  0  0  0
  149.5896  139.3072  156.9274 H   0  0  0  0  0  0  0  0  0  0  0  0
  148.7202  140.6106  157.6763 H   0  0  0  0  0  0  0  0  0  0  0  0
  150.6535  141.5528  155.6183 H   0  0  0  0  0  0  0  0  0  0  0  0
  149.1485  143.0082  155.4552 H   0  0  0  0  0  0  0  0  0  0  0  0
  149.7735  139.3573  154.6047 H   0  0  0  0  0  0  0  0  0  0  0  0
  148.1584  140.0426  154.6562 H   0  0  0  0  0  0  0  0  0  0  0  0
  149.3699  140.3398  152.6808 H   0  0  0  0  0  0  0  0  0  0  0  0
  153.4757  136.6458  157.2025 H   0  0  0  0  0  0  0  0  0  0  0  0
  155.2624  135.3935  158.3668 H   0  0  0  0  0  0  0  0  0  0  0  0
  1  2  1  0  0  0  0
  1 24  1  0  0  0  0
  1 25  1  0  0  0  0
  1 26  1  0  0  0  0
  2  3  1  0  0  0  0
  3 23  1  0  0  0  0
  3  4  2  0  0  0  0
  4  5  1  0  0  0  0
  4 27  1  0  0  0  0
  5  6  2  0  0  0  0
  5 28  1  0  0  0  0
  6  7  1  0  0  0  0
  6 22  1  0  0  0  0
  7  8  1  0  0  0  0
  7 29  1  0  0  0  0
  7 30  1  0  0  0  0
  8 16  1  0  0  0  0
  8  9  2  0  0  0  0
  9 10  1  0  0  0  0
 10 15  2  0  0  0  0
 10 11  1  0  0  0  0
 11 12  2  0  0  0  0
 11 31  1  0  0  0  0
 12 13  1  0  0  0  0
 12 32  1  0  0  0  0
 13 14  2  0  0  0  0
 13 33  1  0  0  0  0
 14 15  1  0  0  0  0
 14 34  1  0  0  0  0
 15 16  1  0  0  0  0
 16 17  1  0  0  0  0
 17 18  1  0  0  0  0
 17 35  1  0  0  0  0
 17 36  1  0  0  0  0
 18 19  1  0  0  0  0
 18 20  1  0  0  0  0
 18 37  1  0  0  0  0
 19 38  1  0  0  0  0
 20 21  1  0  0  0  0
 20 39  1  0  0  0  0
 20 40  1  0  0  0  0
 21 41  1  0  0  0  0
 22 23  2  0  0  0  0
 22 42  1  0  0  0  0
 23 43  1  0  0  0  0
M  END
> <s_m_source_file>
AV-unprocessed.smi

> <i_m_source_file_index>
877

> <i_lp_mmshare_version>
43012

> <i_f3d_flags>
0

> <s_epik_input>
W0NIM11PYzFbY0hdW2NIXWMoW2NIXVtjSF0xKVtDSDJdYyhuMiluKFtDSDJdW0NASF0oW09IXSlbQ0gyXVtPSF0pYyhjMjMpW2NIXVtjSF1bY0hdW2NIXTM=

> <s_epik_cmdline>
J2VwaWtfcHl0aG9uJywgJy1waCcsICc3LjAnLCAnLXRuJywgJzgnLCAnLW1hJywgJzIwMCcsICctbWV0YWxfYmluZGluZycsICctaW1hZScsICc8aW5maWxlLm1hZT4nLCAnLW9tYWUnLCAnPG91dGZpbGUubWFlPic=

> <r_lp_tautomer_probability>
1

> <r_epik_Ionization_Penalty>
0.0616669

> <r_epik_Ionization_Penalty_Charging>
0

> <r_epik_Ionization_Penalty_Neutral>
0.0616669

> <r_epik_State_Penalty>
0.0535415

> <r_epik_Charging_Adjusted_Penalty>
0.0535415

> <i_epik_Tot_Q>
0

> <i_epik_Tot_abs_Q>
0

> <r_epik_Metal_State_Penalty>
5.60326e-05

> <b_epik_Metal_Only>
0

> <s_lp_Force_Field>
OPLS_2005

> <r_lp_Energy>
20.6154

> <b_lp_Chiralities_Consistent>
1

> <s_lp_Variant>
AV-unprocessed.smi:877-1

> <Gold.Version>
5.8.1

> <Gold.Id.Protein>
6NUR|6NUR_protein|mol2

> <Gold.PLP.Fitness>
47.3917

> <Gold.PLP.PLP>
-40.8565

> <Gold.PLP.part.hbond>
-3.4080

> <Gold.PLP.part.metal>
0.0000

> <Gold.PLP.part.buried>
-6.8188

> <Gold.PLP.part.nonpolar>
-31.5708

> <Gold.PLP.part.repulsive>
0.0000

> <Gold.PLP.ligand.clash>
0.0000

> <Gold.PLP.ligand.torsion>
0.7237

> <Gold.PLP.Chemscore.Hbond>
2.6464

> <Gold.PLP.Chemscore.CHOScore>
0.0000

> <Gold.PLP.Chemscore.Metal>
0.0000

> <Gold.Chemscore.Hbonds>
donor molecule, donor type, donor heavy atom, donor atom, acceptor molecule, acceptor atom, score
      L1  H    19    38       P1  8028  0.62
      L1  H    21    41       P1  7957  0.91
      P1  H  7989  7998       L1    21  0.18
      P1  H  8011  8017       L1    21  0.80

> <Gold.PLP.Chemscore.Internal.Correction>
0.0434

> <Gold.Rescore>
     Score         DG    S(hbond)    S(metal)    S(lipo)     H(rot)  DE(clash)    DE(int)     intcor
     16.38     -17.28       1.95        0.00     114.07       3.15       0.00       0.89       ----

> <Gold.Chemscore.Fitness>
16.3810

> <Gold.Chemscore.DG>
-17.2790

> <Gold.Chemscore.ZeroCoef>
-5.4800

> <Gold.Chemscore.Hbond>
1.9502

> <Gold.Chemscore.Metal>
0.0000

> <Gold.Chemscore.Lipo>
114.0707

> <Gold.Chemscore.Internal_Hbond>
0.0000

> <Gold.Chemscore.DEClash>
0.0042

> <Gold.Chemscore.DEInternal>
0.8939

> <Gold.Chemscore.Rot>
3.1488

> <Gold.Chemscore.Internal.Correction>
   9.000000E+99

> <Gold.Chemscore.Hbonds>
donor molecule, donor type, donor heavy atom, donor atom, acceptor molecule, acceptor atom, score
      L1  H    19    38       P1  8028  0.62
      L1  H    21    41       P1  7957  0.85
      P1  H  7989  7998       L1    21  0.01
      P1  H  8011  8017       L1    21  0.12

> <Gold.Chemscore.Hbond.Weighted>
-6.5136

> <Gold.Chemscore.Metal.Weighted>
-0.0000

> <Gold.Chemscore.Lipo.Weighted>
-13.3463

> <Gold.Chemscore.Internal_Hbond.Weighted>
0.0000

> <Gold.Chemscore.DEClash.Weighted>
0.0042

> <Gold.Chemscore.DEInternal.Weighted>
0.8939

> <Gold.Chemscore.Rot.Weighted>
8.0608

> <Gold.Chemscore.Internal.Correction.Weighted>
   9.000000E+99

> <Gold.Protein.RotatedTorsions>
[ 6907 6896 6895 6894 ] final   50.08 input  -60.11 | X-H torsion
[ 7974 7965 7964 7962 ] final  114.20 input  175.53 | X-H torsion
[ 8008 7997 7996 7995 ] final  179.00 input   59.86 | X-H torsion
[ 10167 10162 10161 10158 ] final  119.17 input  -65.29 | X-H torsion
[ 10718 10713 10712 10709 ] final -177.85 input   66.30 | X-H torsion
[ 10763 10752 10751 10750 ] final  -25.27 input  -60.55 | X-H torsion
[ 11005 11000 10999 10996 ] final   77.11 input  -57.11 | X-H torsion

> <Gold.Protein.ActiveResidues>
 VAL166  LYS551  ARG553  GLY616  TRP617  ASP618  TYR619  PRO620  LYS621  CYS622 
 ASP623  PHE694  ASN695  SER759  ASP760  ASP761  ALA762  ILE779  LEU786  VAL792 
 PHE793  MET794  SER795  GLU796  ALA797  LYS798  CYS799  TRP800  GLU811  SER814 

> <Gold.Protein.RotatedAtoms>
  152.2979  134.7645  160.0363 H   0  0  0  0  0  0  0  0  0  0  0  0  # atno 6907 bound_to 6896
  151.8169  133.3384  159.3580 H   0  0  0  0  0  0  0  0  0  0  0  0  # atno 6908 bound_to 6896
  150.7260  134.5540  159.5853 H   0  0  0  0  0  0  0  0  0  0  0  0  # atno 6909 bound_to 6896
  145.2074  139.2923  143.4286 H   0  0  0  0  0  0  0  0  0  0  0  0  # atno 7974 bound_to 7965
  156.0483  140.1319  157.0078 H   0  0  0  0  0  0  0  0  0  0  0  0  # atno 8008 bound_to 7997
  154.4423  140.1016  156.6409 H   0  0  0  0  0  0  0  0  0  0  0  0  # atno 8009 bound_to 7997
  155.5562  140.3464  155.4482 H   0  0  0  0  0  0  0  0  0  0  0  0  # atno 8010 bound_to 7997
  139.6063  144.7071  151.2945 H   0  0  0  0  0  0  0  0  0  0  0  0  # atno 10167 bound_to 10162
  156.8355  130.9668  151.3103 H   0  0  0  0  0  0  0  0  0  0  0  0  # atno 10718 bound_to 10713
  153.6972  135.6958  153.5073 H   0  0  0  0  0  0  0  0  0  0  0  0  # atno 10763 bound_to 10752
  153.2369  135.4319  155.0655 H   0  0  0  0  0  0  0  0  0  0  0  0  # atno 10764 bound_to 10752
  154.8355  135.3498  154.6512 H   0  0  0  0  0  0  0  0  0  0  0  0  # atno 10765 bound_to 10752
  139.9269  134.7656  156.1480 H   0  0  0  0  0  0  0  0  0  0  0  0  # atno 11005 bound_to 11000
  146.3405  140.2338  142.8594 LP  0  0  0  0  0  0  0  0  0  0  0  0  # atno 17320 bound_to 7965
  144.9889  140.8528  143.5351 LP  0  0  0  0  0  0  0  0  0  0  0  0  # atno 17321 bound_to 7965
  140.7287  143.6927  150.7909 LP  0  0  0  0  0  0  0  0  0  0  0  0  # atno 17342 bound_to 10162
  140.0513  143.5246  152.2672 LP  0  0  0  0  0  0  0  0  0  0  0  0  # atno 17343 bound_to 10162
  157.6384  130.8785  149.9401 LP  0  0  0  0  0  0  0  0  0  0  0  0  # atno 17370 bound_to 10713
  156.0910  130.3663  150.0395 LP  0  0  0  0  0  0  0  0  0  0  0  0  # atno 17371 bound_to 10713
  141.0832  133.6745  156.2380 LP  0  0  0  0  0  0  0  0  0  0  0  0  # atno 17394 bound_to 11000
  140.6312  134.5262  157.5559 LP  0  0  0  0  0  0  0  0  0  0  0  0  # atno 17395 bound_to 11000

$$$$
