AV-unprocessed.smi:538|AV-procd|sdf|2866|dock5
  -GOLD-   2262023353D 1   1.00000     0.00000
 Structure written by MMmdl.
 43 44  0  0  0  0  0  0  0  0  1 V2000
  145.9900  142.7515  154.6097 C   0  0  0  0  0  0  0  0  0  0  0  0
  147.1809  142.3606  153.9497 O   0  0  0  0  0  0  0  0  0  0  0  0
  147.9439  141.4380  154.7100 C   0  0  0  0  0  0  0  0  0  0  0  0
  149.2086  141.0635  153.9269 C   0  0  0  0  0  0  0  0  0  0  0  0
  150.2248  140.4790  154.7826 N   0  0  0  0  0  0  0  0  0  0  0  0
  150.8365  140.9307  155.9453 C   0  0  0  0  0  0  0  0  0  0  0  0
  150.5705  142.0978  156.5361 N   0  0  0  0  0  0  0  0  0  0  0  0
  151.4258  142.0886  157.6293 C   0  0  0  0  0  0  0  0  0  0  0  0
  152.1607  140.9519  157.6626 C   0  0  0  0  0  0  0  0  0  0  0  0
  153.1565  140.6796  158.7041 C   0  0  0  0  0  0  0  0  0  0  0  0
  153.8190  139.6408  158.7064 O   0  0  0  0  0  0  0  0  0  0  0  0
  153.2700  141.6712  159.6417 N   0  0  0  0  0  0  0  0  0  0  0  0
  154.2601  141.4320  160.7084 C   0  0  0  0  0  0  0  0  0  0  0  0
  152.5317  142.8430  159.6563 C   0  0  0  0  0  0  0  0  0  0  0  0
  152.6763  143.6865  160.5450 O   0  0  0  0  0  0  0  0  0  0  0  0
  151.6206  143.0535  158.6512 N   0  0  0  0  0  0  0  0  0  0  0  0
  150.8239  144.2836  158.6308 C   0  0  0  0  0  0  0  0  0  0  0  0
  151.7776  140.1775  156.5667 N   0  0  0  0  0  0  0  0  0  0  0  0
  152.2763  138.8628  156.1733 C   0  0  0  0  0  0  0  0  0  0  0  0
  153.0450  138.9104  154.8455 C   0  0  0  0  0  0  0  0  0  0  0  0
  154.4252  138.6883  155.0853 O   0  0  0  0  0  0  0  0  0  0  0  0
  155.1791  138.6097  153.8890 C   0  0  0  0  0  0  0  0  0  0  0  0
  145.4434  143.4614  153.9891 H   0  0  0  0  0  0  0  0  0  0  0  0
  146.2070  143.2347  155.5633 H   0  0  0  0  0  0  0  0  0  0  0  0
  145.3408  141.8939  154.7909 H   0  0  0  0  0  0  0  0  0  0  0  0
  148.2269  141.9001  155.6568 H   0  0  0  0  0  0  0  0  0  0  0  0
  147.3574  140.5485  154.9460 H   0  0  0  0  0  0  0  0  0  0  0  0
  148.9680  140.3670  153.1234 H   0  0  0  0  0  0  0  0  0  0  0  0
  149.6297  141.9538  153.4594 H   0  0  0  0  0  0  0  0  0  0  0  0
  150.5267  139.5640  154.4803 H   0  0  0  0  0  0  0  0  0  0  0  0
  154.4045  142.2631  161.3990 H   0  0  0  0  0  0  0  0  0  0  0  0
  155.2420  141.2197  160.2820 H   0  0  0  0  0  0  0  0  0  0  0  0
  153.9642  140.5711  161.3101 H   0  0  0  0  0  0  0  0  0  0  0  0
  151.4717  145.1612  158.6112 H   0  0  0  0  0  0  0  0  0  0  0  0
  150.1938  144.3444  159.5193 H   0  0  0  0  0  0  0  0  0  0  0  0
  150.1682  144.3485  157.7622 H   0  0  0  0  0  0  0  0  0  0  0  0
  152.9096  138.4699  156.9680 H   0  0  0  0  0  0  0  0  0  0  0  0
  151.4416  138.1660  156.0957 H   0  0  0  0  0  0  0  0  0  0  0  0
  152.6582  138.1543  154.1606 H   0  0  0  0  0  0  0  0  0  0  0  0
  152.9015  139.8825  154.3716 H   0  0  0  0  0  0  0  0  0  0  0  0
  156.2302  138.4498  154.1290 H   0  0  0  0  0  0  0  0  0  0  0  0
  155.1018  139.5320  153.3118 H   0  0  0  0  0  0  0  0  0  0  0  0
  154.8455  137.7778  153.2675 H   0  0  0  0  0  0  0  0  0  0  0  0
  1  2  1  0  0  0  0
  1 23  1  0  0  0  0
  1 24  1  0  0  0  0
  1 25  1  0  0  0  0
  2  3  1  0  0  0  0
  3  4  1  0  0  0  0
  3 26  1  0  0  0  0
  3 27  1  0  0  0  0
  4  5  1  0  0  0  0
  4 28  1  0  0  0  0
  4 29  1  0  0  0  0
  5  6  1  0  0  0  0
  5 30  1  0  0  0  0
  6 18  1  0  0  0  0
  6  7  2  0  0  0  0
  7  8  1  0  0  0  0
  8 16  1  0  0  0  0
  8  9  2  0  0  0  0
  9 10  1  0  0  0  0
  9 18  1  0  0  0  0
 10 11  2  0  0  0  0
 10 12  1  0  0  0  0
 12 13  1  0  0  0  0
 12 14  1  0  0  0  0
 13 31  1  0  0  0  0
 13 32  1  0  0  0  0
 13 33  1  0  0  0  0
 14 15  2  0  0  0  0
 14 16  1  0  0  0  0
 16 17  1  0  0  0  0
 17 34  1  0  0  0  0
 17 35  1  0  0  0  0
 17 36  1  0  0  0  0
 18 19  1  0  0  0  0
 19 20  1  0  0  0  0
 19 37  1  0  0  0  0
 19 38  1  0  0  0  0
 20 21  1  0  0  0  0
 20 39  1  0  0  0  0
 20 40  1  0  0  0  0
 21 22  1  0  0  0  0
 22 41  1  0  0  0  0
 22 42  1  0  0  0  0
 22 43  1  0  0  0  0
M  END
> <s_m_source_file>
AV-unprocessed.smi

> <i_m_source_file_index>
538

> <i_lp_mmshare_version>
43012

> <i_f3d_flags>
0

> <s_epik_input>
W0NIM11PW0NIMl1bQ0gyXVtOSF1jKG4xKW4oW0NIMl1bQ0gyXU9bQ0gzXSljKGMxMiljKD1PKW4oW0NIM10pYyg9TyluMltDSDNd

> <s_epik_cmdline>
J2VwaWtfcHl0aG9uJywgJy1waCcsICc3LjAnLCAnLXRuJywgJzgnLCAnLW1hJywgJzIwMCcsICctbWV0YWxfYmluZGluZycsICctaW1hZScsICc8aW5maWxlLm1hZT4nLCAnLW9tYWUnLCAnPG91dGZpbGUubWFlPic=

> <r_lp_tautomer_probability>
1

> <r_epik_Ionization_Penalty>
5.57243e-05

> <r_epik_Ionization_Penalty_Charging>
2.44156e-09

> <r_epik_Ionization_Penalty_Neutral>
5.57218e-05

> <r_epik_State_Penalty>
-0

> <r_epik_Charging_Adjusted_Penalty>
2.44156e-09

> <i_epik_Tot_Q>
0

> <i_epik_Tot_abs_Q>
0

> <r_epik_Metal_State_Penalty>
-0

> <b_epik_Metal_Only>
0

> <s_lp_Force_Field>
OPLS_2005

> <r_lp_Energy>
28.2468

> <b_lp_Chiralities_Consistent>
1

> <s_lp_Variant>
AV-unprocessed.smi:538-1

> <Gold.Version>
5.8.1

> <Gold.Id.Protein>
6NUR|6NUR_protein|mol2

> <Gold.PLP.Fitness>
46.5225

> <Gold.PLP.PLP>
-42.5289

> <Gold.PLP.part.hbond>
-2.0000

> <Gold.PLP.part.metal>
0.0000

> <Gold.PLP.part.buried>
-5.6098

> <Gold.PLP.part.nonpolar>
-36.0032

> <Gold.PLP.part.repulsive>
0.7982

> <Gold.PLP.ligand.clash>
0.0000

> <Gold.PLP.ligand.torsion>
0.4864

> <Gold.PLP.Chemscore.Hbond>
1.6400

> <Gold.PLP.Chemscore.CHOScore>
0.0000

> <Gold.PLP.Chemscore.Metal>
0.0000

> <Gold.Chemscore.Hbonds>
donor molecule, donor type, donor heavy atom, donor atom, acceptor molecule, acceptor atom, score
      P1  H  7997  8008       L1    21  0.38
      P1  H  7997  8010       L1    11  0.95

> <Gold.PLP.Chemscore.Internal.Correction>
0.0463

> <Gold.Rescore>
     Score         DG    S(hbond)    S(metal)    S(lipo)     H(rot)  DE(clash)    DE(int)     intcor
      9.41     -10.56       0.84        0.00      69.18       2.28       0.52       0.62       ----

> <Gold.Chemscore.Fitness>
9.4118

> <Gold.Chemscore.DG>
-10.5562

> <Gold.Chemscore.ZeroCoef>
-5.4800

> <Gold.Chemscore.Hbond>
0.8437

> <Gold.Chemscore.Metal>
0.0000

> <Gold.Chemscore.Lipo>
69.1842

> <Gold.Chemscore.Internal_Hbond>
0.0000

> <Gold.Chemscore.DEClash>
0.5210

> <Gold.Chemscore.DEInternal>
0.6234

> <Gold.Chemscore.Rot>
2.2797

> <Gold.Chemscore.Internal.Correction>
   9.000000E+99

> <Gold.Chemscore.Hbonds>
donor molecule, donor type, donor heavy atom, donor atom, acceptor molecule, acceptor atom, score
      P1  H  7997  8008       L1    21  0.02
      P1  H  7997  8010       L1    11  0.21

> <Gold.Chemscore.Hbond.Weighted>
-2.8178

> <Gold.Chemscore.Metal.Weighted>
-0.0000

> <Gold.Chemscore.Lipo.Weighted>
-8.0945

> <Gold.Chemscore.Internal_Hbond.Weighted>
0.0000

> <Gold.Chemscore.DEClash.Weighted>
0.5210

> <Gold.Chemscore.DEInternal.Weighted>
0.6234

> <Gold.Chemscore.Rot.Weighted>
5.8361

> <Gold.Chemscore.Internal.Correction.Weighted>
   9.000000E+99

> <Gold.Protein.RotatedTorsions>
[ 6907 6896 6895 6894 ] final  169.77 input  -60.11 | X-H torsion
[ 7974 7965 7964 7962 ] final  -40.69 input  175.53 | X-H torsion
[ 8008 7997 7996 7995 ] final    7.46 input   59.86 | X-H torsion
[ 10167 10162 10161 10158 ] final   14.44 input  -65.29 | X-H torsion
[ 10718 10713 10712 10709 ] final  -35.07 input   66.30 | X-H torsion
[ 10763 10752 10751 10750 ] final -155.75 input  -60.55 | X-H torsion
[ 11005 11000 10999 10996 ] final -104.73 input  -57.11 | X-H torsion

> <Gold.Protein.ActiveResidues>
 VAL166  LYS551  ARG553  GLY616  TRP617  ASP618  TYR619  PRO620  LYS621  CYS622 
 ASP623  PHE694  ASN695  SER759  ASP760  ASP761  ALA762  ILE779  LEU786  VAL792 
 PHE793  MET794  SER795  GLU796  ALA797  LYS798  CYS799  TRP800  GLU811  SER814 

> <Gold.Protein.RotatedAtoms>
  151.8266  133.3402  159.3600 H   0  0  0  0  0  0  0  0  0  0  0  0  # atno 6907 bound_to 6896
  150.7277  134.5522  159.5810 H   0  0  0  0  0  0  0  0  0  0  0  0  # atno 6908 bound_to 6896
  152.2966  134.7660  160.0418 H   0  0  0  0  0  0  0  0  0  0  0  0  # atno 6909 bound_to 6896
  146.0281  140.6766  142.9146 H   0  0  0  0  0  0  0  0  0  0  0  0  # atno 7974 bound_to 7965
  154.7542  140.2772  155.6267 H   0  0  0  0  0  0  0  0  0  0  0  0  # atno 8008 bound_to 7997
  156.2902  140.2672  156.2230 H   0  0  0  0  0  0  0  0  0  0  0  0  # atno 8009 bound_to 7997
  155.0099  140.0372  157.2384 H   0  0  0  0  0  0  0  0  0  0  0  0  # atno 8010 bound_to 7997
  140.5935  143.8747  150.6896 H   0  0  0  0  0  0  0  0  0  0  0  0  # atno 10167 bound_to 10162
  156.3430  130.4296  149.7770 H   0  0  0  0  0  0  0  0  0  0  0  0  # atno 10718 bound_to 10713
  154.7764  135.3161  154.8083 H   0  0  0  0  0  0  0  0  0  0  0  0  # atno 10763 bound_to 10752
  153.8806  135.6835  153.4771 H   0  0  0  0  0  0  0  0  0  0  0  0  # atno 10764 bound_to 10752
  153.1389  135.4748  154.9401 H   0  0  0  0  0  0  0  0  0  0  0  0  # atno 10765 bound_to 10752
  141.1087  133.8747  157.1646 H   0  0  0  0  0  0  0  0  0  0  0  0  # atno 11005 bound_to 11000
  144.7018  140.3687  143.7149 LP  0  0  0  0  0  0  0  0  0  0  0  0  # atno 17320 bound_to 7965
  145.7085  139.1678  143.2552 LP  0  0  0  0  0  0  0  0  0  0  0  0  # atno 17321 bound_to 7965
  140.2276  143.3760  152.1592 LP  0  0  0  0  0  0  0  0  0  0  0  0  # atno 17342 bound_to 10162
  139.5243  144.7082  151.5288 LP  0  0  0  0  0  0  0  0  0  0  0  0  # atno 17343 bound_to 10162
  156.4999  130.8124  151.3128 LP  0  0  0  0  0  0  0  0  0  0  0  0  # atno 17370 bound_to 10713
  157.7450  130.9948  150.2720 LP  0  0  0  0  0  0  0  0  0  0  0  0  # atno 17371 bound_to 10713
  139.9969  135.0043  157.0104 LP  0  0  0  0  0  0  0  0  0  0  0  0  # atno 17394 bound_to 11000
  140.4834  134.1267  155.7220 LP  0  0  0  0  0  0  0  0  0  0  0  0  # atno 17395 bound_to 11000

$$$$
