#       Name:                AV-unprocessed.smi:3348
#       Creating user name   scv26
#       Creation time:       Fri Mar 27 19:35:45 2020


#       File generated by GOLD software.
#

@<TRIPOS>MOLECULE
AV-unprocessed.smi:3348
    50    51     1
SMALL
NO_CHARGES


@<TRIPOS>ATOM
      1 ****        -3.0712   2.9964   2.3289 C.3            1 S1                 0.0000
      2 ****        -1.8192   2.8548   1.4522 C.3            1 S1                 0.0000
      3 ****        -2.2042   2.9949  -0.0409 C.3            1 S1                 0.0000
      4 ****        -1.0719   3.0716  -0.9460 N.pl3          1 S1                 0.0000
      5 ****        -0.6157   2.1139  -1.8285 C.2            1 S1                 0.0000
      6 ****         0.4730   2.6359  -2.4663 C.2            1 S1                 0.0000
      7 ****         0.6023   3.9369  -1.9042 C.2            1 S1                 0.0000
      8 ****        -0.3256   4.1964  -0.9968 N.2            1 S1                 0.0000
      9 ****        -1.1835   1.5642   1.7347 N.3            1 S1                 0.0000
     10 ****         0.2710   1.5373   1.5789 C.3            1 S1                 0.0000
     11 ****         0.8012   0.1027   1.6343 C.3            1 S1                 0.0000
     12 ****         0.5203  -0.5091   0.3841 O.3            1 S1                 0.0000
     13 ****         1.0181  -1.8324   0.2388 C.3            1 S1                 0.0000
     14 ****         0.0553  -2.8284   0.9196 C.3            1 S1                 0.0000
     15 ****         0.4724  -4.2840   0.6620 C.3            1 S1                 0.0000
     16 ****         0.5790  -4.5686  -0.8425 C.3            1 S1                 0.0000
     17 ****         1.5456  -3.5867  -1.5216 C.3            1 S1                 0.0000
     18 ****         1.1379  -2.1201  -1.2754 C.3            1 S1                 0.0000
     19 ****         2.1240  -1.1600  -1.9617 C.3            1 S1                 0.0000
     20 ****        -3.5503   3.9637   2.1751 H              1 S1                 0.0000
     21 ****        -2.8208   2.9214   3.3875 H              1 S1                 0.0000
     22 ****        -3.8057   2.2220   2.1039 H              1 S1                 0.0000
     23 ****        -1.1422   3.6649   1.7272 H              1 S1                 0.0000
     24 ****        -2.8359   2.1596  -0.3472 H              1 S1                 0.0000
     25 ****        -2.8014   3.8962  -0.1863 H              1 S1                 0.0000
     26 ****        -1.0929   1.1493  -1.9211 H              1 S1                 0.0000
     27 ****         1.0840   2.1599  -3.2188 H              1 S1                 0.0000
     28 ****         1.3380   4.6955  -2.1276 H              1 S1                 0.0000
     29 ****        -1.4227   1.2634   2.6741 H              1 S1                 0.0000
     30 ****         0.5938   2.0019   0.6503 H              1 S1                 0.0000
     31 ****         0.7242   2.1196   2.3816 H              1 S1                 0.0000
     32 ****         1.8807   0.1250   1.7899 H              1 S1                 0.0000
     33 ****         0.3598  -0.4457   2.4668 H              1 S1                 0.0000
     34 ****         2.0102  -1.9139   0.6876 H              1 S1                 0.0000
     35 ****         0.0176  -2.6529   1.9942 H              1 S1                 0.0000
     36 ****        -0.9573  -2.6701   0.5459 H              1 S1                 0.0000
     37 ****         1.4324  -4.4799   1.1413 H              1 S1                 0.0000
     38 ****        -0.2470  -4.9638   1.1196 H              1 S1                 0.0000
     39 ****         0.9146  -5.5934  -1.0041 H              1 S1                 0.0000
     40 ****        -0.4071  -4.4893  -1.3023 H              1 S1                 0.0000
     41 ****         2.5561  -3.7559  -1.1464 H              1 S1                 0.0000
     42 ****         1.5767  -3.7901  -2.5926 H              1 S1                 0.0000
     43 ****         0.1571  -1.9655  -1.7282 H              1 S1                 0.0000
     44 ****         3.1247  -1.2504  -1.5381 H              1 S1                 0.0000
     45 ****         1.8101  -0.1218  -1.8521 H              1 S1                 0.0000
     46 ****         2.1947  -1.3670  -3.0298 H              1 S1                 0.0000
     47 ****        -0.4469   5.0363  -0.4678 LP             1 S1                 0.0000
     48 ****        -1.5428   0.9388   1.0420 LP             1 S1                 0.0000
     49 ****         0.9246   0.0554  -0.3355 LP             1 S1                 0.0000
     50 ****        -0.4726  -0.5364   0.2680 LP             1 S1                 0.0000
@<TRIPOS>BOND
    1    1    2 1     
    2    1   20 1     
    3    1   21 1     
    4    1   22 1     
    5    2    3 1     
    6    2    9 1     
    7    2   23 1     
    8    3    4 1     
    9    3   24 1     
   10    3   25 1     
   11    4    8 1     
   12    4    5 1     
   13    5    6 2     
   14    5   26 1     
   15    6    7 1     
   16    6   27 1     
   17    7    8 2     
   18    7   28 1     
   19    9   10 1     
   20    9   29 1     
   21   10   11 1     
   22   10   30 1     
   23   10   31 1     
   24   11   12 1     
   25   11   32 1     
   26   11   33 1     
   27   12   13 1     
   28   13   18 1     
   29   13   14 1     
   30   13   34 1     
   31   14   15 1     
   32   14   35 1     
   33   14   36 1     
   34   15   16 1     
   35   15   37 1     
   36   15   38 1     
   37   16   17 1     
   38   16   39 1     
   39   16   40 1     
   40   17   18 1     
   41   17   41 1     
   42   17   42 1     
   43   18   19 1     
   44   18   43 1     
   45   19   44 1     
   46   19   45 1     
   47   19   46 1     
   48    8   47 1     
   49    9   48 1     
   50   12   49 1     
   51   12   50 1     
@<TRIPOS>SUBSTRUCTURE
      1 S1             1
@<TRIPOS>SET
LONE_PAIRS      STATIC     ATOMS    <user>   **** ""
4 47 48 49 50
DONOR_HYDROGENS      STATIC     ATOMS    <user>   **** ""
1 29
ATOM$BLUE        STATIC     ATOMS    COLORGROUP SYSTEM
4 47 48 49 50
ATOM$RED        STATIC     ATOMS    COLORGROUP SYSTEM
1 29
