#       Name:                AV-unprocessed.smi:2177
#       Creating user name   scv26
#       Creation time:       Fri Mar 27 12:04:16 2020


#       File generated by GOLD software.
#

@<TRIPOS>MOLECULE
AV-unprocessed.smi:2177
    47    48     1
SMALL
NO_CHARGES


@<TRIPOS>ATOM
      1 ****        -2.5504   3.5535  -1.2192 C.3            1 S1                 0.0000
      2 ****        -2.4410   2.0611  -1.3473 C.2            1 S1                 0.0000
      3 ****        -3.4964   1.3066  -1.0896 N.2            1 S1                 0.0000
      4 ****        -3.0703   0.0420  -1.2802 N.pl3          1 S1                 0.0000
      5 ****        -3.9940  -1.0562  -1.0716 C.3            1 S1                 0.0000
      6 ****        -1.7455  -0.0020  -1.6691 C.2            1 S1                 0.0000
      7 ****        -1.0371  -1.2907  -1.9392 C.3            1 S1                 0.0000
      8 ****        -1.3002   1.2926  -1.7215 C.2            1 S1                 0.0000
      9 ****         0.0726   1.8097  -2.0739 C.3            1 S1                 0.0000
     10 ****         0.9464   1.8269  -0.8201 C.2            1 S1                 0.0000
     11 ****         1.1790   2.8885  -0.2427 O.2            1 S1                 0.0000
     12 ****         1.4079   0.6376  -0.4055 N.am           1 S1                 0.0000
     13 ****         2.1566   0.3919   0.8219 C.3            1 S1                 0.0000
     14 ****         3.6577   0.6105   0.5689 C.3            1 S1                 0.0000
     15 ****         1.8444  -1.0360   1.3073 C.3            1 S1                 0.0000
     16 ****         2.4553  -1.4055   2.6594 C.3            1 S1                 0.0000
     17 ****         1.5301  -2.4922   3.1859 C.3            1 S1                 0.0000
     18 ****         0.2840  -2.3848   2.3026 C.3            1 S1                 0.0000
     19 ****         0.4560  -1.1840   1.5644 O.3            1 S1                 0.0000
     20 ****        -1.7494   3.9499  -0.5949 H              1 S1                 0.0000
     21 ****        -3.4975   3.8535  -0.7696 H              1 S1                 0.0000
     22 ****        -2.4788   4.0337  -2.1950 H              1 S1                 0.0000
     23 ****        -4.3321  -1.4359  -2.0358 H              1 S1                 0.0000
     24 ****        -4.8599  -0.7250  -0.4966 H              1 S1                 0.0000
     25 ****        -3.4984  -1.8587  -0.5249 H              1 S1                 0.0000
     26 ****        -0.0834  -1.1209  -2.4382 H              1 S1                 0.0000
     27 ****        -1.6353  -1.9390  -2.5796 H              1 S1                 0.0000
     28 ****        -0.8378  -1.8222  -1.0086 H              1 S1                 0.0000
     29 ****         0.5514   1.1954  -2.8372 H              1 S1                 0.0000
     30 ****         0.0232   2.8177  -2.4874 H              1 S1                 0.0000
     31 ****         1.1599  -0.1752  -0.9505 H              1 S1                 0.0000
     32 ****         1.8242   1.0948   1.5882 H              1 S1                 0.0000
     33 ****         4.2385   0.4657   1.4799 H              1 S1                 0.0000
     34 ****         3.8549   1.6240   0.2180 H              1 S1                 0.0000
     35 ****         4.0389  -0.0818  -0.1827 H              1 S1                 0.0000
     36 ****         2.1404  -1.7685   0.5533 H              1 S1                 0.0000
     37 ****         3.4910  -1.7364   2.5770 H              1 S1                 0.0000
     38 ****         2.4290  -0.5478   3.3330 H              1 S1                 0.0000
     39 ****         1.9808  -3.4809   3.0944 H              1 S1                 0.0000
     40 ****         1.2947  -2.3264   4.2376 H              1 S1                 0.0000
     41 ****         0.2306  -3.2259   1.6100 H              1 S1                 0.0000
     42 ****        -0.6397  -2.3604   2.8810 H              1 S1                 0.0000
     43 ****        -4.4093   1.6079  -0.8141 LP             1 S1                 0.0000
     44 ****         0.7959   3.7430  -0.5937 LP             1 S1                 0.0000
     45 ****         1.7511   2.8967   0.5774 LP             1 S1                 0.0000
     46 ****        -0.0470  -1.2385   0.7018 LP             1 S1                 0.0000
     47 ****         0.1224  -0.4056   2.0961 LP             1 S1                 0.0000
@<TRIPOS>BOND
    1    1    2 1     
    2    1   20 1     
    3    1   21 1     
    4    1   22 1     
    5    2    8 1     
    6    2    3 2     
    7    3    4 1     
    8    4    5 1     
    9    4    6 1     
   10    5   23 1     
   11    5   24 1     
   12    5   25 1     
   13    6    7 1     
   14    6    8 2     
   15    7   26 1     
   16    7   27 1     
   17    7   28 1     
   18    8    9 1     
   19    9   10 1     
   20    9   29 1     
   21    9   30 1     
   22   10   11 2     
   23   10   12 am    
   24   12   13 1     
   25   12   31 1     
   26   13   14 1     
   27   13   15 1     
   28   13   32 1     
   29   14   33 1     
   30   14   34 1     
   31   14   35 1     
   32   15   19 1     
   33   15   16 1     
   34   15   36 1     
   35   16   17 1     
   36   16   37 1     
   37   16   38 1     
   38   17   18 1     
   39   17   39 1     
   40   17   40 1     
   41   18   19 1     
   42   18   41 1     
   43   18   42 1     
   44    3   43 1     
   45   11   44 1     
   46   11   45 1     
   47   19   46 1     
   48   19   47 1     
@<TRIPOS>SUBSTRUCTURE
      1 S1             1
@<TRIPOS>SET
LONE_PAIRS      STATIC     ATOMS    <user>   **** ""
5 43 44 45 46 47
DONOR_HYDROGENS      STATIC     ATOMS    <user>   **** ""
1 31
ATOM$BLUE        STATIC     ATOMS    COLORGROUP SYSTEM
5 43 44 45 46 47
ATOM$RED        STATIC     ATOMS    COLORGROUP SYSTEM
1 31
