AV-unprocessed.smi:415|AV-procd|sdf|2521|dock3
  -GOLD-   2262022473D 1   1.00000     0.00000
 Structure written by MMmdl.
 53 54  0  0  0  0  0  0  0  0  1 V2000
  154.4598  129.3881  155.4910 C   0  0  0  0  0  0  0  0  0  0  0  0
  153.3096  129.6300  156.2823 O   0  0  0  0  0  0  0  0  0  0  0  0
  152.1593  129.9007  155.5004 C   0  0  0  0  0  0  0  0  0  0  0  0
  151.0685  130.4812  156.4125 C   0  0  0  0  0  0  0  0  0  0  0  0
  150.5133  131.7195  155.9023 N   0  0  0  0  0  0  0  0  0  0  0  0
  149.8844  131.8240  154.6650 C   0  0  0  0  0  0  0  0  0  0  0  0
  149.7538  130.7018  153.8667 N   0  0  0  0  0  0  0  0  0  0  0  0
  149.3826  133.0003  154.2272 C   0  0  0  0  0  0  0  0  0  0  0  0
  149.4640  134.2162  155.0245 C   0  0  0  0  0  0  0  0  0  0  0  0
  149.0340  135.3018  154.6334 O   0  0  0  0  0  0  0  0  0  0  0  0
  150.0778  134.0797  156.2908 N   0  0  0  0  0  0  0  0  0  0  0  0
  150.2027  135.2744  157.1549 C   0  0  0  0  0  0  0  0  0  0  0  0
  151.3936  136.1717  156.7861 C   0  0  0  0  0  0  0  0  0  0  0  0
  152.5488  135.7463  156.8358 O   0  0  0  0  0  0  0  0  0  0  0  0
  151.0855  137.4196  156.4031 N   0  0  0  0  0  0  0  0  0  0  0  0
  152.0445  138.4516  156.0061 C   0  0  1  0  0  0  0  0  0  0  0  0
  151.7722  138.9248  154.5645 C   0  0  0  0  0  0  0  0  0  0  0  0
  150.4716  139.7345  154.4667 C   0  0  0  0  0  0  0  0  0  0  0  0
  150.4895  140.9199  155.4408 C   0  0  0  0  0  0  0  0  0  0  0  0
  150.7328  140.4734  156.8975 C   0  0  2  0  0  0  0  0  0  0  0  0
  150.7283  141.7020  157.8248 C   0  0  0  0  0  0  0  0  0  0  0  0
  152.0391  139.6375  157.0061 C   0  0  1  0  0  0  0  0  0  0  0  0
  152.3334  139.1575  158.4421 C   0  0  0  0  0  0  0  0  0  0  0  0
  150.6039  132.8515  156.7524 C   0  0  0  0  0  0  0  0  0  0  0  0
  151.1283  132.7787  157.8676 O   0  0  0  0  0  0  0  0  0  0  0  0
  155.3128  129.1836  156.1379 H   0  0  0  0  0  0  0  0  0  0  0  0
  154.7042  130.2544  154.8749 H   0  0  0  0  0  0  0  0  0  0  0  0
  154.3170  128.5243  154.8402 H   0  0  0  0  0  0  0  0  0  0  0  0
  152.4046  130.6115  154.7096 H   0  0  0  0  0  0  0  0  0  0  0  0
  151.8099  128.9837  155.0229 H   0  0  0  0  0  0  0  0  0  0  0  0
  150.2469  129.7804  156.5713 H   0  0  0  0  0  0  0  0  0  0  0  0
  151.4561  130.6892  157.4092 H   0  0  0  0  0  0  0  0  0  0  0  0
  150.1031  129.7987  154.1543 H   0  0  0  0  0  0  0  0  0  0  0  0
  149.2790  130.7343  152.9759 H   0  0  0  0  0  0  0  0  0  0  0  0
  148.9038  133.0502  153.2596 H   0  0  0  0  0  0  0  0  0  0  0  0
  149.2983  135.8837  157.1274 H   0  0  0  0  0  0  0  0  0  0  0  0
  150.2899  134.9825  158.2030 H   0  0  0  0  0  0  0  0  0  0  0  0
  150.1098  137.6797  156.3864 H   0  0  0  0  0  0  0  0  0  0  0  0
  153.0436  138.0117  156.0286 H   0  0  0  0  0  0  0  0  0  0  0  0
  152.6043  139.5445  154.2279 H   0  0  0  0  0  0  0  0  0  0  0  0
  151.7356  138.0740  153.8831 H   0  0  0  0  0  0  0  0  0  0  0  0
  150.3360  140.0951  153.4468 H   0  0  0  0  0  0  0  0  0  0  0  0
  149.6160  139.0931  154.6818 H   0  0  0  0  0  0  0  0  0  0  0  0
  151.2661  141.6236  155.1379 H   0  0  0  0  0  0  0  0  0  0  0  0
  149.5438  141.4583  155.3687 H   0  0  0  0  0  0  0  0  0  0  0  0
  149.8951  139.8406  157.1944 H   0  0  0  0  0  0  0  0  0  0  0  0
  151.5857  142.3477  157.6328 H   0  0  0  0  0  0  0  0  0  0  0  0
  150.7515  141.4157  158.8759 H   0  0  0  0  0  0  0  0  0  0  0  0
  149.8268  142.2977  157.6799 H   0  0  0  0  0  0  0  0  0  0  0  0
  152.8655  140.2902  156.7200 H   0  0  0  0  0  0  0  0  0  0  0  0
  151.4944  138.6020  158.8622 H   0  0  0  0  0  0  0  0  0  0  0  0
  152.5465  139.9923  159.1093 H   0  0  0  0  0  0  0  0  0  0  0  0
  153.2070  138.5055  158.4641 H   0  0  0  0  0  0  0  0  0  0  0  0
  1  2  1  0  0  0  0
  1 26  1  0  0  0  0
  1 27  1  0  0  0  0
  1 28  1  0  0  0  0
  2  3  1  0  0  0  0
  3  4  1  0  0  0  0
  3 29  1  0  0  0  0
  3 30  1  0  0  0  0
  4  5  1  0  0  0  0
  4 31  1  0  0  0  0
  4 32  1  0  0  0  0
  5 24  1  0  0  0  0
  5  6  1  0  0  0  0
  6  7  1  0  0  0  0
  6  8  2  0  0  0  0
  7 33  1  0  0  0  0
  7 34  1  0  0  0  0
  8  9  1  0  0  0  0
  8 35  1  0  0  0  0
  9 10  2  0  0  0  0
  9 11  1  0  0  0  0
 11 12  1  0  0  0  0
 11 24  1  0  0  0  0
 12 13  1  0  0  0  0
 12 36  1  0  0  0  0
 12 37  1  0  0  0  0
 13 14  2  0  0  0  0
 13 15  1  0  0  0  0
 15 16  1  0  0  0  0
 15 38  1  0  0  0  0
 16 22  1  0  0  0  0
 16 17  1  0  0  0  0
 16 39  1  0  0  0  0
 17 18  1  0  0  0  0
 17 40  1  0  0  0  0
 17 41  1  0  0  0  0
 18 19  1  0  0  0  0
 18 42  1  0  0  0  0
 18 43  1  0  0  0  0
 19 20  1  0  0  0  0
 19 44  1  0  0  0  0
 19 45  1  0  0  0  0
 20 21  1  0  0  0  0
 20 22  1  0  0  0  0
 20 46  1  0  0  0  0
 21 47  1  0  0  0  0
 21 48  1  0  0  0  0
 21 49  1  0  0  0  0
 22 23  1  0  0  0  0
 22 50  1  0  0  0  0
 23 51  1  0  0  0  0
 23 52  1  0  0  0  0
 23 53  1  0  0  0  0
 24 25  2  0  0  0  0
M  END
> <s_m_source_file>
AV-unprocessed.smi

> <i_m_source_file_index>
415

> <i_lp_mmshare_version>
43012

> <i_f3d_flags>
0

> <s_epik_input>
W0NIM11PW0NIMl1bQ0gyXW4xYyhbTkgyXSlbY0hdYyg9TyluKGMxPU8pW0NIMl1DKD1PKVtOSF1bQ0BASF0yW0NIMl1bQ0gyXVtDSDJdW0NAQEhdKFtDSDNdKVtDQEhdMltDSDNd

> <s_epik_cmdline>
J2VwaWtfcHl0aG9uJywgJy1waCcsICc3LjAnLCAnLXRuJywgJzgnLCAnLW1hJywgJzIwMCcsICctbWV0YWxfYmluZGluZycsICctaW1hZScsICc8aW5maWxlLm1hZT4nLCAnLW9tYWUnLCAnPG91dGZpbGUubWFlPic=

> <r_lp_tautomer_probability>
1

> <r_epik_Ionization_Penalty>
8.6647e-06

> <r_epik_Ionization_Penalty_Charging>
1.81162e-08

> <r_epik_Ionization_Penalty_Neutral>
8.64658e-06

> <r_epik_State_Penalty>
-0

> <r_epik_Charging_Adjusted_Penalty>
1.81162e-08

> <i_epik_Tot_Q>
0

> <i_epik_Tot_abs_Q>
0

> <r_epik_Metal_State_Penalty>
-0

> <b_epik_Metal_Only>
0

> <s_lp_Force_Field>
OPLS_2005

> <r_lp_Energy>
19.0862

> <b_lp_Chiralities_Consistent>
1

> <s_lp_Variant>
AV-unprocessed.smi:415-4

> <Gold.Version>
5.8.1

> <Gold.Id.Protein>
6NUR|6NUR_protein|mol2

> <Gold.PLP.Fitness>
42.7091

> <Gold.PLP.PLP>
-37.6475

> <Gold.PLP.part.hbond>
-2.7115

> <Gold.PLP.part.metal>
0.0000

> <Gold.PLP.part.buried>
-1.5057

> <Gold.PLP.part.nonpolar>
-33.9454

> <Gold.PLP.part.repulsive>
1.6437

> <Gold.PLP.ligand.clash>
0.0000

> <Gold.PLP.ligand.torsion>
0.7286

> <Gold.PLP.Chemscore.Hbond>
2.1529

> <Gold.PLP.Chemscore.CHOScore>
0.0000

> <Gold.PLP.Chemscore.Metal>
0.0000

> <Gold.Chemscore.Hbonds>
donor molecule, donor type, donor heavy atom, donor atom, acceptor molecule, acceptor atom, score
      P1  H  6896  6909       L1    25  0.93
      P1  H 10752 10765       L1    14  1.00

> <Gold.PLP.Chemscore.Internal.Correction>
0.0602

> <Gold.Rescore>
     Score         DG    S(hbond)    S(metal)    S(lipo)     H(rot)  DE(clash)    DE(int)     intcor
     14.16     -14.77       1.99        0.00      72.13       2.26       0.00       0.60       ----

> <Gold.Chemscore.Fitness>
14.1602

> <Gold.Chemscore.DG>
-14.7666

> <Gold.Chemscore.ZeroCoef>
-5.4800

> <Gold.Chemscore.Hbond>
1.9894

> <Gold.Chemscore.Metal>
0.0000

> <Gold.Chemscore.Lipo>
72.1305

> <Gold.Chemscore.Internal_Hbond>
0.0000

> <Gold.Chemscore.DEClash>
0.0015

> <Gold.Chemscore.DEInternal>
0.6050

> <Gold.Chemscore.Rot>
2.2645

> <Gold.Chemscore.Internal.Correction>
   9.000000E+99

> <Gold.Chemscore.Hbonds>
donor molecule, donor type, donor heavy atom, donor atom, acceptor molecule, acceptor atom, score
      P1  H  6896  6909       L1    25  0.86
      P1  H 10752 10765       L1    14  0.74

> <Gold.Chemscore.Hbond.Weighted>
-6.6445

> <Gold.Chemscore.Metal.Weighted>
-0.0000

> <Gold.Chemscore.Lipo.Weighted>
-8.4393

> <Gold.Chemscore.Internal_Hbond.Weighted>
0.0000

> <Gold.Chemscore.DEClash.Weighted>
0.0015

> <Gold.Chemscore.DEInternal.Weighted>
0.6050

> <Gold.Chemscore.Rot.Weighted>
5.7972

> <Gold.Chemscore.Internal.Correction.Weighted>
   9.000000E+99

> <Gold.Protein.RotatedTorsions>
[ 6907 6896 6895 6894 ] final  -25.81 input  -60.11 | X-H torsion
[ 7974 7965 7964 7962 ] final   49.29 input  175.53 | X-H torsion
[ 8008 7997 7996 7995 ] final  -20.21 input   59.86 | X-H torsion
[ 10167 10162 10161 10158 ] final  -42.98 input  -65.29 | X-H torsion
[ 10718 10713 10712 10709 ] final -131.27 input   66.30 | X-H torsion
[ 10763 10752 10751 10750 ] final -146.73 input  -60.55 | X-H torsion
[ 11005 11000 10999 10996 ] final  116.00 input  -57.11 | X-H torsion

> <Gold.Protein.ActiveResidues>
 VAL166  LYS551  ARG553  GLY616  TRP617  ASP618  TYR619  PRO620  LYS621  CYS622 
 ASP623  PHE694  ASN695  SER759  ASP760  ASP761  ALA762  ILE779  LEU786  VAL792 
 PHE793  MET794  SER795  GLU796  ALA797  LYS798  CYS799  TRP800  GLU811  SER814 

> <Gold.Protein.RotatedAtoms>
  151.1699  135.0313  159.8746 H   0  0  0  0  0  0  0  0  0  0  0  0  # atno 6907 bound_to 6896
  152.5449  134.1183  159.8398 H   0  0  0  0  0  0  0  0  0  0  0  0  # atno 6908 bound_to 6896
  151.1287  133.5006  159.2632 H   0  0  0  0  0  0  0  0  0  0  0  0  # atno 6909 bound_to 6896
  146.0123  139.4557  142.9948 H   0  0  0  0  0  0  0  0  0  0  0  0  # atno 7974 bound_to 7965
  154.4785  140.2068  155.9820 H   0  0  0  0  0  0  0  0  0  0  0  0  # atno 8008 bound_to 7997
  156.1127  140.3226  155.8066 H   0  0  0  0  0  0  0  0  0  0  0  0  # atno 8009 bound_to 7997
  155.4606  140.0524  157.2982 H   0  0  0  0  0  0  0  0  0  0  0  0  # atno 8010 bound_to 7997
  140.6950  143.3008  151.3287 H   0  0  0  0  0  0  0  0  0  0  0  0  # atno 10167 bound_to 10162
  156.2227  130.6988  151.0774 H   0  0  0  0  0  0  0  0  0  0  0  0  # atno 10718 bound_to 10713
  154.8321  135.3379  154.6707 H   0  0  0  0  0  0  0  0  0  0  0  0  # atno 10763 bound_to 10752
  153.7326  135.6951  153.4990 H   0  0  0  0  0  0  0  0  0  0  0  0  # atno 10764 bound_to 10752
  153.2301  135.4419  155.0538 H   0  0  0  0  0  0  0  0  0  0  0  0  # atno 10765 bound_to 10752
  139.9027  134.9592  156.7132 H   0  0  0  0  0  0  0  0  0  0  0  0  # atno 11005 bound_to 11000
  145.7323  141.0038  143.1345 LP  0  0  0  0  0  0  0  0  0  0  0  0  # atno 17320 bound_to 7965
  144.6957  139.8999  143.7458 LP  0  0  0  0  0  0  0  0  0  0  0  0  # atno 17321 bound_to 7965
  139.6395  144.0567  152.2542 LP  0  0  0  0  0  0  0  0  0  0  0  0  # atno 17342 bound_to 10162
  140.0068  144.6253  150.7682 LP  0  0  0  0  0  0  0  0  0  0  0  0  # atno 17343 bound_to 10162
  157.7095  131.0741  150.6549 LP  0  0  0  0  0  0  0  0  0  0  0  0  # atno 17370 bound_to 10713
  156.6613  130.4513  149.5687 LP  0  0  0  0  0  0  0  0  0  0  0  0  # atno 17371 bound_to 10713
  140.7059  133.9265  155.8053 LP  0  0  0  0  0  0  0  0  0  0  0  0  # atno 17394 bound_to 11000
  141.0337  134.0720  157.3985 LP  0  0  0  0  0  0  0  0  0  0  0  0  # atno 17395 bound_to 11000

$$$$
