#       Name:                AV-unprocessed.smi:1604
#       Creating user name   scv26
#       Creation time:       Fri Mar 27 07:10:14 2020


#       File generated by GOLD software.
#

@<TRIPOS>MOLECULE
AV-unprocessed.smi:1604
    52    54     1
SMALL
NO_CHARGES


@<TRIPOS>ATOM
      1 ****         0.3632   2.0990  -0.4025 O.2            1 S1                 0.0000
      2 ****        -0.0164   0.9284  -0.4067 C.2            1 S1                 0.0000
      3 ****         0.7953  -0.1411  -0.3626 N.am           1 S1                 0.0000
      4 ****         2.2190  -0.1605  -0.3393 C.ar           1 S1                 0.0000
      5 ****         2.9944   0.8398  -0.9801 C.ar           1 S1                 0.0000
      6 ****         4.4003   0.7708  -0.9371 C.ar           1 S1                 0.0000
      7 ****         5.0104  -0.3017  -0.2630 C.ar           1 S1                 0.0000
      8 ****         4.2449  -1.2460   0.3225 N.pl3          1 S1                 1.0000
      9 ****         2.8889  -1.2303   0.3150 C.ar           1 S1                 0.0000
     10 ****         2.1911  -2.2863   0.9385 N.3            1 S1                 0.0000
     11 ****         1.5436  -3.2045   0.0050 C.3            1 S1                 0.0000
     12 ****         1.6773  -4.6042   0.6095 C.3            1 S1                 0.0000
     13 ****         2.9331  -4.4931   1.4649 C.3            1 S1                 0.0000
     14 ****         2.8453  -3.0620   1.9911 C.3            1 S1                 0.0000
     15 ****        -1.3068   0.5548  -0.4457 N.am           1 S1                 0.0000
     16 ****        -2.4963   1.4179  -0.4541 C.3            1 S1                 0.0000
     17 ****        -2.4426   2.5178   0.6353 C.3            1 S1                 0.0000
     18 ****        -3.8229   2.9989   1.1097 C.3            1 S1                 0.0000
     19 ****        -4.6685   3.6853   0.0274 C.3            1 S1                 0.0000
     20 ****        -5.0934   2.7435  -1.1116 C.3            1 S1                 0.0000
     21 ****        -4.0301   2.5154  -2.0822 N.am           1 S1                 0.0000
     22 ****        -2.8424   1.9284  -1.8689 C.2            1 S1                 0.0000
     23 ****        -2.0381   1.8005  -2.7914 O.2            1 S1                 0.0000
     24 ****         0.3445  -1.0383  -0.2607 H              1 S1                 0.0000
     25 ****         2.5327   1.6548  -1.5166 H              1 S1                 0.0000
     26 ****         5.0009   1.5279  -1.4199 H              1 S1                 0.0000
     27 ****         6.0791  -0.4376  -0.1823 H              1 S1                 0.0000
     28 ****         0.4971  -2.9394  -0.1476 H              1 S1                 0.0000
     29 ****         2.0423  -3.1689  -0.9652 H              1 S1                 0.0000
     30 ****         0.8172  -4.8168   1.2462 H              1 S1                 0.0000
     31 ****         1.7409  -5.3885  -0.1451 H              1 S1                 0.0000
     32 ****         2.9772  -5.2371   2.2608 H              1 S1                 0.0000
     33 ****         3.8204  -4.6079   0.8406 H              1 S1                 0.0000
     34 ****         3.8201  -2.6833   2.2979 H              1 S1                 0.0000
     35 ****         2.2036  -3.0300   2.8722 H              1 S1                 0.0000
     36 ****        -1.4945  -0.4368  -0.4606 H              1 S1                 0.0000
     37 ****        -3.2980   0.7316  -0.1789 H              1 S1                 0.0000
     38 ****        -1.9164   2.1331   1.5101 H              1 S1                 0.0000
     39 ****        -1.8596   3.3712   0.2863 H              1 S1                 0.0000
     40 ****        -4.3785   2.1599   1.5305 H              1 S1                 0.0000
     41 ****        -3.6793   3.7001   1.9324 H              1 S1                 0.0000
     42 ****        -5.5696   4.0750   0.5021 H              1 S1                 0.0000
     43 ****        -4.1433   4.5539  -0.3724 H              1 S1                 0.0000
     44 ****        -5.4625   1.7939  -0.7221 H              1 S1                 0.0000
     45 ****        -5.9251   3.1941  -1.6535 H              1 S1                 0.0000
     46 ****        -4.2144   2.8381  -3.0214 H              1 S1                 0.0000
     47 ****         4.7148  -2.0189   0.7942 H              1 S1                 0.0000
     48 ****         1.3405   2.3076  -0.3641 LP             1 S1                 0.0000
     49 ****        -0.3056   2.8416  -0.4375 LP             1 S1                 0.0000
     50 ****         1.5172  -1.7314   1.4263 LP             1 S1                 0.0000
     51 ****        -1.1538   1.3635  -2.6268 LP             1 S1                 0.0000
     52 ****        -2.2688   2.1335  -3.7057 LP             1 S1                 0.0000
@<TRIPOS>BOND
    1    1    2 2     
    2    2    3 am    
    3    2   15 am    
    4    3    4 1     
    5    3   24 1     
    6    4    9 ar    
    7    4    5 ar    
    8    5    6 ar    
    9    5   25 1     
   10    6    7 ar    
   11    6   26 1     
   12    7    8 ar    
   13    7   27 1     
   14    8    9 ar    
   15    8   47 1     
   16    9   10 1     
   17   10   14 1     
   18   10   11 1     
   19   11   12 1     
   20   11   28 1     
   21   11   29 1     
   22   12   13 1     
   23   12   30 1     
   24   12   31 1     
   25   13   14 1     
   26   13   32 1     
   27   13   33 1     
   28   14   34 1     
   29   14   35 1     
   30   15   16 1     
   31   15   36 1     
   32   16   22 1     
   33   16   17 1     
   34   16   37 1     
   35   17   18 1     
   36   17   38 1     
   37   17   39 1     
   38   18   19 1     
   39   18   40 1     
   40   18   41 1     
   41   19   20 1     
   42   19   42 1     
   43   19   43 1     
   44   20   21 1     
   45   20   44 1     
   46   20   45 1     
   47   21   22 am    
   48   21   46 1     
   49   22   23 2     
   50    1   48 1     
   51    1   49 1     
   52   10   50 1     
   53   23   51 1     
   54   23   52 1     
@<TRIPOS>SUBSTRUCTURE
      1 S1             1
@<TRIPOS>SET
LONE_PAIRS      STATIC     ATOMS    <user>   **** ""
5 48 49 50 51 52
DONOR_HYDROGENS      STATIC     ATOMS    <user>   **** ""
4 24 47 36 46
ATOM$BLUE        STATIC     ATOMS    COLORGROUP SYSTEM
5 48 49 50 51 52
ATOM$RED        STATIC     ATOMS    COLORGROUP SYSTEM
4 24 47 36 46
