#       Name:                AV-unprocessed.smi:1190
#       Creating user name   scv26
#       Creation time:       Fri Mar 27 03:57:52 2020


#       File generated by GOLD software.
#

@<TRIPOS>MOLECULE
AV-unprocessed.smi:1190
    51    52     1
SMALL
NO_CHARGES


@<TRIPOS>ATOM
      1 ****        -6.2844   5.0892   0.1788 C.3            1 S1                 0.0000
      2 ****        -6.4898   3.7641   0.6562 O.3            1 S1                 0.0000
      3 ****        -5.4124   2.9023   0.6803 C.ar           1 S1                 0.0000
      4 ****        -5.6091   1.5902   1.1541 C.ar           1 S1                 0.0000
      5 ****        -4.5124   0.7087   1.1840 C.ar           1 S1                 0.0000
      6 ****        -3.2513   1.1635   0.7494 C.ar           1 S1                 0.0000
      7 ****        -2.1672   0.2449   0.7784 N.am           1 S1                 0.0000
      8 ****        -0.8482   0.5024   0.7544 C.2            1 S1                 0.0000
      9 ****        -0.3422   1.6237   0.7254 O.2            1 S1                 0.0000
     10 ****        -0.1360  -0.6334   0.7792 N.am           1 S1                 0.0000
     11 ****         1.3225  -0.7256   0.7691 C.3            1 S1                 0.0000
     12 ****         1.8786  -1.4058  -0.5141 C.3            1 S1                 0.0000
     13 ****         1.3781  -0.6280  -1.7581 C.3            1 S1                 0.0000
     14 ****         3.3519  -1.5682  -0.4970 N.3            1 S1                 0.0000
     15 ****         3.8295  -2.3223   0.6683 C.3            1 S1                 0.0000
     16 ****         5.3557  -2.5169   0.6709 C.3            1 S1                 0.0000
     17 ****         5.7581  -3.1657  -0.5272 O.3            1 S1                 0.0000
     18 ****         5.3862  -2.4271  -1.6824 C.3            1 S1                 0.0000
     19 ****         3.8604  -2.2317  -1.7036 C.3            1 S1                 0.0000
     20 ****        -3.1586   2.4959   0.2778 C.ar           1 S1                 0.0000
     21 ****        -4.2073   3.3457   0.2450 N.ar           1 S1                 0.0000
     22 ****        -7.2229   5.6408   0.2319 H              1 S1                 0.0000
     23 ****        -5.9573   5.0921  -0.8620 H              1 S1                 0.0000
     24 ****        -5.5522   5.6236   0.7860 H              1 S1                 0.0000
     25 ****        -6.5836   1.2662   1.4884 H              1 S1                 0.0000
     26 ****        -4.6407  -0.3026   1.5414 H              1 S1                 0.0000
     27 ****        -2.4268  -0.7254   0.8791 H              1 S1                 0.0000
     28 ****        -0.6416  -1.5067   0.8057 H              1 S1                 0.0000
     29 ****         1.7885   0.2519   0.9053 H              1 S1                 0.0000
     30 ****         1.5631  -1.3051   1.6582 H              1 S1                 0.0000
     31 ****         1.4330  -2.4006  -0.5634 H              1 S1                 0.0000
     32 ****         0.2979  -0.4900  -1.7554 H              1 S1                 0.0000
     33 ****         1.5894  -1.1509  -2.6894 H              1 S1                 0.0000
     34 ****         1.8345   0.3608  -1.8138 H              1 S1                 0.0000
     35 ****         3.5784  -1.8049   1.5919 H              1 S1                 0.0000
     36 ****         3.3402  -3.2969   0.7048 H              1 S1                 0.0000
     37 ****         5.8674  -1.5579   0.7653 H              1 S1                 0.0000
     38 ****         5.6578  -3.1255   1.5233 H              1 S1                 0.0000
     39 ****         5.8996  -1.4643  -1.6906 H              1 S1                 0.0000
     40 ****         5.7100  -2.9699  -2.5705 H              1 S1                 0.0000
     41 ****         3.3737  -3.2005  -1.8259 H              1 S1                 0.0000
     42 ****         3.6291  -1.6464  -2.5914 H              1 S1                 0.0000
     43 ****        -2.2380   2.9061  -0.1062 H              1 S1                 0.0000
     44 ****        -7.1901   3.3463   0.0774 LP             1 S1                 0.0000
     45 ****        -6.8317   3.8368   1.5931 LP             1 S1                 0.0000
     46 ****        -0.9260   2.4356   0.7181 LP             1 S1                 0.0000
     47 ****         0.6527   1.7230   0.7091 LP             1 S1                 0.0000
     48 ****         3.7037  -0.6331  -0.4537 LP             1 S1                 0.0000
     49 ****         5.3264  -4.0668  -0.5672 LP             1 S1                 0.0000
     50 ****         6.7523  -3.2725  -0.5184 LP             1 S1                 0.0000
     51 ****        -4.0978   4.2806  -0.0926 LP             1 S1                 0.0000
@<TRIPOS>BOND
    1    1    2 1     
    2    1   22 1     
    3    1   23 1     
    4    1   24 1     
    5    2    3 1     
    6    3   21 ar    
    7    3    4 ar    
    8    4    5 ar    
    9    4   25 1     
   10    5    6 ar    
   11    5   26 1     
   12    6    7 1     
   13    6   20 ar    
   14    7    8 am    
   15    7   27 1     
   16    8    9 2     
   17    8   10 am    
   18   10   11 1     
   19   10   28 1     
   20   11   12 1     
   21   11   29 1     
   22   11   30 1     
   23   12   13 1     
   24   12   14 1     
   25   12   31 1     
   26   13   32 1     
   27   13   33 1     
   28   13   34 1     
   29   14   19 1     
   30   14   15 1     
   31   15   16 1     
   32   15   35 1     
   33   15   36 1     
   34   16   17 1     
   35   16   37 1     
   36   16   38 1     
   37   17   18 1     
   38   18   19 1     
   39   18   39 1     
   40   18   40 1     
   41   19   41 1     
   42   19   42 1     
   43   20   21 ar    
   44   20   43 1     
   45    2   44 1     
   46    2   45 1     
   47    9   46 1     
   48    9   47 1     
   49   14   48 1     
   50   17   49 1     
   51   17   50 1     
   52   21   51 1     
@<TRIPOS>SUBSTRUCTURE
      1 S1             1
@<TRIPOS>SET
LONE_PAIRS      STATIC     ATOMS    <user>   **** ""
8 44 45 46 47 48 49 50 51
DONOR_HYDROGENS      STATIC     ATOMS    <user>   **** ""
2 27 28
ATOM$BLUE        STATIC     ATOMS    COLORGROUP SYSTEM
8 44 45 46 47 48 49 50 51
ATOM$RED        STATIC     ATOMS    COLORGROUP SYSTEM
2 27 28
