AV-unprocessed.smi:2351|AV-procd|sdf|9375|dock8
  -GOLD-   2272013 03D 1   1.00000     0.00000
 Structure written by MMmdl.
 47 49  0  0  0  0  0  0  0  0  2 V2000
  145.2585  137.0264  154.0029 O   0  0  0  0  0  0  0  0  0  0  0  0
  146.3198  136.8019  153.4218 C   0  0  0  0  0  0  0  0  0  0  0  0
  146.5612  135.7588  152.6092 N   0  0  0  0  0  0  0  0  0  0  0  0
  145.6847  134.7095  152.2179 C   0  0  0  0  0  0  0  0  0  0  0  0
  144.2839  134.8540  152.0685 C   0  0  0  0  0  0  0  0  0  0  0  0
  143.5263  133.7277  151.6885 C   0  0  0  0  0  0  0  0  0  0  0  0
  144.0638  132.5097  151.4650 N   0  0  0  0  0  0  0  0  0  0  0  0
  145.3973  132.3727  151.6214 C   0  0  0  0  0  0  0  0  0  0  0  0
  146.2452  133.4333  151.9988 C   0  0  0  0  0  0  0  0  0  0  0  0
  147.5767  133.2262  152.1423 F   0  0  0  0  0  0  0  0  0  0  0  0
  147.3928  137.6010  153.5156 N   0  0  0  0  0  0  0  0  0  0  0  0
  147.4507  138.8408  154.2847 C   0  0  2  0  0  0  0  0  0  0  0  0
  148.8158  139.5173  154.0866 C   0  0  0  0  0  0  0  0  0  0  0  0
  148.9339  140.7892  154.9432 C   0  0  0  0  0  0  0  0  0  0  0  0
  148.7043  140.4935  156.3816 N   0  3  1  0  0  0  0  0  0  0  0  0
  148.9451  141.6717  157.2554 C   0  0  0  0  0  0  0  0  0  0  0  0
  150.4385  142.0425  157.3337 C   0  0  1  0  0  0  0  0  0  0  0  0
  150.6948  143.3516  158.0541 C   0  0  0  0  0  0  0  0  0  0  0  0
  152.1797  143.2502  158.3869 C   0  0  0  0  0  0  0  0  0  0  0  0
  152.4406  141.8617  158.5667 O   0  0  0  0  0  0  0  0  0  0  0  0
  151.3129  141.0952  158.1576 C   0  0  0  0  0  0  0  0  0  0  0  0
  147.3740  139.8667  156.6023 C   0  0  0  0  0  0  0  0  0  0  0  0
  147.2241  138.5738  155.7834 C   0  0  0  0  0  0  0  0  0  0  0  0
  147.4627  135.7508  152.1552 H   0  0  0  0  0  0  0  0  0  0  0  0
  143.7767  135.7894  152.2457 H   0  0  0  0  0  0  0  0  0  0  0  0
  142.4563  133.8071  151.5665 H   0  0  0  0  0  0  0  0  0  0  0  0
  145.8013  131.3873  151.4422 H   0  0  0  0  0  0  0  0  0  0  0  0
  148.2233  137.3420  153.0032 H   0  0  0  0  0  0  0  0  0  0  0  0
  146.6774  139.5217  153.9231 H   0  0  0  0  0  0  0  0  0  0  0  0
  149.6167  138.8256  154.3530 H   0  0  0  0  0  0  0  0  0  0  0  0
  148.9603  139.7680  153.0349 H   0  0  0  0  0  0  0  0  0  0  0  0
  149.9294  141.2146  154.8087 H   0  0  0  0  0  0  0  0  0  0  0  0
  148.2179  141.5400  154.6053 H   0  0  0  0  0  0  0  0  0  0  0  0
  148.4180  142.5359  156.8479 H   0  0  0  0  0  0  0  0  0  0  0  0
  148.5217  141.5132  158.2487 H   0  0  0  0  0  0  0  0  0  0  0  0
  150.8497  142.1226  156.3258 H   0  0  0  0  0  0  0  0  0  0  0  0
  150.4562  144.2283  157.4510 H   0  0  0  0  0  0  0  0  0  0  0  0
  150.1101  143.4014  158.9741 H   0  0  0  0  0  0  0  0  0  0  0  0
  152.7829  143.6108  157.5529 H   0  0  0  0  0  0  0  0  0  0  0  0
  152.4481  143.8256  159.2732 H   0  0  0  0  0  0  0  0  0  0  0  0
  150.7858  140.7588  159.0516 H   0  0  0  0  0  0  0  0  0  0  0  0
  151.6230  140.2153  157.5939 H   0  0  0  0  0  0  0  0  0  0  0  0
  147.2337  139.6383  157.6577 H   0  0  0  0  0  0  0  0  0  0  0  0
  146.5886  140.5729  156.3281 H   0  0  0  0  0  0  0  0  0  0  0  0
  146.2312  138.1521  155.9459 H   0  0  0  0  0  0  0  0  0  0  0  0
  147.9382  137.8310  156.1422 H   0  0  0  0  0  0  0  0  0  0  0  0
  149.3998  139.8068  156.6365 H   0  0  0  0  0  0  0  0  0  0  0  0
  1  2  2  0  0  0  0
  2  3  1  0  0  0  0
  2 11  1  0  0  0  0
  3  4  1  0  0  0  0
  3 24  1  0  0  0  0
  4  9  1  0  0  0  0
  4  5  2  0  0  0  0
  5  6  1  0  0  0  0
  5 25  1  0  0  0  0
  6  7  2  0  0  0  0
  6 26  1  0  0  0  0
  7  8  1  0  0  0  0
  8  9  2  0  0  0  0
  8 27  1  0  0  0  0
  9 10  1  0  0  0  0
 11 12  1  0  0  0  0
 11 28  1  0  0  0  0
 12 23  1  0  0  0  0
 12 13  1  0  0  0  0
 12 29  1  0  0  0  0
 13 14  1  0  0  0  0
 13 30  1  0  0  0  0
 13 31  1  0  0  0  0
 14 15  1  0  0  0  0
 14 32  1  0  0  0  0
 14 33  1  0  0  0  0
 15 16  1  0  0  0  0
 15 22  1  0  0  0  0
 15 47  1  0  0  0  0
 16 17  1  0  0  0  0
 16 34  1  0  0  0  0
 16 35  1  0  0  0  0
 17 21  1  0  0  0  0
 17 18  1  0  0  0  0
 17 36  1  0  0  0  0
 18 19  1  0  0  0  0
 18 37  1  0  0  0  0
 18 38  1  0  0  0  0
 19 20  1  0  0  0  0
 19 39  1  0  0  0  0
 19 40  1  0  0  0  0
 20 21  1  0  0  0  0
 21 41  1  0  0  0  0
 21 42  1  0  0  0  0
 22 23  1  0  0  0  0
 22 43  1  0  0  0  0
 22 44  1  0  0  0  0
 23 45  1  0  0  0  0
 23 46  1  0  0  0  0
M  CHG  1  15   1
M  END
> <s_m_source_file>
AV-unprocessed.smi

> <i_m_source_file_index>
2351

> <i_lp_mmshare_version>
43012

> <i_f3d_flags>
0

> <s_epik_input>
RmMxW2NIXW5bY0hdW2NIXWMxW05IXUMoPU8pW05IXVtDSF0yW0NIMl1bQ0gyXU4oW0NIMl1bQ0gyXTIpW0NIMl1bQ0BASF0zW0NIMl1bQ0gyXU9bQ0gyXTM=

> <s_epik_cmdline>
J2VwaWtfcHl0aG9uJywgJy1waCcsICc3LjAnLCAnLXRuJywgJzgnLCAnLW1hJywgJzIwMCcsICctbWV0YWxfYmluZGluZycsICctaW1hZScsICc8aW5maWxlLm1hZT4nLCAnLW9tYWUnLCAnPG91dGZpbGUubWFlPic=

> <r_epik_Ionization_Penalty>
0.0102464

> <r_epik_Ionization_Penalty_Charging>
0.00747775

> <r_epik_Ionization_Penalty_Neutral>
0.00276864

> <r_epik_State_Penalty>
0.00558817

> <r_epik_Charging_Adjusted_Penalty>
0.0130659

> <i_epik_Tot_Q>
1

> <i_epik_Tot_abs_Q>
1

> <r_epik_Metal_State_Penalty>
-0

> <b_epik_Metal_Only>
0

> <s_lp_Force_Field>
OPLS_2005

> <r_lp_Energy>
39.8259

> <b_lp_Chiralities_Consistent>
1

> <s_lp_Variant>
AV-unprocessed.smi:2351-2

> <Gold.Version>
5.8.1

> <Gold.Id.Protein>
6NUR|6NUR_protein|mol2

> <Gold.PLP.Fitness>
37.7576

> <Gold.PLP.PLP>
-29.8230

> <Gold.PLP.part.hbond>
-2.0000

> <Gold.PLP.part.metal>
0.0000

> <Gold.PLP.part.buried>
-3.7222

> <Gold.PLP.part.nonpolar>
-24.9303

> <Gold.PLP.part.repulsive>
0.3124

> <Gold.PLP.ligand.clash>
0.0000

> <Gold.PLP.ligand.torsion>
0.3804

> <Gold.PLP.Chemscore.Hbond>
1.9600

> <Gold.PLP.Chemscore.CHOScore>
0.9302

> <Gold.PLP.Chemscore.Metal>
0.0000

> <Gold.Chemscore.Hbonds>
donor molecule, donor type, donor heavy atom, donor atom, acceptor molecule, acceptor atom, score
      L1  H     3    24       P1  7948  1.00
      L1  H    11    28       P1  7948  0.94
      L1  C     6    26       P1 10186  0.90

> <Gold.PLP.Chemscore.Internal.Correction>
0.0249

> <Gold.Rescore>
     Score         DG    S(hbond)    S(metal)    S(lipo)     H(rot)  DE(clash)    DE(int)     intcor
     16.86     -17.38       1.90        0.00      79.08       1.45       0.04       0.47       ----

> <Gold.Chemscore.Fitness>
16.8625

> <Gold.Chemscore.DG>
-17.3783

> <Gold.Chemscore.ZeroCoef>
-5.4800

> <Gold.Chemscore.Hbond>
1.9022

> <Gold.Chemscore.Metal>
0.0000

> <Gold.Chemscore.Lipo>
79.0824

> <Gold.Chemscore.Internal_Hbond>
0.0000

> <Gold.Chemscore.DEClash>
0.0431

> <Gold.Chemscore.DEInternal>
0.4727

> <Gold.Chemscore.Rot>
1.4483

> <Gold.Chemscore.Internal.Correction>
   9.000000E+99

> <Gold.Chemscore.Hbonds>
donor molecule, donor type, donor heavy atom, donor atom, acceptor molecule, acceptor atom, score
      L1  H     3    24       P1  7948  0.96
      L1  H    11    28       P1  7948  0.92

> <Gold.Chemscore.Hbond.Weighted>
-6.3533

> <Gold.Chemscore.Metal.Weighted>
-0.0000

> <Gold.Chemscore.Lipo.Weighted>
-9.2526

> <Gold.Chemscore.Internal_Hbond.Weighted>
0.0000

> <Gold.Chemscore.DEClash.Weighted>
0.0431

> <Gold.Chemscore.DEInternal.Weighted>
0.4727

> <Gold.Chemscore.Rot.Weighted>
3.7077

> <Gold.Chemscore.Internal.Correction.Weighted>
   9.000000E+99

> <Gold.Protein.RotatedTorsions>
[ 6907 6896 6895 6894 ] final  102.15 input  -60.11 | X-H torsion
[ 7974 7965 7964 7962 ] final   67.19 input  175.53 | X-H torsion
[ 8008 7997 7996 7995 ] final   56.70 input   59.86 | X-H torsion
[ 10167 10162 10161 10158 ] final -116.58 input  -65.29 | X-H torsion
[ 10718 10713 10712 10709 ] final  -77.37 input   66.30 | X-H torsion
[ 10763 10752 10751 10750 ] final   81.95 input  -60.55 | X-H torsion
[ 11005 11000 10999 10996 ] final  -46.84 input  -57.11 | X-H torsion

> <Gold.Protein.ActiveResidues>
 VAL166  LYS551  ARG553  GLY616  TRP617  ASP618  TYR619  PRO620  LYS621  CYS622 
 ASP623  PHE694  ASN695  SER759  ASP760  ASP761  ALA762  ILE779  LEU786  VAL792 
 PHE793  MET794  SER795  GLU796  ALA797  LYS798  CYS799  TRP800  GLU811  SER814 

> <Gold.Protein.RotatedAtoms>
  152.5331  134.0019  159.7898 H   0  0  0  0  0  0  0  0  0  0  0  0  # atno 6907 bound_to 6896
  151.0236  133.5846  159.2675 H   0  0  0  0  0  0  0  0  0  0  0  0  # atno 6908 bound_to 6896
  151.2876  135.0739  159.9246 H   0  0  0  0  0  0  0  0  0  0  0  0  # atno 6909 bound_to 6896
  145.8176  139.3067  143.1062 H   0  0  0  0  0  0  0  0  0  0  0  0  # atno 7974 bound_to 7965
  155.5218  140.3480  155.4408 H   0  0  0  0  0  0  0  0  0  0  0  0  # atno 8008 bound_to 7997
  156.0779  140.1379  156.9776 H   0  0  0  0  0  0  0  0  0  0  0  0  # atno 8009 bound_to 7997
  154.4563  140.0952  156.6743 H   0  0  0  0  0  0  0  0  0  0  0  0  # atno 8010 bound_to 7997
  140.0777  143.4817  152.1944 H   0  0  0  0  0  0  0  0  0  0  0  0  # atno 10167 bound_to 10162
  156.0147  130.4489  150.3334 H   0  0  0  0  0  0  0  0  0  0  0  0  # atno 10718 bound_to 10713
  153.1161  135.4746  154.9117 H   0  0  0  0  0  0  0  0  0  0  0  0  # atno 10763 bound_to 10752
  154.7530  135.3111  154.8525 H   0  0  0  0  0  0  0  0  0  0  0  0  # atno 10764 bound_to 10752
  153.9102  135.6866  153.4805 H   0  0  0  0  0  0  0  0  0  0  0  0  # atno 10765 bound_to 10752
  141.0604  133.6711  156.3212 H   0  0  0  0  0  0  0  0  0  0  0  0  # atno 11005 bound_to 11000
  145.9710  140.8760  143.0163 LP  0  0  0  0  0  0  0  0  0  0  0  0  # atno 17320 bound_to 7965
  144.6751  140.1945  143.7393 LP  0  0  0  0  0  0  0  0  0  0  0  0  # atno 17321 bound_to 7965
  139.5798  144.7505  151.3670 LP  0  0  0  0  0  0  0  0  0  0  0  0  # atno 17342 bound_to 10162
  140.7094  143.7431  150.7539 LP  0  0  0  0  0  0  0  0  0  0  0  0  # atno 17343 bound_to 10162
  157.1431  131.0302  151.2918 LP  0  0  0  0  0  0  0  0  0  0  0  0  # atno 17370 bound_to 10713
  157.4455  130.7568  149.7105 LP  0  0  0  0  0  0  0  0  0  0  0  0  # atno 17371 bound_to 10713
  140.5880  134.5679  157.5493 LP  0  0  0  0  0  0  0  0  0  0  0  0  # atno 17394 bound_to 11000
  139.9427  134.7757  156.0637 LP  0  0  0  0  0  0  0  0  0  0  0  0  # atno 17395 bound_to 11000

$$$$
