#       Name:                AV-unprocessed.smi:2061
#       Creating user name   scv26
#       Creation time:       Fri Mar 27 11:04:19 2020


#       File generated by GOLD software.
#

@<TRIPOS>MOLECULE
AV-unprocessed.smi:2061
    53    54     1
SMALL
NO_CHARGES


@<TRIPOS>ATOM
      1 ****        -4.7044   5.3531  -3.9002 C.3            1 S1                 0.0000
      2 ****        -4.0219   4.9132  -2.6506 C.2            1 S1                 0.0000
      3 ****        -3.3528   3.7721  -2.3087 C.2            1 S1                 0.0000
      4 ****        -2.9624   4.0229  -0.9608 C.2            1 S1                 0.0000
      5 ****        -2.2281   3.1462  -0.1209 N.am           1 S1                 0.0000
      6 ****        -1.8101   1.8959  -0.3809 C.2            1 S1                 0.0000
      7 ****        -1.9917   1.2871  -1.4351 O.2            1 S1                 0.0000
      8 ****        -1.1529   1.3768   0.6672 N.am           1 S1                 0.0000
      9 ****        -0.6099   0.0219   0.7421 C.3            1 S1                 0.0000
     10 ****         0.9410  -0.0334   0.6362 C.3            1 S1                 0.0000
     11 ****         1.4262   0.6843  -0.6481 C.3            1 S1                 0.0000
     12 ****         1.4647  -1.4407   0.7143 N.4            1 S1                 1.0000
     13 ****         2.9505  -1.5301   0.6340 C.3            1 S1                 0.0000
     14 ****         3.4544  -2.9856   0.6853 C.3            1 S1                 0.0000
     15 ****         3.2080  -3.7715  -0.6159 C.3            1 S1                 0.0000
     16 ****         2.9303  -3.6480   1.8309 O.3            1 S1                 0.0000
     17 ****         1.5110  -3.6484   1.9037 C.3            1 S1                 0.0000
     18 ****         1.1104  -4.4010   3.1773 C.3            1 S1                 0.0000
     19 ****         0.9886  -2.2004   1.9039 C.3            1 S1                 0.0000
     20 ****        -3.3548   5.2075  -0.5295 N.2            1 S1                 0.0000
     21 ****        -4.0375   5.7848  -1.6064 O.3            1 S1                 0.0000
     22 ****        -4.5164   4.6528  -4.7142 H              1 S1                 0.0000
     23 ****        -4.3476   6.3353  -4.2107 H              1 S1                 0.0000
     24 ****        -5.7823   5.4157  -3.7499 H              1 S1                 0.0000
     25 ****        -3.1808   2.9092  -2.9341 H              1 S1                 0.0000
     26 ****        -2.0114   3.5111   0.7949 H              1 S1                 0.0000
     27 ****        -1.0469   1.9529   1.4898 H              1 S1                 0.0000
     28 ****        -0.9469  -0.3434   1.7104 H              1 S1                 0.0000
     29 ****        -1.0641  -0.6275  -0.0084 H              1 S1                 0.0000
     30 ****         1.3464   0.5124   1.4898 H              1 S1                 0.0000
     31 ****         1.0156   1.6887  -0.7372 H              1 S1                 0.0000
     32 ****         1.1394   0.1318  -1.5436 H              1 S1                 0.0000
     33 ****         2.5050   0.8277  -0.6662 H              1 S1                 0.0000
     34 ****         3.3311  -1.0890  -0.2848 H              1 S1                 0.0000
     35 ****         3.3827  -0.9648   1.4613 H              1 S1                 0.0000
     36 ****         4.5348  -2.9545   0.8294 H              1 S1                 0.0000
     37 ****         3.7483  -3.3191  -1.4479 H              1 S1                 0.0000
     38 ****         2.1545  -3.7978  -0.8932 H              1 S1                 0.0000
     39 ****         3.5559  -4.8004  -0.5201 H              1 S1                 0.0000
     40 ****         1.0956  -4.1871   1.0520 H              1 S1                 0.0000
     41 ****         0.0262  -4.4427   3.2858 H              1 S1                 0.0000
     42 ****         1.5176  -3.9180   4.0663 H              1 S1                 0.0000
     43 ****         1.4810  -5.4261   3.1563 H              1 S1                 0.0000
     44 ****         1.2983  -1.6827   2.8134 H              1 S1                 0.0000
     45 ****        -0.0974  -2.2638   1.9190 H              1 S1                 0.0000
     46 ****         1.1041  -1.9252  -0.0954 H              1 S1                 0.0000
     47 ****        -2.4872   1.7240  -2.1858 LP             1 S1                 0.0000
     48 ****        -1.6438   0.3555  -1.5409 LP             1 S1                 0.0000
     49 ****         3.2862  -3.1927   2.6469 LP             1 S1                 0.0000
     50 ****         3.2440  -4.5974   1.8154 LP             1 S1                 0.0000
     51 ****        -3.1978   5.6069   0.3737 LP             1 S1                 0.0000
     52 ****        -4.9827   5.9761  -1.3419 LP             1 S1                 0.0000
     53 ****        -3.5869   6.6368  -1.8726 LP             1 S1                 0.0000
@<TRIPOS>BOND
    1    1    2 1     
    2    1   22 1     
    3    1   23 1     
    4    1   24 1     
    5    2   21 1     
    6    2    3 2     
    7    3    4 1     
    8    3   25 1     
    9    4    5 1     
   10    4   20 2     
   11    5    6 am    
   12    5   26 1     
   13    6    7 2     
   14    6    8 am    
   15    8    9 1     
   16    8   27 1     
   17    9   10 1     
   18    9   28 1     
   19    9   29 1     
   20   10   11 1     
   21   10   12 1     
   22   10   30 1     
   23   11   31 1     
   24   11   32 1     
   25   11   33 1     
   26   12   19 1     
   27   12   13 1     
   28   12   46 1     
   29   13   14 1     
   30   13   34 1     
   31   13   35 1     
   32   14   15 1     
   33   14   16 1     
   34   14   36 1     
   35   15   37 1     
   36   15   38 1     
   37   15   39 1     
   38   16   17 1     
   39   17   18 1     
   40   17   19 1     
   41   17   40 1     
   42   18   41 1     
   43   18   42 1     
   44   18   43 1     
   45   19   44 1     
   46   19   45 1     
   47   20   21 1     
   48    7   47 1     
   49    7   48 1     
   50   16   49 1     
   51   16   50 1     
   52   20   51 1     
   53   21   52 1     
   54   21   53 1     
@<TRIPOS>SUBSTRUCTURE
      1 S1             1
@<TRIPOS>SET
LONE_PAIRS      STATIC     ATOMS    <user>   **** ""
7 47 48 49 50 51 52 53
DONOR_HYDROGENS      STATIC     ATOMS    <user>   **** ""
3 26 27 46
ATOM$BLUE        STATIC     ATOMS    COLORGROUP SYSTEM
7 47 48 49 50 51 52 53
ATOM$RED        STATIC     ATOMS    COLORGROUP SYSTEM
3 26 27 46
