#       Name:                AV-unprocessed.smi:431
#       Creating user name   scv26
#       Creation time:       Thu Mar 26 22:51:19 2020


#       File generated by GOLD software.
#

@<TRIPOS>MOLECULE
AV-unprocessed.smi:431
    49    50     1
SMALL
NO_CHARGES


@<TRIPOS>ATOM
      1 ****        -3.0796  -2.7188  -4.7357 C.3            1 S1                 0.0000
      2 ****        -3.3490  -3.1932  -3.2991 C.3            1 S1                 0.0000
      3 ****        -2.9203  -2.1872  -2.2080 C.3            1 S1                 0.0000
      4 ****        -3.3830  -2.6533  -0.8169 C.3            1 S1                 0.0000
      5 ****        -1.4017  -1.9555  -2.2029 C.2            1 S1                 0.0000
      6 ****        -0.6325  -2.8950  -1.9978 O.2            1 S1                 0.0000
      7 ****        -0.9877  -0.6978  -2.4228 N.am           1 S1                 0.0000
      8 ****         0.4001  -0.2459  -2.4218 C.3            1 S1                 0.0000
      9 ****         0.8163   0.3758  -1.0992 C.ar           1 S1                 0.0000
     10 ****         1.2691   1.7081  -1.0391 C.ar           1 S1                 0.0000
     11 ****         1.6383   2.2495   0.2071 C.ar           1 S1                 0.0000
     12 ****         1.5520   1.4405   1.3658 C.ar           1 S1                 0.0000
     13 ****         1.9132   1.9615   2.6278 N.3            1 S1                 0.0000
     14 ****         1.5924   1.1705   3.8150 C.3            1 S1                 0.0000
     15 ****         1.7783   2.0134   5.0878 C.3            1 S1                 0.0000
     16 ****         3.0983   2.5452   5.1223 O.3            1 S1                 0.0000
     17 ****         3.3522   3.4024   4.0144 C.3            1 S1                 0.0000
     18 ****         3.2198   2.6116   2.7014 C.3            1 S1                 0.0000
     19 ****         1.1158   0.1579   1.3018 N.ar           1 S1                 0.0000
     20 ****         0.7629  -0.3561   0.1050 C.ar           1 S1                 0.0000
     21 ****        -3.4574  -3.4429  -5.4576 H              1 S1                 0.0000
     22 ****        -2.0138  -2.5926  -4.9267 H              1 S1                 0.0000
     23 ****        -3.5720  -1.7665  -4.9334 H              1 S1                 0.0000
     24 ****        -4.4174  -3.3878  -3.1997 H              1 S1                 0.0000
     25 ****        -2.8572  -4.1537  -3.1380 H              1 S1                 0.0000
     26 ****        -3.4137  -1.2357  -2.4142 H              1 S1                 0.0000
     27 ****        -3.0799  -1.9493  -0.0405 H              1 S1                 0.0000
     28 ****        -2.9681  -3.6294  -0.5619 H              1 S1                 0.0000
     29 ****        -4.4693  -2.7357  -0.7742 H              1 S1                 0.0000
     30 ****        -1.6924   0.0068  -2.5854 H              1 S1                 0.0000
     31 ****         1.0822  -1.0638  -2.6598 H              1 S1                 0.0000
     32 ****         0.5146   0.4852  -3.2227 H              1 S1                 0.0000
     33 ****         1.3263   2.3139  -1.9315 H              1 S1                 0.0000
     34 ****         1.9646   3.2771   0.2598 H              1 S1                 0.0000
     35 ****         0.5624   0.8145   3.7670 H              1 S1                 0.0000
     36 ****         2.2402   0.2935   3.8494 H              1 S1                 0.0000
     37 ****         1.0470   2.8224   5.1286 H              1 S1                 0.0000
     38 ****         1.6204   1.3970   5.9729 H              1 S1                 0.0000
     39 ****         2.6629   4.2483   4.0294 H              1 S1                 0.0000
     40 ****         4.3585   3.8111   4.1060 H              1 S1                 0.0000
     41 ****         3.9956   1.8468   2.6476 H              1 S1                 0.0000
     42 ****         3.3847   3.2887   1.8649 H              1 S1                 0.0000
     43 ****         0.4278  -1.3825   0.1136 H              1 S1                 0.0000
     44 ****        -0.9959  -3.8121  -1.8339 LP             1 S1                 0.0000
     45 ****         0.3555  -2.7408  -1.9951 LP             1 S1                 0.0000
     46 ****         1.2446   2.7035   2.6778 LP             1 S1                 0.0000
     47 ****         3.7524   1.7891   5.1031 LP             1 S1                 0.0000
     48 ****         3.2154   3.0660   5.9680 LP             1 S1                 0.0000
     49 ****         1.0565  -0.3992   2.1301 LP             1 S1                 0.0000
@<TRIPOS>BOND
    1    1    2 1     
    2    1   21 1     
    3    1   22 1     
    4    1   23 1     
    5    2    3 1     
    6    2   24 1     
    7    2   25 1     
    8    3    4 1     
    9    3    5 1     
   10    3   26 1     
   11    4   27 1     
   12    4   28 1     
   13    4   29 1     
   14    5    6 2     
   15    5    7 am    
   16    7    8 1     
   17    7   30 1     
   18    8    9 1     
   19    8   31 1     
   20    8   32 1     
   21    9   20 ar    
   22    9   10 ar    
   23   10   11 ar    
   24   10   33 1     
   25   11   12 ar    
   26   11   34 1     
   27   12   13 1     
   28   12   19 ar    
   29   13   18 1     
   30   13   14 1     
   31   14   15 1     
   32   14   35 1     
   33   14   36 1     
   34   15   16 1     
   35   15   37 1     
   36   15   38 1     
   37   16   17 1     
   38   17   18 1     
   39   17   39 1     
   40   17   40 1     
   41   18   41 1     
   42   18   42 1     
   43   19   20 ar    
   44   20   43 1     
   45    6   44 1     
   46    6   45 1     
   47   13   46 1     
   48   16   47 1     
   49   16   48 1     
   50   19   49 1     
@<TRIPOS>SUBSTRUCTURE
      1 S1             1
@<TRIPOS>SET
LONE_PAIRS      STATIC     ATOMS    <user>   **** ""
6 44 45 46 47 48 49
DONOR_HYDROGENS      STATIC     ATOMS    <user>   **** ""
1 30
ATOM$BLUE        STATIC     ATOMS    COLORGROUP SYSTEM
6 44 45 46 47 48 49
ATOM$RED        STATIC     ATOMS    COLORGROUP SYSTEM
1 30
