AV-unprocessed.smi:1533|AV-procd|sdf|6164|dock7
  -GOLD-   22720 6313D 1   1.00000     0.00000
 Structure written by MMmdl.
 37 39  0  0  0  0  0  0  0  0  1 V2000
  153.1680  138.7142  154.5400 C   0  0  0  0  0  0  0  0  0  0  0  0
  151.7058  139.0039  154.5199 C   0  0  0  0  0  0  0  0  0  0  0  0
  150.8163  138.0570  154.2463 N   0  0  0  0  0  0  0  0  0  0  0  0
  149.5893  138.7300  154.3374 O   0  0  0  0  0  0  0  0  0  0  0  0
  149.8945  140.0152  154.6383 C   0  0  0  0  0  0  0  0  0  0  0  0
  148.7836  140.9882  154.8496 C   0  0  0  0  0  0  0  0  0  0  0  0
  148.6416  141.4039  156.3225 C   0  0  0  0  0  0  0  0  0  0  0  0
  149.6732  142.3571  156.7150 N   0  0  0  0  0  0  0  0  0  0  0  0
  150.6761  142.1012  157.5689 C   0  0  0  0  0  0  0  0  0  0  0  0
  150.8317  141.0058  158.1101 O   0  0  0  0  0  0  0  0  0  0  0  0
  151.6598  143.2580  157.8201 C   0  0  2  0  0  0  0  0  0  0  0  0
  152.7609  142.9565  158.8667 C   0  0  0  0  0  0  0  0  0  0  0  0
  152.6388  144.1380  159.8474 C   0  0  2  0  0  0  0  0  0  0  0  0
  151.3648  143.9720  160.6971 C   0  0  0  0  0  0  0  0  0  0  0  0
  150.2447  144.3181  159.6992 C   0  0  0  0  0  0  0  0  0  0  0  0
  151.0209  144.5550  158.3847 C   0  0  1  0  0  0  0  0  0  0  0  0
  152.2537  145.2811  158.9150 C   0  0  0  0  0  0  0  0  0  0  0  0
  151.1985  140.2397  154.7818 N   0  0  0  0  0  0  0  0  0  0  0  0
  153.3589  137.6543  154.3675 H   0  0  0  0  0  0  0  0  0  0  0  0
  153.5926  138.9875  155.5063 H   0  0  0  0  0  0  0  0  0  0  0  0
  153.6756  139.2872  153.7639 H   0  0  0  0  0  0  0  0  0  0  0  0
  148.9660  141.8620  154.2226 H   0  0  0  0  0  0  0  0  0  0  0  0
  147.8560  140.5374  154.4948 H   0  0  0  0  0  0  0  0  0  0  0  0
  147.6709  141.8742  156.4828 H   0  0  0  0  0  0  0  0  0  0  0  0
  148.6730  140.5274  156.9724 H   0  0  0  0  0  0  0  0  0  0  0  0
  149.6209  143.2801  156.3085 H   0  0  0  0  0  0  0  0  0  0  0  0
  152.1492  143.4982  156.8741 H   0  0  0  0  0  0  0  0  0  0  0  0
  152.6528  141.9961  159.3727 H   0  0  0  0  0  0  0  0  0  0  0  0
  153.7418  142.9584  158.3896 H   0  0  0  0  0  0  0  0  0  0  0  0
  153.5388  144.3081  160.4390 H   0  0  0  0  0  0  0  0  0  0  0  0
  151.2663  142.9621  161.0973 H   0  0  0  0  0  0  0  0  0  0  0  0
  151.3590  144.6678  161.5369 H   0  0  0  0  0  0  0  0  0  0  0  0
  149.4808  143.5445  159.6308 H   0  0  0  0  0  0  0  0  0  0  0  0
  149.7401  145.2348  160.0076 H   0  0  0  0  0  0  0  0  0  0  0  0
  150.4566  145.1188  157.6413 H   0  0  0  0  0  0  0  0  0  0  0  0
  152.0206  146.2087  159.4413 H   0  0  0  0  0  0  0  0  0  0  0  0
  153.0026  145.4860  158.1477 H   0  0  0  0  0  0  0  0  0  0  0  0
  1  2  1  0  0  0  0
  1 19  1  0  0  0  0
  1 20  1  0  0  0  0
  1 21  1  0  0  0  0
  2 18  1  0  0  0  0
  2  3  2  0  0  0  0
  3  4  1  0  0  0  0
  4  5  1  0  0  0  0
  5  6  1  0  0  0  0
  5 18  2  0  0  0  0
  6  7  1  0  0  0  0
  6 22  1  0  0  0  0
  6 23  1  0  0  0  0
  7  8  1  0  0  0  0
  7 24  1  0  0  0  0
  7 25  1  0  0  0  0
  8  9  1  0  0  0  0
  8 26  1  0  0  0  0
  9 10  2  0  0  0  0
  9 11  1  0  0  0  0
 11 16  1  0  0  0  0
 11 12  1  0  0  0  0
 11 27  1  0  0  0  0
 12 13  1  0  0  0  0
 12 28  1  0  0  0  0
 12 29  1  0  0  0  0
 13 17  1  0  0  0  0
 13 14  1  0  0  0  0
 13 30  1  0  0  0  0
 14 15  1  0  0  0  0
 14 31  1  0  0  0  0
 14 32  1  0  0  0  0
 15 16  1  0  0  0  0
 15 33  1  0  0  0  0
 15 34  1  0  0  0  0
 16 17  1  0  0  0  0
 16 35  1  0  0  0  0
 17 36  1  0  0  0  0
 17 37  1  0  0  0  0
M  END
> <s_m_source_file>
AV-unprocessed.smi

> <i_m_source_file_index>
1533

> <i_lp_mmshare_version>
43012

> <i_f3d_flags>
0

> <s_epik_input>
W0NIM11jMW5vYyhuMSlbQ0gyXVtDSDJdW05IXUMoPU8pW0NASF0oW0NIMl1bQ0BASF0yMylbQ0BASF0oW0NIMl0zKVtDSDJdW0NIMl0y

> <s_epik_cmdline>
J2VwaWtfcHl0aG9uJywgJy1waCcsICc3LjAnLCAnLXRuJywgJzgnLCAnLW1hJywgJzIwMCcsICctbWV0YWxfYmluZGluZycsICctaW1hZScsICc8aW5maWxlLm1hZT4nLCAnLW9tYWUnLCAnPG91dGZpbGUubWFlPic=

> <r_lp_tautomer_probability>
1

> <r_epik_Ionization_Penalty>
1.90116e-08

> <r_epik_Ionization_Penalty_Charging>
0

> <r_epik_Ionization_Penalty_Neutral>
1.90116e-08

> <r_epik_State_Penalty>
-0

> <r_epik_Charging_Adjusted_Penalty>
0

> <i_epik_Tot_Q>
0

> <i_epik_Tot_abs_Q>
0

> <r_epik_Metal_State_Penalty>
-0

> <b_epik_Metal_Only>
0

> <s_lp_Force_Field>
OPLS_2005

> <r_lp_Energy>
42.9891

> <b_lp_Chiralities_Consistent>
1

> <s_lp_Variant>
AV-unprocessed.smi:1533-3

> <Gold.Version>
5.8.1

> <Gold.Id.Protein>
6NUR|6NUR_protein|mol2

> <Gold.PLP.Fitness>
46.5852

> <Gold.PLP.PLP>
-40.9610

> <Gold.PLP.part.hbond>
-2.0000

> <Gold.PLP.part.metal>
0.0000

> <Gold.PLP.part.buried>
-6.4690

> <Gold.PLP.part.nonpolar>
-33.3255

> <Gold.PLP.part.repulsive>
0.4865

> <Gold.PLP.ligand.clash>
0.0000

> <Gold.PLP.ligand.torsion>
0.1984

> <Gold.PLP.Chemscore.Hbond>
2.0000

> <Gold.PLP.Chemscore.CHOScore>
0.0000

> <Gold.PLP.Chemscore.Metal>
0.0000

> <Gold.Chemscore.Hbonds>
donor molecule, donor type, donor heavy atom, donor atom, acceptor molecule, acceptor atom, score
      L1  H     8    26       P1  8028  1.00
      P1  H  7989  7998       L1    18  0.73

> <Gold.PLP.Chemscore.Internal.Correction>
0.0210

> <Gold.Rescore>
     Score         DG    S(hbond)    S(metal)    S(lipo)     H(rot)  DE(clash)    DE(int)     intcor
     18.39     -19.06       1.90        0.00     102.28       1.85       0.21       0.46       ----

> <Gold.Chemscore.Fitness>
18.3922

> <Gold.Chemscore.DG>
-19.0593

> <Gold.Chemscore.ZeroCoef>
-5.4800

> <Gold.Chemscore.Hbond>
1.9000

> <Gold.Chemscore.Metal>
0.0000

> <Gold.Chemscore.Lipo>
102.2791

> <Gold.Chemscore.Internal_Hbond>
0.0000

> <Gold.Chemscore.DEClash>
0.2119

> <Gold.Chemscore.DEInternal>
0.4553

> <Gold.Chemscore.Rot>
1.8490

> <Gold.Chemscore.Internal.Correction>
   9.000000E+99

> <Gold.Chemscore.Hbonds>
donor molecule, donor type, donor heavy atom, donor atom, acceptor molecule, acceptor atom, score
      L1  H     8    26       P1  8028  0.99
      P1  H  7989  7998       L1    18  0.06

> <Gold.Chemscore.Hbond.Weighted>
-6.3460

> <Gold.Chemscore.Metal.Weighted>
-0.0000

> <Gold.Chemscore.Lipo.Weighted>
-11.9667

> <Gold.Chemscore.Internal_Hbond.Weighted>
0.0000

> <Gold.Chemscore.DEClash.Weighted>
0.2119

> <Gold.Chemscore.DEInternal.Weighted>
0.4553

> <Gold.Chemscore.Rot.Weighted>
4.7334

> <Gold.Chemscore.Internal.Correction.Weighted>
   9.000000E+99

> <Gold.Protein.RotatedTorsions>
[ 6907 6896 6895 6894 ] final -163.13 input  -60.11 | X-H torsion
[ 7974 7965 7964 7962 ] final   18.53 input  175.53 | X-H torsion
[ 8008 7997 7996 7995 ] final   65.28 input   59.86 | X-H torsion
[ 10167 10162 10161 10158 ] final   61.15 input  -65.29 | X-H torsion
[ 10718 10713 10712 10709 ] final  -90.49 input   66.30 | X-H torsion
[ 10763 10752 10751 10750 ] final   -3.98 input  -60.55 | X-H torsion
[ 11005 11000 10999 10996 ] final -167.04 input  -57.11 | X-H torsion

> <Gold.Protein.ActiveResidues>
 VAL166  LYS551  ARG553  GLY616  TRP617  ASP618  TYR619  PRO620  LYS621  CYS622 
 ASP623  PHE694  ASN695  SER759  ASP760  ASP761  ALA762  ILE779  LEU786  VAL792 
 PHE793  MET794  SER795  GLU796  ALA797  LYS798  CYS799  TRP800  GLU811  SER814 

> <Gold.Protein.RotatedAtoms>
  151.3912  133.3788  159.2720 H   0  0  0  0  0  0  0  0  0  0  0  0  # atno 6907 bound_to 6896
  150.9503  134.8905  159.7678 H   0  0  0  0  0  0  0  0  0  0  0  0  # atno 6908 bound_to 6896
  152.5109  134.3867  159.9422 H   0  0  0  0  0  0  0  0  0  0  0  0  # atno 6909 bound_to 6896
  146.2181  139.8444  142.8635 H   0  0  0  0  0  0  0  0  0  0  0  0  # atno 7974 bound_to 7965
  155.6593  140.3497  155.4777 H   0  0  0  0  0  0  0  0  0  0  0  0  # atno 8008 bound_to 7997
  155.9782  140.1169  157.0774 H   0  0  0  0  0  0  0  0  0  0  0  0  # atno 8009 bound_to 7997
  154.4184  140.1143  156.5385 H   0  0  0  0  0  0  0  0  0  0  0  0  # atno 8010 bound_to 7997
  140.1579  144.4399  150.6725 H   0  0  0  0  0  0  0  0  0  0  0  0  # atno 10167 bound_to 10162
  155.9988  130.4912  150.5331 H   0  0  0  0  0  0  0  0  0  0  0  0  # atno 10718 bound_to 10713
  153.3786  135.6997  153.6582 H   0  0  0  0  0  0  0  0  0  0  0  0  # atno 10763 bound_to 10752
  153.5203  135.3613  155.2629 H   0  0  0  0  0  0  0  0  0  0  0  0  # atno 10764 bound_to 10752
  154.8690  135.4156  154.3080 H   0  0  0  0  0  0  0  0  0  0  0  0  # atno 10765 bound_to 10752
  140.5578  134.5364  157.5136 H   0  0  0  0  0  0  0  0  0  0  0  0  # atno 11005 bound_to 11000
  145.2866  141.0155  143.3687 LP  0  0  0  0  0  0  0  0  0  0  0  0  # atno 17320 bound_to 7965
  144.9109  139.4530  143.6587 LP  0  0  0  0  0  0  0  0  0  0  0  0  # atno 17321 bound_to 7965
  140.6662  143.2269  151.5738 LP  0  0  0  0  0  0  0  0  0  0  0  0  # atno 17342 bound_to 10162
  139.5395  144.2687  152.1321 LP  0  0  0  0  0  0  0  0  0  0  0  0  # atno 17343 bound_to 10162
  157.3278  131.0694  151.1884 LP  0  0  0  0  0  0  0  0  0  0  0  0  # atno 17370 bound_to 10713
  157.2775  130.6734  149.6049 LP  0  0  0  0  0  0  0  0  0  0  0  0  # atno 17371 bound_to 10713
  139.9423  134.7765  156.0648 LP  0  0  0  0  0  0  0  0  0  0  0  0  # atno 17394 bound_to 11000
  141.1133  133.6636  156.3032 LP  0  0  0  0  0  0  0  0  0  0  0  0  # atno 17395 bound_to 11000

$$$$
