AV-unprocessed.smi:336|AV-procd|sdf|2371|dock6
  -GOLD-   2262022293D 1   1.00000     0.00000
 Structure written by MMmdl.
 34 36  0  0  0  0  0  0  0  0  1 V2000
  150.6116  140.8257  157.5248 O   0  0  0  0  0  0  0  0  0  0  0  0
  150.1152  141.8360  157.0273 C   0  0  0  0  0  0  0  0  0  0  0  0
  150.2732  143.0869  157.4935 N   0  0  0  0  0  0  0  0  0  0  0  0
  150.9939  143.5189  158.6400 C   0  0  0  0  0  0  0  0  0  0  0  0
  151.9803  142.7457  159.2993 C   0  0  0  0  0  0  0  0  0  0  0  0
  152.6127  143.2794  160.4388 C   0  0  0  0  0  0  0  0  0  0  0  0
  152.2317  144.5608  160.8817 C   0  0  0  0  0  0  0  0  0  0  0  0
  151.2831  145.3024  160.2723 N   0  0  0  0  0  0  0  0  0  0  0  0
  150.6803  144.7840  159.1810 C   0  0  0  0  0  0  0  0  0  0  0  0
  149.3531  141.8258  155.9226 N   0  0  0  0  0  0  0  0  0  0  0  0
  148.9727  140.6552  155.1329 C   0  0  0  0  0  0  0  0  0  0  0  0
  150.1270  140.0290  154.3641 C   0  0  0  0  0  0  0  0  0  0  0  0
  150.2752  138.5296  154.2575 C   0  0  0  0  0  0  0  0  0  0  0  0
  151.2580  139.3322  155.0806 C   0  0  0  0  0  0  0  0  0  0  0  0
  147.7790  140.8921  154.2194 C   0  0  0  0  0  0  0  0  0  0  0  0
  147.3738  142.2873  153.8090 C   0  0  0  0  0  0  0  0  0  0  0  0
  146.4958  141.4896  154.7470 C   0  0  0  0  0  0  0  0  0  0  0  0
  149.8761  143.8241  156.9299 H   0  0  0  0  0  0  0  0  0  0  0  0
  152.2529  141.7563  158.9667 H   0  0  0  0  0  0  0  0  0  0  0  0
  153.3698  142.7164  160.9644 H   0  0  0  0  0  0  0  0  0  0  0  0
  152.6974  144.9989  161.7523 H   0  0  0  0  0  0  0  0  0  0  0  0
  149.9246  145.4044  158.7213 H   0  0  0  0  0  0  0  0  0  0  0  0
  149.0011  142.7131  155.5942 H   0  0  0  0  0  0  0  0  0  0  0  0
  148.6576  139.9202  155.8750 H   0  0  0  0  0  0  0  0  0  0  0  0
  150.4083  140.5836  153.4709 H   0  0  0  0  0  0  0  0  0  0  0  0
  149.5664  137.9049  154.7969 H   0  0  0  0  0  0  0  0  0  0  0  0
  150.6225  138.1274  153.3081 H   0  0  0  0  0  0  0  0  0  0  0  0
  152.2612  139.4639  154.6804 H   0  0  0  0  0  0  0  0  0  0  0  0
  151.1954  139.2458  156.1636 H   0  0  0  0  0  0  0  0  0  0  0  0
  147.6511  140.1228  153.4601 H   0  0  0  0  0  0  0  0  0  0  0  0
  147.9308  143.1218  154.2301 H   0  0  0  0  0  0  0  0  0  0  0  0
  147.0236  142.4276  152.7885 H   0  0  0  0  0  0  0  0  0  0  0  0
  145.5608  141.0976  154.3515 H   0  0  0  0  0  0  0  0  0  0  0  0
  146.4669  141.7998  155.7896 H   0  0  0  0  0  0  0  0  0  0  0  0
  1  2  2  0  0  0  0
  2  3  1  0  0  0  0
  2 10  1  0  0  0  0
  3  4  1  0  0  0  0
  3 18  1  0  0  0  0
  4  9  1  0  0  0  0
  4  5  2  0  0  0  0
  5  6  1  0  0  0  0
  5 19  1  0  0  0  0
  6  7  2  0  0  0  0
  6 20  1  0  0  0  0
  7  8  1  0  0  0  0
  7 21  1  0  0  0  0
  8  9  2  0  0  0  0
  9 22  1  0  0  0  0
 10 11  1  0  0  0  0
 10 23  1  0  0  0  0
 11 12  1  0  0  0  0
 11 15  1  0  0  0  0
 11 24  1  0  0  0  0
 12 14  1  0  0  0  0
 12 13  1  0  0  0  0
 12 25  1  0  0  0  0
 13 14  1  0  0  0  0
 13 26  1  0  0  0  0
 13 27  1  0  0  0  0
 14 28  1  0  0  0  0
 14 29  1  0  0  0  0
 15 17  1  0  0  0  0
 15 16  1  0  0  0  0
 15 30  1  0  0  0  0
 16 17  1  0  0  0  0
 16 31  1  0  0  0  0
 16 32  1  0  0  0  0
 17 33  1  0  0  0  0
 17 34  1  0  0  0  0
M  END
> <s_m_source_file>
AV-unprocessed.smi

> <i_m_source_file_index>
336

> <i_lp_mmshare_version>
43012

> <i_f3d_flags>
0

> <s_epik_input>
W0NIMl0xW0NIMl1bQ0hdMVtDSF0oW0NIXTJbQ0gyXVtDSDJdMilbTkhdQyg9TylbTkhdYzNbY0hdW2NIXVtjSF1uW2NIXTM=

> <s_epik_cmdline>
J2VwaWtfcHl0aG9uJywgJy1waCcsICc3LjAnLCAnLXRuJywgJzgnLCAnLW1hJywgJzIwMCcsICctbWV0YWxfYmluZGluZycsICctaW1hZScsICc8aW5maWxlLm1hZT4nLCAnLW9tYWUnLCAnPG91dGZpbGUubWFlPic=

> <r_epik_Ionization_Penalty>
0.00498677

> <r_epik_Ionization_Penalty_Charging>
0

> <r_epik_Ionization_Penalty_Neutral>
0.00498677

> <r_epik_State_Penalty>
0.00359262

> <r_epik_Charging_Adjusted_Penalty>
0.00359262

> <i_epik_Tot_Q>
0

> <i_epik_Tot_abs_Q>
0

> <r_epik_Metal_State_Penalty>
-0

> <b_epik_Metal_Only>
0

> <s_lp_Force_Field>
OPLS_2005

> <r_lp_Energy>
27.0567

> <b_lp_Chiralities_Consistent>
1

> <s_lp_Variant>
AV-unprocessed.smi:336-1

> <Gold.Version>
5.8.1

> <Gold.Id.Protein>
6NUR|6NUR_protein|mol2

> <Gold.PLP.Fitness>
44.0264

> <Gold.PLP.PLP>
-35.7869

> <Gold.PLP.part.hbond>
-2.0000

> <Gold.PLP.part.metal>
0.0000

> <Gold.PLP.part.buried>
-3.9758

> <Gold.PLP.part.nonpolar>
-30.0640

> <Gold.PLP.part.repulsive>
0.3257

> <Gold.PLP.ligand.clash>
0.0000

> <Gold.PLP.ligand.torsion>
1.4587

> <Gold.PLP.Chemscore.Hbond>
2.0000

> <Gold.PLP.Chemscore.CHOScore>
0.9974

> <Gold.PLP.Chemscore.Metal>
0.0000

> <Gold.Chemscore.Hbonds>
donor molecule, donor type, donor heavy atom, donor atom, acceptor molecule, acceptor atom, score
      L1  H     3    18       P1  8028  1.00
      L1  H    10    23       P1  8028  1.00
      L1  C     9    22       P1  8029  0.99

> <Gold.PLP.Chemscore.Internal.Correction>
2.1647

> <Gold.Rescore>
     Score         DG    S(hbond)    S(metal)    S(lipo)     H(rot)  DE(clash)    DE(int)     intcor
     16.65     -19.60       1.72        0.00     100.71       1.33       0.52       2.44       ----

> <Gold.Chemscore.Fitness>
16.6487

> <Gold.Chemscore.DG>
-19.6007

> <Gold.Chemscore.ZeroCoef>
-5.4800

> <Gold.Chemscore.Hbond>
1.7157

> <Gold.Chemscore.Metal>
0.0000

> <Gold.Chemscore.Lipo>
100.7104

> <Gold.Chemscore.Internal_Hbond>
0.0000

> <Gold.Chemscore.DEClash>
0.5161

> <Gold.Chemscore.DEInternal>
2.4358

> <Gold.Chemscore.Rot>
1.3253

> <Gold.Chemscore.Internal.Correction>
   9.000000E+99

> <Gold.Chemscore.Hbonds>
donor molecule, donor type, donor heavy atom, donor atom, acceptor molecule, acceptor atom, score
      L1  H     3    18       P1  8028  0.97
      L1  H    10    23       P1  8028  0.92

> <Gold.Chemscore.Hbond.Weighted>
-5.7304

> <Gold.Chemscore.Metal.Weighted>
-0.0000

> <Gold.Chemscore.Lipo.Weighted>
-11.7831

> <Gold.Chemscore.Internal_Hbond.Weighted>
0.0000

> <Gold.Chemscore.DEClash.Weighted>
0.5161

> <Gold.Chemscore.DEInternal.Weighted>
2.4358

> <Gold.Chemscore.Rot.Weighted>
3.3928

> <Gold.Chemscore.Internal.Correction.Weighted>
   9.000000E+99

> <Gold.Protein.RotatedTorsions>
[ 6907 6896 6895 6894 ] final  169.45 input  -60.11 | X-H torsion
[ 7974 7965 7964 7962 ] final  104.43 input  175.53 | X-H torsion
[ 8008 7997 7996 7995 ] final   56.44 input   59.86 | X-H torsion
[ 10167 10162 10161 10158 ] final   37.49 input  -65.29 | X-H torsion
[ 10718 10713 10712 10709 ] final  160.42 input   66.30 | X-H torsion
[ 10763 10752 10751 10750 ] final -107.24 input  -60.55 | X-H torsion
[ 11005 11000 10999 10996 ] final   28.98 input  -57.11 | X-H torsion

> <Gold.Protein.ActiveResidues>
 VAL166  LYS551  ARG553  GLY616  TRP617  ASP618  TYR619  PRO620  LYS621  CYS622 
 ASP623  PHE694  ASN695  SER759  ASP760  ASP761  ALA762  ILE779  LEU786  VAL792 
 PHE793  MET794  SER795  GLU796  ALA797  LYS798  CYS799  TRP800  GLU811  SER814 

> <Gold.Protein.RotatedAtoms>
  151.8316  133.3409  159.3615 H   0  0  0  0  0  0  0  0  0  0  0  0  # atno 6907 bound_to 6896
  150.7262  134.5477  159.5788 H   0  0  0  0  0  0  0  0  0  0  0  0  # atno 6908 bound_to 6896
  152.2931  134.7699  160.0425 H   0  0  0  0  0  0  0  0  0  0  0  0  # atno 6909 bound_to 6896
  145.3329  139.2482  143.3651 H   0  0  0  0  0  0  0  0  0  0  0  0  # atno 7974 bound_to 7965
  155.5175  140.3479  155.4400 H   0  0  0  0  0  0  0  0  0  0  0  0  # atno 8008 bound_to 7997
  156.0807  140.1386  156.9742 H   0  0  0  0  0  0  0  0  0  0  0  0  # atno 8009 bound_to 7997
  154.4578  140.0946  156.6784 H   0  0  0  0  0  0  0  0  0  0  0  0  # atno 8010 bound_to 7997
  140.4028  144.1700  150.6134 H   0  0  0  0  0  0  0  0  0  0  0  0  # atno 10167 bound_to 10162
  157.1506  131.0563  151.2282 H   0  0  0  0  0  0  0  0  0  0  0  0  # atno 10718 bound_to 10713
  154.8063  135.4682  154.0400 H   0  0  0  0  0  0  0  0  0  0  0  0  # atno 10763 bound_to 10752
  153.1867  135.6849  153.8413 H   0  0  0  0  0  0  0  0  0  0  0  0  # atno 10764 bound_to 10752
  153.7945  135.3238  155.3360 H   0  0  0  0  0  0  0  0  0  0  0  0  # atno 10765 bound_to 10752
  140.3098  134.2662  155.7736 H   0  0  0  0  0  0  0  0  0  0  0  0  # atno 11005 bound_to 11000
  146.3038  140.3911  142.8694 LP  0  0  0  0  0  0  0  0  0  0  0  0  # atno 17320 bound_to 7965
  144.8850  140.7450  143.5963 LP  0  0  0  0  0  0  0  0  0  0  0  0  # atno 17321 bound_to 7965
  140.4722  143.2409  151.9073 LP  0  0  0  0  0  0  0  0  0  0  0  0  # atno 17342 bound_to 10162
  139.4784  144.5358  151.8601 LP  0  0  0  0  0  0  0  0  0  0  0  0  # atno 17343 bound_to 10162
  157.4223  130.7444  149.6923 LP  0  0  0  0  0  0  0  0  0  0  0  0  # atno 17370 bound_to 10713
  155.9771  130.4067  150.3734 LP  0  0  0  0  0  0  0  0  0  0  0  0  # atno 17371 bound_to 10713
  141.2110  133.7701  156.9891 LP  0  0  0  0  0  0  0  0  0  0  0  0  # atno 17394 bound_to 11000
  140.1035  134.9521  157.1958 LP  0  0  0  0  0  0  0  0  0  0  0  0  # atno 17395 bound_to 11000

$$$$
