AV-unprocessed.smi:1141|AV-procd|sdf|4872|dock5
  -GOLD-   22720 3443D 1   1.00000     0.00000
 Structure written by MMmdl.
 45 46  0  0  0  0  0  0  0  0  1 V2000
  152.1736  144.7596  159.3682 C   0  0  0  0  0  0  0  0  0  0  0  0
  152.9680  143.5959  159.2237 O   0  0  0  0  0  0  0  0  0  0  0  0
  153.0481  142.8421  160.4240 C   0  0  0  0  0  0  0  0  0  0  0  0
  153.5952  141.4489  160.1133 C   0  0  0  0  0  0  0  0  0  0  0  0
  154.6828  141.1096  160.5780 O   0  0  0  0  0  0  0  0  0  0  0  0
  152.8420  140.6883  159.2983 N   0  0  0  0  0  0  0  0  0  0  0  0
  153.1095  139.3774  158.8111 C   0  0  0  0  0  0  0  0  0  0  0  0
  154.2101  138.6102  159.2623 C   0  0  0  0  0  0  0  0  0  0  0  0
  154.3851  137.3038  158.7721 C   0  0  0  0  0  0  0  0  0  0  0  0
  153.4498  136.7953  157.8527 C   0  0  0  0  0  0  0  0  0  0  0  0
  153.6218  135.5134  157.3721 O   0  0  0  0  0  0  0  0  0  0  0  0
  154.5226  134.6511  158.0590 C   0  0  0  0  0  0  0  0  0  0  0  0
  152.3857  137.5166  157.4268 N   0  0  0  0  0  0  0  0  0  0  0  0
  152.2090  138.7767  157.8915 C   0  0  0  0  0  0  0  0  0  0  0  0
  151.0952  139.4910  157.4071 N   0  0  0  0  0  0  0  0  0  0  0  0
  151.4493  140.6465  156.5818 C   0  0  0  0  0  0  0  0  0  0  0  0
  150.2085  141.5148  156.2995 C   0  0  0  0  0  0  0  0  0  0  0  0
  149.1592  140.6719  155.7113 N   0  0  0  0  0  0  0  0  0  0  0  0
  148.7374  140.8078  154.4315 C   0  0  0  0  0  0  0  0  0  0  0  0
  147.6987  139.8298  153.8780 C   0  0  0  0  0  0  0  0  0  0  0  0
  149.1577  141.6901  153.6830 O   0  0  0  0  0  0  0  0  0  0  0  0
  148.7504  139.6070  156.6379 C   0  0  0  0  0  0  0  0  0  0  0  0
  149.9630  138.7002  156.9193 C   0  0  0  0  0  0  0  0  0  0  0  0
  152.1413  145.3005  158.4225 H   0  0  0  0  0  0  0  0  0  0  0  0
  152.5877  145.4278  160.1245 H   0  0  0  0  0  0  0  0  0  0  0  0
  151.1500  144.5060  159.6471 H   0  0  0  0  0  0  0  0  0  0  0  0
  153.7109  143.3316  161.1394 H   0  0  0  0  0  0  0  0  0  0  0  0
  152.0619  142.7562  160.8842 H   0  0  0  0  0  0  0  0  0  0  0  0
  152.0202  141.1336  158.9153 H   0  0  0  0  0  0  0  0  0  0  0  0
  154.9104  138.9924  159.9888 H   0  0  0  0  0  0  0  0  0  0  0  0
  155.2178  136.7004  159.1021 H   0  0  0  0  0  0  0  0  0  0  0  0
  154.5461  133.6823  157.5602 H   0  0  0  0  0  0  0  0  0  0  0  0
  154.2062  134.4848  159.0898 H   0  0  0  0  0  0  0  0  0  0  0  0
  155.5381  135.0497  158.0561 H   0  0  0  0  0  0  0  0  0  0  0  0
  152.2158  141.2502  157.0675 H   0  0  0  0  0  0  0  0  0  0  0  0
  151.8768  140.2917  155.6428 H   0  0  0  0  0  0  0  0  0  0  0  0
  149.8388  141.9526  157.2280 H   0  0  0  0  0  0  0  0  0  0  0  0
  150.4857  142.3556  155.6624 H   0  0  0  0  0  0  0  0  0  0  0  0
  148.0703  138.8056  153.9215 H   0  0  0  0  0  0  0  0  0  0  0  0
  147.4740  140.0574  152.8353 H   0  0  0  0  0  0  0  0  0  0  0  0
  146.7671  139.8951  154.4407 H   0  0  0  0  0  0  0  0  0  0  0  0
  148.4024  140.0604  157.5674 H   0  0  0  0  0  0  0  0  0  0  0  0
  147.9179  139.0050  156.2773 H   0  0  0  0  0  0  0  0  0  0  0  0
  150.2474  138.1742  156.0066 H   0  0  0  0  0  0  0  0  0  0  0  0
  149.6982  137.9445  157.6597 H   0  0  0  0  0  0  0  0  0  0  0  0
  1  2  1  0  0  0  0
  1 24  1  0  0  0  0
  1 25  1  0  0  0  0
  1 26  1  0  0  0  0
  2  3  1  0  0  0  0
  3  4  1  0  0  0  0
  3 27  1  0  0  0  0
  3 28  1  0  0  0  0
  4  5  2  0  0  0  0
  4  6  1  0  0  0  0
  6  7  1  0  0  0  0
  6 29  1  0  0  0  0
  7 14  1  0  0  0  0
  7  8  2  0  0  0  0
  8  9  1  0  0  0  0
  8 30  1  0  0  0  0
  9 10  2  0  0  0  0
  9 31  1  0  0  0  0
 10 11  1  0  0  0  0
 10 13  1  0  0  0  0
 11 12  1  0  0  0  0
 12 32  1  0  0  0  0
 12 33  1  0  0  0  0
 12 34  1  0  0  0  0
 13 14  2  0  0  0  0
 14 15  1  0  0  0  0
 15 23  1  0  0  0  0
 15 16  1  0  0  0  0
 16 17  1  0  0  0  0
 16 35  1  0  0  0  0
 16 36  1  0  0  0  0
 17 18  1  0  0  0  0
 17 37  1  0  0  0  0
 17 38  1  0  0  0  0
 18 19  1  0  0  0  0
 18 22  1  0  0  0  0
 19 20  1  0  0  0  0
 19 21  2  0  0  0  0
 20 39  1  0  0  0  0
 20 40  1  0  0  0  0
 20 41  1  0  0  0  0
 22 23  1  0  0  0  0
 22 42  1  0  0  0  0
 22 43  1  0  0  0  0
 23 44  1  0  0  0  0
 23 45  1  0  0  0  0
M  END
> <s_m_source_file>
AV-unprocessed.smi

> <i_m_source_file_index>
1141

> <i_lp_mmshare_version>
43012

> <i_f3d_flags>
0

> <s_epik_input>
W0NIM11PW0NIMl1DKD1PKVtOSF1jMVtjSF1bY0hdYyhPW0NIM10pbmMxTjJbQ0gyXVtDSDJdTihDKD1PKVtDSDNdKVtDSDJdW0NIMl0y

> <s_epik_cmdline>
J2VwaWtfcHl0aG9uJywgJy1waCcsICc3LjAnLCAnLXRuJywgJzgnLCAnLW1hJywgJzIwMCcsICctbWV0YWxfYmluZGluZycsICctaW1hZScsICc8aW5maWxlLm1hZT4nLCAnLW9tYWUnLCAnPG91dGZpbGUubWFlPic=

> <r_lp_tautomer_probability>
1

> <r_epik_Ionization_Penalty>
0.000141552

> <r_epik_Ionization_Penalty_Charging>
0

> <r_epik_Ionization_Penalty_Neutral>
0.000141552

> <r_epik_State_Penalty>
-0

> <r_epik_Charging_Adjusted_Penalty>
0

> <i_epik_Tot_Q>
0

> <i_epik_Tot_abs_Q>
0

> <r_epik_Metal_State_Penalty>
-0

> <b_epik_Metal_Only>
0

> <s_lp_Force_Field>
OPLS_2005

> <r_lp_Energy>
39.8062

> <b_lp_Chiralities_Consistent>
1

> <s_lp_Variant>
AV-unprocessed.smi:1141-1

> <Gold.Version>
5.8.1

> <Gold.Id.Protein>
6NUR|6NUR_protein|mol2

> <Gold.PLP.Fitness>
37.1898

> <Gold.PLP.PLP>
-33.0241

> <Gold.PLP.part.hbond>
-3.1044

> <Gold.PLP.part.metal>
0.0000

> <Gold.PLP.part.buried>
-5.1400

> <Gold.PLP.part.nonpolar>
-25.2082

> <Gold.PLP.part.repulsive>
1.0205

> <Gold.PLP.ligand.clash>
0.0000

> <Gold.PLP.ligand.torsion>
0.6473

> <Gold.PLP.Chemscore.Hbond>
1.6880

> <Gold.PLP.Chemscore.CHOScore>
0.0000

> <Gold.PLP.Chemscore.Metal>
0.0000

> <Gold.Chemscore.Hbonds>
donor molecule, donor type, donor heavy atom, donor atom, acceptor molecule, acceptor atom, score
      P1  H  8011  8017       L1    21  0.67
      P1  H 10752 10763       L1    11  1.00

> <Gold.PLP.Chemscore.Internal.Correction>
0.3964

> <Gold.Rescore>
     Score         DG    S(hbond)    S(metal)    S(lipo)     H(rot)  DE(clash)    DE(int)     intcor
     11.61     -13.95       1.70        0.00      62.27       1.75       0.28       2.06       ----

> <Gold.Chemscore.Fitness>
11.6132

> <Gold.Chemscore.DG>
-13.9536

> <Gold.Chemscore.ZeroCoef>
-5.4800

> <Gold.Chemscore.Hbond>
1.6997

> <Gold.Chemscore.Metal>
0.0000

> <Gold.Chemscore.Lipo>
62.2704

> <Gold.Chemscore.Internal_Hbond>
0.0000

> <Gold.Chemscore.DEClash>
0.2782

> <Gold.Chemscore.DEInternal>
2.0623

> <Gold.Chemscore.Rot>
1.7535

> <Gold.Chemscore.Internal.Correction>
   9.000000E+99

> <Gold.Chemscore.Hbonds>
donor molecule, donor type, donor heavy atom, donor atom, acceptor molecule, acceptor atom, score
      P1  H  8011  8017       L1    21  0.68
      P1  H 10752 10763       L1    11  0.79

> <Gold.Chemscore.Hbond.Weighted>
-5.6769

> <Gold.Chemscore.Metal.Weighted>
-0.0000

> <Gold.Chemscore.Lipo.Weighted>
-7.2856

> <Gold.Chemscore.Internal_Hbond.Weighted>
0.0000

> <Gold.Chemscore.DEClash.Weighted>
0.2782

> <Gold.Chemscore.DEInternal.Weighted>
2.0623

> <Gold.Chemscore.Rot.Weighted>
4.4890

> <Gold.Chemscore.Internal.Correction.Weighted>
   9.000000E+99

> <Gold.Protein.RotatedTorsions>
[ 6907 6896 6895 6894 ] final   83.28 input  -60.11 | X-H torsion
[ 7974 7965 7964 7962 ] final  -61.79 input  175.53 | X-H torsion
[ 8008 7997 7996 7995 ] final  177.35 input   59.86 | X-H torsion
[ 10167 10162 10161 10158 ] final   27.90 input  -65.29 | X-H torsion
[ 10718 10713 10712 10709 ] final  -14.73 input   66.30 | X-H torsion
[ 10763 10752 10751 10750 ] final  125.17 input  -60.55 | X-H torsion
[ 11005 11000 10999 10996 ] final   84.95 input  -57.11 | X-H torsion

> <Gold.Protein.ActiveResidues>
 VAL166  LYS551  ARG553  GLY616  TRP617  ASP618  TYR619  PRO620  LYS621  CYS622 
 ASP623  PHE694  ASN695  SER759  ASP760  ASP761  ALA762  ILE779  LEU786  VAL792 
 PHE793  MET794  SER795  GLU796  ALA797  LYS798  CYS799  TRP800  GLU811  SER814 

> <Gold.Protein.RotatedAtoms>
  152.5323  134.2919  159.9045 H   0  0  0  0  0  0  0  0  0  0  0  0  # atno 6907 bound_to 6896
  151.2871  133.4176  159.2638 H   0  0  0  0  0  0  0  0  0  0  0  0  # atno 6908 bound_to 6896
  151.0233  134.9501  159.8128 H   0  0  0  0  0  0  0  0  0  0  0  0  # atno 6909 bound_to 6896
  145.7991  140.8665  143.0240 H   0  0  0  0  0  0  0  0  0  0  0  0  # atno 7974 bound_to 7965
  156.0666  140.1360  156.9878 H   0  0  0  0  0  0  0  0  0  0  0  0  # atno 8008 bound_to 7997
  154.4509  140.0980  156.6668 H   0  0  0  0  0  0  0  0  0  0  0  0  # atno 8009 bound_to 7997
  155.5294  140.3458  155.4425 H   0  0  0  0  0  0  0  0  0  0  0  0  # atno 8010 bound_to 7997
  140.4899  144.0483  150.6293 H   0  0  0  0  0  0  0  0  0  0  0  0  # atno 10167 bound_to 10162
  156.6119  130.4852  149.6198 H   0  0  0  0  0  0  0  0  0  0  0  0  # atno 10718 bound_to 10713
  153.6730  135.3327  155.3158 H   0  0  0  0  0  0  0  0  0  0  0  0  # atno 10763 bound_to 10752
  154.8486  135.4391  154.1685 H   0  0  0  0  0  0  0  0  0  0  0  0  # atno 10764 bound_to 10752
  153.2682  135.6998  153.7584 H   0  0  0  0  0  0  0  0  0  0  0  0  # atno 10765 bound_to 10752
  139.8985  134.8252  156.2515 H   0  0  0  0  0  0  0  0  0  0  0  0  # atno 11005 bound_to 11000
  144.6771  140.0234  143.7483 LP  0  0  0  0  0  0  0  0  0  0  0  0  # atno 17320 bound_to 7965
  145.9896  139.3004  143.0993 LP  0  0  0  0  0  0  0  0  0  0  0  0  # atno 17321 bound_to 7965
  140.3749  143.2834  152.0236 LP  0  0  0  0  0  0  0  0  0  0  0  0  # atno 17342 bound_to 10162
  139.4849  144.6200  151.7273 LP  0  0  0  0  0  0  0  0  0  0  0  0  # atno 17343 bound_to 10162
  156.2383  130.6836  151.1531 LP  0  0  0  0  0  0  0  0  0  0  0  0  # atno 17370 bound_to 10713
  157.7252  131.0655  150.5963 LP  0  0  0  0  0  0  0  0  0  0  0  0  # atno 17371 bound_to 10713
  141.0221  133.7035  156.1285 LP  0  0  0  0  0  0  0  0  0  0  0  0  # atno 17394 bound_to 11000
  140.7219  134.4349  157.5574 LP  0  0  0  0  0  0  0  0  0  0  0  0  # atno 17395 bound_to 11000

$$$$
