AV-unprocessed.smi:1382|AV-procd|sdf|5620|dock9
  -GOLD-   22720 5233D 1   1.00000     0.00000
 Structure written by MMmdl.
 44 45  0  0  0  0  0  0  0  0  1 V2000
  147.1218  140.1501  153.3143 C   0  0  0  0  0  0  0  0  0  0  0  0
  148.1746  141.0925  153.9124 C   0  0  0  0  0  0  0  0  0  0  0  0
  148.7743  140.5886  155.2343 C   0  0  0  0  0  0  0  0  0  0  0  0
  149.8410  139.4934  155.0483 C   0  0  0  0  0  0  0  0  0  0  0  0
  150.1080  138.7682  156.2747 N   0  0  0  0  0  0  0  0  0  0  0  0
  149.2176  137.8498  156.8392 C   0  0  0  0  0  0  0  0  0  0  0  0
  148.0209  137.6123  156.1783 N   0  0  0  0  0  0  0  0  0  0  0  0
  149.5050  137.1928  158.0026 C   0  0  0  0  0  0  0  0  0  0  0  0
  148.5882  136.3026  158.5909 N   0  0  0  0  0  0  0  0  0  0  0  0
  148.2295  135.1089  157.8197 C   0  0  0  0  0  0  0  0  0  0  0  0
  148.0692  136.4853  159.8324 C   0  0  0  0  0  0  0  0  0  0  0  0
  148.4307  137.4179  160.5526 O   0  0  0  0  0  0  0  0  0  0  0  0
  146.9824  135.5245  160.3635 C   0  0  2  0  0  0  0  0  0  0  0  0
  146.4758  135.8656  161.7786 C   0  0  0  0  0  0  0  0  0  0  0  0
  147.1090  134.8021  162.6514 C   0  0  0  0  0  0  0  0  0  0  0  0
  147.1743  133.6230  161.6925 C   0  0  0  0  0  0  0  0  0  0  0  0
  147.5572  134.2220  160.4643 O   0  0  0  0  0  0  0  0  0  0  0  0
  150.7521  137.4705  158.7287 C   0  0  0  0  0  0  0  0  0  0  0  0
  151.0905  136.9633  159.7971 O   0  0  0  0  0  0  0  0  0  0  0  0
  151.5849  138.4088  158.1245 N   0  0  0  0  0  0  0  0  0  0  0  0
  151.3219  139.0778  156.9345 C   0  0  0  0  0  0  0  0  0  0  0  0
  152.1337  139.9030  156.5146 O   0  0  0  0  0  0  0  0  0  0  0  0
  152.4491  138.6304  158.5973 H   0  0  0  0  0  0  0  0  0  0  0  0
  146.6853  140.5823  152.4135 H   0  0  0  0  0  0  0  0  0  0  0  0
  146.3110  139.9668  154.0198 H   0  0  0  0  0  0  0  0  0  0  0  0
  147.5534  139.1878  153.0392 H   0  0  0  0  0  0  0  0  0  0  0  0
  148.9701  141.2661  153.1870 H   0  0  0  0  0  0  0  0  0  0  0  0
  147.7089  142.0629  154.0878 H   0  0  0  0  0  0  0  0  0  0  0  0
  149.2223  141.4358  155.7548 H   0  0  0  0  0  0  0  0  0  0  0  0
  147.9761  140.2251  155.8827 H   0  0  0  0  0  0  0  0  0  0  0  0
  149.5421  138.7545  154.3063 H   0  0  0  0  0  0  0  0  0  0  0  0
  150.7843  139.8975  154.6771 H   0  0  0  0  0  0  0  0  0  0  0  0
  147.7877  138.0819  155.3150 H   0  0  0  0  0  0  0  0  0  0  0  0
  147.3459  136.9437  156.5210 H   0  0  0  0  0  0  0  0  0  0  0  0
  148.5306  134.2025  158.3466 H   0  0  0  0  0  0  0  0  0  0  0  0
  148.7121  135.0994  156.8414 H   0  0  0  0  0  0  0  0  0  0  0  0
  147.1527  135.0675  157.6507 H   0  0  0  0  0  0  0  0  0  0  0  0
  146.1194  135.4879  159.6987 H   0  0  0  0  0  0  0  0  0  0  0  0
  146.7168  136.8749  162.1151 H   0  0  0  0  0  0  0  0  0  0  0  0
  145.3897  135.7688  161.8099 H   0  0  0  0  0  0  0  0  0  0  0  0
  148.1153  135.1043  162.9441 H   0  0  0  0  0  0  0  0  0  0  0  0
  146.5361  134.5899  163.5541 H   0  0  0  0  0  0  0  0  0  0  0  0
  147.8867  132.8602  162.0070 H   0  0  0  0  0  0  0  0  0  0  0  0
  146.1940  133.1571  161.5806 H   0  0  0  0  0  0  0  0  0  0  0  0
  1  2  1  0  0  0  0
  1 24  1  0  0  0  0
  1 25  1  0  0  0  0
  1 26  1  0  0  0  0
  2  3  1  0  0  0  0
  2 27  1  0  0  0  0
  2 28  1  0  0  0  0
  3  4  1  0  0  0  0
  3 29  1  0  0  0  0
  3 30  1  0  0  0  0
  4  5  1  0  0  0  0
  4 31  1  0  0  0  0
  4 32  1  0  0  0  0
  5 21  1  0  0  0  0
  5  6  1  0  0  0  0
  6  7  1  0  0  0  0
  6  8  2  0  0  0  0
  7 33  1  0  0  0  0
  7 34  1  0  0  0  0
  8  9  1  0  0  0  0
  8 18  1  0  0  0  0
  9 10  1  0  0  0  0
  9 11  1  0  0  0  0
 10 35  1  0  0  0  0
 10 36  1  0  0  0  0
 10 37  1  0  0  0  0
 11 12  2  0  0  0  0
 11 13  1  0  0  0  0
 13 17  1  0  0  0  0
 13 14  1  0  0  0  0
 13 38  1  0  0  0  0
 14 15  1  0  0  0  0
 14 39  1  0  0  0  0
 14 40  1  0  0  0  0
 15 16  1  0  0  0  0
 15 41  1  0  0  0  0
 15 42  1  0  0  0  0
 16 17  1  0  0  0  0
 16 43  1  0  0  0  0
 16 44  1  0  0  0  0
 18 19  2  0  0  0  0
 18 20  1  0  0  0  0
 20 23  1  0  0  0  0
 20 21  1  0  0  0  0
 21 22  2  0  0  0  0
M  END
> <s_m_source_file>
AV-unprocessed.smi

> <i_m_source_file_index>
1382

> <i_lp_mmshare_version>
43012

> <i_f3d_flags>
0

> <s_epik_input>
W0NIM11bQ0gyXVtDSDJdW0NIMl1uMWMoW05IMl0pYyhjKD1PKVtuSF1jMT1PKU4oW0NIM10pQyg9TylbQ0BASF0yW0NIMl1bQ0gyXVtDSDJdTzI=

> <s_epik_cmdline>
J2VwaWtfcHl0aG9uJywgJy1waCcsICc3LjAnLCAnLXRuJywgJzgnLCAnLW1hJywgJzIwMCcsICctbWV0YWxfYmluZGluZycsICctaW1hZScsICc8aW5maWxlLm1hZT4nLCAnLW9tYWUnLCAnPG91dGZpbGUubWFlPic=

> <r_lp_tautomer_probability>
1

> <r_epik_Ionization_Penalty>
1.19634e-05

> <r_epik_Ionization_Penalty_Charging>
6.01811e-06

> <r_epik_Ionization_Penalty_Neutral>
5.94533e-06

> <r_epik_State_Penalty>
-0

> <r_epik_Charging_Adjusted_Penalty>
6.01811e-06

> <i_epik_Tot_Q>
0

> <i_epik_Tot_abs_Q>
0

> <r_epik_Metal_State_Penalty>
-0

> <b_epik_Metal_Only>
0

> <s_epik_Chemistry_Notes>
This compound has an imine and may undergo hydrolysis.

> <s_lp_Force_Field>
OPLS_2005

> <r_lp_Energy>
42.2822

> <b_lp_Chiralities_Consistent>
1

> <s_lp_Variant>
AV-unprocessed.smi:1382-1

> <Gold.Version>
5.8.1

> <Gold.Id.Protein>
6NUR|6NUR_protein|mol2

> <Gold.PLP.Fitness>
37.9933

> <Gold.PLP.PLP>
-30.0968

> <Gold.PLP.part.hbond>
-3.3683

> <Gold.PLP.part.metal>
0.0000

> <Gold.PLP.part.buried>
-1.4604

> <Gold.PLP.part.nonpolar>
-24.9479

> <Gold.PLP.part.repulsive>
0.0680

> <Gold.PLP.ligand.clash>
0.0000

> <Gold.PLP.ligand.torsion>
1.4548

> <Gold.PLP.Chemscore.Hbond>
2.8416

> <Gold.PLP.Chemscore.CHOScore>
0.0000

> <Gold.PLP.Chemscore.Metal>
0.0000

> <Gold.Chemscore.Hbonds>
donor molecule, donor type, donor heavy atom, donor atom, acceptor molecule, acceptor atom, score
      P1  H  6896  6909       L1    19  1.00
      P1  H  6931  6943       L1    12  0.66
      P1  H  6934  6947       L1    12  0.47
      P1  H  7997  8008       L1    22  0.55

> <Gold.PLP.Chemscore.Internal.Correction>
2.2813

> <Gold.Rescore>
     Score         DG    S(hbond)    S(metal)    S(lipo)     H(rot)  DE(clash)    DE(int)     intcor
     15.23     -18.12       3.15        0.00      55.32       1.69       0.18       2.72       ----

> <Gold.Chemscore.Fitness>
15.2272

> <Gold.Chemscore.DG>
-18.1233

> <Gold.Chemscore.ZeroCoef>
-5.4800

> <Gold.Chemscore.Hbond>
3.1463

> <Gold.Chemscore.Metal>
0.0000

> <Gold.Chemscore.Lipo>
55.3158

> <Gold.Chemscore.Internal_Hbond>
0.0000

> <Gold.Chemscore.DEClash>
0.1796

> <Gold.Chemscore.DEInternal>
2.7164

> <Gold.Chemscore.Rot>
1.6942

> <Gold.Chemscore.Internal.Correction>
   9.000000E+99

> <Gold.Chemscore.Hbonds>
donor molecule, donor type, donor heavy atom, donor atom, acceptor molecule, acceptor atom, score
      P1  H  6896  6909       L1    19  0.97
      P1  H  6931  6943       L1    12  0.64
      P1  H  6934  6947       L1    12  0.44
      P1  H  7997  8008       L1    22  0.54

> <Gold.Chemscore.Hbond.Weighted>
-10.5086

> <Gold.Chemscore.Metal.Weighted>
-0.0000

> <Gold.Chemscore.Lipo.Weighted>
-6.4719

> <Gold.Chemscore.Internal_Hbond.Weighted>
0.0000

> <Gold.Chemscore.DEClash.Weighted>
0.1796

> <Gold.Chemscore.DEInternal.Weighted>
2.7164

> <Gold.Chemscore.Rot.Weighted>
4.3372

> <Gold.Chemscore.Internal.Correction.Weighted>
   9.000000E+99

> <Gold.Protein.RotatedTorsions>
[ 6907 6896 6895 6894 ] final   99.70 input  -60.11 | X-H torsion
[ 7974 7965 7964 7962 ] final  138.76 input  175.53 | X-H torsion
[ 8008 7997 7996 7995 ] final  -46.99 input   59.86 | X-H torsion
[ 10167 10162 10161 10158 ] final  -84.85 input  -65.29 | X-H torsion
[ 10718 10713 10712 10709 ] final -157.31 input   66.30 | X-H torsion
[ 10763 10752 10751 10750 ] final -149.49 input  -60.55 | X-H torsion
[ 11005 11000 10999 10996 ] final  -80.11 input  -57.11 | X-H torsion

> <Gold.Protein.ActiveResidues>
 VAL166  LYS551  ARG553  GLY616  TRP617  ASP618  TYR619  PRO620  LYS621  CYS622 
 ASP623  PHE694  ASN695  SER759  ASP760  ASP761  ALA762  ILE779  LEU786  VAL792 
 PHE793  MET794  SER795  GLU796  ALA797  LYS798  CYS799  TRP800  GLU811  SER814 

> <Gold.Protein.RotatedAtoms>
  152.5387  134.0388  159.8057 H   0  0  0  0  0  0  0  0  0  0  0  0  # atno 6907 bound_to 6896
  151.0547  133.5586  159.2646 H   0  0  0  0  0  0  0  0  0  0  0  0  # atno 6908 bound_to 6896
  151.2508  135.0629  159.9115 H   0  0  0  0  0  0  0  0  0  0  0  0  # atno 6909 bound_to 6896
  144.9342  139.5010  143.5603 H   0  0  0  0  0  0  0  0  0  0  0  0  # atno 7974 bound_to 7965
  154.4012  140.1357  156.4102 H   0  0  0  0  0  0  0  0  0  0  0  0  # atno 8008 bound_to 7997
  155.7740  140.3483  155.5242 H   0  0  0  0  0  0  0  0  0  0  0  0  # atno 8009 bound_to 7997
  155.8739  140.0976  157.1522 H   0  0  0  0  0  0  0  0  0  0  0  0  # atno 8010 bound_to 7997
  140.4094  143.2629  151.9038 H   0  0  0  0  0  0  0  0  0  0  0  0  # atno 10167 bound_to 10162
  156.5385  130.8552  151.2740 H   0  0  0  0  0  0  0  0  0  0  0  0  # atno 10718 bound_to 10713
  154.8174  135.3308  154.7137 H   0  0  0  0  0  0  0  0  0  0  0  0  # atno 10763 bound_to 10752
  153.7775  135.6921  153.4899 H   0  0  0  0  0  0  0  0  0  0  0  0  # atno 10764 bound_to 10752
  153.2002  135.4519  155.0205 H   0  0  0  0  0  0  0  0  0  0  0  0  # atno 10765 bound_to 10752
  141.1668  133.7136  156.8224 H   0  0  0  0  0  0  0  0  0  0  0  0  # atno 11005 bound_to 11000
  146.3259  139.8314  142.8907 LP  0  0  0  0  0  0  0  0  0  0  0  0  # atno 17320 bound_to 7965
  145.3094  141.0216  143.3563 LP  0  0  0  0  0  0  0  0  0  0  0  0  # atno 17321 bound_to 7965
  139.4783  144.5553  151.8323 LP  0  0  0  0  0  0  0  0  0  0  0  0  # atno 17342 bound_to 10162
  140.4655  144.1662  150.5911 LP  0  0  0  0  0  0  0  0  0  0  0  0  # atno 17343 bound_to 10162
  157.7409  130.9860  150.2412 LP  0  0  0  0  0  0  0  0  0  0  0  0  # atno 17370 bound_to 10713
  156.2994  130.3756  149.7765 LP  0  0  0  0  0  0  0  0  0  0  0  0  # atno 17371 bound_to 10713
  140.2109  134.8828  157.3274 LP  0  0  0  0  0  0  0  0  0  0  0  0  # atno 17394 bound_to 11000
  140.2087  134.4165  155.7624 LP  0  0  0  0  0  0  0  0  0  0  0  0  # atno 17395 bound_to 11000

$$$$
