#       Name:                AV-unprocessed.smi:663
#       Creating user name   scv26
#       Creation time:       Fri Mar 27 00:19:44 2020


#       File generated by GOLD software.
#

@<TRIPOS>MOLECULE
AV-unprocessed.smi:663
    36    37     1
SMALL
NO_CHARGES


@<TRIPOS>ATOM
      1 ****        -3.6764   0.3496   2.0490 N.am           1 S1                 0.0000
      2 ****        -2.9457   0.3063   0.9321 C.2            1 S1                 0.0000
      3 ****        -2.8901   1.2555   0.1526 O.2            1 S1                 0.0000
      4 ****        -2.1894  -0.9980   0.6429 C.3            1 S1                 0.0000
      5 ****        -0.6509  -0.8437   0.5949 C.3            1 S1                 0.0000
      6 ****        -0.2573   0.0124  -0.5236 N.am           1 S1                 0.0000
      7 ****         0.8424   0.7778  -0.5704 C.2            1 S1                 0.0000
      8 ****         1.6720   0.8332   0.3372 O.2            1 S1                 0.0000
      9 ****         0.9054   1.4632  -1.7232 N.am           1 S1                 0.0000
     10 ****         1.9135   2.3645  -2.1473 C.2            1 S1                 0.0000
     11 ****         1.7695   2.9523  -3.3409 N.2            1 S1                 0.0000
     12 ****         2.8259   3.8069  -3.6313 N.2            1 S1                 0.0000
     13 ****         3.7270   3.8288  -2.6446 C.2            1 S1                 0.0000
     14 ****         3.3755   2.8080  -1.2616 S.3            1 S1                 0.0000
     15 ****         0.0181  -2.2080   0.5528 C.3            1 S1                 0.0000
     16 ****         0.1239  -3.0603   1.7955 C.3            1 S1                 0.0000
     17 ****         1.3659  -2.4460   1.1921 C.3            1 S1                 0.0000
     18 ****        -4.1894   1.1886   2.2790 H              1 S1                 0.0000
     19 ****        -3.7141  -0.4530   2.6605 H              1 S1                 0.0000
     20 ****        -2.4561  -1.7328   1.4042 H              1 S1                 0.0000
     21 ****        -2.5521  -1.4033  -0.3027 H              1 S1                 0.0000
     22 ****        -0.3453  -0.3575   1.5241 H              1 S1                 0.0000
     23 ****        -0.8836   0.0363  -1.3152 H              1 S1                 0.0000
     24 ****         0.1453   1.3256  -2.3730 H              1 S1                 0.0000
     25 ****         4.6051   4.4510  -2.7322 H              1 S1                 0.0000
     26 ****        -0.1703  -2.7536  -0.3702 H              1 S1                 0.0000
     27 ****        -0.2382  -2.6400   2.7318 H              1 S1                 0.0000
     28 ****        -0.0135  -4.1336   1.6817 H              1 S1                 0.0000
     29 ****         2.0560  -3.1083   0.6736 H              1 S1                 0.0000
     30 ****         1.8279  -1.6216   1.7315 H              1 S1                 0.0000
     31 ****        -3.4019   2.0925   0.3466 LP             1 S1                 0.0000
     32 ****        -2.3332   1.1905  -0.6754 LP             1 S1                 0.0000
     33 ****         1.5437   0.2882   1.1658 LP             1 S1                 0.0000
     34 ****         2.4742   1.4232   0.2460 LP             1 S1                 0.0000
     35 ****         0.9934   2.7951  -3.9516 LP             1 S1                 0.0000
     36 ****         2.9024   4.3395  -4.4741 LP             1 S1                 0.0000
@<TRIPOS>BOND
    1    1    2 am    
    2    1   18 1     
    3    1   19 1     
    4    2    3 2     
    5    2    4 1     
    6    4    5 1     
    7    4   20 1     
    8    4   21 1     
    9    5    6 1     
   10    5   15 1     
   11    5   22 1     
   12    6    7 am    
   13    6   23 1     
   14    7    8 2     
   15    7    9 am    
   16    9   10 1     
   17    9   24 1     
   18   10   14 1     
   19   10   11 2     
   20   11   12 1     
   21   12   13 2     
   22   13   14 1     
   23   13   25 1     
   24   15   17 1     
   25   15   16 1     
   26   15   26 1     
   27   16   17 1     
   28   16   27 1     
   29   16   28 1     
   30   17   29 1     
   31   17   30 1     
   32    3   31 1     
   33    3   32 1     
   34    8   33 1     
   35    8   34 1     
   36   11   35 1     
   37   12   36 1     
@<TRIPOS>SUBSTRUCTURE
      1 S1             1
@<TRIPOS>SET
LONE_PAIRS      STATIC     ATOMS    <user>   **** ""
6 31 32 33 34 35 36
DONOR_HYDROGENS      STATIC     ATOMS    <user>   **** ""
4 18 19 23 24
ATOM$BLUE        STATIC     ATOMS    COLORGROUP SYSTEM
6 31 32 33 34 35 36
ATOM$RED        STATIC     ATOMS    COLORGROUP SYSTEM
4 18 19 23 24
