AV-unprocessed.smi:1166|AV-procd|sdf|4935|dock1
  -GOLD-   22720 3523D 1   1.00000     0.00000
 Structure written by MMmdl.
 47 48  0  0  0  0  0  0  0  0  2 V2000
  151.3698  144.9657  158.1477 C   0  0  0  0  0  0  0  0  0  0  0  0
  151.9640  143.6770  158.4786 N   0  0  0  0  0  0  0  0  0  0  0  0
  153.0876  143.6008  159.4057 C   0  0  0  0  0  0  0  0  0  0  0  0
  151.3996  142.4908  157.9618 C   0  0  0  0  0  0  0  0  0  0  0  0
  151.8489  141.1970  158.3217 C   0  0  0  0  0  0  0  0  0  0  0  0
  151.2374  140.0557  157.7626 C   0  0  0  0  0  0  0  0  0  0  0  0
  150.1735  140.2124  156.8392 C   0  0  0  0  0  0  0  0  0  0  0  0
  149.4794  139.1446  156.2042 N   0  0  0  0  0  0  0  0  0  0  0  0
  149.5690  137.8189  156.4107 C   0  0  0  0  0  0  0  0  0  0  0  0
  150.2832  137.2701  157.2486 O   0  0  0  0  0  0  0  0  0  0  0  0
  148.7656  137.1472  155.5738 N   0  0  0  0  0  0  0  0  0  0  0  0
  148.6267  135.6948  155.5203 C   0  0  1  0  0  0  0  0  0  0  0  0
  147.5919  135.2868  154.4594 C   0  0  0  0  0  0  0  0  0  0  0  0
  147.5042  133.7581  154.3837 C   0  0  0  0  0  0  0  0  0  0  0  0
  148.8820  133.1308  154.1068 C   0  0  0  0  0  0  0  0  0  0  0  0
  149.8960  133.5903  155.0777 N   0  0  0  0  0  0  0  0  0  0  0  0
  150.3702  132.5571  156.3957 S   0  0  0  0  0  0  0  0  0  0  0  0
  151.2005  131.1332  155.5782 C   0  0  0  0  0  0  0  0  0  0  0  0
  151.3752  133.2782  157.1918 O   0  0  0  0  0  0  0  0  0  0  0  0
  149.1450  132.0635  157.0430 O   0  0  0  0  0  0  0  0  0  0  0  0
  149.9963  135.0569  155.2169 C   0  0  0  0  0  0  0  0  0  0  0  0
  149.7636  141.5225  156.5186 C   0  0  0  0  0  0  0  0  0  0  0  0
  150.3769  142.5872  157.0780 N   0  3  0  0  0  0  0  0  0  0  0  0
  151.4254  145.1484  157.0742 H   0  0  0  0  0  0  0  0  0  0  0  0
  151.8872  145.7822  158.6518 H   0  0  0  0  0  0  0  0  0  0  0  0
  150.3236  144.9960  158.4538 H   0  0  0  0  0  0  0  0  0  0  0  0
  152.8089  143.0419  160.2997 H   0  0  0  0  0  0  0  0  0  0  0  0
  153.4116  144.5934  159.7196 H   0  0  0  0  0  0  0  0  0  0  0  0
  153.9388  143.1059  158.9372 H   0  0  0  0  0  0  0  0  0  0  0  0
  152.6583  141.0571  159.0222 H   0  0  0  0  0  0  0  0  0  0  0  0
  151.6071  139.0889  158.0625 H   0  0  0  0  0  0  0  0  0  0  0  0
  148.8385  139.4273  155.4771 H   0  0  0  0  0  0  0  0  0  0  0  0
  148.2107  137.6781  154.9184 H   0  0  0  0  0  0  0  0  0  0  0  0
  148.2883  135.3385  156.4932 H   0  0  0  0  0  0  0  0  0  0  0  0
  146.6126  135.7026  154.6994 H   0  0  0  0  0  0  0  0  0  0  0  0
  147.8740  135.6883  153.4851 H   0  0  0  0  0  0  0  0  0  0  0  0
  147.0955  133.3696  155.3156 H   0  0  0  0  0  0  0  0  0  0  0  0
  146.8039  133.4666  153.6007 H   0  0  0  0  0  0  0  0  0  0  0  0
  148.8124  132.0435  154.1151 H   0  0  0  0  0  0  0  0  0  0  0  0
  149.2140  133.4094  153.1062 H   0  0  0  0  0  0  0  0  0  0  0  0
  151.5429  130.4356  156.3423 H   0  0  0  0  0  0  0  0  0  0  0  0
  152.0600  131.4808  155.0078 H   0  0  0  0  0  0  0  0  0  0  0  0
  150.4996  130.6193  154.9229 H   0  0  0  0  0  0  0  0  0  0  0  0
  150.3952  135.4609  154.2853 H   0  0  0  0  0  0  0  0  0  0  0  0
  150.7162  135.3126  155.9944 H   0  0  0  0  0  0  0  0  0  0  0  0
  148.9637  141.7538  155.8298 H   0  0  0  0  0  0  0  0  0  0  0  0
  150.0515  143.5187  156.8188 H   0  0  0  0  0  0  0  0  0  0  0  0
  1  2  1  0  0  0  0
  1 24  1  0  0  0  0
  1 25  1  0  0  0  0
  1 26  1  0  0  0  0
  2  3  1  0  0  0  0
  2  4  1  0  0  0  0
  3 27  1  0  0  0  0
  3 28  1  0  0  0  0
  3 29  1  0  0  0  0
  4 23  1  0  0  0  0
  4  5  2  0  0  0  0
  5  6  1  0  0  0  0
  5 30  1  0  0  0  0
  6  7  2  0  0  0  0
  6 31  1  0  0  0  0
  7  8  1  0  0  0  0
  7 22  1  0  0  0  0
  8  9  1  0  0  0  0
  8 32  1  0  0  0  0
  9 10  2  0  0  0  0
  9 11  1  0  0  0  0
 11 12  1  0  0  0  0
 11 33  1  0  0  0  0
 12 21  1  0  0  0  0
 12 13  1  0  0  0  0
 12 34  1  0  0  0  0
 13 14  1  0  0  0  0
 13 35  1  0  0  0  0
 13 36  1  0  0  0  0
 14 15  1  0  0  0  0
 14 37  1  0  0  0  0
 14 38  1  0  0  0  0
 15 16  1  0  0  0  0
 15 39  1  0  0  0  0
 15 40  1  0  0  0  0
 16 17  1  0  0  0  0
 16 21  1  0  0  0  0
 17 18  1  0  0  0  0
 17 19  2  0  0  0  0
 17 20  2  0  0  0  0
 18 41  1  0  0  0  0
 18 42  1  0  0  0  0
 18 43  1  0  0  0  0
 21 44  1  0  0  0  0
 21 45  1  0  0  0  0
 22 23  2  0  0  0  0
 22 46  1  0  0  0  0
 23 47  1  0  0  0  0
M  CHG  1  23   1
M  END
> <s_m_source_file>
AV-unprocessed.smi

> <i_m_source_file_index>
1166

> <i_lp_mmshare_version>
43012

> <i_f3d_flags>
0

> <s_epik_input>
W0NIM11OKFtDSDNdKWMxW2NIXVtjSF1jKFtjSF1uMSlbTkhdQyg9TylbTkhdW0NAQEhdMltDSDJdW0NIMl1bQ0gyXU4oW0NIMl0yKVMoPU8pKD1PKVtDSDNd

> <s_epik_cmdline>
J2VwaWtfcHl0aG9uJywgJy1waCcsICc3LjAnLCAnLXRuJywgJzgnLCAnLW1hJywgJzIwMCcsICctbWV0YWxfYmluZGluZycsICctaW1hZScsICc8aW5maWxlLm1hZT4nLCAnLW9tYWUnLCAnPG91dGZpbGUubWFlPic=

> <r_lp_tautomer_probability>
0.999994

> <r_epik_Ionization_Penalty>
0.276583

> <r_epik_Ionization_Penalty_Charging>
0.276565

> <r_epik_Ionization_Penalty_Neutral>
1.87575e-05

> <r_epik_State_Penalty>
0.268949

> <r_epik_Charging_Adjusted_Penalty>
0.545513

> <i_epik_Tot_Q>
1

> <i_epik_Tot_abs_Q>
1

> <r_epik_Metal_State_Penalty>
0.551815

> <b_epik_Metal_Only>
0

> <s_lp_Force_Field>
OPLS_2005

> <r_lp_Energy>
8.45094

> <b_lp_Chiralities_Consistent>
1

> <s_lp_Variant>
AV-unprocessed.smi:1166-2

> <Gold.Version>
5.8.1

> <Gold.Id.Protein>
6NUR|6NUR_protein|mol2

> <Gold.PLP.Fitness>
41.5000

> <Gold.PLP.PLP>
-33.4671

> <Gold.PLP.part.hbond>
-2.0000

> <Gold.PLP.part.metal>
0.0000

> <Gold.PLP.part.buried>
-3.8470

> <Gold.PLP.part.nonpolar>
-27.6790

> <Gold.PLP.part.repulsive>
0.0214

> <Gold.PLP.ligand.clash>
0.0000

> <Gold.PLP.ligand.torsion>
1.1207

> <Gold.PLP.Chemscore.Hbond>
2.7360

> <Gold.PLP.Chemscore.CHOScore>
0.0000

> <Gold.PLP.Chemscore.Metal>
0.0000

> <Gold.Chemscore.Hbonds>
donor molecule, donor type, donor heavy atom, donor atom, acceptor molecule, acceptor atom, score
      L1  H    23    47       P1  8028  2.00
      P1  H  6896  6908       L1    19  0.74

> <Gold.PLP.Chemscore.Internal.Correction>
2.0663

> <Gold.Rescore>
     Score         DG    S(hbond)    S(metal)    S(lipo)     H(rot)  DE(clash)    DE(int)     intcor
     13.55     -16.75       1.67        0.00      70.60       1.00       0.14       3.06       ----

> <Gold.Chemscore.Fitness>
13.5502

> <Gold.Chemscore.DG>
-16.7504

> <Gold.Chemscore.ZeroCoef>
-5.4800

> <Gold.Chemscore.Hbond>
1.6677

> <Gold.Chemscore.Metal>
0.0000

> <Gold.Chemscore.Lipo>
70.6015

> <Gold.Chemscore.Internal_Hbond>
0.0000

> <Gold.Chemscore.DEClash>
0.1363

> <Gold.Chemscore.DEInternal>
3.0639

> <Gold.Chemscore.Rot>
1.0000

> <Gold.Chemscore.Internal.Correction>
   9.000000E+99

> <Gold.Chemscore.Hbonds>
donor molecule, donor type, donor heavy atom, donor atom, acceptor molecule, acceptor atom, score
      L1  H    23    47       P1  8028  0.89
      P1  H  6896  6908       L1    19  0.68

> <Gold.Chemscore.Hbond.Weighted>
-5.5700

> <Gold.Chemscore.Metal.Weighted>
-0.0000

> <Gold.Chemscore.Lipo.Weighted>
-8.2604

> <Gold.Chemscore.Internal_Hbond.Weighted>
0.0000

> <Gold.Chemscore.DEClash.Weighted>
0.1363

> <Gold.Chemscore.DEInternal.Weighted>
3.0639

> <Gold.Chemscore.Rot.Weighted>
2.5600

> <Gold.Chemscore.Internal.Correction.Weighted>
   9.000000E+99

> <Gold.Protein.RotatedTorsions>
[ 6907 6896 6895 6894 ] final   78.97 input  -60.11 | X-H torsion
[ 7974 7965 7964 7962 ] final -167.84 input  175.53 | X-H torsion
[ 8008 7997 7996 7995 ] final  -90.37 input   59.86 | X-H torsion
[ 10167 10162 10161 10158 ] final  -41.24 input  -65.29 | X-H torsion
[ 10718 10713 10712 10709 ] final  -24.06 input   66.30 | X-H torsion
[ 10763 10752 10751 10750 ] final  134.10 input  -60.55 | X-H torsion
[ 11005 11000 10999 10996 ] final  119.79 input  -57.11 | X-H torsion

> <Gold.Protein.ActiveResidues>
 VAL166  LYS551  ARG553  GLY616  TRP617  ASP618  TYR619  PRO620  LYS621  CYS622 
 ASP623  PHE694  ASN695  SER759  ASP760  ASP761  ALA762  ILE779  LEU786  VAL792 
 PHE793  MET794  SER795  GLU796  ALA797  LYS798  CYS799  TRP800  GLU811  SER814 

> <Gold.Protein.RotatedAtoms>
  152.5180  134.3583  159.9275 H   0  0  0  0  0  0  0  0  0  0  0  0  # atno 6907 bound_to 6896
  151.3535  133.3910  159.2690 H   0  0  0  0  0  0  0  0  0  0  0  0  # atno 6908 bound_to 6896
  150.9708  134.9100  159.7845 H   0  0  0  0  0  0  0  0  0  0  0  0  # atno 6909 bound_to 6896
  144.7215  140.2458  143.6285 H   0  0  0  0  0  0  0  0  0  0  0  0  # atno 7974 bound_to 7965
  154.6977  140.0531  157.0427 H   0  0  0  0  0  0  0  0  0  0  0  0  # atno 8008 bound_to 7997
  155.0728  140.3201  155.4606 H   0  0  0  0  0  0  0  0  0  0  0  0  # atno 8009 bound_to 7997
  156.2750  140.2079  156.5855 H   0  0  0  0  0  0  0  0  0  0  0  0  # atno 8010 bound_to 7997
  140.7009  143.3106  151.3039 H   0  0  0  0  0  0  0  0  0  0  0  0  # atno 10167 bound_to 10162
  156.4827  130.4548  149.6802 H   0  0  0  0  0  0  0  0  0  0  0  0  # atno 10718 bound_to 10713
  153.8180  135.3120  155.3407 H   0  0  0  0  0  0  0  0  0  0  0  0  # atno 10763 bound_to 10752
  154.8024  135.4718  154.0311 H   0  0  0  0  0  0  0  0  0  0  0  0  # atno 10764 bound_to 10752
  153.1711  135.6878  153.8696 H   0  0  0  0  0  0  0  0  0  0  0  0  # atno 10765 bound_to 10752
  139.9160  134.9631  156.7708 H   0  0  0  0  0  0  0  0  0  0  0  0  # atno 11005 bound_to 11000
  145.8275  139.2071  143.1902 LP  0  0  0  0  0  0  0  0  0  0  0  0  # atno 17320 bound_to 7965
  146.0460  140.8118  142.9805 LP  0  0  0  0  0  0  0  0  0  0  0  0  # atno 17321 bound_to 7965
  139.6527  144.0333  152.2638 LP  0  0  0  0  0  0  0  0  0  0  0  0  # atno 17342 bound_to 10162
  139.9874  144.6385  150.7845 LP  0  0  0  0  0  0  0  0  0  0  0  0  # atno 17343 bound_to 10162
  156.3506  130.7430  151.2388 LP  0  0  0  0  0  0  0  0  0  0  0  0  # atno 17370 bound_to 10713
  157.7482  131.0378  150.4474 LP  0  0  0  0  0  0  0  0  0  0  0  0  # atno 17371 bound_to 10713
  140.6622  133.9635  155.7811 LP  0  0  0  0  0  0  0  0  0  0  0  0  # atno 17394 bound_to 11000
  141.0635  134.0311  157.3625 LP  0  0  0  0  0  0  0  0  0  0  0  0  # atno 17395 bound_to 11000

$$$$
