AV-unprocessed.smi:2106|AV-procd|sdf|8599|dock6
  -GOLD-   2272011333D 1   1.00000     0.00000
 Structure written by MMmdl.
 48 49  0  0  0  0  0  0  0  0  2 V2000
  155.1433  130.5532  155.3550 C   0  0  0  0  0  0  0  0  0  0  0  0
  153.6598  130.3320  155.2996 C   0  0  0  0  0  0  0  0  0  0  0  0
  152.9524  129.2981  154.6260 C   0  0  0  0  0  0  0  0  0  0  0  0
  151.6373  129.5594  154.8895 C   0  0  0  0  0  0  0  0  0  0  0  0
  150.4098  128.8262  154.4582 C   0  0  0  0  0  0  0  0  0  0  0  0
  151.6038  130.6975  155.6771 N   0  0  0  0  0  0  0  0  0  0  0  0
  150.4570  131.4145  156.2171 C   0  0  0  0  0  0  0  0  0  0  0  0
  150.0383  132.5561  155.2886 C   0  0  0  0  0  0  0  0  0  0  0  0
  150.4578  133.6963  155.4826 O   0  0  0  0  0  0  0  0  0  0  0  0
  149.2346  132.2314  154.2643 N   0  0  0  0  0  0  0  0  0  0  0  0
  148.8168  133.1443  153.2053 C   0  0  0  0  0  0  0  0  0  0  0  0
  147.3116  133.4729  153.2636 C   0  0  0  0  0  0  0  0  0  0  0  0
  146.8828  134.3075  152.1079 N   0  3  1  0  0  0  0  0  0  0  0  0
  146.7954  133.5735  150.8232 C   0  0  0  0  0  0  0  0  0  0  0  0
  145.4989  132.7414  150.7423 C   0  0  2  0  0  0  0  0  0  0  0  0
  145.3398  132.0548  149.3817 C   0  0  0  0  0  0  0  0  0  0  0  0
  144.3825  133.6037  150.9371 O   0  0  0  0  0  0  0  0  0  0  0  0
  144.3859  134.2288  152.2162 C   0  0  2  0  0  0  0  0  0  0  0  0
  143.1063  135.0615  152.3494 C   0  0  0  0  0  0  0  0  0  0  0  0
  145.6519  135.0984  152.3489 C   0  0  0  0  0  0  0  0  0  0  0  0
  152.8467  131.1655  155.9274 N   0  0  0  0  0  0  0  0  0  0  0  0
  155.6527  129.6760  155.7542 H   0  0  0  0  0  0  0  0  0  0  0  0
  155.4031  131.4029  155.9872 H   0  0  0  0  0  0  0  0  0  0  0  0
  155.5448  130.7455  154.3601 H   0  0  0  0  0  0  0  0  0  0  0  0
  153.3521  128.4854  154.0376 H   0  0  0  0  0  0  0  0  0  0  0  0
  150.6677  127.9768  153.8257 H   0  0  0  0  0  0  0  0  0  0  0  0
  149.7446  129.4744  153.8886 H   0  0  0  0  0  0  0  0  0  0  0  0
  149.8608  128.4466  155.3199 H   0  0  0  0  0  0  0  0  0  0  0  0
  149.6262  130.7231  156.3616 H   0  0  0  0  0  0  0  0  0  0  0  0
  150.7151  131.8097  157.2010 H   0  0  0  0  0  0  0  0  0  0  0  0
  148.9243  131.2730  154.1929 H   0  0  0  0  0  0  0  0  0  0  0  0
  149.3938  134.0631  153.3148 H   0  0  0  0  0  0  0  0  0  0  0  0
  149.0781  132.7312  152.2296 H   0  0  0  0  0  0  0  0  0  0  0  0
  146.7489  132.5393  153.2960 H   0  0  0  0  0  0  0  0  0  0  0  0
  147.0863  133.9786  154.2035 H   0  0  0  0  0  0  0  0  0  0  0  0
  146.8100  134.3047  150.0137 H   0  0  0  0  0  0  0  0  0  0  0  0
  147.6769  132.9459  150.6859 H   0  0  0  0  0  0  0  0  0  0  0  0
  145.4976  131.9725  151.5168 H   0  0  0  0  0  0  0  0  0  0  0  0
  146.1674  131.3724  149.1869 H   0  0  0  0  0  0  0  0  0  0  0  0
  145.3090  132.7840  148.5716 H   0  0  0  0  0  0  0  0  0  0  0  0
  144.4167  131.4759  149.3433 H   0  0  0  0  0  0  0  0  0  0  0  0
  144.3758  133.4593  152.9895 H   0  0  0  0  0  0  0  0  0  0  0  0
  143.0617  135.5590  153.3188 H   0  0  0  0  0  0  0  0  0  0  0  0
  142.2203  134.4331  152.2571 H   0  0  0  0  0  0  0  0  0  0  0  0
  143.0524  135.8291  151.5770 H   0  0  0  0  0  0  0  0  0  0  0  0
  145.6905  135.5683  153.3307 H   0  0  0  0  0  0  0  0  0  0  0  0
  145.6193  135.9090  151.6196 H   0  0  0  0  0  0  0  0  0  0  0  0
  147.6259  134.9812  151.9908 H   0  0  0  0  0  0  0  0  0  0  0  0
  1  2  1  0  0  0  0
  1 22  1  0  0  0  0
  1 23  1  0  0  0  0
  1 24  1  0  0  0  0
  2 21  2  0  0  0  0
  2  3  1  0  0  0  0
  3  4  2  0  0  0  0
  3 25  1  0  0  0  0
  4  5  1  0  0  0  0
  4  6  1  0  0  0  0
  5 26  1  0  0  0  0
  5 27  1  0  0  0  0
  5 28  1  0  0  0  0
  6  7  1  0  0  0  0
  6 21  1  0  0  0  0
  7  8  1  0  0  0  0
  7 29  1  0  0  0  0
  7 30  1  0  0  0  0
  8  9  2  0  0  0  0
  8 10  1  0  0  0  0
 10 11  1  0  0  0  0
 10 31  1  0  0  0  0
 11 12  1  0  0  0  0
 11 32  1  0  0  0  0
 11 33  1  0  0  0  0
 12 13  1  0  0  0  0
 12 34  1  0  0  0  0
 12 35  1  0  0  0  0
 13 20  1  0  0  0  0
 13 14  1  0  0  0  0
 13 48  1  0  0  0  0
 14 15  1  0  0  0  0
 14 36  1  0  0  0  0
 14 37  1  0  0  0  0
 15 16  1  0  0  0  0
 15 17  1  0  0  0  0
 15 38  1  0  0  0  0
 16 39  1  0  0  0  0
 16 40  1  0  0  0  0
 16 41  1  0  0  0  0
 17 18  1  0  0  0  0
 18 19  1  0  0  0  0
 18 20  1  0  0  0  0
 18 42  1  0  0  0  0
 19 43  1  0  0  0  0
 19 44  1  0  0  0  0
 19 45  1  0  0  0  0
 20 46  1  0  0  0  0
 20 47  1  0  0  0  0
M  CHG  1  13   1
M  END
> <s_m_source_file>
AV-unprocessed.smi

> <i_m_source_file_index>
2106

> <i_lp_mmshare_version>
43012

> <i_f3d_flags>
0

> <s_epik_input>
W0NIM11jMVtjSF1jKFtDSDNdKW4objEpW0NIMl1DKD1PKVtOSF1bQ0gyXVtDSDJdTjJbQ0gyXVtDQEBIXShbQ0gzXSlPW0NAQEhdKFtDSDNdKVtDSDJdMg==

> <s_epik_cmdline>
J2VwaWtfcHl0aG9uJywgJy1waCcsICc3LjAnLCAnLXRuJywgJzgnLCAnLW1hJywgJzIwMCcsICctbWV0YWxfYmluZGluZycsICctaW1hZScsICc8aW5maWxlLm1hZT4nLCAnLW9tYWUnLCAnPG91dGZpbGUubWFlPic=

> <r_lp_tautomer_probability>
1

> <r_epik_Ionization_Penalty>
0.748586

> <r_epik_Ionization_Penalty_Charging>
0.748396

> <r_epik_Ionization_Penalty_Neutral>
0.000189656

> <r_epik_State_Penalty>
0.775162

> <r_epik_Charging_Adjusted_Penalty>
1.52356

> <i_epik_Tot_Q>
1

> <i_epik_Tot_abs_Q>
1

> <r_epik_Metal_State_Penalty>
0.775295

> <b_epik_Metal_Only>
0

> <s_lp_Force_Field>
OPLS_2005

> <r_lp_Energy>
21.363

> <b_lp_Chiralities_Consistent>
1

> <s_lp_Variant>
AV-unprocessed.smi:2106-7

> <Gold.Version>
5.8.1

> <Gold.Id.Protein>
6NUR|6NUR_protein|mol2

> <Gold.PLP.Fitness>
41.1774

> <Gold.PLP.PLP>
-36.9452

> <Gold.PLP.part.hbond>
-1.0000

> <Gold.PLP.part.metal>
0.0000

> <Gold.PLP.part.buried>
-5.5616

> <Gold.PLP.part.nonpolar>
-29.4580

> <Gold.PLP.part.repulsive>
0.2011

> <Gold.PLP.ligand.clash>
0.0000

> <Gold.PLP.ligand.torsion>
0.9083

> <Gold.PLP.Chemscore.Hbond>
2.0000

> <Gold.PLP.Chemscore.CHOScore>
0.0000

> <Gold.PLP.Chemscore.Metal>
0.0000

> <Gold.Chemscore.Hbonds>
donor molecule, donor type, donor heavy atom, donor atom, acceptor molecule, acceptor atom, score
      L1  H    13    48       P1  7948  2.00

> <Gold.PLP.Chemscore.Internal.Correction>
0.0488

> <Gold.Rescore>
     Score         DG    S(hbond)    S(metal)    S(lipo)     H(rot)  DE(clash)    DE(int)     intcor
     13.69     -14.49       0.98        0.00      86.93       1.73       0.06       0.73       ----

> <Gold.Chemscore.Fitness>
13.6943

> <Gold.Chemscore.DG>
-14.4898

> <Gold.Chemscore.ZeroCoef>
-5.4800

> <Gold.Chemscore.Hbond>
0.9795

> <Gold.Chemscore.Metal>
0.0000

> <Gold.Chemscore.Lipo>
86.9322

> <Gold.Chemscore.Internal_Hbond>
0.0000

> <Gold.Chemscore.DEClash>
0.0627

> <Gold.Chemscore.DEInternal>
0.7328

> <Gold.Chemscore.Rot>
1.7316

> <Gold.Chemscore.Internal.Correction>
   9.000000E+99

> <Gold.Chemscore.Hbonds>
donor molecule, donor type, donor heavy atom, donor atom, acceptor molecule, acceptor atom, score
      L1  H    13    48       P1  7948  0.82

> <Gold.Chemscore.Hbond.Weighted>
-3.2717

> <Gold.Chemscore.Metal.Weighted>
-0.0000

> <Gold.Chemscore.Lipo.Weighted>
-10.1711

> <Gold.Chemscore.Internal_Hbond.Weighted>
0.0000

> <Gold.Chemscore.DEClash.Weighted>
0.0627

> <Gold.Chemscore.DEInternal.Weighted>
0.7328

> <Gold.Chemscore.Rot.Weighted>
4.4330

> <Gold.Chemscore.Internal.Correction.Weighted>
   9.000000E+99

> <Gold.Protein.RotatedTorsions>
[ 6907 6896 6895 6894 ] final   80.81 input  -60.11 | X-H torsion
[ 7974 7965 7964 7962 ] final -162.89 input  175.53 | X-H torsion
[ 8008 7997 7996 7995 ] final  129.49 input   59.86 | X-H torsion
[ 10167 10162 10161 10158 ] final  -86.36 input  -65.29 | X-H torsion
[ 10718 10713 10712 10709 ] final  111.50 input   66.30 | X-H torsion
[ 10763 10752 10751 10750 ] final  -17.95 input  -60.55 | X-H torsion
[ 11005 11000 10999 10996 ] final  -30.96 input  -57.11 | X-H torsion

> <Gold.Protein.ActiveResidues>
 VAL166  LYS551  ARG553  GLY616  TRP617  ASP618  TYR619  PRO620  LYS621  CYS622 
 ASP623  PHE694  ASN695  SER759  ASP760  ASP761  ALA762  ILE779  LEU786  VAL792 
 PHE793  MET794  SER795  GLU796  ALA797  LYS798  CYS799  TRP800  GLU811  SER814 

> <Gold.Protein.RotatedAtoms>
  152.5248  134.3300  159.9179 H   0  0  0  0  0  0  0  0  0  0  0  0  # atno 6907 bound_to 6896
  151.3249  133.4018  159.2665 H   0  0  0  0  0  0  0  0  0  0  0  0  # atno 6908 bound_to 6896
  150.9928  134.9276  159.7967 H   0  0  0  0  0  0  0  0  0  0  0  0  # atno 6909 bound_to 6896
  144.7343  140.3187  143.6175 H   0  0  0  0  0  0  0  0  0  0  0  0  # atno 7974 bound_to 7965
  156.2937  140.2619  156.2608 H   0  0  0  0  0  0  0  0  0  0  0  0  # atno 8008 bound_to 7997
  154.9791  140.0390  157.2288 H   0  0  0  0  0  0  0  0  0  0  0  0  # atno 8009 bound_to 7997
  154.7789  140.2791  155.6084 H   0  0  0  0  0  0  0  0  0  0  0  0  # atno 8010 bound_to 7997
  140.3949  143.2688  151.9217 H   0  0  0  0  0  0  0  0  0  0  0  0  # atno 10167 bound_to 10162
  157.6441  131.0952  150.6758 H   0  0  0  0  0  0  0  0  0  0  0  0  # atno 10718 bound_to 10713
  153.5817  135.7005  153.5460 H   0  0  0  0  0  0  0  0  0  0  0  0  # atno 10763 bound_to 10752
  153.3255  135.4062  155.1452 H   0  0  0  0  0  0  0  0  0  0  0  0  # atno 10764 bound_to 10752
  154.8616  135.3706  154.5345 H   0  0  0  0  0  0  0  0  0  0  0  0  # atno 10765 bound_to 10752
  140.9427  133.7268  156.1101 H   0  0  0  0  0  0  0  0  0  0  0  0  # atno 11005 bound_to 11000
  145.7591  139.1819  143.2277 LP  0  0  0  0  0  0  0  0  0  0  0  0  # atno 17320 bound_to 7965
  146.1000  140.7555  142.9553 LP  0  0  0  0  0  0  0  0  0  0  0  0  # atno 17321 bound_to 7965
  139.4787  144.5691  151.8117 LP  0  0  0  0  0  0  0  0  0  0  0  0  # atno 17342 bound_to 10162
  140.4801  144.1462  150.5931 LP  0  0  0  0  0  0  0  0  0  0  0  0  # atno 17343 bound_to 10162
  156.7077  130.4642  149.5555 LP  0  0  0  0  0  0  0  0  0  0  0  0  # atno 17370 bound_to 10713
  156.1751  130.6462  151.0884 LP  0  0  0  0  0  0  0  0  0  0  0  0  # atno 17371 bound_to 10713
  140.7711  134.3831  157.5507 LP  0  0  0  0  0  0  0  0  0  0  0  0  # atno 17394 bound_to 11000
  139.8825  134.9023  156.2829 LP  0  0  0  0  0  0  0  0  0  0  0  0  # atno 17395 bound_to 11000

$$$$
