AV-unprocessed.smi:775|AV-procd|sdf|3696|dock10
  -GOLD-   22720 1113D 1   1.00000     0.00000
 Structure written by MMmdl.
 39 40  0  0  0  0  0  0  0  0  2 V2000
  144.5832  137.1903  152.6853 C   0  0  0  0  0  0  0  0  0  0  0  0
  145.3360  135.8575  152.5106 C   0  0  1  0  0  0  0  0  0  0  0  0
  145.5499  135.4806  151.0280 C   0  0  0  0  0  0  0  0  0  0  0  0
  145.3973  134.0595  150.7582 N   0  0  0  0  0  0  0  0  0  0  0  0
  144.3247  133.4070  150.1861 C   0  0  0  0  0  0  0  0  0  0  0  0
  144.6347  132.0784  150.1379 C   0  0  0  0  0  0  0  0  0  0  0  0
  145.9390  132.0151  150.7031 C   0  0  0  0  0  0  0  0  0  0  0  0
  146.3928  133.2024  151.0713 N   0  0  0  0  0  0  0  0  0  0  0  0
  146.6349  135.8715  153.2211 N   0  3  0  0  0  0  0  0  0  0  0  0
  146.8163  134.8291  154.2553 C   0  0  0  0  0  0  0  0  0  0  0  0
  148.1003  135.0393  155.0736 C   0  0  0  0  0  0  0  0  0  0  0  0
  148.1509  135.9923  155.8537 O   0  0  0  0  0  0  0  0  0  0  0  0
  149.1347  134.1760  154.9149 N   0  0  0  0  0  0  0  0  0  0  0  0
  149.1186  133.0104  154.0250 C   0  0  0  0  0  0  0  0  0  0  0  0
  149.1109  131.7389  154.8914 C   0  0  0  0  0  0  0  0  0  0  0  0
  150.0969  131.8005  155.9718 N   0  0  0  0  0  0  0  0  0  0  0  0
  150.7075  132.9191  156.4047 C   0  0  0  0  0  0  0  0  0  0  0  0
  151.5332  132.8926  157.3140 O   0  0  0  0  0  0  0  0  0  0  0  0
  150.3525  134.2622  155.7375 C   0  0  0  0  0  0  0  0  0  0  0  0
  143.6740  137.2039  152.0835 H   0  0  0  0  0  0  0  0  0  0  0  0
  145.1936  138.0417  152.3833 H   0  0  0  0  0  0  0  0  0  0  0  0
  144.2817  137.3506  153.7201 H   0  0  0  0  0  0  0  0  0  0  0  0
  144.7295  135.0652  152.9519 H   0  0  0  0  0  0  0  0  0  0  0  0
  144.8475  136.0258  150.3959 H   0  0  0  0  0  0  0  0  0  0  0  0
  146.5466  135.7880  150.7066 H   0  0  0  0  0  0  0  0  0  0  0  0
  143.4386  133.9354  149.8659 H   0  0  0  0  0  0  0  0  0  0  0  0
  144.0246  131.2744  149.7538 H   0  0  0  0  0  0  0  0  0  0  0  0
  146.5650  131.1481  150.8548 H   0  0  0  0  0  0  0  0  0  0  0  0
  147.3635  135.7375  152.5345 H   0  0  0  0  0  0  0  0  0  0  0  0
  145.9616  134.8418  154.9317 H   0  0  0  0  0  0  0  0  0  0  0  0
  146.8555  133.8524  153.7718 H   0  0  0  0  0  0  0  0  0  0  0  0
  148.2949  132.9883  153.3134 H   0  0  0  0  0  0  0  0  0  0  0  0
  150.0248  133.0329  153.4173 H   0  0  0  0  0  0  0  0  0  0  0  0
  148.1261  131.5994  155.3388 H   0  0  0  0  0  0  0  0  0  0  0  0
  149.3066  130.8602  154.2764 H   0  0  0  0  0  0  0  0  0  0  0  0
  150.3392  130.9286  156.4204 H   0  0  0  0  0  0  0  0  0  0  0  0
  151.1839  134.5605  155.0978 H   0  0  0  0  0  0  0  0  0  0  0  0
  150.2864  135.0164  156.5230 H   0  0  0  0  0  0  0  0  0  0  0  0
  146.7651  136.7790  153.6453 H   0  0  0  0  0  0  0  0  0  0  0  0
  1  2  1  0  0  0  0
  1 20  1  0  0  0  0
  1 21  1  0  0  0  0
  1 22  1  0  0  0  0
  2  3  1  0  0  0  0
  2  9  1  0  0  0  0
  2 23  1  0  0  0  0
  3  4  1  0  0  0  0
  3 24  1  0  0  0  0
  3 25  1  0  0  0  0
  4  8  1  0  0  0  0
  4  5  1  0  0  0  0
  5  6  2  0  0  0  0
  5 26  1  0  0  0  0
  6  7  1  0  0  0  0
  6 27  1  0  0  0  0
  7  8  2  0  0  0  0
  7 28  1  0  0  0  0
  9 10  1  0  0  0  0
  9 29  1  0  0  0  0
  9 39  1  0  0  0  0
 10 11  1  0  0  0  0
 10 30  1  0  0  0  0
 10 31  1  0  0  0  0
 11 12  2  0  0  0  0
 11 13  1  0  0  0  0
 13 19  1  0  0  0  0
 13 14  1  0  0  0  0
 14 15  1  0  0  0  0
 14 32  1  0  0  0  0
 14 33  1  0  0  0  0
 15 16  1  0  0  0  0
 15 34  1  0  0  0  0
 15 35  1  0  0  0  0
 16 17  1  0  0  0  0
 16 36  1  0  0  0  0
 17 18  2  0  0  0  0
 17 19  1  0  0  0  0
 19 37  1  0  0  0  0
 19 38  1  0  0  0  0
M  CHG  1   9   1
M  END
> <s_m_source_file>
AV-unprocessed.smi

> <i_m_source_file_index>
775

> <i_lp_mmshare_version>
43012

> <i_f3d_flags>
0

> <s_epik_input>
bjFbY0hdW2NIXVtjSF1uMVtDSDJdW0NAQEhdKFtDSDNdKVtOSF1bQ0gyXUMoPU8pTjJbQ0gyXVtDSDJdW05IXUMoPU8pW0NIMl0y

> <s_epik_cmdline>
J2VwaWtfcHl0aG9uJywgJy1waCcsICc3LjAnLCAnLXRuJywgJzgnLCAnLW1hJywgJzIwMCcsICctbWV0YWxfYmluZGluZycsICctaW1hZScsICc8aW5maWxlLm1hZT4nLCAnLW9tYWUnLCAnPG91dGZpbGUubWFlPic=

> <r_lp_tautomer_probability>
1

> <r_epik_Ionization_Penalty>
0.165651

> <r_epik_Ionization_Penalty_Charging>
0.165647

> <r_epik_Ionization_Penalty_Neutral>
3.4358e-06

> <r_epik_State_Penalty>
0.15499

> <r_epik_Charging_Adjusted_Penalty>
0.320637

> <i_epik_Tot_Q>
1

> <i_epik_Tot_abs_Q>
1

> <r_epik_Metal_State_Penalty>
0.155003

> <b_epik_Metal_Only>
0

> <s_lp_Force_Field>
OPLS_2005

> <r_lp_Energy>
22.1436

> <b_lp_Chiralities_Consistent>
1

> <s_lp_Variant>
AV-unprocessed.smi:775-2

> <Gold.Version>
5.8.1

> <Gold.Id.Protein>
6NUR|6NUR_protein|mol2

> <Gold.PLP.Fitness>
43.2432

> <Gold.PLP.PLP>
-31.6084

> <Gold.PLP.part.hbond>
-2.0000

> <Gold.PLP.part.metal>
0.0000

> <Gold.PLP.part.buried>
-5.6647

> <Gold.PLP.part.nonpolar>
-25.5256

> <Gold.PLP.part.repulsive>
0.2446

> <Gold.PLP.ligand.clash>
0.0000

> <Gold.PLP.ligand.torsion>
1.5825

> <Gold.PLP.Chemscore.Hbond>
2.9357

> <Gold.PLP.Chemscore.CHOScore>
1.9875

> <Gold.PLP.Chemscore.Metal>
0.0000

> <Gold.Chemscore.Hbonds>
donor molecule, donor type, donor heavy atom, donor atom, acceptor molecule, acceptor atom, score
      L1  H     9    29       P1  7948  2.00
      P1  H  6896  6908       L1    18  0.91
      L1  C     5    26       P1 10186  1.00
      L1  C     7    28       P1 10747  0.97

> <Gold.PLP.Chemscore.Internal.Correction>
0.0301

> <Gold.Rescore>
     Score         DG    S(hbond)    S(metal)    S(lipo)     H(rot)  DE(clash)    DE(int)     intcor
     12.17     -13.50       1.95        0.00      60.65       2.18       0.04       1.29       ----

> <Gold.Chemscore.Fitness>
12.1690

> <Gold.Chemscore.DG>
-13.5006

> <Gold.Chemscore.ZeroCoef>
-5.4800

> <Gold.Chemscore.Hbond>
1.9498

> <Gold.Chemscore.Metal>
0.0000

> <Gold.Chemscore.Lipo>
60.6515

> <Gold.Chemscore.Internal_Hbond>
0.0000

> <Gold.Chemscore.DEClash>
0.0407

> <Gold.Chemscore.DEInternal>
1.2910

> <Gold.Chemscore.Rot>
2.1828

> <Gold.Chemscore.Internal.Correction>
   9.000000E+99

> <Gold.Chemscore.Hbonds>
donor molecule, donor type, donor heavy atom, donor atom, acceptor molecule, acceptor atom, score
      L1  H     9    29       P1  7948  0.94
      P1  H  6896  6908       L1    18  0.87

> <Gold.Chemscore.Hbond.Weighted>
-6.5124

> <Gold.Chemscore.Metal.Weighted>
-0.0000

> <Gold.Chemscore.Lipo.Weighted>
-7.0962

> <Gold.Chemscore.Internal_Hbond.Weighted>
0.0000

> <Gold.Chemscore.DEClash.Weighted>
0.0407

> <Gold.Chemscore.DEInternal.Weighted>
1.2910

> <Gold.Chemscore.Rot.Weighted>
5.5880

> <Gold.Chemscore.Internal.Correction.Weighted>
   9.000000E+99

> <Gold.Protein.RotatedTorsions>
[ 6907 6896 6895 6894 ] final   70.43 input  -60.11 | X-H torsion
[ 7974 7965 7964 7962 ] final -173.90 input  175.53 | X-H torsion
[ 8008 7997 7996 7995 ] final   15.62 input   59.86 | X-H torsion
[ 10167 10162 10161 10158 ] final  -18.61 input  -65.29 | X-H torsion
[ 10718 10713 10712 10709 ] final  -38.53 input   66.30 | X-H torsion
[ 10763 10752 10751 10750 ] final  -25.74 input  -60.55 | X-H torsion
[ 11005 11000 10999 10996 ] final   41.27 input  -57.11 | X-H torsion

> <Gold.Protein.ActiveResidues>
 VAL166  LYS551  ARG553  GLY616  TRP617  ASP618  TYR619  PRO620  LYS621  CYS622 
 ASP623  PHE694  ASN695  SER759  ASP760  ASP761  ALA762  ILE779  LEU786  VAL792 
 PHE793  MET794  SER795  GLU796  ALA797  LYS798  CYS799  TRP800  GLU811  SER814 

> <Gold.Protein.RotatedAtoms>
  152.4749  134.4869  159.9682 H   0  0  0  0  0  0  0  0  0  0  0  0  # atno 6907 bound_to 6896
  151.4887  133.3524  159.2858 H   0  0  0  0  0  0  0  0  0  0  0  0  # atno 6908 bound_to 6896
  150.8781  134.8195  159.7266 H   0  0  0  0  0  0  0  0  0  0  0  0  # atno 6909 bound_to 6896
  144.7135  140.1552  143.6381 H   0  0  0  0  0  0  0  0  0  0  0  0  # atno 7974 bound_to 7965
  154.8652  140.2950  155.5514 H   0  0  0  0  0  0  0  0  0  0  0  0  # atno 8008 bound_to 7997
  156.3020  140.2470  156.3565 H   0  0  0  0  0  0  0  0  0  0  0  0  # atno 8009 bound_to 7997
  154.8876  140.0395  157.1808 H   0  0  0  0  0  0  0  0  0  0  0  0  # atno 8010 bound_to 7997
  140.7260  143.4899  151.0005 H   0  0  0  0  0  0  0  0  0  0  0  0  # atno 10167 bound_to 10162
  156.3028  130.4242  149.8127 H   0  0  0  0  0  0  0  0  0  0  0  0  # atno 10718 bound_to 10713
  153.7047  135.6954  153.5053 H   0  0  0  0  0  0  0  0  0  0  0  0  # atno 10763 bound_to 10752
  153.2316  135.4335  155.0600 H   0  0  0  0  0  0  0  0  0  0  0  0  # atno 10764 bound_to 10752
  154.8333  135.3485  154.6586 H   0  0  0  0  0  0  0  0  0  0  0  0  # atno 10765 bound_to 10752
  140.1850  134.4056  155.8178 H   0  0  0  0  0  0  0  0  0  0  0  0  # atno 11005 bound_to 11000
  145.9080  139.2470  143.1454 LP  0  0  0  0  0  0  0  0  0  0  0  0  # atno 17320 bound_to 7965
  145.9744  140.8734  143.0146 LP  0  0  0  0  0  0  0  0  0  0  0  0  # atno 17321 bound_to 7965
  139.8603  143.7323  152.3173 LP  0  0  0  0  0  0  0  0  0  0  0  0  # atno 17342 bound_to 10162
  139.7536  144.7527  151.0469 LP  0  0  0  0  0  0  0  0  0  0  0  0  # atno 17343 bound_to 10162
  156.5499  130.8337  151.3296 LP  0  0  0  0  0  0  0  0  0  0  0  0  # atno 17370 bound_to 10713
  157.7372  130.9792  150.2180 LP  0  0  0  0  0  0  0  0  0  0  0  0  # atno 17371 bound_to 10713
  141.2224  133.7019  156.7997 LP  0  0  0  0  0  0  0  0  0  0  0  0  # atno 17394 bound_to 11000
  140.2223  134.8747  157.3390 LP  0  0  0  0  0  0  0  0  0  0  0  0  # atno 17395 bound_to 11000

$$$$
