AV-unprocessed.smi:3167|AV-procd|sdf|12098|dock7
  -GOLD-   2272017533D 1   1.00000     0.00000
 Structure written by MMmdl.
 37 38  0  0  0  0  0  0  0  0  2 V2000
  148.6452  140.5309  154.3378 C   0  0  0  0  0  0  0  0  0  0  0  0
  147.3120  140.0279  153.7386 C   0  0  1  0  0  0  0  0  0  0  0  0
  146.9658  138.6188  154.2773 C   0  0  0  0  0  0  0  0  0  0  0  0
  146.9699  137.6129  153.2215 N   0  0  0  0  0  0  0  0  0  0  0  0
  145.8910  136.9170  152.8399 C   0  0  0  0  0  0  0  0  0  0  0  0
  144.7780  137.0625  153.3456 O   0  0  0  0  0  0  0  0  0  0  0  0
  146.1865  136.0574  151.8510 N   0  0  0  0  0  0  0  0  0  0  0  0
  145.3032  135.1614  151.1972 C   0  0  0  0  0  0  0  0  0  0  0  0
  145.6077  133.8086  150.8846 C   0  0  0  0  0  0  0  0  0  0  0  0
  144.5935  133.2130  150.2738 N   0  0  0  0  0  0  0  0  0  0  0  0
  143.6447  134.1728  150.1926 N   0  0  0  0  0  0  0  0  0  0  0  0
  144.0326  135.3752  150.7415 C   0  0  0  0  0  0  0  0  0  0  0  0
  146.2005  140.9847  154.0134 N   0  3  0  0  0  0  0  0  0  0  0  0
  145.7301  141.0395  155.4152 C   0  0  0  0  0  0  0  0  0  0  0  0
  145.0034  142.3733  155.5382 C   0  0  0  0  0  0  0  0  0  0  0  0
  145.8420  143.3014  154.6680 C   0  0  0  0  0  0  0  0  0  0  0  0
  146.4550  142.3882  153.5974 C   0  0  0  0  0  0  0  0  0  0  0  0
  142.7478  133.9943  149.7637 H   0  0  0  0  0  0  0  0  0  0  0  0
  149.4621  139.8346  154.1488 H   0  0  0  0  0  0  0  0  0  0  0  0
  148.5686  140.6613  155.4176 H   0  0  0  0  0  0  0  0  0  0  0  0
  148.9548  141.4829  153.9070 H   0  0  0  0  0  0  0  0  0  0  0  0
  147.4343  139.9637  152.6560 H   0  0  0  0  0  0  0  0  0  0  0  0
  147.6808  138.3304  155.0498 H   0  0  0  0  0  0  0  0  0  0  0  0
  145.9792  138.6066  154.7417 H   0  0  0  0  0  0  0  0  0  0  0  0
  147.8475  137.4335  152.7556 H   0  0  0  0  0  0  0  0  0  0  0  0
  147.1439  136.0401  151.5316 H   0  0  0  0  0  0  0  0  0  0  0  0
  146.5121  133.2505  151.0766 H   0  0  0  0  0  0  0  0  0  0  0  0
  143.3864  136.2402  150.7538 H   0  0  0  0  0  0  0  0  0  0  0  0
  145.0814  140.1987  155.6626 H   0  0  0  0  0  0  0  0  0  0  0  0
  146.5857  141.0236  156.0926 H   0  0  0  0  0  0  0  0  0  0  0  0
  143.9965  142.2872  155.1270 H   0  0  0  0  0  0  0  0  0  0  0  0
  144.9191  142.7182  156.5692 H   0  0  0  0  0  0  0  0  0  0  0  0
  145.2549  144.1148  154.2408 H   0  0  0  0  0  0  0  0  0  0  0  0
  146.6365  143.7472  155.2680 H   0  0  0  0  0  0  0  0  0  0  0  0
  147.5219  142.5972  153.5074 H   0  0  0  0  0  0  0  0  0  0  0  0
  145.9990  142.5599  152.6219 H   0  0  0  0  0  0  0  0  0  0  0  0
  145.4055  140.6759  153.4721 H   0  0  0  0  0  0  0  0  0  0  0  0
  1  2  1  0  0  0  0
  1 19  1  0  0  0  0
  1 20  1  0  0  0  0
  1 21  1  0  0  0  0
  2  3  1  0  0  0  0
  2 13  1  0  0  0  0
  2 22  1  0  0  0  0
  3  4  1  0  0  0  0
  3 23  1  0  0  0  0
  3 24  1  0  0  0  0
  4  5  1  0  0  0  0
  4 25  1  0  0  0  0
  5  6  2  0  0  0  0
  5  7  1  0  0  0  0
  7  8  1  0  0  0  0
  7 26  1  0  0  0  0
  8 12  2  0  0  0  0
  8  9  1  0  0  0  0
  9 10  2  0  0  0  0
  9 27  1  0  0  0  0
 10 11  1  0  0  0  0
 11 18  1  0  0  0  0
 11 12  1  0  0  0  0
 12 28  1  0  0  0  0
 13 17  1  0  0  0  0
 13 14  1  0  0  0  0
 13 37  1  0  0  0  0
 14 15  1  0  0  0  0
 14 29  1  0  0  0  0
 14 30  1  0  0  0  0
 15 16  1  0  0  0  0
 15 31  1  0  0  0  0
 15 32  1  0  0  0  0
 16 17  1  0  0  0  0
 16 33  1  0  0  0  0
 16 34  1  0  0  0  0
 17 35  1  0  0  0  0
 17 36  1  0  0  0  0
M  CHG  1  13   1
M  END
> <s_m_source_file>
AV-unprocessed.smi

> <i_m_source_file_index>
3167

> <i_lp_mmshare_version>
43012

> <i_f3d_flags>
0

> <s_epik_input>
W0NIMl0xW0NIMl1bQ0gyXVtDSDJdTjFbQ0BIXShbQ0gzXSlbQ0gyXVtOSF1DKD1PKVtOSF1jMltjSF1uW25IXVtjSF0y

> <s_epik_cmdline>
J2VwaWtfcHl0aG9uJywgJy1waCcsICc3LjAnLCAnLXRuJywgJzgnLCAnLW1hJywgJzIwMCcsICctbWV0YWxfYmluZGluZycsICctaW1hZScsICc8aW5maWxlLm1hZT4nLCAnLW9tYWUnLCAnPG91dGZpbGUubWFlPic=

> <r_lp_tautomer_probability>
0.5

> <r_epik_Ionization_Penalty>
0.000801258

> <r_epik_Ionization_Penalty_Charging>
0.000761583

> <r_epik_Ionization_Penalty_Neutral>
3.96747e-05

> <r_epik_State_Penalty>
0.000487427

> <r_epik_Charging_Adjusted_Penalty>
0.00124901

> <i_epik_Tot_Q>
1

> <i_epik_Tot_abs_Q>
1

> <r_epik_Metal_State_Penalty>
-0

> <b_epik_Metal_Only>
0

> <s_lp_Force_Field>
OPLS_2005

> <r_lp_Energy>
33.9812

> <b_lp_Chiralities_Consistent>
1

> <s_lp_Variant>
AV-unprocessed.smi:3167-2

> <Gold.Version>
5.8.1

> <Gold.Id.Protein>
6NUR|6NUR_protein|mol2

> <Gold.PLP.Fitness>
41.8251

> <Gold.PLP.PLP>
-26.3815

> <Gold.PLP.part.hbond>
-4.0000

> <Gold.PLP.part.metal>
0.0000

> <Gold.PLP.part.buried>
-6.0704

> <Gold.PLP.part.nonpolar>
-17.5258

> <Gold.PLP.part.repulsive>
0.4234

> <Gold.PLP.ligand.clash>
0.0000

> <Gold.PLP.ligand.torsion>
1.1726

> <Gold.PLP.Chemscore.Hbond>
4.9200

> <Gold.PLP.Chemscore.CHOScore>
1.0000

> <Gold.PLP.Chemscore.Metal>
0.0000

> <Gold.Chemscore.Hbonds>
donor molecule, donor type, donor heavy atom, donor atom, acceptor molecule, acceptor atom, score
      L1  H     4    25       P1  7948  0.98
      L1  H     7    26       P1  7948  1.00
      L1  H    11    18       P1 10186  0.99
      L1  H    13    37       P1 10175  2.00
      L1  C    12    28       P1 10171  0.92

> <Gold.PLP.Chemscore.Internal.Correction>
0.0288

> <Gold.Rescore>
     Score         DG    S(hbond)    S(metal)    S(lipo)     H(rot)  DE(clash)    DE(int)     intcor
     18.68     -20.00       3.82        0.00      50.62       1.63       0.20       1.11       ----

> <Gold.Chemscore.Fitness>
18.6792

> <Gold.Chemscore.DG>
-19.9959

> <Gold.Chemscore.ZeroCoef>
-5.4800

> <Gold.Chemscore.Hbond>
3.8232

> <Gold.Chemscore.Metal>
0.0000

> <Gold.Chemscore.Lipo>
50.6161

> <Gold.Chemscore.Internal_Hbond>
0.0000

> <Gold.Chemscore.DEClash>
0.2047

> <Gold.Chemscore.DEInternal>
1.1120

> <Gold.Chemscore.Rot>
1.6311

> <Gold.Chemscore.Internal.Correction>
   9.000000E+99

> <Gold.Chemscore.Hbonds>
donor molecule, donor type, donor heavy atom, donor atom, acceptor molecule, acceptor atom, score
      L1  H     4    25       P1  7948  0.93
      L1  H     7    26       P1  7948  0.96
      L1  H    11    18       P1 10186  0.94
      L1  H    13    37       P1 10175  0.88

> <Gold.Chemscore.Hbond.Weighted>
-12.7695

> <Gold.Chemscore.Metal.Weighted>
-0.0000

> <Gold.Chemscore.Lipo.Weighted>
-5.9221

> <Gold.Chemscore.Internal_Hbond.Weighted>
0.0000

> <Gold.Chemscore.DEClash.Weighted>
0.2047

> <Gold.Chemscore.DEInternal.Weighted>
1.1120

> <Gold.Chemscore.Rot.Weighted>
4.1757

> <Gold.Chemscore.Internal.Correction.Weighted>
   9.000000E+99

> <Gold.Protein.RotatedTorsions>
[ 6907 6896 6895 6894 ] final   33.24 input  -60.11 | X-H torsion
[ 7974 7965 7964 7962 ] final  113.49 input  175.53 | X-H torsion
[ 8008 7997 7996 7995 ] final  122.07 input   59.86 | X-H torsion
[ 10167 10162 10161 10158 ] final  -91.63 input  -65.29 | X-H torsion
[ 10718 10713 10712 10709 ] final -170.59 input   66.30 | X-H torsion
[ 10763 10752 10751 10750 ] final  -83.99 input  -60.55 | X-H torsion
[ 11005 11000 10999 10996 ] final  -21.87 input  -57.11 | X-H torsion

> <Gold.Protein.ActiveResidues>
 VAL166  LYS551  ARG553  GLY616  TRP617  ASP618  TYR619  PRO620  LYS621  CYS622 
 ASP623  PHE694  ASN695  SER759  ASP760  ASP761  ALA762  ILE779  LEU786  VAL792 
 PHE793  MET794  SER795  GLU796  ALA797  LYS798  CYS799  TRP800  GLU811  SER814 

> <Gold.Protein.RotatedAtoms>
  152.0857  134.9441  160.0572 H   0  0  0  0  0  0  0  0  0  0  0  0  # atno 6907 bound_to 6896
  152.0712  133.4103  159.4468 H   0  0  0  0  0  0  0  0  0  0  0  0  # atno 6908 bound_to 6896
  150.6836  134.3009  159.4749 H   0  0  0  0  0  0  0  0  0  0  0  0  # atno 6909 bound_to 6896
  145.2163  139.2883  143.4242 H   0  0  0  0  0  0  0  0  0  0  0  0  # atno 7974 bound_to 7965
  156.2713  140.2794  156.1409 H   0  0  0  0  0  0  0  0  0  0  0  0  # atno 8008 bound_to 7997
  155.0954  140.0389  157.2699 H   0  0  0  0  0  0  0  0  0  0  0  0  # atno 8009 bound_to 7997
  154.6856  140.2618  155.6869 H   0  0  0  0  0  0  0  0  0  0  0  0  # atno 8010 bound_to 7997
  140.3429  143.2932  151.9814 H   0  0  0  0  0  0  0  0  0  0  0  0  # atno 10167 bound_to 10162
  156.7284  130.9297  151.3102 H   0  0  0  0  0  0  0  0  0  0  0  0  # atno 10718 bound_to 10713
  154.5943  135.5536  153.7310 H   0  0  0  0  0  0  0  0  0  0  0  0  # atno 10763 bound_to 10752
  153.0129  135.6351  154.1805 H   0  0  0  0  0  0  0  0  0  0  0  0  # atno 10764 bound_to 10752
  154.1745  135.2890  155.3051 H   0  0  0  0  0  0  0  0  0  0  0  0  # atno 10765 bound_to 10752
  140.8602  133.7793  156.0066 H   0  0  0  0  0  0  0  0  0  0  0  0  # atno 11005 bound_to 11000
  146.3386  140.2454  142.8597 LP  0  0  0  0  0  0  0  0  0  0  0  0  # atno 17320 bound_to 7965
  144.9808  140.8457  143.5398 LP  0  0  0  0  0  0  0  0  0  0  0  0  # atno 17321 bound_to 7965
  139.4837  144.6141  151.7379 LP  0  0  0  0  0  0  0  0  0  0  0  0  # atno 17342 bound_to 10162
  140.5292  144.0758  150.6048 LP  0  0  0  0  0  0  0  0  0  0  0  0  # atno 17343 bound_to 10162
  157.6869  130.9194  150.0410 LP  0  0  0  0  0  0  0  0  0  0  0  0  # atno 17370 bound_to 10713
  156.1546  130.3643  149.9388 LP  0  0  0  0  0  0  0  0  0  0  0  0  # atno 17371 bound_to 10713
  140.8691  134.2748  157.5199 LP  0  0  0  0  0  0  0  0  0  0  0  0  # atno 17394 bound_to 11000
  139.8706  134.9558  156.4217 LP  0  0  0  0  0  0  0  0  0  0  0  0  # atno 17395 bound_to 11000

$$$$
