AV-unprocessed.smi:2702|AV-procd|sdf|10436|dock9
  -GOLD-   2272014473D 1   1.00000     0.00000
 Structure written by MMmdl.
 47 48  0  0  0  0  0  0  0  0  1 V2000
  147.9513  133.6238  159.3815 C   0  0  0  0  0  0  0  0  0  0  0  0
  149.0892  134.1636  158.7332 O   0  0  0  0  0  0  0  0  0  0  0  0
  149.0255  134.0311  157.3234 C   0  0  0  0  0  0  0  0  0  0  0  0
  149.4120  135.3334  156.6525 C   0  0  0  0  0  0  0  0  0  0  0  0
  150.4730  135.4194  155.8169 C   0  0  0  0  0  0  0  0  0  0  0  0
  150.8296  136.6931  155.1924 C   0  0  0  0  0  0  0  0  0  0  0  0
  151.7819  136.8098  154.4203 O   0  0  0  0  0  0  0  0  0  0  0  0
  150.0244  137.7442  155.5289 N   0  0  0  0  0  0  0  0  0  0  0  0
  150.2562  139.0902  154.9744 C   0  0  0  0  0  0  0  0  0  0  0  0
  151.3710  139.8514  155.7046 C   0  0  0  0  0  0  0  0  0  0  0  0
  152.5292  139.8162  155.2876 O   0  0  0  0  0  0  0  0  0  0  0  0
  151.0031  140.5263  156.8041 N   0  0  0  0  0  0  0  0  0  0  0  0
  151.8876  141.3447  157.6298 C   0  0  2  0  0  0  0  0  0  0  0  0
  152.1287  140.6487  158.9834 C   0  0  0  0  0  0  0  0  0  0  0  0
  153.0843  141.4649  159.8665 C   0  0  0  0  0  0  0  0  0  0  0  0
  152.5856  142.9060  160.0561 C   0  0  0  0  0  0  0  0  0  0  0  0
  152.3360  143.6000  158.7018 C   0  0  2  0  0  0  0  0  0  0  0  0
  151.9343  145.0734  158.8803 C   0  0  0  0  0  0  0  0  0  0  0  0
  151.3499  142.7911  157.8178 C   0  0  2  0  0  0  0  0  0  0  0  0
  149.8869  142.8377  158.3182 C   0  0  0  0  0  0  0  0  0  0  0  0
  148.9427  137.6032  156.4210 C   0  0  0  0  0  0  0  0  0  0  0  0
  148.6455  136.4627  156.9579 N   0  0  0  0  0  0  0  0  0  0  0  0
  148.0460  133.7576  160.4592 H   0  0  0  0  0  0  0  0  0  0  0  0
  147.8535  132.5559  159.1822 H   0  0  0  0  0  0  0  0  0  0  0  0
  147.0380  134.1256  159.0591 H   0  0  0  0  0  0  0  0  0  0  0  0
  149.7003  133.2410  156.9895 H   0  0  0  0  0  0  0  0  0  0  0  0
  148.0178  133.7454  157.0173 H   0  0  0  0  0  0  0  0  0  0  0  0
  151.0635  134.5413  155.5996 H   0  0  0  0  0  0  0  0  0  0  0  0
  150.5023  139.0075  153.9138 H   0  0  0  0  0  0  0  0  0  0  0  0
  149.3535  139.7028  155.0070 H   0  0  0  0  0  0  0  0  0  0  0  0
  150.0311  140.4933  157.0756 H   0  0  0  0  0  0  0  0  0  0  0  0
  152.8525  141.4030  157.1218 H   0  0  0  0  0  0  0  0  0  0  0  0
  151.1834  140.5010  159.5067 H   0  0  0  0  0  0  0  0  0  0  0  0
  152.5462  139.6542  158.8222 H   0  0  0  0  0  0  0  0  0  0  0  0
  153.2002  140.9806  160.8364 H   0  0  0  0  0  0  0  0  0  0  0  0
  154.0748  141.4805  159.4100 H   0  0  0  0  0  0  0  0  0  0  0  0
  151.6726  142.9044  160.6521 H   0  0  0  0  0  0  0  0  0  0  0  0
  153.3221  143.4686  160.6310 H   0  0  0  0  0  0  0  0  0  0  0  0
  153.2902  143.6122  158.1721 H   0  0  0  0  0  0  0  0  0  0  0  0
  151.0458  145.1789  159.5025 H   0  0  0  0  0  0  0  0  0  0  0  0
  151.7309  145.5454  157.9188 H   0  0  0  0  0  0  0  0  0  0  0  0
  152.7344  145.6381  159.3599 H   0  0  0  0  0  0  0  0  0  0  0  0
  151.3481  143.2650  156.8352 H   0  0  0  0  0  0  0  0  0  0  0  0
  149.7782  142.4028  159.3110 H   0  0  0  0  0  0  0  0  0  0  0  0
  149.2170  142.2977  157.6491 H   0  0  0  0  0  0  0  0  0  0  0  0
  149.5121  143.8594  158.3633 H   0  0  0  0  0  0  0  0  0  0  0  0
  148.3819  138.5163  156.6273 H   0  0  0  0  0  0  0  0  0  0  0  0
  1  2  1  0  0  0  0
  1 23  1  0  0  0  0
  1 24  1  0  0  0  0
  1 25  1  0  0  0  0
  2  3  1  0  0  0  0
  3  4  1  0  0  0  0
  3 26  1  0  0  0  0
  3 27  1  0  0  0  0
  4 22  1  0  0  0  0
  4  5  2  0  0  0  0
  5  6  1  0  0  0  0
  5 28  1  0  0  0  0
  6  7  2  0  0  0  0
  6  8  1  0  0  0  0
  8  9  1  0  0  0  0
  8 21  1  0  0  0  0
  9 10  1  0  0  0  0
  9 29  1  0  0  0  0
  9 30  1  0  0  0  0
 10 11  2  0  0  0  0
 10 12  1  0  0  0  0
 12 13  1  0  0  0  0
 12 31  1  0  0  0  0
 13 19  1  0  0  0  0
 13 14  1  0  0  0  0
 13 32  1  0  0  0  0
 14 15  1  0  0  0  0
 14 33  1  0  0  0  0
 14 34  1  0  0  0  0
 15 16  1  0  0  0  0
 15 35  1  0  0  0  0
 15 36  1  0  0  0  0
 16 17  1  0  0  0  0
 16 37  1  0  0  0  0
 16 38  1  0  0  0  0
 17 18  1  0  0  0  0
 17 19  1  0  0  0  0
 17 39  1  0  0  0  0
 18 40  1  0  0  0  0
 18 41  1  0  0  0  0
 18 42  1  0  0  0  0
 19 20  1  0  0  0  0
 19 43  1  0  0  0  0
 20 44  1  0  0  0  0
 20 45  1  0  0  0  0
 20 46  1  0  0  0  0
 21 22  2  0  0  0  0
 21 47  1  0  0  0  0
M  END
> <s_m_source_file>
AV-unprocessed.smi

> <i_m_source_file_index>
2702

> <i_lp_mmshare_version>
43012

> <i_f3d_flags>
0

> <s_epik_input>
W0NIM11PW0NIMl1jMVtjSF1jKD1PKW4oW2NIXW4xKVtDSDJdQyg9TylbTkhdW0NAQEhdMltDSDJdW0NIMl1bQ0gyXVtDQEBIXShbQ0gzXSlbQ0BIXTJbQ0gzXQ==

> <s_epik_cmdline>
J2VwaWtfcHl0aG9uJywgJy1waCcsICc3LjAnLCAnLXRuJywgJzgnLCAnLW1hJywgJzIwMCcsICctbWV0YWxfYmluZGluZycsICctaW1hZScsICc8aW5maWxlLm1hZT4nLCAnLW9tYWUnLCAnPG91dGZpbGUubWFlPic=

> <r_lp_tautomer_probability>
1

> <r_epik_Ionization_Penalty>
1.22164e-06

> <r_epik_Ionization_Penalty_Charging>
3.17988e-07

> <r_epik_Ionization_Penalty_Neutral>
9.03656e-07

> <r_epik_State_Penalty>
-0

> <r_epik_Charging_Adjusted_Penalty>
3.17988e-07

> <i_epik_Tot_Q>
0

> <i_epik_Tot_abs_Q>
0

> <r_epik_Metal_State_Penalty>
-0

> <b_epik_Metal_Only>
0

> <s_lp_Force_Field>
OPLS_2005

> <r_lp_Energy>
18.8167

> <b_lp_Chiralities_Consistent>
1

> <s_lp_Variant>
AV-unprocessed.smi:2702-7

> <Gold.Version>
5.8.1

> <Gold.Id.Protein>
6NUR|6NUR_protein|mol2

> <Gold.PLP.Fitness>
46.2649

> <Gold.PLP.PLP>
-39.2500

> <Gold.PLP.part.hbond>
-4.0000

> <Gold.PLP.part.metal>
0.0000

> <Gold.PLP.part.buried>
-5.6930

> <Gold.PLP.part.nonpolar>
-30.5371

> <Gold.PLP.part.repulsive>
0.9203

> <Gold.PLP.ligand.clash>
0.0000

> <Gold.PLP.ligand.torsion>
1.0444

> <Gold.PLP.Chemscore.Hbond>
3.0192

> <Gold.PLP.Chemscore.CHOScore>
0.0000

> <Gold.PLP.Chemscore.Metal>
0.0000

> <Gold.Chemscore.Hbonds>
donor molecule, donor type, donor heavy atom, donor atom, acceptor molecule, acceptor atom, score
      P1  H  6896  6908       L1     2  0.98
      P1  H  7989  7998       L1    11  0.06
      P1  H  7997  8009       L1    11  0.96
      P1  H 10752 10763       L1     7  0.90

> <Gold.PLP.Chemscore.Internal.Correction>
0.0461

> <Gold.Rescore>
     Score         DG    S(hbond)    S(metal)    S(lipo)     H(rot)  DE(clash)    DE(int)     intcor
     20.81     -22.10       2.96        0.00      99.73       1.93       0.24       1.05       ----

> <Gold.Chemscore.Fitness>
20.8066

> <Gold.Chemscore.DG>
-22.0981

> <Gold.Chemscore.ZeroCoef>
-5.4800

> <Gold.Chemscore.Hbond>
2.9602

> <Gold.Chemscore.Metal>
0.0000

> <Gold.Chemscore.Lipo>
99.7259

> <Gold.Chemscore.Internal_Hbond>
0.0000

> <Gold.Chemscore.DEClash>
0.2400

> <Gold.Chemscore.DEInternal>
1.0515

> <Gold.Chemscore.Rot>
1.9284

> <Gold.Chemscore.Internal.Correction>
   9.000000E+99

> <Gold.Chemscore.Hbonds>
donor molecule, donor type, donor heavy atom, donor atom, acceptor molecule, acceptor atom, score
      P1  H  6896  6908       L1     2  0.69
      P1  H  7997  8009       L1    11  0.90
      P1  H 10752 10763       L1     7  0.88

> <Gold.Chemscore.Hbond.Weighted>
-9.8869

> <Gold.Chemscore.Metal.Weighted>
-0.0000

> <Gold.Chemscore.Lipo.Weighted>
-11.6679

> <Gold.Chemscore.Internal_Hbond.Weighted>
0.0000

> <Gold.Chemscore.DEClash.Weighted>
0.2400

> <Gold.Chemscore.DEInternal.Weighted>
1.0515

> <Gold.Chemscore.Rot.Weighted>
4.9368

> <Gold.Chemscore.Internal.Correction.Weighted>
   9.000000E+99

> <Gold.Protein.RotatedTorsions>
[ 6907 6896 6895 6894 ] final  124.21 input  -60.11 | X-H torsion
[ 7974 7965 7964 7962 ] final -178.63 input  175.53 | X-H torsion
[ 8008 7997 7996 7995 ] final -153.44 input   59.86 | X-H torsion
[ 10167 10162 10161 10158 ] final   18.80 input  -65.29 | X-H torsion
[ 10718 10713 10712 10709 ] final -143.60 input   66.30 | X-H torsion
[ 10763 10752 10751 10750 ] final   23.49 input  -60.55 | X-H torsion
[ 11005 11000 10999 10996 ] final   -4.20 input  -57.11 | X-H torsion

> <Gold.Protein.ActiveResidues>
 VAL166  LYS551  ARG553  GLY616  TRP617  ASP618  TYR619  PRO620  LYS621  CYS622 
 ASP623  PHE694  ASN695  SER759  ASP760  ASP761  ALA762  ILE779  LEU786  VAL792 
 PHE793  MET794  SER795  GLU796  ALA797  LYS798  CYS799  TRP800  GLU811  SER814 

> <Gold.Protein.RotatedAtoms>
  152.4097  133.6944  159.6386 H   0  0  0  0  0  0  0  0  0  0  0  0  # atno 6907 bound_to 6896
  150.7978  133.8646  159.3250 H   0  0  0  0  0  0  0  0  0  0  0  0  # atno 6908 bound_to 6896
  151.6391  135.1016  160.0189 H   0  0  0  0  0  0  0  0  0  0  0  0  # atno 6909 bound_to 6896
  144.7132  140.0839  143.6424 H   0  0  0  0  0  0  0  0  0  0  0  0  # atno 7974 bound_to 7965
  155.6709  140.0733  157.2520 H   0  0  0  0  0  0  0  0  0  0  0  0  # atno 8008 bound_to 7997
  154.4123  140.1699  156.1929 H   0  0  0  0  0  0  0  0  0  0  0  0  # atno 8009 bound_to 7997
  155.9617  140.3369  155.6500 H   0  0  0  0  0  0  0  0  0  0  0  0  # atno 8010 bound_to 7997
  140.5626  143.9309  150.6653 H   0  0  0  0  0  0  0  0  0  0  0  0  # atno 10167 bound_to 10162
  156.3600  130.7733  151.1899 H   0  0  0  0  0  0  0  0  0  0  0  0  # atno 10718 bound_to 10713
  153.0834  135.6626  153.9998 H   0  0  0  0  0  0  0  0  0  0  0  0  # atno 10763 bound_to 10752
  153.9614  135.2973  155.3434 H   0  0  0  0  0  0  0  0  0  0  0  0  # atno 10764 bound_to 10752
  154.7238  135.5153  153.8925 H   0  0  0  0  0  0  0  0  0  0  0  0  # atno 10765 bound_to 10752
  140.6777  133.9181  155.8535 H   0  0  0  0  0  0  0  0  0  0  0  0  # atno 11005 bound_to 11000
  145.9678  139.2847  143.1117 LP  0  0  0  0  0  0  0  0  0  0  0  0  # atno 17320 bound_to 7965
  145.9150  140.9154  143.0434 LP  0  0  0  0  0  0  0  0  0  0  0  0  # atno 17321 bound_to 7965
  140.2764  143.3420  152.1191 LP  0  0  0  0  0  0  0  0  0  0  0  0  # atno 17342 bound_to 10162
  139.5077  144.6837  151.5942 LP  0  0  0  0  0  0  0  0  0  0  0  0  # atno 17343 bound_to 10162
  157.7472  131.0403  150.4591 LP  0  0  0  0  0  0  0  0  0  0  0  0  # atno 17370 bound_to 10713
  156.4800  130.4071  149.6467 LP  0  0  0  0  0  0  0  0  0  0  0  0  # atno 17371 bound_to 10713
  141.0342  134.0713  157.3978 LP  0  0  0  0  0  0  0  0  0  0  0  0  # atno 17394 bound_to 11000
  139.8961  135.0144  156.7037 LP  0  0  0  0  0  0  0  0  0  0  0  0  # atno 17395 bound_to 11000

$$$$
