#       Name:                AV-unprocessed.smi:473
#       Creating user name   scv26
#       Creation time:       Thu Mar 26 23:07:33 2020


#       File generated by GOLD software.
#

@<TRIPOS>MOLECULE
AV-unprocessed.smi:473
    49    51     1
SMALL
NO_CHARGES


@<TRIPOS>ATOM
      1 ****        -3.0996   4.8182   1.2230 C.3            1 S1                 0.0000
      2 ****        -2.3312   3.7448   0.4721 C.ar           1 S1                 0.0000
      3 ****        -2.0867   3.9135  -0.9097 C.ar           1 S1                 0.0000
      4 ****        -1.3712   2.9413  -1.6425 C.ar           1 S1                 0.0000
      5 ****        -1.0165   2.9036  -2.9803 N.2            1 S1                 0.0000
      6 ****        -0.3616   1.7482  -3.0520 C.2            1 S1                 0.0000
      7 ****        -0.2495   1.0320  -1.9169 N.pl3          1 S1                 0.0000
      8 ****         0.4168  -0.2469  -1.7500 C.3            1 S1                 0.0000
      9 ****         1.9272  -0.0927  -1.4810 C.3            1 S1                 0.0000
     10 ****         2.1739   0.6955  -0.3333 O.3            1 S1                 0.0000
     11 ****         2.6672  -1.4330  -1.3385 C.3            1 S1                 0.0000
     12 ****         1.9616  -2.2833  -0.4490 O.3            1 S1                 0.0000
     13 ****         2.5866  -3.5441  -0.2736 C.3            1 S1                 0.0000
     14 ****         1.7512  -4.3414   0.6775 C.2            1 S1                 0.0000
     15 ****         1.7678  -5.6573   1.0496 C.2            1 S1                 0.0000
     16 ****         0.7251  -5.8212   2.0030 C.2            1 S1                 0.0000
     17 ****         0.1508  -4.5908   2.1478 C.2            1 S1                 0.0000
     18 ****         0.7649  -3.6769   1.3485 O.3            1 S1                 0.0000
     19 ****        -0.9065   1.7852  -0.9501 C.ar           1 S1                 0.0000
     20 ****        -1.1450   1.6050   0.4235 C.ar           1 S1                 0.0000
     21 ****        -1.8590   2.5871   1.1411 C.ar           1 S1                 0.0000
     22 ****        -2.1064   2.3849   2.6254 C.3            1 S1                 0.0000
     23 ****        -3.3930   5.6344   0.5623 H              1 S1                 0.0000
     24 ****        -2.4864   5.2381   2.0208 H              1 S1                 0.0000
     25 ****        -4.0057   4.4030   1.6645 H              1 S1                 0.0000
     26 ****        -2.4456   4.7953  -1.4197 H              1 S1                 0.0000
     27 ****         0.0641   1.4028  -3.9827 H              1 S1                 0.0000
     28 ****        -0.0699  -0.7825  -0.9339 H              1 S1                 0.0000
     29 ****         0.2540  -0.8401  -2.6507 H              1 S1                 0.0000
     30 ****         2.3738   0.4462  -2.3175 H              1 S1                 0.0000
     31 ****         1.7396   1.5277  -0.4426 H              1 S1                 0.0000
     32 ****         2.7252  -1.9166  -2.3147 H              1 S1                 0.0000
     33 ****         3.6915  -1.2745  -0.9965 H              1 S1                 0.0000
     34 ****         2.6675  -4.0658  -1.2283 H              1 S1                 0.0000
     35 ****         3.5929  -3.4183   0.1280 H              1 S1                 0.0000
     36 ****         2.4472  -6.4105   0.6789 H              1 S1                 0.0000
     37 ****         0.4331  -6.7243   2.5184 H              1 S1                 0.0000
     38 ****        -0.6626  -4.2077   2.7464 H              1 S1                 0.0000
     39 ****        -0.7767   0.7194   0.9205 H              1 S1                 0.0000
     40 ****        -1.6867   1.4404   2.9732 H              1 S1                 0.0000
     41 ****        -3.1758   2.3730   2.8375 H              1 S1                 0.0000
     42 ****        -1.6461   3.1878   3.2016 H              1 S1                 0.0000
     43 ****        -1.2035   3.5696  -3.7024 LP             1 S1                 0.0000
     44 ****         3.1578   0.8396  -0.2280 LP             1 S1                 0.0000
     45 ****         1.8163   0.2322   0.4775 LP             1 S1                 0.0000
     46 ****         1.0418  -2.4315  -0.8124 LP             1 S1                 0.0000
     47 ****         1.8996  -1.8319   0.4412 LP             1 S1                 0.0000
     48 ****         0.1087  -3.2892   0.7011 LP             1 S1                 0.0000
     49 ****         1.1590  -2.9439   1.9029 LP             1 S1                 0.0000
@<TRIPOS>BOND
    1    1    2 1     
    2    1   23 1     
    3    1   24 1     
    4    1   25 1     
    5    2   21 ar    
    6    2    3 ar    
    7    3    4 ar    
    8    3   26 1     
    9    4   19 ar    
   10    4    5 1     
   11    5    6 2     
   12    6    7 1     
   13    6   27 1     
   14    7    8 1     
   15    7   19 1     
   16    8    9 1     
   17    8   28 1     
   18    8   29 1     
   19    9   10 1     
   20    9   11 1     
   21    9   30 1     
   22   10   31 1     
   23   11   12 1     
   24   11   32 1     
   25   11   33 1     
   26   12   13 1     
   27   13   14 1     
   28   13   34 1     
   29   13   35 1     
   30   14   18 1     
   31   14   15 2     
   32   15   16 1     
   33   15   36 1     
   34   16   17 2     
   35   16   37 1     
   36   17   18 1     
   37   17   38 1     
   38   19   20 ar    
   39   20   21 ar    
   40   20   39 1     
   41   21   22 1     
   42   22   40 1     
   43   22   41 1     
   44   22   42 1     
   45    5   43 1     
   46   10   44 1     
   47   10   45 1     
   48   12   46 1     
   49   12   47 1     
   50   18   48 1     
   51   18   49 1     
@<TRIPOS>SUBSTRUCTURE
      1 S1             1
@<TRIPOS>SET
LONE_PAIRS      STATIC     ATOMS    <user>   **** ""
7 43 44 45 46 47 48 49
DONOR_HYDROGENS      STATIC     ATOMS    <user>   **** ""
1 31
ATOM$BLUE        STATIC     ATOMS    COLORGROUP SYSTEM
7 43 44 45 46 47 48 49
ATOM$RED        STATIC     ATOMS    COLORGROUP SYSTEM
1 31
