#       Name:                AV-unprocessed.smi:2809
#       Creating user name   scv26
#       Creation time:       Fri Mar 27 15:26:29 2020


#       File generated by GOLD software.
#

@<TRIPOS>MOLECULE
AV-unprocessed.smi:2809
    51    52     1
SMALL
NO_CHARGES


@<TRIPOS>ATOM
      1 ****        -7.1199   1.2896   0.8370 C.3            1 S1                 0.0000
      2 ****        -6.5335   1.2338  -0.5780 C.3            1 S1                 0.0000
      3 ****        -5.0779   0.8070  -0.5802 C.ar           1 S1                 0.0000
      4 ****        -4.0528   1.7736  -0.6011 C.ar           1 S1                 0.0000
      5 ****        -2.7032   1.3722  -0.5992 C.ar           1 S1                 0.0000
      6 ****        -2.3555   0.0062  -0.5740 C.ar           1 S1                 0.0000
      7 ****        -1.0110  -0.2963  -0.5705 O.3            1 S1                 0.0000
      8 ****        -0.6270  -1.6627  -0.4905 C.3            1 S1                 0.0000
      9 ****         0.9066  -1.7426  -0.4464 C.3            1 S1                 0.0000
     10 ****         1.2566  -3.1069  -0.5668 O.3            1 S1                 0.0000
     11 ****         1.4790  -1.1961   0.8813 C.3            1 S1                 0.0000
     12 ****         2.8788  -0.7607   0.7468 N.am           1 S1                 0.0000
     13 ****         3.8564  -1.6557   1.2105 C.2            1 S1                 0.0000
     14 ****         5.1172  -1.3764   1.1473 N.2            1 S1                 0.0000
     15 ****         5.5353  -0.1579   0.6047 C.2            1 S1                 0.0000
     16 ****         7.0363   0.0695   0.5820 C.3            1 S1                 0.0000
     17 ****         4.6385   0.7503   0.1319 C.2            1 S1                 0.0000
     18 ****         5.0355   2.0907  -0.4744 C.3            1 S1                 0.0000
     19 ****         3.1999   0.4453   0.1947 C.2            1 S1                 0.0000
     20 ****         2.3337   1.2169  -0.2221 O.2            1 S1                 0.0000
     21 ****        -3.3912  -0.9617  -0.5541 C.ar           1 S1                 0.0000
     22 ****        -4.7414  -0.5612  -0.5573 C.ar           1 S1                 0.0000
     23 ****        -8.1654   1.5972   0.8119 H              1 S1                 0.0000
     24 ****        -6.5779   2.0013   1.4604 H              1 S1                 0.0000
     25 ****        -7.0722   0.3143   1.3223 H              1 S1                 0.0000
     26 ****        -7.1093   0.5387  -1.1902 H              1 S1                 0.0000
     27 ****        -6.6254   2.2106  -1.0545 H              1 S1                 0.0000
     28 ****        -4.2974   2.8256  -0.6172 H              1 S1                 0.0000
     29 ****        -1.9252   2.1217  -0.6152 H              1 S1                 0.0000
     30 ****        -1.0525  -2.1345   0.3970 H              1 S1                 0.0000
     31 ****        -0.9993  -2.1926  -1.3692 H              1 S1                 0.0000
     32 ****         1.3109  -1.2038  -1.3043 H              1 S1                 0.0000
     33 ****         2.1974  -3.1720  -0.6260 H              1 S1                 0.0000
     34 ****         0.8902  -0.3366   1.2070 H              1 S1                 0.0000
     35 ****         1.3455  -1.9244   1.6842 H              1 S1                 0.0000
     36 ****         3.4788  -2.5941   1.6202 H              1 S1                 0.0000
     37 ****         7.2988   0.9413   1.1819 H              1 S1                 0.0000
     38 ****         7.3837   0.2309  -0.4386 H              1 S1                 0.0000
     39 ****         7.5747  -0.7888   0.9859 H              1 S1                 0.0000
     40 ****         4.7050   2.1453  -1.5121 H              1 S1                 0.0000
     41 ****         6.1098   2.2667  -0.4619 H              1 S1                 0.0000
     42 ****         4.5647   2.9069   0.0743 H              1 S1                 0.0000
     43 ****        -3.1765  -2.0192  -0.5368 H              1 S1                 0.0000
     44 ****        -5.5201  -1.3096  -0.5398 H              1 S1                 0.0000
     45 ****        -0.6044   0.1717   0.2141 LP             1 S1                 0.0000
     46 ****        -0.6228   0.0711  -1.4157 LP             1 S1                 0.0000
     47 ****         0.8397  -3.4904  -1.3909 LP             1 S1                 0.0000
     48 ****         0.9338  -3.6098   0.2350 LP             1 S1                 0.0000
     49 ****         5.7926  -2.0314   1.4862 LP             1 S1                 0.0000
     50 ****         1.3680   0.9649  -0.1601 LP             1 S1                 0.0000
     51 ****         2.5968   2.0947  -0.6223 LP             1 S1                 0.0000
@<TRIPOS>BOND
    1    1    2 1     
    2    1   23 1     
    3    1   24 1     
    4    1   25 1     
    5    2    3 1     
    6    2   26 1     
    7    2   27 1     
    8    3   22 ar    
    9    3    4 ar    
   10    4    5 ar    
   11    4   28 1     
   12    5    6 ar    
   13    5   29 1     
   14    6    7 1     
   15    6   21 ar    
   16    7    8 1     
   17    8    9 1     
   18    8   30 1     
   19    8   31 1     
   20    9   10 1     
   21    9   11 1     
   22    9   32 1     
   23   10   33 1     
   24   11   12 1     
   25   11   34 1     
   26   11   35 1     
   27   12   19 am    
   28   12   13 1     
   29   13   14 2     
   30   13   36 1     
   31   14   15 1     
   32   15   16 1     
   33   15   17 2     
   34   16   37 1     
   35   16   38 1     
   36   16   39 1     
   37   17   18 1     
   38   17   19 1     
   39   18   40 1     
   40   18   41 1     
   41   18   42 1     
   42   19   20 2     
   43   21   22 ar    
   44   21   43 1     
   45   22   44 1     
   46    7   45 1     
   47    7   46 1     
   48   10   47 1     
   49   10   48 1     
   50   14   49 1     
   51   20   50 1     
   52   20   51 1     
@<TRIPOS>SUBSTRUCTURE
      1 S1             1
@<TRIPOS>SET
LONE_PAIRS      STATIC     ATOMS    <user>   **** ""
7 45 46 47 48 49 50 51
DONOR_HYDROGENS      STATIC     ATOMS    <user>   **** ""
1 33
ATOM$BLUE        STATIC     ATOMS    COLORGROUP SYSTEM
7 45 46 47 48 49 50 51
ATOM$RED        STATIC     ATOMS    COLORGROUP SYSTEM
1 33
