AV-unprocessed.smi:1746|AV-procd|sdf|7033|dock2
  -GOLD-   22720 8253D 1   1.00000     0.00000
 Structure written by MMmdl.
 35 36  0  0  0  0  0  0  0  0  1 V2000
  153.1647  142.5619  162.0803 C   0  0  0  0  0  0  0  0  0  0  0  0
  153.6262  142.0690  160.7036 C   0  0  0  0  0  0  0  0  0  0  0  0
  152.8494  142.6626  159.6328 N   0  0  0  0  0  0  0  0  0  0  0  0
  152.0763  142.0238  158.6835 C   0  0  0  0  0  0  0  0  0  0  0  0
  151.5469  143.0169  157.9087 C   0  0  0  0  0  0  0  0  0  0  0  0
  150.6782  142.9208  156.7921 N   0  0  0  0  0  0  0  0  0  0  0  0
  150.3396  141.8106  156.1164 C   0  0  0  0  0  0  0  0  0  0  0  0
  150.7473  140.6765  156.3685 O   0  0  0  0  0  0  0  0  0  0  0  0
  149.4897  142.0870  155.1176 N   0  0  0  0  0  0  0  0  0  0  0  0
  148.9284  141.1000  154.2020 C   0  0  0  0  0  0  0  0  0  0  0  0
  147.3937  141.1817  154.1499 C   0  0  2  0  0  0  0  0  0  0  0  0
  146.8627  142.6011  153.9568 C   0  0  0  0  0  0  0  0  0  0  0  0
  145.4820  142.4953  154.5617 C   0  0  0  0  0  0  0  0  0  0  0  0
  145.7389  141.5836  155.7575 C   0  0  0  0  0  0  0  0  0  0  0  0
  146.8244  140.7398  155.3809 O   0  0  0  0  0  0  0  0  0  0  0  0
  152.0439  144.2330  158.4454 C   0  0  0  0  0  0  0  0  0  0  0  0
  152.8304  144.0110  159.4877 N   0  0  0  0  0  0  0  0  0  0  0  0
  153.7555  142.1048  162.8743 H   0  0  0  0  0  0  0  0  0  0  0  0
  152.1183  142.3113  162.2572 H   0  0  0  0  0  0  0  0  0  0  0  0
  153.2706  143.6436  162.1686 H   0  0  0  0  0  0  0  0  0  0  0  0
  154.6795  142.3068  160.5481 H   0  0  0  0  0  0  0  0  0  0  0  0
  153.5338  140.9841  160.6419 H   0  0  0  0  0  0  0  0  0  0  0  0
  151.9780  140.9486  158.6530 H   0  0  0  0  0  0  0  0  0  0  0  0
  150.2676  143.7879  156.4780 H   0  0  0  0  0  0  0  0  0  0  0  0
  149.2018  143.0456  154.9857 H   0  0  0  0  0  0  0  0  0  0  0  0
  149.3468  141.2724  153.2099 H   0  0  0  0  0  0  0  0  0  0  0  0
  149.2435  140.0986  154.5004 H   0  0  0  0  0  0  0  0  0  0  0  0
  147.0011  140.5492  153.3518 H   0  0  0  0  0  0  0  0  0  0  0  0
  147.4619  143.3186  154.5197 H   0  0  0  0  0  0  0  0  0  0  0  0
  146.8497  142.9114  152.9115 H   0  0  0  0  0  0  0  0  0  0  0  0
  145.0595  143.4605  154.8430 H   0  0  0  0  0  0  0  0  0  0  0  0
  144.8007  142.0135  153.8590 H   0  0  0  0  0  0  0  0  0  0  0  0
  146.0434  142.1707  156.6249 H   0  0  0  0  0  0  0  0  0  0  0  0
  144.8588  141.0029  156.0342 H   0  0  0  0  0  0  0  0  0  0  0  0
  151.8639  145.2478  158.1221 H   0  0  0  0  0  0  0  0  0  0  0  0
  1  2  1  0  0  0  0
  1 18  1  0  0  0  0
  1 19  1  0  0  0  0
  1 20  1  0  0  0  0
  2  3  1  0  0  0  0
  2 21  1  0  0  0  0
  2 22  1  0  0  0  0
  3 17  1  0  0  0  0
  3  4  1  0  0  0  0
  4  5  2  0  0  0  0
  4 23  1  0  0  0  0
  5  6  1  0  0  0  0
  5 16  1  0  0  0  0
  6  7  1  0  0  0  0
  6 24  1  0  0  0  0
  7  8  2  0  0  0  0
  7  9  1  0  0  0  0
  9 10  1  0  0  0  0
  9 25  1  0  0  0  0
 10 11  1  0  0  0  0
 10 26  1  0  0  0  0
 10 27  1  0  0  0  0
 11 15  1  0  0  0  0
 11 12  1  0  0  0  0
 11 28  1  0  0  0  0
 12 13  1  0  0  0  0
 12 29  1  0  0  0  0
 12 30  1  0  0  0  0
 13 14  1  0  0  0  0
 13 31  1  0  0  0  0
 13 32  1  0  0  0  0
 14 15  1  0  0  0  0
 14 33  1  0  0  0  0
 14 34  1  0  0  0  0
 16 17  2  0  0  0  0
 16 35  1  0  0  0  0
M  END
> <s_m_source_file>
AV-unprocessed.smi

> <i_m_source_file_index>
1746

> <i_lp_mmshare_version>
43012

> <i_f3d_flags>
0

> <s_epik_input>
W0NIM11bQ0gyXW4xW2NIXWMoW2NIXW4xKVtOSF1DKD1PKVtOSF1bQ0gyXVtDQEBIXTJbQ0gyXVtDSDJdW0NIMl1PMg==

> <s_epik_cmdline>
J2VwaWtfcHl0aG9uJywgJy1waCcsICc3LjAnLCAnLXRuJywgJzgnLCAnLW1hJywgJzIwMCcsICctbWV0YWxfYmluZGluZycsICctaW1hZScsICc8aW5maWxlLm1hZT4nLCAnLW9tYWUnLCAnPG91dGZpbGUubWFlPic=

> <r_lp_tautomer_probability>
1

> <r_epik_Ionization_Penalty>
0.000176839

> <r_epik_Ionization_Penalty_Charging>
0

> <r_epik_Ionization_Penalty_Neutral>
0.000176839

> <r_epik_State_Penalty>
-0

> <r_epik_Charging_Adjusted_Penalty>
0

> <i_epik_Tot_Q>
0

> <i_epik_Tot_abs_Q>
0

> <r_epik_Metal_State_Penalty>
-0

> <b_epik_Metal_Only>
0

> <s_lp_Force_Field>
OPLS_2005

> <r_lp_Energy>
20.4647

> <b_lp_Chiralities_Consistent>
1

> <s_lp_Variant>
AV-unprocessed.smi:1746-1

> <Gold.Version>
5.8.1

> <Gold.Id.Protein>
6NUR|6NUR_protein|mol2

> <Gold.PLP.Fitness>
46.7238

> <Gold.PLP.PLP>
-40.9476

> <Gold.PLP.part.hbond>
-2.0000

> <Gold.PLP.part.metal>
0.0000

> <Gold.PLP.part.buried>
-6.0261

> <Gold.PLP.part.nonpolar>
-33.5648

> <Gold.PLP.part.repulsive>
0.3539

> <Gold.PLP.ligand.clash>
0.0000

> <Gold.PLP.ligand.torsion>
0.1048

> <Gold.PLP.Chemscore.Hbond>
1.9920

> <Gold.PLP.Chemscore.CHOScore>
0.0000

> <Gold.PLP.Chemscore.Metal>
0.0000

> <Gold.Chemscore.Hbonds>
donor molecule, donor type, donor heavy atom, donor atom, acceptor molecule, acceptor atom, score
      L1  H     6    24       P1  8028  1.00
      L1  H     9    25       P1  8028  1.00

> <Gold.PLP.Chemscore.Internal.Correction>
0.0098

> <Gold.Rescore>
     Score         DG    S(hbond)    S(metal)    S(lipo)     H(rot)  DE(clash)    DE(int)     intcor
     17.32     -18.52       1.94        0.00      86.68       1.41       0.02       1.17       ----

> <Gold.Chemscore.Fitness>
17.3208

> <Gold.Chemscore.DG>
-18.5154

> <Gold.Chemscore.ZeroCoef>
-5.4800

> <Gold.Chemscore.Hbond>
1.9443

> <Gold.Chemscore.Metal>
0.0000

> <Gold.Chemscore.Lipo>
86.6817

> <Gold.Chemscore.Internal_Hbond>
0.0000

> <Gold.Chemscore.DEClash>
0.0212

> <Gold.Chemscore.DEInternal>
1.1733

> <Gold.Chemscore.Rot>
1.4064

> <Gold.Chemscore.Internal.Correction>
   9.000000E+99

> <Gold.Chemscore.Hbonds>
donor molecule, donor type, donor heavy atom, donor atom, acceptor molecule, acceptor atom, score
      L1  H     6    24       P1  8028  0.96
      L1  H     9    25       P1  8028  0.96

> <Gold.Chemscore.Hbond.Weighted>
-6.4941

> <Gold.Chemscore.Metal.Weighted>
-0.0000

> <Gold.Chemscore.Lipo.Weighted>
-10.1418

> <Gold.Chemscore.Internal_Hbond.Weighted>
0.0000

> <Gold.Chemscore.DEClash.Weighted>
0.0212

> <Gold.Chemscore.DEInternal.Weighted>
1.1733

> <Gold.Chemscore.Rot.Weighted>
3.6004

> <Gold.Chemscore.Internal.Correction.Weighted>
   9.000000E+99

> <Gold.Protein.RotatedTorsions>
[ 6907 6896 6895 6894 ] final -118.72 input  -60.11 | X-H torsion
[ 7974 7965 7964 7962 ] final   82.29 input  175.53 | X-H torsion
[ 8008 7997 7996 7995 ] final   47.94 input   59.86 | X-H torsion
[ 10167 10162 10161 10158 ] final -167.95 input  -65.29 | X-H torsion
[ 10718 10713 10712 10709 ] final -158.26 input   66.30 | X-H torsion
[ 10763 10752 10751 10750 ] final  108.12 input  -60.55 | X-H torsion
[ 11005 11000 10999 10996 ] final  152.68 input  -57.11 | X-H torsion

> <Gold.Protein.ActiveResidues>
 VAL166  LYS551  ARG553  GLY616  TRP617  ASP618  TYR619  PRO620  LYS621  CYS622 
 ASP623  PHE694  ASN695  SER759  ASP760  ASP761  ALA762  ILE779  LEU786  VAL792 
 PHE793  MET794  SER795  GLU796  ALA797  LYS798  CYS799  TRP800  GLU811  SER814 

> <Gold.Protein.RotatedAtoms>
  150.8243  133.8198  159.3125 H   0  0  0  0  0  0  0  0  0  0  0  0  # atno 6907 bound_to 6896
  151.5947  135.1049  160.0056 H   0  0  0  0  0  0  0  0  0  0  0  0  # atno 6908 bound_to 6896
  152.4330  133.7270  159.6622 H   0  0  0  0  0  0  0  0  0  0  0  0  # atno 6909 bound_to 6896
  145.6269  139.2397  143.2106 H   0  0  0  0  0  0  0  0  0  0  0  0  # atno 7974 bound_to 7965
  155.3774  140.3427  155.4245 H   0  0  0  0  0  0  0  0  0  0  0  0  # atno 8008 bound_to 7997
  156.1629  140.1606  156.8615 H   0  0  0  0  0  0  0  0  0  0  0  0  # atno 8009 bound_to 7997
  154.5157  140.0779  156.8058 H   0  0  0  0  0  0  0  0  0  0  0  0  # atno 8010 bound_to 7997
  139.6016  144.0998  152.1749 H   0  0  0  0  0  0  0  0  0  0  0  0  # atno 10167 bound_to 10162
  156.5517  130.8608  151.2782 H   0  0  0  0  0  0  0  0  0  0  0  0  # atno 10718 bound_to 10713
  153.4163  135.3822  155.2082 H   0  0  0  0  0  0  0  0  0  0  0  0  # atno 10763 bound_to 10752
  154.8741  135.3806  154.4439 H   0  0  0  0  0  0  0  0  0  0  0  0  # atno 10764 bound_to 10752
  153.4954  135.7088  153.5923 H   0  0  0  0  0  0  0  0  0  0  0  0  # atno 10765 bound_to 10752
  140.1329  134.8790  157.2228 H   0  0  0  0  0  0  0  0  0  0  0  0  # atno 11005 bound_to 11000
  146.1387  140.7087  142.9377 LP  0  0  0  0  0  0  0  0  0  0  0  0  # atno 17320 bound_to 7965
  144.7209  140.4368  143.7009 LP  0  0  0  0  0  0  0  0  0  0  0  0  # atno 17321 bound_to 7965
  140.0596  144.5867  150.7273 LP  0  0  0  0  0  0  0  0  0  0  0  0  # atno 17342 bound_to 10162
  140.7254  143.2631  151.4138 LP  0  0  0  0  0  0  0  0  0  0  0  0  # atno 17343 bound_to 10162
  157.7386  130.9817  150.2263 LP  0  0  0  0  0  0  0  0  0  0  0  0  # atno 17370 bound_to 10713
  156.2879  130.3742  149.7870 LP  0  0  0  0  0  0  0  0  0  0  0  0  # atno 17371 bound_to 10713
  140.2819  134.3340  155.7340 LP  0  0  0  0  0  0  0  0  0  0  0  0  # atno 17394 bound_to 11000
  141.2173  133.7483  156.9376 LP  0  0  0  0  0  0  0  0  0  0  0  0  # atno 17395 bound_to 11000

$$$$
