AV-unprocessed.smi:1240|AV-procd|sdf|5205|dock1
  -GOLD-   22720 4293D 1   1.00000     0.00000
 Structure written by MMmdl.
 48 50  0  0  0  0  0  0  0  0  2 V2000
  145.2571  135.3056  154.0563 O   0  0  0  0  0  0  0  0  0  0  0  0
  146.3363  135.4147  153.4749 C   0  0  0  0  0  0  0  0  0  0  0  0
  147.3203  136.2243  153.8911 N   0  0  0  0  0  0  0  0  0  0  0  0
  147.2576  137.0807  155.0731 C   0  0  0  0  0  0  0  0  0  0  0  0
  148.4630  136.8925  156.0481 C   0  0  2  0  0  0  0  0  0  0  0  0
  147.9167  136.6927  157.5038 C   0  0  1  0  0  0  0  0  0  0  0  0
  148.8818  136.4310  158.6475 C   0  0  0  0  0  0  0  0  0  0  0  0
  147.9757  136.6166  159.8583 C   0  0  0  0  0  0  0  0  0  0  0  0
  147.0850  137.6659  159.4941 O   0  0  0  0  0  0  0  0  0  0  0  0
  147.1238  137.8705  158.0834 C   0  0  0  0  0  0  0  0  0  0  0  0
  149.5228  137.9282  155.9464 N   0  0  0  0  0  0  0  0  0  0  0  0
  150.3117  137.7820  154.7156 C   0  0  0  0  0  0  0  0  0  0  0  0
  151.4808  138.7779  154.6530 C   0  0  0  0  0  0  0  0  0  0  0  0
  150.9704  140.1034  154.7233 O   0  0  0  0  0  0  0  0  0  0  0  0
  150.2051  140.3293  155.9006 C   0  0  0  0  0  0  0  0  0  0  0  0
  149.0485  139.3158  155.9789 C   0  0  0  0  0  0  0  0  0  0  0  0
  146.6784  134.7710  152.3453 N   0  0  0  0  0  0  0  0  0  0  0  0
  145.9087  133.8462  151.5880 C   0  0  0  0  0  0  0  0  0  0  0  0
  144.5298  133.7489  151.8796 C   0  0  0  0  0  0  0  0  0  0  0  0
  143.7253  132.8531  151.1461 C   0  0  0  0  0  0  0  0  0  0  0  0
  144.2742  132.1046  150.1656 N   0  3  0  0  0  0  0  0  0  0  0  0
  145.5826  132.1739  149.8397 C   0  0  0  0  0  0  0  0  0  0  0  0
  146.4367  133.0513  150.5385 C   0  0  0  0  0  0  0  0  0  0  0  0
  148.1742  136.2567  153.3532 H   0  0  0  0  0  0  0  0  0  0  0  0
  147.1965  138.1099  154.7170 H   0  0  0  0  0  0  0  0  0  0  0  0
  146.3159  136.8787  155.5841 H   0  0  0  0  0  0  0  0  0  0  0  0
  148.9187  135.9446  155.7580 H   0  0  0  0  0  0  0  0  0  0  0  0
  147.2463  135.8320  157.4857 H   0  0  0  0  0  0  0  0  0  0  0  0
  149.3469  135.4456  158.6105 H   0  0  0  0  0  0  0  0  0  0  0  0
  149.6593  137.1932  158.6953 H   0  0  0  0  0  0  0  0  0  0  0  0
  147.3967  135.7115  160.0457 H   0  0  0  0  0  0  0  0  0  0  0  0
  148.5313  136.8588  160.7644 H   0  0  0  0  0  0  0  0  0  0  0  0
  147.6314  138.8152  157.8840 H   0  0  0  0  0  0  0  0  0  0  0  0
  146.1142  137.9372  157.6775 H   0  0  0  0  0  0  0  0  0  0  0  0
  150.7026  136.7774  154.5934 H   0  0  0  0  0  0  0  0  0  0  0  0
  149.6672  137.9456  153.8504 H   0  0  0  0  0  0  0  0  0  0  0  0
  152.1847  138.6018  155.4680 H   0  0  0  0  0  0  0  0  0  0  0  0
  152.0317  138.6586  153.7199 H   0  0  0  0  0  0  0  0  0  0  0  0
  150.8475  140.2475  156.7789 H   0  0  0  0  0  0  0  0  0  0  0  0
  149.8166  141.3474  155.8819 H   0  0  0  0  0  0  0  0  0  0  0  0
  148.3533  139.4935  155.1569 H   0  0  0  0  0  0  0  0  0  0  0  0
  148.5086  139.5114  156.9049 H   0  0  0  0  0  0  0  0  0  0  0  0
  147.5693  135.0251  151.9443 H   0  0  0  0  0  0  0  0  0  0  0  0
  144.0900  134.3489  152.6632 H   0  0  0  0  0  0  0  0  0  0  0  0
  142.6668  132.7152  151.3121 H   0  0  0  0  0  0  0  0  0  0  0  0
  145.9043  131.5339  149.0311 H   0  0  0  0  0  0  0  0  0  0  0  0
  147.4748  133.1047  150.2481 H   0  0  0  0  0  0  0  0  0  0  0  0
  143.6745  131.4633  149.6456 H   0  0  0  0  0  0  0  0  0  0  0  0
  1  2  2  0  0  0  0
  2  3  1  0  0  0  0
  2 17  1  0  0  0  0
  3  4  1  0  0  0  0
  3 24  1  0  0  0  0
  4  5  1  0  0  0  0
  4 25  1  0  0  0  0
  4 26  1  0  0  0  0
  5  6  1  0  0  0  0
  5 11  1  0  0  0  0
  5 27  1  0  0  0  0
  6 10  1  0  0  0  0
  6  7  1  0  0  0  0
  6 28  1  0  0  0  0
  7  8  1  0  0  0  0
  7 29  1  0  0  0  0
  7 30  1  0  0  0  0
  8  9  1  0  0  0  0
  8 31  1  0  0  0  0
  8 32  1  0  0  0  0
  9 10  1  0  0  0  0
 10 33  1  0  0  0  0
 10 34  1  0  0  0  0
 11 16  1  0  0  0  0
 11 12  1  0  0  0  0
 12 13  1  0  0  0  0
 12 35  1  0  0  0  0
 12 36  1  0  0  0  0
 13 14  1  0  0  0  0
 13 37  1  0  0  0  0
 13 38  1  0  0  0  0
 14 15  1  0  0  0  0
 15 16  1  0  0  0  0
 15 39  1  0  0  0  0
 15 40  1  0  0  0  0
 16 41  1  0  0  0  0
 16 42  1  0  0  0  0
 17 18  1  0  0  0  0
 17 43  1  0  0  0  0
 18 23  1  0  0  0  0
 18 19  2  0  0  0  0
 19 20  1  0  0  0  0
 19 44  1  0  0  0  0
 20 21  2  0  0  0  0
 20 45  1  0  0  0  0
 21 22  1  0  0  0  0
 21 48  1  0  0  0  0
 22 23  2  0  0  0  0
 22 46  1  0  0  0  0
 23 47  1  0  0  0  0
M  CHG  1  21   1
M  END
> <s_m_source_file>
AV-unprocessed.smi

> <i_m_source_file_index>
1240

> <i_lp_mmshare_version>
43012

> <i_f3d_flags>
0

> <s_epik_input>
W2NIXTFbY0hdbltjSF1bY0hdYzFbTkhdQyg9TylbTkhdW0NIMl1bQ0BIXShbQ0BASF0yW0NIMl1bQ0gyXU9bQ0gyXTIpTjNbQ0gyXVtDSDJdT1tDSDJdW0NIMl0z

> <s_epik_cmdline>
J2VwaWtfcHl0aG9uJywgJy1waCcsICc3LjAnLCAnLXRuJywgJzgnLCAnLW1hJywgJzIwMCcsICctbWV0YWxfYmluZGluZycsICctaW1hZScsICc8aW5maWxlLm1hZT4nLCAnLW9tYWUnLCAnPG91dGZpbGUubWFlPic=

> <r_epik_Ionization_Penalty>
1.15944

> <r_epik_Ionization_Penalty_Charging>
1.0344

> <r_epik_Ionization_Penalty_Neutral>
0.125034

> <r_epik_State_Penalty>
1.2199

> <r_epik_Charging_Adjusted_Penalty>
2.25431

> <i_epik_Tot_Q>
1

> <i_epik_Tot_abs_Q>
1

> <r_epik_Metal_State_Penalty>
1.3155

> <b_epik_Metal_Only>
0

> <s_lp_Force_Field>
OPLS_2005

> <r_lp_Energy>
67.1195

> <b_lp_Chiralities_Consistent>
1

> <s_lp_Variant>
AV-unprocessed.smi:1240-11

> <Gold.Version>
5.8.1

> <Gold.Id.Protein>
6NUR|6NUR_protein|mol2

> <Gold.PLP.Fitness>
40.6652

> <Gold.PLP.PLP>
-30.8839

> <Gold.PLP.part.hbond>
-4.0000

> <Gold.PLP.part.metal>
0.0000

> <Gold.PLP.part.buried>
-6.1889

> <Gold.PLP.part.nonpolar>
-21.6834

> <Gold.PLP.part.repulsive>
0.2689

> <Gold.PLP.ligand.clash>
0.0000

> <Gold.PLP.ligand.torsion>
0.9504

> <Gold.PLP.Chemscore.Hbond>
3.8320

> <Gold.PLP.Chemscore.CHOScore>
0.0000

> <Gold.PLP.Chemscore.Metal>
0.0000

> <Gold.Chemscore.Hbonds>
donor molecule, donor type, donor heavy atom, donor atom, acceptor molecule, acceptor atom, score
      L1  H     3    24       P1  7948  1.00
      L1  H    17    43       P1  7948  0.99
      P1  H  6934  6947       L1     9  0.80
      P1  H  7989  7998       L1    14  1.00

> <Gold.PLP.Chemscore.Internal.Correction>
0.1860

> <Gold.Rescore>
     Score         DG    S(hbond)    S(metal)    S(lipo)     H(rot)  DE(clash)    DE(int)     intcor
     19.06     -21.43       3.64        0.00      69.47       1.69       0.01       2.36       ----

> <Gold.Chemscore.Fitness>
19.0637

> <Gold.Chemscore.DG>
-21.4328

> <Gold.Chemscore.ZeroCoef>
-5.4800

> <Gold.Chemscore.Hbond>
3.6389

> <Gold.Chemscore.Metal>
0.0000

> <Gold.Chemscore.Lipo>
69.4722

> <Gold.Chemscore.Internal_Hbond>
0.0000

> <Gold.Chemscore.DEClash>
0.0111

> <Gold.Chemscore.DEInternal>
2.3580

> <Gold.Chemscore.Rot>
1.6912

> <Gold.Chemscore.Internal.Correction>
   9.000000E+99

> <Gold.Chemscore.Hbonds>
donor molecule, donor type, donor heavy atom, donor atom, acceptor molecule, acceptor atom, score
      L1  H     3    24       P1  7948  0.94
      L1  H    17    43       P1  7948  0.81
      P1  H  6934  6947       L1     9  0.51
      P1  H  7989  7998       L1    14  0.49

> <Gold.Chemscore.Hbond.Weighted>
-12.1540

> <Gold.Chemscore.Metal.Weighted>
-0.0000

> <Gold.Chemscore.Lipo.Weighted>
-8.1282

> <Gold.Chemscore.Internal_Hbond.Weighted>
0.0000

> <Gold.Chemscore.DEClash.Weighted>
0.0111

> <Gold.Chemscore.DEInternal.Weighted>
2.3580

> <Gold.Chemscore.Rot.Weighted>
4.3295

> <Gold.Chemscore.Internal.Correction.Weighted>
   9.000000E+99

> <Gold.Protein.RotatedTorsions>
[ 6907 6896 6895 6894 ] final -130.75 input  -60.11 | X-H torsion
[ 7974 7965 7964 7962 ] final  105.14 input  175.53 | X-H torsion
[ 8008 7997 7996 7995 ] final   23.18 input   59.86 | X-H torsion
[ 10167 10162 10161 10158 ] final -151.89 input  -65.29 | X-H torsion
[ 10718 10713 10712 10709 ] final -147.74 input   66.30 | X-H torsion
[ 10763 10752 10751 10750 ] final    8.05 input  -60.55 | X-H torsion
[ 11005 11000 10999 10996 ] final  137.79 input  -57.11 | X-H torsion

> <Gold.Protein.ActiveResidues>
 VAL166  LYS551  ARG553  GLY616  TRP617  ASP618  TYR619  PRO620  LYS621  CYS622 
 ASP623  PHE694  ASN695  SER759  ASP760  ASP761  ALA762  ILE779  LEU786  VAL792 
 PHE793  MET794  SER795  GLU796  ALA797  LYS798  CYS799  TRP800  GLU811  SER814 

> <Gold.Protein.RotatedAtoms>
  150.9432  133.6633  159.2786 H   0  0  0  0  0  0  0  0  0  0  0  0  # atno 6907 bound_to 6896
  151.4014  135.0970  159.9567 H   0  0  0  0  0  0  0  0  0  0  0  0  # atno 6908 bound_to 6896
  152.5078  133.8925  159.7456 H   0  0  0  0  0  0  0  0  0  0  0  0  # atno 6909 bound_to 6896
  145.3236  139.2506  143.3698 H   0  0  0  0  0  0  0  0  0  0  0  0  # atno 7974 bound_to 7965
  154.9770  140.3097  155.4963 H   0  0  0  0  0  0  0  0  0  0  0  0  # atno 8008 bound_to 7997
  156.2958  140.2273  156.4806 H   0  0  0  0  0  0  0  0  0  0  0  0  # atno 8009 bound_to 7997
  154.7824  140.0445  157.1126 H   0  0  0  0  0  0  0  0  0  0  0  0  # atno 8010 bound_to 7997
  139.7228  143.8930  152.2509 H   0  0  0  0  0  0  0  0  0  0  0  0  # atno 10167 bound_to 10162
  156.4114  130.7983  151.2201 H   0  0  0  0  0  0  0  0  0  0  0  0  # atno 10718 bound_to 10713
  153.2294  135.6891  153.7908 H   0  0  0  0  0  0  0  0  0  0  0  0  # atno 10763 bound_to 10752
  153.7078  135.3287  155.3240 H   0  0  0  0  0  0  0  0  0  0  0  0  # atno 10764 bound_to 10752
  154.8307  135.4583  154.1173 H   0  0  0  0  0  0  0  0  0  0  0  0  # atno 10765 bound_to 10752
  140.0138  134.9427  157.0333 H   0  0  0  0  0  0  0  0  0  0  0  0  # atno 11005 bound_to 11000
  146.3073  140.3799  142.8683 LP  0  0  0  0  0  0  0  0  0  0  0  0  # atno 17320 bound_to 7965
  144.8919  140.7535  143.5921 LP  0  0  0  0  0  0  0  0  0  0  0  0  # atno 17321 bound_to 7965
  139.8831  144.7007  150.8855 LP  0  0  0  0  0  0  0  0  0  0  0  0  # atno 17342 bound_to 10162
  140.7757  143.3645  151.1765 LP  0  0  0  0  0  0  0  0  0  0  0  0  # atno 17343 bound_to 10162
  157.7507  131.0256  150.3928 LP  0  0  0  0  0  0  0  0  0  0  0  0  # atno 17370 bound_to 10713
  156.4227  130.3956  149.6814 LP  0  0  0  0  0  0  0  0  0  0  0  0  # atno 17371 bound_to 10713
  140.4507  134.1585  155.7181 LP  0  0  0  0  0  0  0  0  0  0  0  0  # atno 17394 bound_to 11000
  141.1729  133.8572  157.1514 LP  0  0  0  0  0  0  0  0  0  0  0  0  # atno 17395 bound_to 11000

$$$$
