AV-unprocessed.smi:276|AV-procd|sdf|2076|dock4
  -GOLD-   2262021343D 1   1.00000     0.00000
 Structure written by MMmdl.
 57 61  0  0  0  0  0  0  0  0  1 V2000
  151.4640  142.1495  158.2306 C   0  0  0  0  0  0  0  0  0  0  0  0
  151.6385  141.1274  157.2652 O   0  0  0  0  0  0  0  0  0  0  0  0
  150.4331  140.4378  156.9759 C   0  0  2  0  0  0  0  0  0  0  0  0
  149.9621  139.4951  158.0890 C   0  0  0  0  0  0  0  0  0  0  0  0
  149.5388  138.5243  156.9789 C   0  0  2  0  0  0  0  0  0  0  0  0
  149.7471  137.1196  157.3397 N   0  0  0  0  0  0  0  0  0  0  0  0
  149.1285  136.6803  158.5839 C   0  0  0  0  0  0  0  0  0  0  0  0
  149.5269  136.2128  156.3610 C   0  0  0  0  0  0  0  0  0  0  0  0
  150.6039  135.5214  155.9113 N   0  0  0  0  0  0  0  0  0  0  0  0
  150.4646  134.6311  154.9247 C   0  0  0  0  0  0  0  0  0  0  0  0
  149.3580  134.2823  154.2651 N   0  0  0  0  0  0  0  0  0  0  0  0
  148.2695  134.9567  154.7341 C   0  0  0  0  0  0  0  0  0  0  0  0
  148.2595  135.9234  155.7786 C   0  0  0  0  0  0  0  0  0  0  0  0
  146.9619  136.3760  155.9894 N   0  0  0  0  0  0  0  0  0  0  0  0
  146.2512  135.7340  155.1033 C   0  0  0  0  0  0  0  0  0  0  0  0
  146.9596  134.8689  154.3014 N   0  0  0  0  0  0  0  0  0  0  0  0
  146.4331  134.0469  153.2283 C   0  0  0  0  0  0  0  0  0  0  0  0
  145.6603  134.8618  152.1696 C   0  0  1  0  0  0  0  0  0  0  0  0
  146.4730  135.9629  151.8163 O   0  0  0  0  0  0  0  0  0  0  0  0
  145.2944  134.0662  150.8963 C   0  0  2  0  0  0  0  0  0  0  0  0
  144.1523  133.0660  151.0767 C   0  0  0  0  0  0  0  0  0  0  0  0
  144.3475  132.1193  149.9079 C   0  0  0  0  0  0  0  0  0  0  0  0
  145.8445  132.2232  149.6083 C   0  0  0  0  0  0  0  0  0  0  0  0
  146.3536  133.2020  150.5071 O   0  0  0  0  0  0  0  0  0  0  0  0
  150.6252  139.1907  156.0913 C   0  0  0  0  0  0  0  0  0  0  0  0
  150.4752  139.2921  154.5677 C   0  0  0  0  0  0  0  0  0  0  0  0
  151.6548  138.3279  154.4083 C   0  0  0  0  0  0  0  0  0  0  0  0
  152.0280  138.5871  155.8718 C   0  0  0  0  0  0  0  0  0  0  0  0
  152.4168  142.6457  158.4136 H   0  0  0  0  0  0  0  0  0  0  0  0
  151.1089  141.7445  159.1790 H   0  0  0  0  0  0  0  0  0  0  0  0
  150.7541  142.9012  157.8831 H   0  0  0  0  0  0  0  0  0  0  0  0
  149.6374  141.0853  156.6002 H   0  0  0  0  0  0  0  0  0  0  0  0
  150.7836  139.1227  158.7044 H   0  0  0  0  0  0  0  0  0  0  0  0
  149.1429  139.8806  158.6963 H   0  0  0  0  0  0  0  0  0  0  0  0
  148.5293  138.7532  156.6347 H   0  0  0  0  0  0  0  0  0  0  0  0
  148.0416  136.7450  158.5179 H   0  0  0  0  0  0  0  0  0  0  0  0
  149.4554  137.3022  159.4172 H   0  0  0  0  0  0  0  0  0  0  0  0
  149.3984  135.6494  158.8178 H   0  0  0  0  0  0  0  0  0  0  0  0
  151.3706  134.1309  154.6159 H   0  0  0  0  0  0  0  0  0  0  0  0
  145.1861  135.8836  155.0025 H   0  0  0  0  0  0  0  0  0  0  0  0
  147.2677  133.5188  152.7649 H   0  0  0  0  0  0  0  0  0  0  0  0
  145.7861  133.2850  153.6656 H   0  0  0  0  0  0  0  0  0  0  0  0
  144.7474  135.2614  152.6128 H   0  0  0  0  0  0  0  0  0  0  0  0
  147.3784  135.7033  151.8940 H   0  0  0  0  0  0  0  0  0  0  0  0
  145.0634  134.7453  150.0732 H   0  0  0  0  0  0  0  0  0  0  0  0
  144.2712  132.5238  152.0160 H   0  0  0  0  0  0  0  0  0  0  0  0
  143.1688  133.5371  151.0783 H   0  0  0  0  0  0  0  0  0  0  0  0
  144.0369  131.1019  150.1477 H   0  0  0  0  0  0  0  0  0  0  0  0
  143.7694  132.4548  149.0455 H   0  0  0  0  0  0  0  0  0  0  0  0
  146.3588  131.2739  149.7581 H   0  0  0  0  0  0  0  0  0  0  0  0
  146.0145  132.5428  148.5795 H   0  0  0  0  0  0  0  0  0  0  0  0
  149.5308  138.9178  154.1738 H   0  0  0  0  0  0  0  0  0  0  0  0
  150.6981  140.2905  154.1894 H   0  0  0  0  0  0  0  0  0  0  0  0
  151.3413  137.3015  154.2180 H   0  0  0  0  0  0  0  0  0  0  0  0
  152.4059  138.6535  153.6884 H   0  0  0  0  0  0  0  0  0  0  0  0
  152.8319  139.3184  155.9589 H   0  0  0  0  0  0  0  0  0  0  0  0
  152.2532  137.6912  156.4492 H   0  0  0  0  0  0  0  0  0  0  0  0
  1  2  1  0  0  0  0
  1 29  1  0  0  0  0
  1 30  1  0  0  0  0
  1 31  1  0  0  0  0
  2  3  1  0  0  0  0
  3 25  1  0  0  0  0
  3  4  1  0  0  0  0
  3 32  1  0  0  0  0
  4  5  1  0  0  0  0
  4 33  1  0  0  0  0
  4 34  1  0  0  0  0
  5  6  1  0  0  0  0
  5 25  1  0  0  0  0
  5 35  1  0  0  0  0
  6  7  1  0  0  0  0
  6  8  1  0  0  0  0
  7 36  1  0  0  0  0
  7 37  1  0  0  0  0
  7 38  1  0  0  0  0
  8 13  1  0  0  0  0
  8  9  2  0  0  0  0
  9 10  1  0  0  0  0
 10 11  2  0  0  0  0
 10 39  1  0  0  0  0
 11 12  1  0  0  0  0
 12 16  1  0  0  0  0
 12 13  2  0  0  0  0
 13 14  1  0  0  0  0
 14 15  2  0  0  0  0
 15 16  1  0  0  0  0
 15 40  1  0  0  0  0
 16 17  1  0  0  0  0
 17 18  1  0  0  0  0
 17 41  1  0  0  0  0
 17 42  1  0  0  0  0
 18 19  1  0  0  0  0
 18 20  1  0  0  0  0
 18 43  1  0  0  0  0
 19 44  1  0  0  0  0
 20 24  1  0  0  0  0
 20 21  1  0  0  0  0
 20 45  1  0  0  0  0
 21 22  1  0  0  0  0
 21 46  1  0  0  0  0
 21 47  1  0  0  0  0
 22 23  1  0  0  0  0
 22 48  1  0  0  0  0
 22 49  1  0  0  0  0
 23 24  1  0  0  0  0
 23 50  1  0  0  0  0
 23 51  1  0  0  0  0
 25 28  1  0  0  0  0
 25 26  1  0  0  0  0
 26 27  1  0  0  0  0
 26 52  1  0  0  0  0
 26 53  1  0  0  0  0
 27 28  1  0  0  0  0
 27 54  1  0  0  0  0
 27 55  1  0  0  0  0
 28 56  1  0  0  0  0
 28 57  1  0  0  0  0
M  END
> <s_m_source_file>
AV-unprocessed.smi

> <i_m_source_file_index>
276

> <i_lp_mmshare_version>
43012

> <i_f3d_flags>
0

> <s_epik_input>
W0NIMl0xW0NIMl1bQ0gyXUMxMltDQEhdKE9bQ0gzXSlbQ0gyXVtDQEhdMk4oW0NIM10pYyhuW2NIXW4zKWMoYzM0KW5bY0hdbjRbQ0gyXVtDQEhdKFtPSF0pW0NAQEhdNVtDSDJdW0NIMl1bQ0gyXU81

> <s_epik_cmdline>
J2VwaWtfcHl0aG9uJywgJy1waCcsICc3LjAnLCAnLXRuJywgJzgnLCAnLW1hJywgJzIwMCcsICctbWV0YWxfYmluZGluZycsICctaW1hZScsICc8aW5maWxlLm1hZT4nLCAnLW9tYWUnLCAnPG91dGZpbGUubWFlPic=

> <r_lp_tautomer_probability>
1

> <r_epik_Ionization_Penalty>
0.00204117

> <r_epik_Ionization_Penalty_Charging>
0

> <r_epik_Ionization_Penalty_Neutral>
0.00204117

> <r_epik_State_Penalty>
0.00127401

> <r_epik_Charging_Adjusted_Penalty>
0.00127401

> <i_epik_Tot_Q>
0

> <i_epik_Tot_abs_Q>
0

> <r_epik_Metal_State_Penalty>
-0

> <b_epik_Metal_Only>
0

> <s_lp_Force_Field>
OPLS_2005

> <r_lp_Energy>
54.0539

> <b_lp_Chiralities_Consistent>
1

> <s_lp_Variant>
AV-unprocessed.smi:276-7

> <Gold.Version>
5.8.1

> <Gold.Id.Protein>
6NUR|6NUR_protein|mol2

> <Gold.PLP.Fitness>
38.1493

> <Gold.PLP.PLP>
-36.2673

> <Gold.PLP.part.hbond>
-0.8873

> <Gold.PLP.part.metal>
0.0000

> <Gold.PLP.part.buried>
-6.5670

> <Gold.PLP.part.nonpolar>
-28.9510

> <Gold.PLP.part.repulsive>
0.7597

> <Gold.PLP.ligand.clash>
0.0000

> <Gold.PLP.ligand.torsion>
0.7703

> <Gold.PLP.Chemscore.Hbond>
0.9120

> <Gold.PLP.Chemscore.CHOScore>
0.0000

> <Gold.PLP.Chemscore.Metal>
0.0000

> <Gold.Chemscore.Hbonds>
donor molecule, donor type, donor heavy atom, donor atom, acceptor molecule, acceptor atom, score
      L1  H    19    44       P1  7948  0.91

> <Gold.PLP.Chemscore.Internal.Correction>
0.6865

> <Gold.Rescore>
     Score         DG    S(hbond)    S(metal)    S(lipo)     H(rot)  DE(clash)    DE(int)     intcor
     11.56     -12.51       0.96        0.00      92.12       2.72       0.14       0.81       ----

> <Gold.Chemscore.Fitness>
11.5597

> <Gold.Chemscore.DG>
-12.5129

> <Gold.Chemscore.ZeroCoef>
-5.4800

> <Gold.Chemscore.Hbond>
0.9613

> <Gold.Chemscore.Metal>
0.0000

> <Gold.Chemscore.Lipo>
92.1201

> <Gold.Chemscore.Internal_Hbond>
0.0000

> <Gold.Chemscore.DEClash>
0.1442

> <Gold.Chemscore.DEInternal>
0.8089

> <Gold.Chemscore.Rot>
2.7172

> <Gold.Chemscore.Internal.Correction>
   9.000000E+99

> <Gold.Chemscore.Hbonds>
donor molecule, donor type, donor heavy atom, donor atom, acceptor molecule, acceptor atom, score
      L1  H    19    44       P1  7948  0.89

> <Gold.Chemscore.Hbond.Weighted>
-3.2108

> <Gold.Chemscore.Metal.Weighted>
-0.0000

> <Gold.Chemscore.Lipo.Weighted>
-10.7780

> <Gold.Chemscore.Internal_Hbond.Weighted>
0.0000

> <Gold.Chemscore.DEClash.Weighted>
0.1442

> <Gold.Chemscore.DEInternal.Weighted>
0.8089

> <Gold.Chemscore.Rot.Weighted>
6.9560

> <Gold.Chemscore.Internal.Correction.Weighted>
   9.000000E+99

> <Gold.Protein.RotatedTorsions>
[ 6907 6896 6895 6894 ] final   76.25 input  -60.11 | X-H torsion
[ 7974 7965 7964 7962 ] final  173.67 input  175.53 | X-H torsion
[ 8008 7997 7996 7995 ] final   93.03 input   59.86 | X-H torsion
[ 10167 10162 10161 10158 ] final   -5.71 input  -65.29 | X-H torsion
[ 10718 10713 10712 10709 ] final -119.62 input   66.30 | X-H torsion
[ 10763 10752 10751 10750 ] final -168.66 input  -60.55 | X-H torsion
[ 11005 11000 10999 10996 ] final  150.57 input  -57.11 | X-H torsion

> <Gold.Protein.ActiveResidues>
 VAL166  LYS551  ARG553  GLY616  TRP617  ASP618  TYR619  PRO620  LYS621  CYS622 
 ASP623  PHE694  ASN695  SER759  ASP760  ASP761  ALA762  ILE779  LEU786  VAL792 
 PHE793  MET794  SER795  GLU796  ALA797  LYS798  CYS799  TRP800  GLU811  SER814 

> <Gold.Protein.RotatedAtoms>
  152.5064  134.3997  159.9411 H   0  0  0  0  0  0  0  0  0  0  0  0  # atno 6907 bound_to 6896
  151.3960  133.3767  159.2734 H   0  0  0  0  0  0  0  0  0  0  0  0  # atno 6908 bound_to 6896
  150.9397  134.8828  159.7663 H   0  0  0  0  0  0  0  0  0  0  0  0  # atno 6909 bound_to 6896
  144.7238  139.9682  143.6436 H   0  0  0  0  0  0  0  0  0  0  0  0  # atno 7974 bound_to 7965
  156.0421  140.3318  155.7255 H   0  0  0  0  0  0  0  0  0  0  0  0  # atno 8008 bound_to 7997
  155.5729  140.0629  157.2820 H   0  0  0  0  0  0  0  0  0  0  0  0  # atno 8009 bound_to 7997
  154.4397  140.1857  156.0886 H   0  0  0  0  0  0  0  0  0  0  0  0  # atno 8010 bound_to 7997
  140.6972  143.6278  150.8552 H   0  0  0  0  0  0  0  0  0  0  0  0  # atno 10167 bound_to 10162
  156.1195  130.6312  150.9439 H   0  0  0  0  0  0  0  0  0  0  0  0  # atno 10718 bound_to 10713
  154.6605  135.2924  154.9872 H   0  0  0  0  0  0  0  0  0  0  0  0  # atno 10763 bound_to 10752
  154.0934  135.6587  153.4860 H   0  0  0  0  0  0  0  0  0  0  0  0  # atno 10764 bound_to 10752
  153.0427  135.5225  154.7554 H   0  0  0  0  0  0  0  0  0  0  0  0  # atno 10765 bound_to 10752
  140.1143  134.8904  157.1981 H   0  0  0  0  0  0  0  0  0  0  0  0  # atno 11005 bound_to 11000
  146.0584  139.3579  143.0596 LP  0  0  0  0  0  0  0  0  0  0  0  0  # atno 17320 bound_to 7965
  145.8125  140.9719  143.0941 LP  0  0  0  0  0  0  0  0  0  0  0  0  # atno 17321 bound_to 7965
  139.9997  143.5758  152.2880 LP  0  0  0  0  0  0  0  0  0  0  0  0  # atno 17342 bound_to 10162
  139.6443  144.7657  151.2276 LP  0  0  0  0  0  0  0  0  0  0  0  0  # atno 17343 bound_to 10162
  157.6378  131.0914  150.8312 LP  0  0  0  0  0  0  0  0  0  0  0  0  # atno 17370 bound_to 10713
  156.8411  130.5048  149.5321 LP  0  0  0  0  0  0  0  0  0  0  0  0  # atno 17371 bound_to 10713
  140.3050  134.3089  155.7280 LP  0  0  0  0  0  0  0  0  0  0  0  0  # atno 17394 bound_to 11000
  141.2137  133.7615  156.9695 LP  0  0  0  0  0  0  0  0  0  0  0  0  # atno 17395 bound_to 11000

$$$$
