AV-unprocessed.smi:1686|AV-procd|sdf|6759|dock4
  -GOLD-   22720 7523D 1   1.00000     0.00000
 Structure written by MMmdl.
 41 43  0  0  0  0  0  0  0  0  1 V2000
  148.0097  137.7099  155.5185 C   0  0  0  0  0  0  0  0  0  0  0  0
  149.4649  137.6142  155.1589 C   0  0  0  0  0  0  0  0  0  0  0  0
  149.9626  136.4565  154.7437 N   0  0  0  0  0  0  0  0  0  0  0  0
  151.3237  136.6768  154.5025 O   0  0  0  0  0  0  0  0  0  0  0  0
  151.5725  137.9749  154.7912 C   0  0  0  0  0  0  0  0  0  0  0  0
  153.1399  138.6665  154.6473 Cl  0  0  0  0  0  0  0  0  0  0  0  0
  150.4552  138.6383  155.2097 C   0  0  0  0  0  0  0  0  0  0  0  0
  150.2932  140.0753  155.6333 C   0  0  0  0  0  0  0  0  0  0  0  0
  151.2807  140.3857  156.7565 C   0  0  0  0  0  0  0  0  0  0  0  0
  152.4807  140.1631  156.5991 O   0  0  0  0  0  0  0  0  0  0  0  0
  150.7602  140.9098  157.8770 N   0  0  0  0  0  0  0  0  0  0  0  0
  151.5145  141.3093  159.0618 C   0  0  1  0  0  0  0  0  0  0  0  0
  152.4957  140.1860  159.4356 C   0  0  0  0  0  0  0  0  0  0  0  0
  152.2372  142.6502  158.7955 C   0  0  2  0  0  0  0  0  0  0  0  0
  152.7487  143.3728  160.0624 C   0  0  0  0  0  0  0  0  0  0  0  0
  152.2096  144.8049  159.8866 C   0  0  2  0  0  0  0  0  0  0  0  0
  150.6921  144.8068  160.1484 C   0  0  0  0  0  0  0  0  0  0  0  0
  150.1331  144.1065  158.8968 C   0  0  0  0  0  0  0  0  0  0  0  0
  151.4081  143.7603  158.1000 C   0  0  1  0  0  0  0  0  0  0  0  0
  152.2693  144.9889  158.3746 C   0  0  0  0  0  0  0  0  0  0  0  0
  147.8813  137.7831  156.5985 H   0  0  0  0  0  0  0  0  0  0  0  0
  147.4499  136.8391  155.1756 H   0  0  0  0  0  0  0  0  0  0  0  0
  147.5530  138.5924  155.0702 H   0  0  0  0  0  0  0  0  0  0  0  0
  150.4630  140.7620  154.8030 H   0  0  0  0  0  0  0  0  0  0  0  0
  149.2802  140.2739  155.9853 H   0  0  0  0  0  0  0  0  0  0  0  0
  149.7613  141.0555  157.9075 H   0  0  0  0  0  0  0  0  0  0  0  0
  150.8326  141.4439  159.9026 H   0  0  0  0  0  0  0  0  0  0  0  0
  153.0615  140.4338  160.3336 H   0  0  0  0  0  0  0  0  0  0  0  0
  153.2106  139.9993  158.6337 H   0  0  0  0  0  0  0  0  0  0  0  0
  151.9666  139.2530  159.6324 H   0  0  0  0  0  0  0  0  0  0  0  0
  153.0965  142.4419  158.1550 H   0  0  0  0  0  0  0  0  0  0  0  0
  152.3914  142.9202  160.9883 H   0  0  0  0  0  0  0  0  0  0  0  0
  153.8389  143.3650  160.0915 H   0  0  0  0  0  0  0  0  0  0  0  0
  152.7537  145.5516  160.4658 H   0  0  0  0  0  0  0  0  0  0  0  0
  150.4298  144.2845  161.0692 H   0  0  0  0  0  0  0  0  0  0  0  0
  150.3086  145.8252  160.2210 H   0  0  0  0  0  0  0  0  0  0  0  0
  149.5200  143.2380  159.1349 H   0  0  0  0  0  0  0  0  0  0  0  0
  149.5070  144.7957  158.3288 H   0  0  0  0  0  0  0  0  0  0  0  0
  151.2214  143.5692  157.0427 H   0  0  0  0  0  0  0  0  0  0  0  0
  151.8163  145.9221  158.0343 H   0  0  0  0  0  0  0  0  0  0  0  0
  153.2795  144.9132  157.9682 H   0  0  0  0  0  0  0  0  0  0  0  0
  1  2  1  0  0  0  0
  1 21  1  0  0  0  0
  1 22  1  0  0  0  0
  1 23  1  0  0  0  0
  2  7  1  0  0  0  0
  2  3  2  0  0  0  0
  3  4  1  0  0  0  0
  4  5  1  0  0  0  0
  5  6  1  0  0  0  0
  5  7  2  0  0  0  0
  7  8  1  0  0  0  0
  8  9  1  0  0  0  0
  8 24  1  0  0  0  0
  8 25  1  0  0  0  0
  9 10  2  0  0  0  0
  9 11  1  0  0  0  0
 11 12  1  0  0  0  0
 11 26  1  0  0  0  0
 12 13  1  0  0  0  0
 12 14  1  0  0  0  0
 12 27  1  0  0  0  0
 13 28  1  0  0  0  0
 13 29  1  0  0  0  0
 13 30  1  0  0  0  0
 14 19  1  0  0  0  0
 14 15  1  0  0  0  0
 14 31  1  0  0  0  0
 15 16  1  0  0  0  0
 15 32  1  0  0  0  0
 15 33  1  0  0  0  0
 16 20  1  0  0  0  0
 16 17  1  0  0  0  0
 16 34  1  0  0  0  0
 17 18  1  0  0  0  0
 17 35  1  0  0  0  0
 17 36  1  0  0  0  0
 18 19  1  0  0  0  0
 18 37  1  0  0  0  0
 18 38  1  0  0  0  0
 19 20  1  0  0  0  0
 19 39  1  0  0  0  0
 20 40  1  0  0  0  0
 20 41  1  0  0  0  0
M  END
> <s_m_source_file>
AV-unprocessed.smi

> <i_m_source_file_index>
1686

> <i_lp_mmshare_version>
43012

> <i_f3d_flags>
0

> <s_epik_input>
W0NIM11jMW5vYyhDbCljMVtDSDJdQyg9TylbTkhdW0NASF0oW0NIM10pW0NASF0oW0NIMl1bQ0BIXTIzKVtDQEhdKFtDSDJdMylbQ0gyXVtDSDJdMg==

> <s_epik_cmdline>
J2VwaWtfcHl0aG9uJywgJy1waCcsICc3LjAnLCAnLXRuJywgJzgnLCAnLW1hJywgJzIwMCcsICctbWV0YWxfYmluZGluZycsICctaW1hZScsICc8aW5maWxlLm1hZT4nLCAnLW9tYWUnLCAnPG91dGZpbGUubWFlPic=

> <r_lp_tautomer_probability>
1

> <r_epik_Ionization_Penalty>
2.01576e-08

> <r_epik_Ionization_Penalty_Charging>
0

> <r_epik_Ionization_Penalty_Neutral>
2.01576e-08

> <r_epik_State_Penalty>
-0

> <r_epik_Charging_Adjusted_Penalty>
0

> <i_epik_Tot_Q>
0

> <i_epik_Tot_abs_Q>
0

> <r_epik_Metal_State_Penalty>
-0

> <b_epik_Metal_Only>
0

> <s_lp_Force_Field>
OPLS_2005

> <r_lp_Energy>
45.5395

> <b_lp_Chiralities_Consistent>
1

> <s_lp_Variant>
AV-unprocessed.smi:1686-2

> <Gold.Version>
5.8.1

> <Gold.Id.Protein>
6NUR|6NUR_protein|mol2

> <Gold.PLP.Fitness>
46.6144

> <Gold.PLP.PLP>
-41.4983

> <Gold.PLP.part.hbond>
-2.0000

> <Gold.PLP.part.metal>
0.0000

> <Gold.PLP.part.buried>
-5.1838

> <Gold.PLP.part.nonpolar>
-36.0042

> <Gold.PLP.part.repulsive>
1.6535

> <Gold.PLP.ligand.clash>
0.0000

> <Gold.PLP.ligand.torsion>
0.4490

> <Gold.PLP.Chemscore.Hbond>
2.0000

> <Gold.PLP.Chemscore.CHOScore>
0.0000

> <Gold.PLP.Chemscore.Metal>
0.0000

> <Gold.Chemscore.Hbonds>
donor molecule, donor type, donor heavy atom, donor atom, acceptor molecule, acceptor atom, score
      P1  H  7997  8009       L1    10  1.00
      P1  H 10752 10765       L1     4  1.00

> <Gold.PLP.Chemscore.Internal.Correction>
0.0140

> <Gold.Rescore>
     Score         DG    S(hbond)    S(metal)    S(lipo)     H(rot)  DE(clash)    DE(int)     intcor
     18.43     -22.37       1.88        0.00     122.72       1.46       0.03       3.91       ----

> <Gold.Chemscore.Fitness>
18.4293

> <Gold.Chemscore.DG>
-22.3730

> <Gold.Chemscore.ZeroCoef>
-5.4800

> <Gold.Chemscore.Hbond>
1.8818

> <Gold.Chemscore.Metal>
0.0000

> <Gold.Chemscore.Lipo>
122.7150

> <Gold.Chemscore.Internal_Hbond>
0.0000

> <Gold.Chemscore.DEClash>
0.0306

> <Gold.Chemscore.DEInternal>
3.9130

> <Gold.Chemscore.Rot>
1.4648

> <Gold.Chemscore.Internal.Correction>
   9.000000E+99

> <Gold.Chemscore.Hbonds>
donor molecule, donor type, donor heavy atom, donor atom, acceptor molecule, acceptor atom, score
      P1  H  7997  8009       L1    10  0.96
      P1  H 10752 10765       L1     4  0.82

> <Gold.Chemscore.Hbond.Weighted>
-6.2853

> <Gold.Chemscore.Metal.Weighted>
-0.0000

> <Gold.Chemscore.Lipo.Weighted>
-14.3577

> <Gold.Chemscore.Internal_Hbond.Weighted>
0.0000

> <Gold.Chemscore.DEClash.Weighted>
0.0306

> <Gold.Chemscore.DEInternal.Weighted>
3.9130

> <Gold.Chemscore.Rot.Weighted>
3.7500

> <Gold.Chemscore.Internal.Correction.Weighted>
   9.000000E+99

> <Gold.Protein.RotatedTorsions>
[ 6907 6896 6895 6894 ] final  -54.17 input  -60.11 | X-H torsion
[ 7974 7965 7964 7962 ] final   19.28 input  175.53 | X-H torsion
[ 8008 7997 7996 7995 ] final -159.03 input   59.86 | X-H torsion
[ 10167 10162 10161 10158 ] final  167.59 input  -65.29 | X-H torsion
[ 10718 10713 10712 10709 ] final   37.18 input   66.30 | X-H torsion
[ 10763 10752 10751 10750 ] final  163.57 input  -60.55 | X-H torsion
[ 11005 11000 10999 10996 ] final -111.84 input  -57.11 | X-H torsion

> <Gold.Protein.ActiveResidues>
 VAL166  LYS551  ARG553  GLY616  TRP617  ASP618  TYR619  PRO620  LYS621  CYS622 
 ASP623  PHE694  ASN695  SER759  ASP760  ASP761  ALA762  ILE779  LEU786  VAL792 
 PHE793  MET794  SER795  GLU796  ALA797  LYS798  CYS799  TRP800  GLU811  SER814 

> <Gold.Protein.RotatedAtoms>
  150.8361  134.7635  159.6893 H   0  0  0  0  0  0  0  0  0  0  0  0  # atno 6907 bound_to 6896
  152.4458  134.5495  159.9872 H   0  0  0  0  0  0  0  0  0  0  0  0  # atno 6908 bound_to 6896
  151.5645  133.3361  159.3013 H   0  0  0  0  0  0  0  0  0  0  0  0  # atno 6909 bound_to 6896
  146.2155  139.8336  142.8655 H   0  0  0  0  0  0  0  0  0  0  0  0  # atno 7974 bound_to 7965
  155.7565  140.0833  157.2176 H   0  0  0  0  0  0  0  0  0  0  0  0  # atno 8008 bound_to 7997
  154.4007  140.1551  156.2839 H   0  0  0  0  0  0  0  0  0  0  0  0  # atno 8009 bound_to 7997
  155.8881  140.3417  155.5939 H   0  0  0  0  0  0  0  0  0  0  0  0  # atno 8010 bound_to 7997
  139.4949  144.3905  151.9522 H   0  0  0  0  0  0  0  0  0  0  0  0  # atno 10167 bound_to 10162
  157.3438  130.7562  149.6930 H   0  0  0  0  0  0  0  0  0  0  0  0  # atno 10718 bound_to 10713
  154.2957  135.2760  155.2634 H   0  0  0  0  0  0  0  0  0  0  0  0  # atno 10763 bound_to 10752
  154.5093  135.5787  153.6595 H   0  0  0  0  0  0  0  0  0  0  0  0  # atno 10764 bound_to 10752
  152.9907  135.6177  154.3125 H   0  0  0  0  0  0  0  0  0  0  0  0  # atno 10765 bound_to 10752
  141.0711  133.9378  157.2483 H   0  0  0  0  0  0  0  0  0  0  0  0  # atno 11005 bound_to 11000
  145.2972  141.0184  143.3629 LP  0  0  0  0  0  0  0  0  0  0  0  0  # atno 17320 bound_to 7965
  144.9033  139.4621  143.6622 LP  0  0  0  0  0  0  0  0  0  0  0  0  # atno 17321 bound_to 7965
  140.3343  144.3279  150.5980 LP  0  0  0  0  0  0  0  0  0  0  0  0  # atno 17342 bound_to 10162
  140.5619  143.2191  151.7750 LP  0  0  0  0  0  0  0  0  0  0  0  0  # atno 17343 bound_to 10162
  155.9711  130.4160  150.4209 LP  0  0  0  0  0  0  0  0  0  0  0  0  # atno 17370 bound_to 10713
  157.2261  131.0493  151.2519 LP  0  0  0  0  0  0  0  0  0  0  0  0  # atno 17371 bound_to 10713
  139.9524  135.0172  156.9032 LP  0  0  0  0  0  0  0  0  0  0  0  0  # atno 17394 bound_to 11000
  140.5672  134.0478  155.7418 LP  0  0  0  0  0  0  0  0  0  0  0  0  # atno 17395 bound_to 11000

$$$$
