#       Name:                AV-unprocessed.smi:3330
#       Creating user name   scv26
#       Creation time:       Fri Mar 27 19:17:09 2020


#       File generated by GOLD software.
#

@<TRIPOS>MOLECULE
AV-unprocessed.smi:3330
    44    45     1
SMALL
NO_CHARGES


@<TRIPOS>ATOM
      1 ****        -1.4160   0.0493   1.0282 C.3            1 S1                 0.0000
      2 ****        -0.9174   0.4330  -0.3823 C.3            1 S1                 0.0000
      3 ****         0.5416   0.4366  -0.3800 N.3            1 S1                 0.0000
      4 ****         1.0847   1.6858   0.1357 C.3            1 S1                 0.0000
      5 ****         2.6219   1.6209   0.1735 C.3            1 S1                 0.0000
      6 ****         3.1085   0.7293   1.2328 N.am           1 S1                 0.0000
      7 ****         3.5142  -0.5321   1.0339 C.2            1 S1                 0.0000
      8 ****         3.5659  -1.1449  -0.0321 O.2            1 S1                 0.0000
      9 ****         3.9126  -1.1238   2.3684 C.3            1 S1                 0.0000
     10 ****         3.6435   0.0147   3.2199 N.am           1 S1                 0.0000
     11 ****         3.1780   1.0667   2.5339 C.2            1 S1                 0.0000
     12 ****         2.8682   2.1509   3.0255 O.2            1 S1                 0.0000
     13 ****        -1.4002  -0.5416  -1.4902 C.3            1 S1                 0.0000
     14 ****        -1.0493  -0.0445  -2.9066 C.3            1 S1                 0.0000
     15 ****        -2.8292  -0.8168  -1.3960 N.pl3          1 S1                 0.0000
     16 ****        -3.4489  -2.0162  -1.1099 C.2            1 S1                 0.0000
     17 ****        -4.7960  -1.7936  -1.1194 C.2            1 S1                 0.0000
     18 ****        -4.9072  -0.4087  -1.4248 C.2            1 S1                 0.0000
     19 ****        -3.7306   0.1734  -1.5895 N.2            1 S1                 0.0000
     20 ****        -2.5031   0.0876   1.0935 H              1 S1                 0.0000
     21 ****        -1.0371   0.7235   1.7954 H              1 S1                 0.0000
     22 ****        -1.1038  -0.9611   1.2947 H              1 S1                 0.0000
     23 ****        -1.2814   1.4319  -0.6278 H              1 S1                 0.0000
     24 ****         0.8766   0.3051  -1.3239 H              1 S1                 0.0000
     25 ****         0.7725   2.4990  -0.5204 H              1 S1                 0.0000
     26 ****         0.6927   1.9085   1.1276 H              1 S1                 0.0000
     27 ****         3.0144   1.3237  -0.8008 H              1 S1                 0.0000
     28 ****         3.0173   2.6224   0.3503 H              1 S1                 0.0000
     29 ****         3.2900  -1.9793   2.6320 H              1 S1                 0.0000
     30 ****         4.9668  -1.4017   2.3881 H              1 S1                 0.0000
     31 ****         3.7897   0.0019   4.2190 H              1 S1                 0.0000
     32 ****        -0.8943  -1.4976  -1.3433 H              1 S1                 0.0000
     33 ****         0.0282   0.0464  -3.0437 H              1 S1                 0.0000
     34 ****        -1.4907   0.9317  -3.1098 H              1 S1                 0.0000
     35 ****        -1.4137  -0.7382  -3.6649 H              1 S1                 0.0000
     36 ****        -2.8854  -2.9185  -0.9226 H              1 S1                 0.0000
     37 ****        -5.5821  -2.5107  -0.9350 H              1 S1                 0.0000
     38 ****        -5.8017   0.1872  -1.5299 H              1 S1                 0.0000
     39 ****         0.8445  -0.3066   0.2165 LP             1 S1                 0.0000
     40 ****         3.2840  -0.6969  -0.8805 LP             1 S1                 0.0000
     41 ****         3.8899  -2.0908  -0.0498 LP             1 S1                 0.0000
     42 ****         2.5255   2.8857   2.4401 LP             1 S1                 0.0000
     43 ****         2.9591   2.2975   4.0105 LP             1 S1                 0.0000
     44 ****        -3.5481   1.1319  -1.8083 LP             1 S1                 0.0000
@<TRIPOS>BOND
    1    1    2 1     
    2    1   20 1     
    3    1   21 1     
    4    1   22 1     
    5    2    3 1     
    6    2   13 1     
    7    2   23 1     
    8    3    4 1     
    9    3   24 1     
   10    4    5 1     
   11    4   25 1     
   12    4   26 1     
   13    5    6 1     
   14    5   27 1     
   15    5   28 1     
   16    6   11 am    
   17    6    7 am    
   18    7    8 2     
   19    7    9 1     
   20    9   10 1     
   21    9   29 1     
   22    9   30 1     
   23   10   11 am    
   24   10   31 1     
   25   11   12 2     
   26   13   14 1     
   27   13   15 1     
   28   13   32 1     
   29   14   33 1     
   30   14   34 1     
   31   14   35 1     
   32   15   19 1     
   33   15   16 1     
   34   16   17 2     
   35   16   36 1     
   36   17   18 1     
   37   17   37 1     
   38   18   19 2     
   39   18   38 1     
   40    3   39 1     
   41    8   40 1     
   42    8   41 1     
   43   12   42 1     
   44   12   43 1     
   45   19   44 1     
@<TRIPOS>SUBSTRUCTURE
      1 S1             1
@<TRIPOS>SET
LONE_PAIRS      STATIC     ATOMS    <user>   **** ""
6 39 40 41 42 43 44
DONOR_HYDROGENS      STATIC     ATOMS    <user>   **** ""
2 24 31
ATOM$BLUE        STATIC     ATOMS    COLORGROUP SYSTEM
6 39 40 41 42 43 44
ATOM$RED        STATIC     ATOMS    COLORGROUP SYSTEM
2 24 31
