AV-unprocessed.smi:37|AV-procd|sdf|311|dock8
  -GOLD-   2262016123D 1   1.00000     0.00000
 Structure written by MMmdl.
 44 45  0  0  0  0  0  0  0  0  1 V2000
  153.4148  138.0278  156.3003 C   0  0  0  0  0  0  0  0  0  0  0  0
  152.9766  138.9368  155.1441 C   0  0  0  0  0  0  0  0  0  0  0  0
  151.4771  139.2239  155.1739 C   0  0  0  0  0  0  0  0  0  0  0  0
  150.9467  139.9551  154.3373 O   0  0  0  0  0  0  0  0  0  0  0  0
  150.8519  138.6055  156.1878 O   0  0  0  0  0  0  0  0  0  0  0  0
  149.4357  138.5544  156.2117 C   0  0  0  0  0  0  0  0  0  0  0  0
  148.9792  137.1450  155.8157 C   0  0  2  0  0  0  0  0  0  0  0  0
  147.5649  137.0844  155.6693 O   0  0  0  0  0  0  0  0  0  0  0  0
  147.1175  135.7792  155.8950 C   0  0  1  0  0  0  0  0  0  0  0  0
  146.5198  135.2170  154.6249 N   0  0  0  0  0  0  0  0  0  0  0  0
  146.7221  135.8120  153.3849 C   0  0  0  0  0  0  0  0  0  0  0  0
  146.1946  135.3198  152.2392 C   0  0  0  0  0  0  0  0  0  0  0  0
  146.4370  135.9461  151.0753 F   0  0  0  0  0  0  0  0  0  0  0  0
  145.3701  134.1147  152.2552 C   0  0  0  0  0  0  0  0  0  0  0  0
  144.8471  133.5956  151.2711 O   0  0  0  0  0  0  0  0  0  0  0  0
  145.1997  133.5487  153.5221 N   0  0  0  0  0  0  0  0  0  0  0  0
  145.7402  134.0432  154.7101 C   0  0  0  0  0  0  0  0  0  0  0  0
  145.5373  133.4576  155.7730 O   0  0  0  0  0  0  0  0  0  0  0  0
  148.3166  134.9578  156.4187 C   0  0  1  0  0  0  0  0  0  0  0  0
  149.2098  133.8561  155.0088 Br  0  0  0  0  0  0  0  0  0  0  0  0
  149.2788  136.0509  156.8441 C   0  0  2  0  0  0  0  0  0  0  0  0
  148.9448  136.4906  158.1587 O   0  0  0  0  0  0  0  0  0  0  0  0
  148.6757  135.6086  159.1386 C   0  0  0  0  0  0  0  0  0  0  0  0
  148.8050  134.3856  159.0658 O   0  0  0  0  0  0  0  0  0  0  0  0
  148.1762  136.3044  160.4065 C   0  0  0  0  0  0  0  0  0  0  0  0
  147.6920  135.3317  161.4922 C   0  0  0  0  0  0  0  0  0  0  0  0
  144.6410  132.7097  153.5810 H   0  0  0  0  0  0  0  0  0  0  0  0
  154.4790  137.8034  156.2297 H   0  0  0  0  0  0  0  0  0  0  0  0
  152.8759  137.0799  156.2852 H   0  0  0  0  0  0  0  0  0  0  0  0
  153.2414  138.4994  157.2682 H   0  0  0  0  0  0  0  0  0  0  0  0
  153.5185  139.8817  155.1852 H   0  0  0  0  0  0  0  0  0  0  0  0
  153.2271  138.4697  154.1912 H   0  0  0  0  0  0  0  0  0  0  0  0
  149.0902  138.7874  157.2197 H   0  0  0  0  0  0  0  0  0  0  0  0
  149.0122  139.2993  155.5363 H   0  0  0  0  0  0  0  0  0  0  0  0
  149.4387  136.8645  154.8665 H   0  0  0  0  0  0  0  0  0  0  0  0
  146.2984  135.8484  156.6135 H   0  0  0  0  0  0  0  0  0  0  0  0
  147.3308  136.7005  153.3074 H   0  0  0  0  0  0  0  0  0  0  0  0
  148.0158  134.2918  157.2283 H   0  0  0  0  0  0  0  0  0  0  0  0
  150.3140  135.7138  156.7798 H   0  0  0  0  0  0  0  0  0  0  0  0
  148.9832  136.9222  160.8015 H   0  0  0  0  0  0  0  0  0  0  0  0
  147.3663  136.9813  160.1334 H   0  0  0  0  0  0  0  0  0  0  0  0
  147.3465  135.8782  162.3698 H   0  0  0  0  0  0  0  0  0  0  0  0
  148.4917  134.6638  161.8139 H   0  0  0  0  0  0  0  0  0  0  0  0
  146.8615  134.7201  161.1375 H   0  0  0  0  0  0  0  0  0  0  0  0
  1  2  1  0  0  0  0
  1 28  1  0  0  0  0
  1 29  1  0  0  0  0
  1 30  1  0  0  0  0
  2  3  1  0  0  0  0
  2 31  1  0  0  0  0
  2 32  1  0  0  0  0
  3  4  2  0  0  0  0
  3  5  1  0  0  0  0
  5  6  1  0  0  0  0
  6  7  1  0  0  0  0
  6 33  1  0  0  0  0
  6 34  1  0  0  0  0
  7 21  1  0  0  0  0
  7  8  1  0  0  0  0
  7 35  1  0  0  0  0
  8  9  1  0  0  0  0
  9 10  1  0  0  0  0
  9 19  1  0  0  0  0
  9 36  1  0  0  0  0
 10 17  1  0  0  0  0
 10 11  1  0  0  0  0
 11 12  2  0  0  0  0
 11 37  1  0  0  0  0
 12 13  1  0  0  0  0
 12 14  1  0  0  0  0
 14 15  2  0  0  0  0
 14 16  1  0  0  0  0
 16 27  1  0  0  0  0
 16 17  1  0  0  0  0
 17 18  2  0  0  0  0
 19 20  1  0  0  0  0
 19 21  1  0  0  0  0
 19 38  1  0  0  0  0
 21 22  1  0  0  0  0
 21 39  1  0  0  0  0
 22 23  1  0  0  0  0
 23 24  2  0  0  0  0
 23 25  1  0  0  0  0
 25 26  1  0  0  0  0
 25 40  1  0  0  0  0
 25 41  1  0  0  0  0
 26 42  1  0  0  0  0
 26 43  1  0  0  0  0
 26 44  1  0  0  0  0
M  END
> <s_m_source_file>
AV-unprocessed.smi

> <i_m_source_file_index>
37

> <i_lp_mmshare_version>
43012

> <i_f3d_flags>
0

> <s_epik_input>
W0NIM11bQ0gyXUMoPU8pT1tDSDJdW0NAQEhdMU9bQ0BASF0objJbY0hdYyhGKWMoPU8pW25IXWMyPU8pW0NAQEhdKEJyKVtDQEhdMU9DKD1PKVtDSDJdW0NIM10=

> <s_epik_cmdline>
J2VwaWtfcHl0aG9uJywgJy1waCcsICc3LjAnLCAnLXRuJywgJzgnLCAnLW1hJywgJzIwMCcsICctbWV0YWxfYmluZGluZycsICctaW1hZScsICc8aW5maWxlLm1hZT4nLCAnLW9tYWUnLCAnPG91dGZpbGUubWFlPic=

> <r_lp_tautomer_probability>
0.999537

> <r_epik_Ionization_Penalty>
0.104106

> <r_epik_Ionization_Penalty_Charging>
0.104106

> <r_epik_Ionization_Penalty_Neutral>
3.94675e-16

> <r_epik_State_Penalty>
0.0940182

> <r_epik_Charging_Adjusted_Penalty>
0.198124

> <i_epik_Tot_Q>
0

> <i_epik_Tot_abs_Q>
0

> <r_epik_Metal_State_Penalty>
3.05314

> <b_epik_Metal_Only>
0

> <s_epik_Chemistry_Notes>
This compound has an ester and may undergo hydrolysis at high or low pH. This compound contains an acetal/aminal-like group ( X-CH(R)-Y where X, Y are N, S, or O) that may be acid/base labile, releasing an aldehyde.

> <s_lp_Force_Field>
OPLS_2005

> <r_lp_Energy>
26.7513

> <b_lp_Chiralities_Consistent>
1

> <s_lp_Variant>
AV-unprocessed.smi:37-9

> <Gold.Version>
5.8.1

> <Gold.Id.Protein>
6NUR|6NUR_protein|mol2

> <Gold.PLP.Fitness>
34.4374

> <Gold.PLP.PLP>
-26.2894

> <Gold.PLP.part.hbond>
-2.9415

> <Gold.PLP.part.metal>
0.0000

> <Gold.PLP.part.buried>
-2.1664

> <Gold.PLP.part.nonpolar>
-20.8175

> <Gold.PLP.part.repulsive>
0.8730

> <Gold.PLP.ligand.clash>
0.0000

> <Gold.PLP.ligand.torsion>
1.1180

> <Gold.PLP.Chemscore.Hbond>
3.0000

> <Gold.PLP.Chemscore.CHOScore>
0.4099

> <Gold.PLP.Chemscore.Metal>
0.0000

> <Gold.Chemscore.Hbonds>
donor molecule, donor type, donor heavy atom, donor atom, acceptor molecule, acceptor atom, score
      P1  H  6896  6907       L1    24  1.00
      P1  H  7989  7998       L1     4  0.71
      L1  C    11    37       P1  7948  0.53

> <Gold.PLP.Chemscore.Internal.Correction>
0.1544

> <Gold.Rescore>
     Score         DG    S(hbond)    S(metal)    S(lipo)     H(rot)  DE(clash)    DE(int)     intcor
     10.34     -11.56       2.92        0.00      41.43       3.33       0.26       0.95       ----

> <Gold.Chemscore.Fitness>
10.3424

> <Gold.Chemscore.DG>
-11.5555

> <Gold.Chemscore.ZeroCoef>
-5.4800

> <Gold.Chemscore.Hbond>
2.9204

> <Gold.Chemscore.Metal>
0.0000

> <Gold.Chemscore.Lipo>
41.4266

> <Gold.Chemscore.Internal_Hbond>
0.0000

> <Gold.Chemscore.DEClash>
0.2646

> <Gold.Chemscore.DEInternal>
0.9485

> <Gold.Chemscore.Rot>
3.3303

> <Gold.Chemscore.Internal.Correction>
   9.000000E+99

> <Gold.Chemscore.Hbonds>
donor molecule, donor type, donor heavy atom, donor atom, acceptor molecule, acceptor atom, score
      L1  H    16    27       P1 10957  0.01
      P1  H  6896  6907       L1    24  0.25
      P1  H  7989  7998       L1     4  0.71

> <Gold.Chemscore.Hbond.Weighted>
-9.7542

> <Gold.Chemscore.Metal.Weighted>
-0.0000

> <Gold.Chemscore.Lipo.Weighted>
-4.8469

> <Gold.Chemscore.Internal_Hbond.Weighted>
0.0000

> <Gold.Chemscore.DEClash.Weighted>
0.2646

> <Gold.Chemscore.DEInternal.Weighted>
0.9485

> <Gold.Chemscore.Rot.Weighted>
8.5256

> <Gold.Chemscore.Internal.Correction.Weighted>
   9.000000E+99

> <Gold.Protein.RotatedTorsions>
[ 6907 6896 6895 6894 ] final  -92.21 input  -60.11 | X-H torsion
[ 7974 7965 7964 7962 ] final   -8.13 input  175.53 | X-H torsion
[ 8008 7997 7996 7995 ] final   67.38 input   59.86 | X-H torsion
[ 10167 10162 10161 10158 ] final   63.21 input  -65.29 | X-H torsion
[ 10718 10713 10712 10709 ] final   -7.13 input   66.30 | X-H torsion
[ 10763 10752 10751 10750 ] final  177.76 input  -60.55 | X-H torsion
[ 11005 11000 10999 10996 ] final  -72.24 input  -57.11 | X-H torsion

> <Gold.Protein.ActiveResidues>
 VAL166  LYS551  ARG553  GLY616  TRP617  ASP618  TYR619  PRO620  LYS621  CYS622 
 ASP623  PHE694  ASN695  SER759  ASP760  ASP761  ALA762  ILE779  LEU786  VAL792 
 PHE793  MET794  SER795  GLU796  ALA797  LYS798  CYS799  TRP800  GLU811  SER814 

> <Gold.Protein.RotatedAtoms>
  150.6903  134.2157  159.4376 H   0  0  0  0  0  0  0  0  0  0  0  0  # atno 6907 bound_to 6896
  152.0116  134.9870  160.0577 H   0  0  0  0  0  0  0  0  0  0  0  0  # atno 6908 bound_to 6896
  152.1483  133.4471  159.4837 H   0  0  0  0  0  0  0  0  0  0  0  0  # atno 6909 bound_to 6896
  146.2288  140.2423  142.8344 H   0  0  0  0  0  0  0  0  0  0  0  0  # atno 7974 bound_to 7965
  155.6920  140.3496  155.4897 H   0  0  0  0  0  0  0  0  0  0  0  0  # atno 8008 bound_to 7997
  155.9515  140.1120  157.0995 H   0  0  0  0  0  0  0  0  0  0  0  0  # atno 8009 bound_to 7997
  154.4123  140.1193  156.5045 H   0  0  0  0  0  0  0  0  0  0  0  0  # atno 8010 bound_to 7997
  140.1356  144.4602  150.6840 H   0  0  0  0  0  0  0  0  0  0  0  0  # atno 10167 bound_to 10162
  156.7217  130.5153  149.5866 H   0  0  0  0  0  0  0  0  0  0  0  0  # atno 10718 bound_to 10713
  154.4988  135.2782  155.1438 H   0  0  0  0  0  0  0  0  0  0  0  0  # atno 10763 bound_to 10752
  154.3080  135.6235  153.5457 H   0  0  0  0  0  0  0  0  0  0  0  0  # atno 10764 bound_to 10752
  152.9899  135.5713  154.5426 H   0  0  0  0  0  0  0  0  0  0  0  0  # atno 10765 bound_to 10752
  141.1605  133.6841  156.7029 H   0  0  0  0  0  0  0  0  0  0  0  0  # atno 11005 bound_to 11000
  144.9475  140.8144  143.5592 LP  0  0  0  0  0  0  0  0  0  0  0  0  # atno 17320 bound_to 7965
  145.2380  139.2085  143.5007 LP  0  0  0  0  0  0  0  0  0  0  0  0  # atno 17321 bound_to 7965
  140.6791  143.2318  151.5430 LP  0  0  0  0  0  0  0  0  0  0  0  0  # atno 17342 bound_to 10162
  139.5498  144.2426  152.1509 LP  0  0  0  0  0  0  0  0  0  0  0  0  # atno 17343 bound_to 10162
  156.1590  130.6361  151.0694 LP  0  0  0  0  0  0  0  0  0  0  0  0  # atno 17370 bound_to 10713
  157.6895  131.0814  150.7148 LP  0  0  0  0  0  0  0  0  0  0  0  0  # atno 17371 bound_to 10713
  140.2945  134.8214  157.4045 LP  0  0  0  0  0  0  0  0  0  0  0  0  # atno 17394 bound_to 11000
  140.1317  134.5087  155.8100 LP  0  0  0  0  0  0  0  0  0  0  0  0  # atno 17395 bound_to 11000

$$$$
