AV-unprocessed.smi:414|AV-procd|sdf|2515|dock2
  -GOLD-   2262022463D 1   1.00000     0.00000
 Structure written by MMmdl.
 38 39  0  0  0  0  0  0  0  0  1 V2000
  143.9739  134.3718  162.9286 C   0  0  0  0  0  0  0  0  0  0  0  0
  145.3613  135.0255  162.8602 C   0  0  2  0  0  0  0  0  0  0  0  0
  145.2711  136.4871  162.3819 C   0  0  0  0  0  0  0  0  0  0  0  0
  146.6600  137.1450  162.3051 C   0  0  0  0  0  0  0  0  0  0  0  0
  147.6354  136.3453  161.4145 C   0  0  2  0  0  0  0  0  0  0  0  0
  147.2553  136.4109  160.0042 N   0  0  0  0  0  0  0  0  0  0  0  0
  148.0236  136.0394  158.9690 C   0  0  0  0  0  0  0  0  0  0  0  0
  149.1627  135.5898  159.1029 O   0  0  0  0  0  0  0  0  0  0  0  0
  147.3989  136.2210  157.5778 C   0  0  0  0  0  0  0  0  0  0  0  0
  148.2205  137.0326  156.6675 N   0  0  0  0  0  0  0  0  0  0  0  0
  148.8621  138.1706  157.1354 C   0  0  0  0  0  0  0  0  0  0  0  0
  149.6425  138.9594  156.3594 C   0  0  0  0  0  0  0  0  0  0  0  0
  149.8507  138.6363  154.9520 C   0  0  0  0  0  0  0  0  0  0  0  0
  150.5374  139.2886  154.1688 O   0  0  0  0  0  0  0  0  0  0  0  0
  149.1913  137.4825  154.5195 N   0  0  0  0  0  0  0  0  0  0  0  0
  148.3870  136.6643  155.3145 C   0  0  0  0  0  0  0  0  0  0  0  0
  147.8557  135.6642  154.8333 O   0  0  0  0  0  0  0  0  0  0  0  0
  147.7095  134.8770  161.8756 C   0  0  0  0  0  0  0  0  0  0  0  0
  146.3190  134.2211  161.9604 C   0  0  0  0  0  0  0  0  0  0  0  0
  149.3089  137.2168  153.5525 H   0  0  0  0  0  0  0  0  0  0  0  0
  143.5037  134.3351  161.9454 H   0  0  0  0  0  0  0  0  0  0  0  0
  143.3112  134.9258  163.5941 H   0  0  0  0  0  0  0  0  0  0  0  0
  144.0392  133.3505  163.3046 H   0  0  0  0  0  0  0  0  0  0  0  0
  145.7728  135.0282  163.8705 H   0  0  0  0  0  0  0  0  0  0  0  0
  144.7917  136.5281  161.4030 H   0  0  0  0  0  0  0  0  0  0  0  0
  144.6359  137.0609  163.0575 H   0  0  0  0  0  0  0  0  0  0  0  0
  146.5669  138.1717  161.9499 H   0  0  0  0  0  0  0  0  0  0  0  0
  147.0746  137.2141  163.3114 H   0  0  0  0  0  0  0  0  0  0  0  0
  148.6328  136.7779  161.5123 H   0  0  0  0  0  0  0  0  0  0  0  0
  146.3344  136.7713  159.8015 H   0  0  0  0  0  0  0  0  0  0  0  0
  147.2033  135.2385  157.1439 H   0  0  0  0  0  0  0  0  0  0  0  0
  146.4167  136.6807  157.6997 H   0  0  0  0  0  0  0  0  0  0  0  0
  148.7394  138.4460  158.1734 H   0  0  0  0  0  0  0  0  0  0  0  0
  150.1163  139.8334  156.7826 H   0  0  0  0  0  0  0  0  0  0  0  0
  148.3533  134.3032  161.2080 H   0  0  0  0  0  0  0  0  0  0  0  0
  148.1812  134.8355  162.8583 H   0  0  0  0  0  0  0  0  0  0  0  0
  146.4205  133.2045  162.3419 H   0  0  0  0  0  0  0  0  0  0  0  0
  145.8951  134.1297  160.9594 H   0  0  0  0  0  0  0  0  0  0  0  0
  1  2  1  0  0  0  0
  1 21  1  0  0  0  0
  1 22  1  0  0  0  0
  1 23  1  0  0  0  0
  2 19  1  0  0  0  0
  2  3  1  0  0  0  0
  2 24  1  0  0  0  0
  3  4  1  0  0  0  0
  3 25  1  0  0  0  0
  3 26  1  0  0  0  0
  4  5  1  0  0  0  0
  4 27  1  0  0  0  0
  4 28  1  0  0  0  0
  5  6  1  0  0  0  0
  5 18  1  0  0  0  0
  5 29  1  0  0  0  0
  6  7  1  0  0  0  0
  6 30  1  0  0  0  0
  7  8  2  0  0  0  0
  7  9  1  0  0  0  0
  9 10  1  0  0  0  0
  9 31  1  0  0  0  0
  9 32  1  0  0  0  0
 10 16  1  0  0  0  0
 10 11  1  0  0  0  0
 11 12  2  0  0  0  0
 11 33  1  0  0  0  0
 12 13  1  0  0  0  0
 12 34  1  0  0  0  0
 13 14  2  0  0  0  0
 13 15  1  0  0  0  0
 15 20  1  0  0  0  0
 15 16  1  0  0  0  0
 16 17  2  0  0  0  0
 18 19  1  0  0  0  0
 18 35  1  0  0  0  0
 18 36  1  0  0  0  0
 19 37  1  0  0  0  0
 19 38  1  0  0  0  0
M  END
> <s_m_source_file>
AV-unprocessed.smi

> <i_m_source_file_index>
414

> <i_lp_mmshare_version>
43012

> <i_f3d_flags>
0

> <s_epik_input>
W0NIM11bQ0BASF0xW0NIMl1bQ0gyXVtDQEhdKFtDSDJdW0NIMl0xKVtOSF1DKD1PKVtDSDJdbjJbY0hdW2NIXWMoPU8pW25IXWMyPU8=

> <s_epik_cmdline>
J2VwaWtfcHl0aG9uJywgJy1waCcsICc3LjAnLCAnLXRuJywgJzgnLCAnLW1hJywgJzIwMCcsICctbWV0YWxfYmluZGluZycsICctaW1hZScsICc8aW5maWxlLm1hZT4nLCAnLW9tYWUnLCAnPG91dGZpbGUubWFlPic=

> <r_lp_tautomer_probability>
0.999537

> <r_epik_Ionization_Penalty>
0.00309124

> <r_epik_Ionization_Penalty_Charging>
0.00309122

> <r_epik_Ionization_Penalty_Neutral>
1.90469e-08

> <r_epik_State_Penalty>
0.00217484

> <r_epik_Charging_Adjusted_Penalty>
0.00526606

> <i_epik_Tot_Q>
0

> <i_epik_Tot_abs_Q>
0

> <r_epik_Metal_State_Penalty>
0.362537

> <b_epik_Metal_Only>
0

> <s_lp_Force_Field>
OPLS_2005

> <r_lp_Energy>
7.68142

> <b_lp_Chiralities_Consistent>
1

> <s_lp_Variant>
AV-unprocessed.smi:414-2

> <Gold.Version>
5.8.1

> <Gold.Id.Protein>
6NUR|6NUR_protein|mol2

> <Gold.PLP.Fitness>
34.5388

> <Gold.PLP.PLP>
-26.3305

> <Gold.PLP.part.hbond>
-3.0000

> <Gold.PLP.part.metal>
0.0000

> <Gold.PLP.part.buried>
-4.2592

> <Gold.PLP.part.nonpolar>
-19.0521

> <Gold.PLP.part.repulsive>
0.4146

> <Gold.PLP.ligand.clash>
0.0000

> <Gold.PLP.ligand.torsion>
0.3996

> <Gold.PLP.Chemscore.Hbond>
3.0000

> <Gold.PLP.Chemscore.CHOScore>
0.0000

> <Gold.PLP.Chemscore.Metal>
0.0000

> <Gold.Chemscore.Hbonds>
donor molecule, donor type, donor heavy atom, donor atom, acceptor molecule, acceptor atom, score
      L1  H    15    20       P1  7948  1.00
      P1  H  6896  6908       L1     8  1.00
      P1  H  7989  7998       L1    14  1.00

> <Gold.PLP.Chemscore.Internal.Correction>
0.0075

> <Gold.Rescore>
     Score         DG    S(hbond)    S(metal)    S(lipo)     H(rot)  DE(clash)    DE(int)     intcor
     17.22     -17.68       2.93        0.00      57.59       1.69       0.01       0.45       ----

> <Gold.Chemscore.Fitness>
17.2235

> <Gold.Chemscore.DG>
-17.6795

> <Gold.Chemscore.ZeroCoef>
-5.4800

> <Gold.Chemscore.Hbond>
2.9286

> <Gold.Chemscore.Metal>
0.0000

> <Gold.Chemscore.Lipo>
57.5885

> <Gold.Chemscore.Internal_Hbond>
0.0000

> <Gold.Chemscore.DEClash>
0.0102

> <Gold.Chemscore.DEInternal>
0.4458

> <Gold.Chemscore.Rot>
1.6874

> <Gold.Chemscore.Internal.Correction>
   9.000000E+99

> <Gold.Chemscore.Hbonds>
donor molecule, donor type, donor heavy atom, donor atom, acceptor molecule, acceptor atom, score
      L1  H    15    20       P1  7948  0.95
      P1  H  6896  6908       L1     8  1.00
      P1  H  7989  7998       L1    14  0.93

> <Gold.Chemscore.Hbond.Weighted>
-9.7815

> <Gold.Chemscore.Metal.Weighted>
-0.0000

> <Gold.Chemscore.Lipo.Weighted>
-6.7378

> <Gold.Chemscore.Internal_Hbond.Weighted>
0.0000

> <Gold.Chemscore.DEClash.Weighted>
0.0102

> <Gold.Chemscore.DEInternal.Weighted>
0.4458

> <Gold.Chemscore.Rot.Weighted>
4.3198

> <Gold.Chemscore.Internal.Correction.Weighted>
   9.000000E+99

> <Gold.Protein.RotatedTorsions>
[ 6907 6896 6895 6894 ] final  170.08 input  -60.11 | X-H torsion
[ 7974 7965 7964 7962 ] final -109.42 input  175.53 | X-H torsion
[ 8008 7997 7996 7995 ] final   70.00 input   59.86 | X-H torsion
[ 10167 10162 10161 10158 ] final -107.25 input  -65.29 | X-H torsion
[ 10718 10713 10712 10709 ] final   29.37 input   66.30 | X-H torsion
[ 10763 10752 10751 10750 ] final   26.00 input  -60.55 | X-H torsion
[ 11005 11000 10999 10996 ] final  -40.63 input  -57.11 | X-H torsion

> <Gold.Protein.ActiveResidues>
 VAL166  LYS551  ARG553  GLY616  TRP617  ASP618  TYR619  PRO620  LYS621  CYS622 
 ASP623  PHE694  ASN695  SER759  ASP760  ASP761  ALA762  ILE779  LEU786  VAL792 
 PHE793  MET794  SER795  GLU796  ALA797  LYS798  CYS799  TRP800  GLU811  SER814 

> <Gold.Protein.RotatedAtoms>
  151.8217  133.3395  159.3585 H   0  0  0  0  0  0  0  0  0  0  0  0  # atno 6907 bound_to 6896
  150.7292  134.5567  159.5831 H   0  0  0  0  0  0  0  0  0  0  0  0  # atno 6908 bound_to 6896
  152.3001  134.7622  160.0411 H   0  0  0  0  0  0  0  0  0  0  0  0  # atno 6909 bound_to 6896
  145.1807  140.8970  143.3481 H   0  0  0  0  0  0  0  0  0  0  0  0  # atno 7974 bound_to 7965
  155.7321  140.3491  155.5064 H   0  0  0  0  0  0  0  0  0  0  0  0  # atno 8008 bound_to 7997
  155.9173  140.1061  157.1256 H   0  0  0  0  0  0  0  0  0  0  0  0  # atno 8009 bound_to 7997
  154.4064  140.1256  156.4620 H   0  0  0  0  0  0  0  0  0  0  0  0  # atno 8010 bound_to 7997
  140.1790  143.3982  152.1296 H   0  0  0  0  0  0  0  0  0  0  0  0  # atno 10167 bound_to 10162
  157.2456  130.7090  149.6380 H   0  0  0  0  0  0  0  0  0  0  0  0  # atno 10718 bound_to 10713
  153.0652  135.6570  154.0370 H   0  0  0  0  0  0  0  0  0  0  0  0  # atno 10763 bound_to 10752
  154.0029  135.2935  155.3402 H   0  0  0  0  0  0  0  0  0  0  0  0  # atno 10764 bound_to 10752
  154.7007  135.5245  153.8592 H   0  0  0  0  0  0  0  0  0  0  0  0  # atno 10765 bound_to 10752
  141.0189  133.6872  156.2348 H   0  0  0  0  0  0  0  0  0  0  0  0  # atno 11005 bound_to 11000
  145.0139  139.3485  143.6106 LP  0  0  0  0  0  0  0  0  0  0  0  0  # atno 17320 bound_to 7965
  146.3453  139.9412  142.8741 LP  0  0  0  0  0  0  0  0  0  0  0  0  # atno 17321 bound_to 7965
  139.5305  144.7153  151.5075 LP  0  0  0  0  0  0  0  0  0  0  0  0  # atno 17342 bound_to 10162
  140.6532  143.8653  150.6808 LP  0  0  0  0  0  0  0  0  0  0  0  0  # atno 17343 bound_to 10162
  155.9668  130.4444  150.5459 LP  0  0  0  0  0  0  0  0  0  0  0  0  # atno 17370 bound_to 10713
  157.3332  131.0703  151.1845 LP  0  0  0  0  0  0  0  0  0  0  0  0  # atno 17371 bound_to 10713
  140.6608  134.4970  157.5583 LP  0  0  0  0  0  0  0  0  0  0  0  0  # atno 17394 bound_to 11000
  139.9133  134.8298  156.1450 LP  0  0  0  0  0  0  0  0  0  0  0  0  # atno 17395 bound_to 11000

$$$$
