AV-unprocessed.smi:1870|AV-procd|sdf|7595|dock8
  -GOLD-   22720 9313D 1   1.00000     0.00000
 Structure written by MMmdl.
 48 50  0  0  0  0  0  0  0  0  2 V2000
  149.9489  129.6960  153.7679 C   0  0  0  0  0  0  0  0  0  0  0  0
  150.6841  130.5864  154.7333 C   0  0  0  0  0  0  0  0  0  0  0  0
  150.1358  131.7250  155.0055 N   0  0  0  0  0  0  0  0  0  0  0  0
  150.7250  132.6163  155.8812 N   0  0  0  0  0  0  0  0  0  0  0  0
  149.9702  133.8623  156.0623 C   0  0  0  0  0  0  0  0  0  0  0  0
  149.3534  134.3616  154.7376 C   0  0  2  0  0  0  0  0  0  0  0  0
  150.0080  135.5554  154.3534 O   0  0  0  0  0  0  0  0  0  0  0  0
  147.8546  134.6897  154.9003 C   0  0  0  0  0  0  0  0  0  0  0  0
  147.1084  134.6477  153.6153 N   0  3  2  0  0  0  0  0  0  0  0  0
  145.8309  135.3964  153.6779 C   0  0  0  0  0  0  0  0  0  0  0  0
  145.2706  135.6064  152.2654 C   0  0  0  0  0  0  0  0  0  0  0  0
  145.2268  134.3178  151.4652 C   0  0  0  0  0  0  0  0  0  0  0  0
  144.4144  134.2335  150.3156 C   0  0  0  0  0  0  0  0  0  0  0  0
  144.3979  133.0547  149.5462 C   0  0  0  0  0  0  0  0  0  0  0  0
  145.1964  131.9580  149.9218 C   0  0  0  0  0  0  0  0  0  0  0  0
  146.0094  132.0385  151.0687 C   0  0  0  0  0  0  0  0  0  0  0  0
  146.0293  133.2155  151.8460 C   0  0  0  0  0  0  0  0  0  0  0  0
  146.8982  133.2687  153.0974 C   0  0  0  0  0  0  0  0  0  0  0  0
  151.9061  132.4035  156.5284 C   0  0  0  0  0  0  0  0  0  0  0  0
  152.3990  133.2298  157.2976 O   0  0  0  0  0  0  0  0  0  0  0  0
  152.5211  131.1111  156.2169 C   0  0  0  0  0  0  0  0  0  0  0  0
  153.7566  130.8435  156.8801 C   0  0  0  0  0  0  0  0  0  0  0  0
  154.7596  130.6464  157.4235 N   0  0  0  0  0  0  0  0  0  0  0  0
  151.9539  130.2284  155.3571 C   0  0  0  0  0  0  0  0  0  0  0  0
  152.5532  128.8749  155.0004 C   0  0  0  0  0  0  0  0  0  0  0  0
  149.7673  128.7145  154.2059 H   0  0  0  0  0  0  0  0  0  0  0  0
  150.5266  129.5577  152.8538 H   0  0  0  0  0  0  0  0  0  0  0  0
  148.9805  130.1126  153.4864 H   0  0  0  0  0  0  0  0  0  0  0  0
  149.1689  133.6585  156.7752 H   0  0  0  0  0  0  0  0  0  0  0  0
  150.5679  134.6427  156.5376 H   0  0  0  0  0  0  0  0  0  0  0  0
  149.4948  133.6080  153.9635 H   0  0  0  0  0  0  0  0  0  0  0  0
  149.5407  135.9394  153.6269 H   0  0  0  0  0  0  0  0  0  0  0  0
  147.3864  133.9991  155.6036 H   0  0  0  0  0  0  0  0  0  0  0  0
  147.7659  135.6817  155.3464 H   0  0  0  0  0  0  0  0  0  0  0  0
  145.1190  134.8460  154.2954 H   0  0  0  0  0  0  0  0  0  0  0  0
  145.9748  136.3695  154.1487 H   0  0  0  0  0  0  0  0  0  0  0  0
  144.2705  136.0381  152.3226 H   0  0  0  0  0  0  0  0  0  0  0  0
  145.8916  136.3201  151.7226 H   0  0  0  0  0  0  0  0  0  0  0  0
  143.8062  135.0749  150.0169 H   0  0  0  0  0  0  0  0  0  0  0  0
  143.7757  132.9931  148.6655 H   0  0  0  0  0  0  0  0  0  0  0  0
  145.1846  131.0541  149.3304 H   0  0  0  0  0  0  0  0  0  0  0  0
  146.6152  131.1903  151.3528 H   0  0  0  0  0  0  0  0  0  0  0  0
  147.8575  132.8070  152.8660 H   0  0  0  0  0  0  0  0  0  0  0  0
  146.4225  132.6560  153.8645 H   0  0  0  0  0  0  0  0  0  0  0  0
  153.5531  128.7461  155.4135 H   0  0  0  0  0  0  0  0  0  0  0  0
  152.6332  128.7584  153.9191 H   0  0  0  0  0  0  0  0  0  0  0  0
  151.9286  128.0695  155.3878 H   0  0  0  0  0  0  0  0  0  0  0  0
  147.6816  135.1333  152.9396 H   0  0  0  0  0  0  0  0  0  0  0  0
  1  2  1  0  0  0  0
  1 26  1  0  0  0  0
  1 27  1  0  0  0  0
  1 28  1  0  0  0  0
  2 24  1  0  0  0  0
  2  3  2  0  0  0  0
  3  4  1  0  0  0  0
  4  5  1  0  0  0  0
  4 19  1  0  0  0  0
  5  6  1  0  0  0  0
  5 29  1  0  0  0  0
  5 30  1  0  0  0  0
  6  7  1  0  0  0  0
  6  8  1  0  0  0  0
  6 31  1  0  0  0  0
  7 32  1  0  0  0  0
  8  9  1  0  0  0  0
  8 33  1  0  0  0  0
  8 34  1  0  0  0  0
  9 18  1  0  0  0  0
  9 10  1  0  0  0  0
  9 48  1  0  0  0  0
 10 11  1  0  0  0  0
 10 35  1  0  0  0  0
 10 36  1  0  0  0  0
 11 12  1  0  0  0  0
 11 37  1  0  0  0  0
 11 38  1  0  0  0  0
 12 17  2  0  0  0  0
 12 13  1  0  0  0  0
 13 14  2  0  0  0  0
 13 39  1  0  0  0  0
 14 15  1  0  0  0  0
 14 40  1  0  0  0  0
 15 16  2  0  0  0  0
 15 41  1  0  0  0  0
 16 17  1  0  0  0  0
 16 42  1  0  0  0  0
 17 18  1  0  0  0  0
 18 43  1  0  0  0  0
 18 44  1  0  0  0  0
 19 20  2  0  0  0  0
 19 21  1  0  0  0  0
 21 22  1  0  0  0  0
 21 24  2  0  0  0  0
 22 23  3  0  0  0  0
 24 25  1  0  0  0  0
 25 45  1  0  0  0  0
 25 46  1  0  0  0  0
 25 47  1  0  0  0  0
M  CHG  1   9   1
M  END
> <s_m_source_file>
AV-unprocessed.smi

> <i_m_source_file_index>
1870

> <i_lp_mmshare_version>
43012

> <i_f3d_flags>
0

> <s_epik_input>
TiNDYyhjMVtDSDNdKWMoPU8pbihuYzFbQ0gzXSlbQ0gyXVtDQEhdKFtPSF0pW0NIMl1OKFtDSDJdW0NIMl0yKVtDSDJdYyhjMjMpW2NIXVtjSF1bY0hdW2NIXTM=

> <s_epik_cmdline>
J2VwaWtfcHl0aG9uJywgJy1waCcsICc3LjAnLCAnLXRuJywgJzgnLCAnLW1hJywgJzIwMCcsICctbWV0YWxfYmluZGluZycsICctaW1hZScsICc8aW5maWxlLm1hZT4nLCAnLW9tYWUnLCAnPG91dGZpbGUubWFlPic=

> <r_epik_Ionization_Penalty>
0.0122865

> <r_epik_Ionization_Penalty_Charging>
0.0122864

> <r_epik_Ionization_Penalty_Neutral>
1.48087e-07

> <r_epik_State_Penalty>
0.00950248

> <r_epik_Charging_Adjusted_Penalty>
0.0217889

> <i_epik_Tot_Q>
1

> <i_epik_Tot_abs_Q>
1

> <r_epik_Metal_State_Penalty>
0.00950248

> <b_epik_Metal_Only>
0

> <s_lp_Force_Field>
OPLS_2005

> <r_lp_Energy>
38.404

> <b_lp_Chiralities_Consistent>
1

> <s_lp_Variant>
AV-unprocessed.smi:1870-3

> <Gold.Version>
5.8.1

> <Gold.Id.Protein>
6NUR|6NUR_protein|mol2

> <Gold.PLP.Fitness>
48.4583

> <Gold.PLP.PLP>
-39.9772

> <Gold.PLP.part.hbond>
-3.8186

> <Gold.PLP.part.metal>
0.0000

> <Gold.PLP.part.buried>
-4.9945

> <Gold.PLP.part.nonpolar>
-32.2565

> <Gold.PLP.part.repulsive>
0.0000

> <Gold.PLP.ligand.clash>
0.0000

> <Gold.PLP.ligand.torsion>
1.3739

> <Gold.PLP.Chemscore.Hbond>
3.7360

> <Gold.PLP.Chemscore.CHOScore>
0.0000

> <Gold.PLP.Chemscore.Metal>
0.0000

> <Gold.Chemscore.Hbonds>
donor molecule, donor type, donor heavy atom, donor atom, acceptor molecule, acceptor atom, score
      L1  H     7    32       P1  7948  1.00
      L1  H     9    48       P1  7948  2.00
      P1  H  6896  6909       L1    20  0.59

> <Gold.PLP.Chemscore.Internal.Correction>
0.0208

> <Gold.Rescore>
     Score         DG    S(hbond)    S(metal)    S(lipo)     H(rot)  DE(clash)    DE(int)     intcor
     17.20     -18.68       2.27        0.00      95.19       2.16       0.06       1.42       ----

> <Gold.Chemscore.Fitness>
17.1980

> <Gold.Chemscore.DG>
-18.6755

> <Gold.Chemscore.ZeroCoef>
-5.4800

> <Gold.Chemscore.Hbond>
2.2738

> <Gold.Chemscore.Metal>
0.0000

> <Gold.Chemscore.Lipo>
95.1945

> <Gold.Chemscore.Internal_Hbond>
0.0000

> <Gold.Chemscore.DEClash>
0.0595

> <Gold.Chemscore.DEInternal>
1.4180

> <Gold.Chemscore.Rot>
2.1628

> <Gold.Chemscore.Internal.Correction>
   9.000000E+99

> <Gold.Chemscore.Hbonds>
donor molecule, donor type, donor heavy atom, donor atom, acceptor molecule, acceptor atom, score
      L1  H     7    32       P1  7948  0.39
      L1  H     9    48       P1  7948  0.98
      P1  H  6896  6909       L1    20  0.56

> <Gold.Chemscore.Hbond.Weighted>
-7.5944

> <Gold.Chemscore.Metal.Weighted>
-0.0000

> <Gold.Chemscore.Lipo.Weighted>
-11.1378

> <Gold.Chemscore.Internal_Hbond.Weighted>
0.0000

> <Gold.Chemscore.DEClash.Weighted>
0.0595

> <Gold.Chemscore.DEInternal.Weighted>
1.4180

> <Gold.Chemscore.Rot.Weighted>
5.5367

> <Gold.Chemscore.Internal.Correction.Weighted>
   9.000000E+99

> <Gold.Protein.RotatedTorsions>
[ 6907 6896 6895 6894 ] final  -70.17 input  -60.11 | X-H torsion
[ 7974 7965 7964 7962 ] final -117.91 input  175.53 | X-H torsion
[ 8008 7997 7996 7995 ] final   78.84 input   59.86 | X-H torsion
[ 10167 10162 10161 10158 ] final   42.08 input  -65.29 | X-H torsion
[ 10718 10713 10712 10709 ] final   27.47 input   66.30 | X-H torsion
[ 10763 10752 10751 10750 ] final  -61.34 input  -60.55 | X-H torsion
[ 11005 11000 10999 10996 ] final   85.61 input  -57.11 | X-H torsion

> <Gold.Protein.ActiveResidues>
 VAL166  LYS551  ARG553  GLY616  TRP617  ASP618  TYR619  PRO620  LYS621  CYS622 
 ASP623  PHE694  ASN695  SER759  ASP760  ASP761  ALA762  ILE779  LEU786  VAL792 
 PHE793  MET794  SER795  GLU796  ALA797  LYS798  CYS799  TRP800  GLU811  SER814 

> <Gold.Protein.RotatedAtoms>
  150.7270  134.5491  159.5785 H   0  0  0  0  0  0  0  0  0  0  0  0  # atno 6907 bound_to 6896
  152.2982  134.7639  160.0372 H   0  0  0  0  0  0  0  0  0  0  0  0  # atno 6908 bound_to 6896
  151.8228  133.3361  159.3626 H   0  0  0  0  0  0  0  0  0  0  0  0  # atno 6909 bound_to 6896
  145.0799  140.8418  143.4045 H   0  0  0  0  0  0  0  0  0  0  0  0  # atno 7974 bound_to 7965
  155.8614  140.3453  155.5759 H   0  0  0  0  0  0  0  0  0  0  0  0  # atno 8008 bound_to 7997
  155.7929  140.0874  157.2018 H   0  0  0  0  0  0  0  0  0  0  0  0  # atno 8009 bound_to 7997
  154.4012  140.1480  156.3171 H   0  0  0  0  0  0  0  0  0  0  0  0  # atno 8010 bound_to 7997
  140.3580  144.2265  150.6140 H   0  0  0  0  0  0  0  0  0  0  0  0  # atno 10167 bound_to 10162
  157.2206  130.6977  149.6268 H   0  0  0  0  0  0  0  0  0  0  0  0  # atno 10718 bound_to 10713
  154.2830  135.6268  153.5354 H   0  0  0  0  0  0  0  0  0  0  0  0  # atno 10763 bound_to 10752
  152.9863  135.5637  154.5474 H   0  0  0  0  0  0  0  0  0  0  0  0  # atno 10764 bound_to 10752
  154.5069  135.2875  155.1351 H   0  0  0  0  0  0  0  0  0  0  0  0  # atno 10765 bound_to 10752
  139.8967  134.8298  156.2605 H   0  0  0  0  0  0  0  0  0  0  0  0  # atno 11005 bound_to 11000
  145.1191  139.2705  143.5598 LP  0  0  0  0  0  0  0  0  0  0  0  0  # atno 17320 bound_to 7965
  146.3531  140.0810  142.8617 LP  0  0  0  0  0  0  0  0  0  0  0  0  # atno 17321 bound_to 7965
  140.5155  143.2279  151.8470 LP  0  0  0  0  0  0  0  0  0  0  0  0  # atno 17342 bound_to 10162
  139.4817  144.4899  151.9198 LP  0  0  0  0  0  0  0  0  0  0  0  0  # atno 17343 bound_to 10162
  155.9682  130.4521  150.5761 LP  0  0  0  0  0  0  0  0  0  0  0  0  # atno 17370 bound_to 10713
  157.3579  131.0745  151.1660 LP  0  0  0  0  0  0  0  0  0  0  0  0  # atno 17371 bound_to 10713
  141.0165  133.7065  156.1197 LP  0  0  0  0  0  0  0  0  0  0  0  0  # atno 17394 bound_to 11000
  140.7294  134.4271  157.5567 LP  0  0  0  0  0  0  0  0  0  0  0  0  # atno 17395 bound_to 11000

$$$$
