AV-unprocessed.smi:1118|AV-procd|sdf|4815|dock9
  -GOLD-   22720 3373D 1   1.00000     0.00000
 Structure written by MMmdl.
 45 46  0  0  0  0  0  0  0  0  2 V2000
  145.5148  135.9824  150.8842 C   0  0  0  0  0  0  0  0  0  0  0  0
  145.7922  136.2893  152.2396 O   0  0  0  0  0  0  0  0  0  0  0  0
  145.3357  137.5802  152.6088 C   0  0  0  0  0  0  0  0  0  0  0  0
  146.4583  138.5981  152.3553 C   0  0  0  0  0  0  0  0  0  0  0  0
  146.4525  139.7118  153.3378 N   0  3  2  0  0  0  0  0  0  0  0  0
  147.4944  140.7265  153.0364 C   0  0  0  0  0  0  0  0  0  0  0  0
  147.3752  141.9364  153.9772 C   0  0  0  0  0  0  0  0  0  0  0  0
  147.4704  141.5229  155.4609 C   0  0  2  0  0  0  0  0  0  0  0  0
  148.8839  141.0909  155.9184 C   0  0  0  0  0  0  0  0  0  0  0  0
  149.7113  142.2391  156.2719 N   0  0  0  0  0  0  0  0  0  0  0  0
  150.7941  142.2050  157.0648 C   0  0  0  0  0  0  0  0  0  0  0  0
  151.1686  141.1994  157.6679 O   0  0  0  0  0  0  0  0  0  0  0  0
  151.6050  143.4967  157.1570 C   0  0  0  0  0  0  0  0  0  0  0  0
  151.7347  143.9153  158.5412 N   0  0  0  0  0  0  0  0  0  0  0  0
  152.2136  143.1914  159.6134 C   0  0  0  0  0  0  0  0  0  0  0  0
  152.1650  144.0060  160.7082 C   0  0  0  0  0  0  0  0  0  0  0  0
  151.6367  145.2254  160.1996 C   0  0  0  0  0  0  0  0  0  0  0  0
  151.3809  145.1689  158.9023 N   0  0  0  0  0  0  0  0  0  0  0  0
  146.4144  140.4358  155.7339 C   0  0  0  0  0  0  0  0  0  0  0  0
  146.5224  139.2535  154.7515 C   0  0  0  0  0  0  0  0  0  0  0  0
  145.8894  134.9858  150.6497 H   0  0  0  0  0  0  0  0  0  0  0  0
  145.9998  136.6912  150.2113 H   0  0  0  0  0  0  0  0  0  0  0  0
  144.4416  135.9927  150.6890 H   0  0  0  0  0  0  0  0  0  0  0  0
  144.4270  137.8382  152.0647 H   0  0  0  0  0  0  0  0  0  0  0  0
  145.0811  137.5839  153.6699 H   0  0  0  0  0  0  0  0  0  0  0  0
  147.4312  138.1047  152.3669 H   0  0  0  0  0  0  0  0  0  0  0  0
  146.3293  138.9950  151.3475 H   0  0  0  0  0  0  0  0  0  0  0  0
  148.4838  140.2740  153.1134 H   0  0  0  0  0  0  0  0  0  0  0  0
  147.3854  141.0695  152.0070 H   0  0  0  0  0  0  0  0  0  0  0  0
  148.1259  142.6853  153.7255 H   0  0  0  0  0  0  0  0  0  0  0  0
  146.4133  142.4214  153.8053 H   0  0  0  0  0  0  0  0  0  0  0  0
  147.2034  142.3957  156.0588 H   0  0  0  0  0  0  0  0  0  0  0  0
  148.8022  140.4600  156.8040 H   0  0  0  0  0  0  0  0  0  0  0  0
  149.3716  140.4769  155.1609 H   0  0  0  0  0  0  0  0  0  0  0  0
  149.4876  143.1154  155.8218 H   0  0  0  0  0  0  0  0  0  0  0  0
  152.5970  143.3617  156.7225 H   0  0  0  0  0  0  0  0  0  0  0  0
  151.1099  144.2878  156.5924 H   0  0  0  0  0  0  0  0  0  0  0  0
  152.5476  142.1694  159.5080 H   0  0  0  0  0  0  0  0  0  0  0  0
  152.4627  143.7675  161.7186 H   0  0  0  0  0  0  0  0  0  0  0  0
  151.4339  146.1437  160.7304 H   0  0  0  0  0  0  0  0  0  0  0  0
  146.4968  140.0778  156.7606 H   0  0  0  0  0  0  0  0  0  0  0  0
  145.4194  140.8750  155.6480 H   0  0  0  0  0  0  0  0  0  0  0  0
  145.7124  138.5562  154.9611 H   0  0  0  0  0  0  0  0  0  0  0  0
  147.4512  138.7054  154.9131 H   0  0  0  0  0  0  0  0  0  0  0  0
  145.5659  140.1832  153.2247 H   0  0  0  0  0  0  0  0  0  0  0  0
  1  2  1  0  0  0  0
  1 21  1  0  0  0  0
  1 22  1  0  0  0  0
  1 23  1  0  0  0  0
  2  3  1  0  0  0  0
  3  4  1  0  0  0  0
  3 24  1  0  0  0  0
  3 25  1  0  0  0  0
  4  5  1  0  0  0  0
  4 26  1  0  0  0  0
  4 27  1  0  0  0  0
  5 20  1  0  0  0  0
  5  6  1  0  0  0  0
  5 45  1  0  0  0  0
  6  7  1  0  0  0  0
  6 28  1  0  0  0  0
  6 29  1  0  0  0  0
  7  8  1  0  0  0  0
  7 30  1  0  0  0  0
  7 31  1  0  0  0  0
  8  9  1  0  0  0  0
  8 19  1  0  0  0  0
  8 32  1  0  0  0  0
  9 10  1  0  0  0  0
  9 33  1  0  0  0  0
  9 34  1  0  0  0  0
 10 11  1  0  0  0  0
 10 35  1  0  0  0  0
 11 12  2  0  0  0  0
 11 13  1  0  0  0  0
 13 14  1  0  0  0  0
 13 36  1  0  0  0  0
 13 37  1  0  0  0  0
 14 18  1  0  0  0  0
 14 15  1  0  0  0  0
 15 16  2  0  0  0  0
 15 38  1  0  0  0  0
 16 17  1  0  0  0  0
 16 39  1  0  0  0  0
 17 18  2  0  0  0  0
 17 40  1  0  0  0  0
 19 20  1  0  0  0  0
 19 41  1  0  0  0  0
 19 42  1  0  0  0  0
 20 43  1  0  0  0  0
 20 44  1  0  0  0  0
M  CHG  1   5   1
M  END
> <s_m_source_file>
AV-unprocessed.smi

> <i_m_source_file_index>
1118

> <i_lp_mmshare_version>
43012

> <i_f3d_flags>
0

> <s_epik_input>
W0NIM11PW0NIMl1bQ0gyXU4xW0NIMl1bQ0gyXVtDSF0oW0NIMl1bQ0gyXTEpW0NIMl1bTkhdQyg9TylbQ0gyXW4yW2NIXVtjSF1bY0hdbjI=

> <s_epik_cmdline>
J2VwaWtfcHl0aG9uJywgJy1waCcsICc3LjAnLCAnLXRuJywgJzgnLCAnLW1hJywgJzIwMCcsICctbWV0YWxfYmluZGluZycsICctaW1hZScsICc8aW5maWxlLm1hZT4nLCAnLW9tYWUnLCAnPG91dGZpbGUubWFlPic=

> <r_lp_tautomer_probability>
1

> <r_epik_Ionization_Penalty>
0.00991549

> <r_epik_Ionization_Penalty_Charging>
0.00990284

> <r_epik_Ionization_Penalty_Neutral>
1.26554e-05

> <r_epik_State_Penalty>
0.00754525

> <r_epik_Charging_Adjusted_Penalty>
0.0174481

> <i_epik_Tot_Q>
1

> <i_epik_Tot_abs_Q>
1

> <r_epik_Metal_State_Penalty>
0.00754527

> <b_epik_Metal_Only>
0

> <s_lp_Force_Field>
OPLS_2005

> <r_lp_Energy>
20.3216

> <b_lp_Chiralities_Consistent>
1

> <s_lp_Variant>
AV-unprocessed.smi:1118-2

> <Gold.Version>
5.8.1

> <Gold.Id.Protein>
6NUR|6NUR_protein|mol2

> <Gold.PLP.Fitness>
47.3040

> <Gold.PLP.PLP>
-39.9630

> <Gold.PLP.part.hbond>
-2.4395

> <Gold.PLP.part.metal>
0.0000

> <Gold.PLP.part.buried>
-4.1570

> <Gold.PLP.part.nonpolar>
-34.8621

> <Gold.PLP.part.repulsive>
0.9299

> <Gold.PLP.ligand.clash>
0.0000

> <Gold.PLP.ligand.torsion>
0.9076

> <Gold.PLP.Chemscore.Hbond>
3.0000

> <Gold.PLP.Chemscore.CHOScore>
0.0000

> <Gold.PLP.Chemscore.Metal>
0.0000

> <Gold.Chemscore.Hbonds>
donor molecule, donor type, donor heavy atom, donor atom, acceptor molecule, acceptor atom, score
      L1  H     5    45       P1 10175  1.92
      L1  H    10    35       P1  8028  1.00

> <Gold.PLP.Chemscore.Internal.Correction>
0.1561

> <Gold.Rescore>
     Score         DG    S(hbond)    S(metal)    S(lipo)     H(rot)  DE(clash)    DE(int)     intcor
     16.14     -17.25       1.93        0.00      93.92       2.22       0.07       1.05       ----

> <Gold.Chemscore.Fitness>
16.1353

> <Gold.Chemscore.DG>
-17.2530

> <Gold.Chemscore.ZeroCoef>
-5.4800

> <Gold.Chemscore.Hbond>
1.9338

> <Gold.Chemscore.Metal>
0.0000

> <Gold.Chemscore.Lipo>
93.9199

> <Gold.Chemscore.Internal_Hbond>
0.0000

> <Gold.Chemscore.DEClash>
0.0665

> <Gold.Chemscore.DEInternal>
1.0512

> <Gold.Chemscore.Rot>
2.2166

> <Gold.Chemscore.Internal.Correction>
   9.000000E+99

> <Gold.Chemscore.Hbonds>
donor molecule, donor type, donor heavy atom, donor atom, acceptor molecule, acceptor atom, score
      L1  H     5    45       P1 10175  0.89
      L1  H    10    35       P1  8028  0.99

> <Gold.Chemscore.Hbond.Weighted>
-6.4589

> <Gold.Chemscore.Metal.Weighted>
-0.0000

> <Gold.Chemscore.Lipo.Weighted>
-10.9886

> <Gold.Chemscore.Internal_Hbond.Weighted>
0.0000

> <Gold.Chemscore.DEClash.Weighted>
0.0665

> <Gold.Chemscore.DEInternal.Weighted>
1.0512

> <Gold.Chemscore.Rot.Weighted>
5.6745

> <Gold.Chemscore.Internal.Correction.Weighted>
   9.000000E+99

> <Gold.Protein.RotatedTorsions>
[ 6907 6896 6895 6894 ] final  -29.94 input  -60.11 | X-H torsion
[ 7974 7965 7964 7962 ] final  175.89 input  175.53 | X-H torsion
[ 8008 7997 7996 7995 ] final   94.03 input   59.86 | X-H torsion
[ 10167 10162 10161 10158 ] final -146.71 input  -65.29 | X-H torsion
[ 10718 10713 10712 10709 ] final  -18.14 input   66.30 | X-H torsion
[ 10763 10752 10751 10750 ] final   -3.36 input  -60.55 | X-H torsion
[ 11005 11000 10999 10996 ] final  138.96 input  -57.11 | X-H torsion

> <Gold.Protein.ActiveResidues>
 VAL166  LYS551  ARG553  GLY616  TRP617  ASP618  TYR619  PRO620  LYS621  CYS622 
 ASP623  PHE694  ASN695  SER759  ASP760  ASP761  ALA762  ILE779  LEU786  VAL792 
 PHE793  MET794  SER795  GLU796  ALA797  LYS798  CYS799  TRP800  GLU811  SER814 

> <Gold.Protein.RotatedAtoms>
  151.1123  135.0034  159.8499 H   0  0  0  0  0  0  0  0  0  0  0  0  # atno 6907 bound_to 6896
  152.5444  134.1820  159.8649 H   0  0  0  0  0  0  0  0  0  0  0  0  # atno 6908 bound_to 6896
  151.1872  133.4644  159.2627 H   0  0  0  0  0  0  0  0  0  0  0  0  # atno 6909 bound_to 6896
  144.7193  140.0015  143.6440 H   0  0  0  0  0  0  0  0  0  0  0  0  # atno 7974 bound_to 7965
  156.0533  140.3305  155.7377 H   0  0  0  0  0  0  0  0  0  0  0  0  # atno 8008 bound_to 7997
  155.5567  140.0615  157.2855 H   0  0  0  0  0  0  0  0  0  0  0  0  # atno 8009 bound_to 7997
  154.4446  140.1884  156.0729 H   0  0  0  0  0  0  0  0  0  0  0  0  # atno 8010 bound_to 7997
  139.7688  143.8268  152.2621 H   0  0  0  0  0  0  0  0  0  0  0  0  # atno 10167 bound_to 10162
  156.5637  130.4732  149.6395 H   0  0  0  0  0  0  0  0  0  0  0  0  # atno 10718 bound_to 10713
  153.3703  135.6994  153.6643 H   0  0  0  0  0  0  0  0  0  0  0  0  # atno 10763 bound_to 10752
  153.5296  135.3595  155.2670 H   0  0  0  0  0  0  0  0  0  0  0  0  # atno 10764 bound_to 10752
  154.8680  135.4177  154.2979 H   0  0  0  0  0  0  0  0  0  0  0  0  # atno 10765 bound_to 10752
  140.0220  134.9392  157.0494 H   0  0  0  0  0  0  0  0  0  0  0  0  # atno 11005 bound_to 11000
  146.0331  139.3353  143.0743 LP  0  0  0  0  0  0  0  0  0  0  0  0  # atno 17320 bound_to 7965
  145.8428  140.9571  143.0790 LP  0  0  0  0  0  0  0  0  0  0  0  0  # atno 17321 bound_to 7965
  139.8296  144.7260  150.9467 LP  0  0  0  0  0  0  0  0  0  0  0  0  # atno 17342 bound_to 10162
  140.7812  143.4082  151.1036 LP  0  0  0  0  0  0  0  0  0  0  0  0  # atno 17343 bound_to 10162
  156.2776  130.7052  151.1868 LP  0  0  0  0  0  0  0  0  0  0  0  0  # atno 17370 bound_to 10713
  157.7363  131.0563  150.5421 LP  0  0  0  0  0  0  0  0  0  0  0  0  # atno 17371 bound_to 10713
  140.4370  134.1721  155.7171 LP  0  0  0  0  0  0  0  0  0  0  0  0  # atno 17394 bound_to 11000
  141.1780  133.8474  157.1356 LP  0  0  0  0  0  0  0  0  0  0  0  0  # atno 17395 bound_to 11000

$$$$
