AV-unprocessed.smi:1696|AV-procd|sdf|6801|dock5
  -GOLD-   22720 7573D 1   1.00000     0.00000
 Structure written by MMmdl.
 38 39  0  0  0  0  0  0  0  0  3 V2000
  146.0116  135.8206  153.1964 C   0  0  0  0  0  0  0  0  0  0  0  0
  147.2214  136.1683  154.0783 C   0  0  0  0  0  0  0  0  0  0  0  0
  147.8126  134.9733  154.8749 C   0  0  2  0  0  0  0  0  0  0  0  0
  148.9692  135.4067  155.8166 C   0  0  0  0  0  0  0  0  0  0  0  0
  148.5021  136.1658  156.9721 N   0  0  0  0  0  0  0  0  0  0  0  0
  148.6931  135.8290  158.2552 C   0  0  0  0  0  0  0  0  0  0  0  0
  149.3241  134.8068  158.5343 O   0  0  0  0  0  0  0  0  0  0  0  0
  148.1355  136.6927  159.1324 N   0  5  0  0  0  0  0  0  0  0  0  0
  147.6864  136.2489  160.3176 C   0  0  0  0  0  0  0  0  0  0  0  0
  147.3385  137.0655  161.3186 N   0  0  0  0  0  0  0  0  0  0  0  0
  146.8948  136.3902  162.4572 C   0  0  0  0  0  0  0  0  0  0  0  0
  146.8965  135.0277  162.3163 C   0  0  0  0  0  0  0  0  0  0  0  0
  147.4596  134.5494  160.7403 S   0  0  0  0  0  0  0  0  0  0  0  0
  148.2367  133.8566  153.9806 N   0  3  0  0  0  0  0  0  0  0  0  0
  149.1984  132.8962  154.5797 C   0  0  0  0  0  0  0  0  0  0  0  0
  148.8553  131.5033  154.0323 C   0  0  0  0  0  0  0  0  0  0  0  0
  147.8119  131.7522  152.9489 C   0  0  0  0  0  0  0  0  0  0  0  0
  147.1442  133.0453  153.4011 C   0  0  0  0  0  0  0  0  0  0  0  0
  145.6298  136.7140  152.7017 H   0  0  0  0  0  0  0  0  0  0  0  0
  145.1960  135.3951  153.7809 H   0  0  0  0  0  0  0  0  0  0  0  0
  146.2756  135.1071  152.4158 H   0  0  0  0  0  0  0  0  0  0  0  0
  147.9956  136.6037  153.4461 H   0  0  0  0  0  0  0  0  0  0  0  0
  146.9458  136.9741  154.7584 H   0  0  0  0  0  0  0  0  0  0  0  0
  147.0060  134.5798  155.4956 H   0  0  0  0  0  0  0  0  0  0  0  0
  149.5321  134.5472  156.1819 H   0  0  0  0  0  0  0  0  0  0  0  0
  149.6881  136.0222  155.2762 H   0  0  0  0  0  0  0  0  0  0  0  0
  147.9852  137.0132  156.7873 H   0  0  0  0  0  0  0  0  0  0  0  0
  146.5950  136.9605  163.3237 H   0  0  0  0  0  0  0  0  0  0  0  0
  146.6023  134.2806  163.0377 H   0  0  0  0  0  0  0  0  0  0  0  0
  150.2154  133.1892  154.3169 H   0  0  0  0  0  0  0  0  0  0  0  0
  149.1260  132.8847  155.6685 H   0  0  0  0  0  0  0  0  0  0  0  0
  149.7304  130.9768  153.6497 H   0  0  0  0  0  0  0  0  0  0  0  0
  148.4235  130.8928  154.8267 H   0  0  0  0  0  0  0  0  0  0  0  0
  148.3046  131.9072  151.9880 H   0  0  0  0  0  0  0  0  0  0  0  0
  147.1079  130.9268  152.8382 H   0  0  0  0  0  0  0  0  0  0  0  0
  146.3997  132.8271  154.1689 H   0  0  0  0  0  0  0  0  0  0  0  0
  146.6462  133.5542  152.5755 H   0  0  0  0  0  0  0  0  0  0  0  0
  148.7141  134.2753  153.1954 H   0  0  0  0  0  0  0  0  0  0  0  0
  1  2  1  0  0  0  0
  1 19  1  0  0  0  0
  1 20  1  0  0  0  0
  1 21  1  0  0  0  0
  2  3  1  0  0  0  0
  2 22  1  0  0  0  0
  2 23  1  0  0  0  0
  3  4  1  0  0  0  0
  3 14  1  0  0  0  0
  3 24  1  0  0  0  0
  4  5  1  0  0  0  0
  4 25  1  0  0  0  0
  4 26  1  0  0  0  0
  5  6  1  0  0  0  0
  5 27  1  0  0  0  0
  6  7  2  0  0  0  0
  6  8  1  0  0  0  0
  8  9  1  0  0  0  0
  9 13  1  0  0  0  0
  9 10  2  0  0  0  0
 10 11  1  0  0  0  0
 11 12  2  0  0  0  0
 11 28  1  0  0  0  0
 12 13  1  0  0  0  0
 12 29  1  0  0  0  0
 14 18  1  0  0  0  0
 14 15  1  0  0  0  0
 14 38  1  0  0  0  0
 15 16  1  0  0  0  0
 15 30  1  0  0  0  0
 15 31  1  0  0  0  0
 16 17  1  0  0  0  0
 16 32  1  0  0  0  0
 16 33  1  0  0  0  0
 17 18  1  0  0  0  0
 17 34  1  0  0  0  0
 17 35  1  0  0  0  0
 18 36  1  0  0  0  0
 18 37  1  0  0  0  0
M  CHG  1   8  -1
M  CHG  1  14   1
M  END
> <s_m_source_file>
AV-unprocessed.smi

> <i_m_source_file_index>
1696

> <i_lp_mmshare_version>
43012

> <i_f3d_flags>
0

> <s_epik_input>
W0NIMl0xW0NIMl1bQ0gyXVtDSDJdTjFbQ0BIXShbQ0gyXVtDSDNdKVtDSDJdW05IXUMoPU8pW05IXWMybltjSF1bY0hdczI=

> <s_epik_cmdline>
J2VwaWtfcHl0aG9uJywgJy1waCcsICc3LjAnLCAnLXRuJywgJzgnLCAnLW1hJywgJzIwMCcsICctbWV0YWxfYmluZGluZycsICctaW1hZScsICc8aW5maWxlLm1hZT4nLCAnLW9tYWUnLCAnPG91dGZpbGUubWFlPic=

> <r_lp_tautomer_probability>
1

> <r_epik_Ionization_Penalty>
7.71903

> <r_epik_Ionization_Penalty_Charging>
6.3282

> <r_epik_Ionization_Penalty_Neutral>
1.39083

> <r_epik_State_Penalty>
6.32705

> <r_epik_Charging_Adjusted_Penalty>
12.6552

> <i_epik_Tot_Q>
0

> <i_epik_Tot_abs_Q>
2

> <r_epik_Metal_State_Penalty>
2.26116

> <b_epik_Metal_Only>
1

> <s_lp_Force_Field>
OPLS_2005

> <r_lp_Energy>
21.91

> <b_lp_Chiralities_Consistent>
1

> <s_lp_Variant>
AV-unprocessed.smi:1696-3

> <Gold.Version>
5.8.1

> <Gold.Id.Protein>
6NUR|6NUR_protein|mol2

> <Gold.PLP.Fitness>
43.4499

> <Gold.PLP.PLP>
-30.5942

> <Gold.PLP.part.hbond>
-4.0000

> <Gold.PLP.part.metal>
0.0000

> <Gold.PLP.part.buried>
-2.9934

> <Gold.PLP.part.nonpolar>
-22.9077

> <Gold.PLP.part.repulsive>
0.0074

> <Gold.PLP.ligand.clash>
0.0000

> <Gold.PLP.ligand.torsion>
0.7471

> <Gold.PLP.Chemscore.Hbond>
4.7280

> <Gold.PLP.Chemscore.CHOScore>
0.0000

> <Gold.PLP.Chemscore.Metal>
0.0000

> <Gold.Chemscore.Hbonds>
donor molecule, donor type, donor heavy atom, donor atom, acceptor molecule, acceptor atom, score
      L1  H    14    38       P1  7948  0.37
      P1  H  6896  6908       L1     7  1.00
      P1  H  6931  6943       L1    10  0.66
      P1  H  6934  6947       L1    10  1.00

> <Gold.PLP.Chemscore.Internal.Correction>
0.1660

> <Gold.Rescore>
     Score         DG    S(hbond)    S(metal)    S(lipo)     H(rot)  DE(clash)    DE(int)     intcor
     15.30     -18.40       3.29        0.00      54.29       1.73       0.06       3.04       ----

> <Gold.Chemscore.Fitness>
15.2998

> <Gold.Chemscore.DG>
-18.3992

> <Gold.Chemscore.ZeroCoef>
-5.4800

> <Gold.Chemscore.Hbond>
3.2899

> <Gold.Chemscore.Metal>
0.0000

> <Gold.Chemscore.Lipo>
54.2912

> <Gold.Chemscore.Internal_Hbond>
0.0000

> <Gold.Chemscore.DEClash>
0.0640

> <Gold.Chemscore.DEInternal>
3.0354

> <Gold.Chemscore.Rot>
1.7270

> <Gold.Chemscore.Internal.Correction>
   9.000000E+99

> <Gold.Chemscore.Hbonds>
donor molecule, donor type, donor heavy atom, donor atom, acceptor molecule, acceptor atom, score
      L1  H    14    38       P1  7948  0.03
      P1  H  6896  6908       L1     7  1.00
      P1  H  6931  6943       L1    10  0.29
      P1  H  6934  6947       L1    10  0.88

> <Gold.Chemscore.Hbond.Weighted>
-10.9883

> <Gold.Chemscore.Metal.Weighted>
-0.0000

> <Gold.Chemscore.Lipo.Weighted>
-6.3521

> <Gold.Chemscore.Internal_Hbond.Weighted>
0.0000

> <Gold.Chemscore.DEClash.Weighted>
0.0640

> <Gold.Chemscore.DEInternal.Weighted>
3.0354

> <Gold.Chemscore.Rot.Weighted>
4.4212

> <Gold.Chemscore.Internal.Correction.Weighted>
   9.000000E+99

> <Gold.Protein.RotatedTorsions>
[ 6907 6896 6895 6894 ] final  154.21 input  -60.11 | X-H torsion
[ 7974 7965 7964 7962 ] final   41.77 input  175.53 | X-H torsion
[ 8008 7997 7996 7995 ] final  -67.93 input   59.86 | X-H torsion
[ 10167 10162 10161 10158 ] final  127.91 input  -65.29 | X-H torsion
[ 10718 10713 10712 10709 ] final -111.28 input   66.30 | X-H torsion
[ 10763 10752 10751 10750 ] final  178.81 input  -60.55 | X-H torsion
[ 11005 11000 10999 10996 ] final   73.62 input  -57.11 | X-H torsion

> <Gold.Protein.ActiveResidues>
 VAL166  LYS551  ARG553  GLY616  TRP617  ASP618  TYR619  PRO620  LYS621  CYS622 
 ASP623  PHE694  ASN695  SER759  ASP760  ASP761  ALA762  ILE779  LEU786  VAL792 
 PHE793  MET794  SER795  GLU796  ALA797  LYS798  CYS799  TRP800  GLU811  SER814 

> <Gold.Protein.RotatedAtoms>
  152.0617  133.4065  159.4420 H   0  0  0  0  0  0  0  0  0  0  0  0  # atno 6907 bound_to 6896
  150.6866  134.3193  159.4789 H   0  0  0  0  0  0  0  0  0  0  0  0  # atno 6908 bound_to 6896
  152.1014  134.9338  160.0620 H   0  0  0  0  0  0  0  0  0  0  0  0  # atno 6909 bound_to 6896
  146.0796  139.5377  142.9545 H   0  0  0  0  0  0  0  0  0  0  0  0  # atno 7974 bound_to 7965
  154.4833  140.0883  156.7428 H   0  0  0  0  0  0  0  0  0  0  0  0  # atno 8008 bound_to 7997
  155.4414  140.3454  155.4272 H   0  0  0  0  0  0  0  0  0  0  0  0  # atno 8009 bound_to 7997
  156.1224  140.1478  156.9174 H   0  0  0  0  0  0  0  0  0  0  0  0  # atno 8010 bound_to 7997
  139.5554  144.6844  151.4198 H   0  0  0  0  0  0  0  0  0  0  0  0  # atno 10167 bound_to 10162
  156.0638  130.5859  150.8352 H   0  0  0  0  0  0  0  0  0  0  0  0  # atno 10718 bound_to 10713
  154.5125  135.2789  155.1330 H   0  0  0  0  0  0  0  0  0  0  0  0  # atno 10763 bound_to 10752
  154.2920  135.6265  153.5393 H   0  0  0  0  0  0  0  0  0  0  0  0  # atno 10764 bound_to 10752
  152.9921  135.5676  154.5594 H   0  0  0  0  0  0  0  0  0  0  0  0  # atno 10765 bound_to 10752
  139.9431  134.7362  156.1048 H   0  0  0  0  0  0  0  0  0  0  0  0  # atno 11005 bound_to 11000
  145.6242  141.0317  143.1898 LP  0  0  0  0  0  0  0  0  0  0  0  0  # atno 17320 bound_to 7965
  144.7284  139.7801  143.7356 LP  0  0  0  0  0  0  0  0  0  0  0  0  # atno 17321 bound_to 7965
  140.6826  143.8048  150.7141 LP  0  0  0  0  0  0  0  0  0  0  0  0  # atno 17342 bound_to 10162
  140.1506  143.4361  152.2134 LP  0  0  0  0  0  0  0  0  0  0  0  0  # atno 17343 bound_to 10162
  157.5666  131.0946  150.9480 LP  0  0  0  0  0  0  0  0  0  0  0  0  # atno 17370 bound_to 10713
  156.9706  130.5489  149.5290 LP  0  0  0  0  0  0  0  0  0  0  0  0  # atno 17371 bound_to 10713
  141.1073  133.6655  156.2893 LP  0  0  0  0  0  0  0  0  0  0  0  0  # atno 17394 bound_to 11000
  140.5902  134.5658  157.5498 LP  0  0  0  0  0  0  0  0  0  0  0  0  # atno 17395 bound_to 11000

$$$$
