#       Name:                AV-unprocessed.smi:2713
#       Creating user name   scv26
#       Creation time:       Fri Mar 27 14:52:08 2020


#       File generated by GOLD software.
#

@<TRIPOS>MOLECULE
AV-unprocessed.smi:2713
    57    58     1
SMALL
NO_CHARGES


@<TRIPOS>ATOM
      1 ****        -4.5825   2.2746   1.5553 C.3            1 S1                 0.0000
      2 ****        -3.3778   2.4590   0.6060 C.3            1 S1                 0.0000
      3 ****        -3.4249   3.9177   0.1036 C.3            1 S1                 0.0000
      4 ****        -2.0642   2.2834   1.3948 C.3            1 S1                 0.0000
      5 ****        -3.4715   1.5353  -0.6549 C.3            1 S1                 0.0000
      6 ****        -3.1376   0.0096  -0.5963 C.3            1 S1                 0.0000
      7 ****        -3.8745  -0.7362   0.5374 C.3            1 S1                 0.0000
      8 ****        -3.5469  -0.6070  -1.9531 C.3            1 S1                 0.0000
      9 ****        -1.6803  -0.1099  -0.4755 N.3            1 S1                 0.0000
     10 ****        -1.1353  -1.4446  -0.2536 C.3            1 S1                 0.0000
     11 ****         0.3786  -1.4382  -0.1880 C.ar           1 S1                 0.0000
     12 ****         1.0869  -0.6105   0.7070 C.ar           1 S1                 0.0000
     13 ****         2.4360  -0.6193   0.7637 N.ar           1 S1                 0.0000
     14 ****         3.0922  -1.4499  -0.0589 C.ar           1 S1                 0.0000
     15 ****         4.4915  -1.4555   0.0033 N.pl3          1 S1                 0.0000
     16 ****         5.2317  -0.6321   0.9621 C.3            1 S1                 0.0000
     17 ****         6.5912  -0.2078   0.3807 C.3            1 S1                 0.0000
     18 ****         7.3225  -1.3580  -0.0258 O.3            1 S1                 0.0000
     19 ****         6.6423  -2.0763  -1.0476 C.3            1 S1                 0.0000
     20 ****         5.2845  -2.5704  -0.5205 C.3            1 S1                 0.0000
     21 ****         2.5090  -2.2766  -0.9382 N.ar           1 S1                 0.0000
     22 ****         1.1608  -2.2764  -1.0069 C.ar           1 S1                 0.0000
     23 ****        -4.5952   3.0470   2.3253 H              1 S1                 0.0000
     24 ****        -4.5673   1.3244   2.0831 H              1 S1                 0.0000
     25 ****        -5.5290   2.3409   1.0178 H              1 S1                 0.0000
     26 ****        -4.3361   4.1150  -0.4627 H              1 S1                 0.0000
     27 ****        -2.5796   4.1448  -0.5471 H              1 S1                 0.0000
     28 ****        -3.3944   4.6295   0.9296 H              1 S1                 0.0000
     29 ****        -1.9884   3.0128   2.2019 H              1 S1                 0.0000
     30 ****        -1.1933   2.4178   0.7524 H              1 S1                 0.0000
     31 ****        -1.9913   1.2979   1.8533 H              1 S1                 0.0000
     32 ****        -4.4840   1.6419  -1.0475 H              1 S1                 0.0000
     33 ****        -2.8399   1.9662  -1.4342 H              1 S1                 0.0000
     34 ****        -4.9371  -0.4919   0.5410 H              1 S1                 0.0000
     35 ****        -3.4651  -0.4992   1.5184 H              1 S1                 0.0000
     36 ****        -3.8046  -1.8182   0.4205 H              1 S1                 0.0000
     37 ****        -4.6096  -0.4560  -2.1468 H              1 S1                 0.0000
     38 ****        -3.3744  -1.6824  -1.9923 H              1 S1                 0.0000
     39 ****        -2.9992  -0.1550  -2.7813 H              1 S1                 0.0000
     40 ****        -1.2361   0.3151  -1.2770 H              1 S1                 0.0000
     41 ****        -1.5062  -1.8532   0.6861 H              1 S1                 0.0000
     42 ****        -1.4466  -2.1202  -1.0493 H              1 S1                 0.0000
     43 ****         0.5728   0.0608   1.3794 H              1 S1                 0.0000
     44 ****         4.6814   0.2683   1.2346 H              1 S1                 0.0000
     45 ****         5.3772  -1.2060   1.8779 H              1 S1                 0.0000
     46 ****         6.4582   0.4702  -0.4641 H              1 S1                 0.0000
     47 ****         7.1683   0.3309   1.1321 H              1 S1                 0.0000
     48 ****         6.5118  -1.4454  -1.9285 H              1 S1                 0.0000
     49 ****         7.2563  -2.9240  -1.3523 H              1 S1                 0.0000
     50 ****         5.4371  -3.2930   0.2820 H              1 S1                 0.0000
     51 ****         4.7756  -3.0994  -1.3255 H              1 S1                 0.0000
     52 ****         0.7078  -2.9498  -1.7198 H              1 S1                 0.0000
     53 ****        -1.4693   0.3744   0.3735 LP             1 S1                 0.0000
     54 ****         2.9297  -0.0254   1.3988 LP             1 S1                 0.0000
     55 ****         7.4487  -1.9583   0.7639 LP             1 S1                 0.0000
     56 ****         8.2155  -1.0695  -0.3713 LP             1 S1                 0.0000
     57 ****         3.0553  -2.8746  -1.5247 LP             1 S1                 0.0000
@<TRIPOS>BOND
    1    1    2 1     
    2    1   23 1     
    3    1   24 1     
    4    1   25 1     
    5    2    3 1     
    6    2    4 1     
    7    2    5 1     
    8    3   26 1     
    9    3   27 1     
   10    3   28 1     
   11    4   29 1     
   12    4   30 1     
   13    4   31 1     
   14    5    6 1     
   15    5   32 1     
   16    5   33 1     
   17    6    7 1     
   18    6    8 1     
   19    6    9 1     
   20    7   34 1     
   21    7   35 1     
   22    7   36 1     
   23    8   37 1     
   24    8   38 1     
   25    8   39 1     
   26    9   10 1     
   27    9   40 1     
   28   10   11 1     
   29   10   41 1     
   30   10   42 1     
   31   11   22 ar    
   32   11   12 ar    
   33   12   13 ar    
   34   12   43 1     
   35   13   14 ar    
   36   14   15 1     
   37   14   21 ar    
   38   15   20 1     
   39   15   16 1     
   40   16   17 1     
   41   16   44 1     
   42   16   45 1     
   43   17   18 1     
   44   17   46 1     
   45   17   47 1     
   46   18   19 1     
   47   19   20 1     
   48   19   48 1     
   49   19   49 1     
   50   20   50 1     
   51   20   51 1     
   52   21   22 ar    
   53   22   52 1     
   54    9   53 1     
   55   13   54 1     
   56   18   55 1     
   57   18   56 1     
   58   21   57 1     
@<TRIPOS>SUBSTRUCTURE
      1 S1             1
@<TRIPOS>SET
LONE_PAIRS      STATIC     ATOMS    <user>   **** ""
5 53 54 55 56 57
DONOR_HYDROGENS      STATIC     ATOMS    <user>   **** ""
1 40
ATOM$BLUE        STATIC     ATOMS    COLORGROUP SYSTEM
5 53 54 55 56 57
ATOM$RED        STATIC     ATOMS    COLORGROUP SYSTEM
1 40
