AV-unprocessed.smi:34|AV-procd|sdf|237|dock9
  -GOLD-   2262015583D 1   1.00000     0.00000
 Structure written by MMmdl.
 54 58  0  0  0  0  0  0  0  0  2 V2000
  153.1506  136.5092  160.2786 O   0  0  0  0  0  0  0  0  0  0  0  0
  153.4008  137.6456  160.6865 C   0  0  0  0  0  0  0  0  0  0  0  0
  153.2340  138.8219  160.0307 N   0  5  0  0  0  0  0  0  0  0  0  0
  152.5316  138.8577  158.8884 C   0  0  0  0  0  0  0  0  0  0  0  0
  152.5084  137.7805  158.0626 N   0  0  0  0  0  0  0  0  0  0  0  0
  151.7999  137.8137  156.9280 C   0  0  0  0  0  0  0  0  0  0  0  0
  151.0490  138.8033  156.4354 N   0  0  0  0  0  0  0  0  0  0  0  0
  151.0580  139.8902  157.2605 C   0  0  0  0  0  0  0  0  0  0  0  0
  151.7664  139.9891  158.4932 C   0  0  0  0  0  0  0  0  0  0  0  0
  151.5565  141.2268  159.0836 N   0  0  0  0  0  0  0  0  0  0  0  0
  150.7479  141.8111  158.2024 C   0  0  0  0  0  0  0  0  0  0  0  0
  150.4080  141.1040  157.1065 N   0  0  0  0  0  0  0  0  0  0  0  0
  149.5160  141.5329  155.9890 C   0  0  2  0  0  0  0  0  0  0  0  0
  148.2542  141.7831  156.5236 O   0  0  0  0  0  0  0  0  0  0  0  0
  147.2830  141.4287  155.5537 C   0  0  2  0  0  0  0  0  0  0  0  0
  145.9028  141.2547  156.1998 C   0  0  0  0  0  0  0  0  0  0  0  0
  145.7066  142.2727  157.1678 O   0  0  0  0  0  0  0  0  0  0  0  0
  144.7889  142.1113  158.1410 C   0  0  0  0  0  0  0  0  0  0  0  0
  143.7595  141.4468  158.0046 O   0  0  0  0  0  0  0  0  0  0  0  0
  145.1473  142.8262  159.4000 C   0  0  0  0  0  0  0  0  0  0  0  0
  144.3800  142.6021  160.5669 C   0  0  0  0  0  0  0  0  0  0  0  0
  144.6929  143.2646  161.7697 C   0  0  0  0  0  0  0  0  0  0  0  0
  145.7774  144.1595  161.8206 C   0  0  0  0  0  0  0  0  0  0  0  0
  146.5491  144.3908  160.6669 C   0  0  0  0  0  0  0  0  0  0  0  0
  146.2374  143.7292  159.4630 C   0  0  0  0  0  0  0  0  0  0  0  0
  147.8649  140.1689  154.9080 C   0  0  2  0  0  0  0  0  0  0  0  0
  147.5826  139.0849  155.6324 F   0  0  0  0  0  0  0  0  0  0  0  0
  149.3683  140.4205  154.9336 C   0  0  1  0  0  0  0  0  0  0  0  0
  149.8016  140.8453  153.6572 O   0  0  0  0  0  0  0  0  0  0  0  0
  153.8956  137.8171  162.0980 C   0  0  0  0  0  0  0  0  0  0  0  0
  153.6167  136.8231  163.0637 C   0  0  0  0  0  0  0  0  0  0  0  0
  154.0926  136.9526  164.3831 C   0  0  0  0  0  0  0  0  0  0  0  0
  154.8611  138.0736  164.7490 C   0  0  0  0  0  0  0  0  0  0  0  0
  155.1574  139.0628  163.7927 C   0  0  0  0  0  0  0  0  0  0  0  0
  154.6821  138.9339  162.4730 C   0  0  0  0  0  0  0  0  0  0  0  0
  151.8394  136.9167  156.3283 H   0  0  0  0  0  0  0  0  0  0  0  0
  150.3810  142.8140  158.3638 H   0  0  0  0  0  0  0  0  0  0  0  0
  149.9589  142.4519  155.6011 H   0  0  0  0  0  0  0  0  0  0  0  0
  147.2465  142.2318  154.8151 H   0  0  0  0  0  0  0  0  0  0  0  0
  145.1197  141.2894  155.4410 H   0  0  0  0  0  0  0  0  0  0  0  0
  145.8401  140.2809  156.6870 H   0  0  0  0  0  0  0  0  0  0  0  0
  143.5412  141.9208  160.5511 H   0  0  0  0  0  0  0  0  0  0  0  0
  144.0992  143.0860  162.6542 H   0  0  0  0  0  0  0  0  0  0  0  0
  146.0170  144.6679  162.7429 H   0  0  0  0  0  0  0  0  0  0  0  0
  147.3824  145.0769  160.7047 H   0  0  0  0  0  0  0  0  0  0  0  0
  146.8509  143.9291  158.5966 H   0  0  0  0  0  0  0  0  0  0  0  0
  147.4660  139.9862  153.9093 H   0  0  0  0  0  0  0  0  0  0  0  0
  149.9227  139.5247  155.2186 H   0  0  0  0  0  0  0  0  0  0  0  0
  149.6241  140.1553  153.0360 H   0  0  0  0  0  0  0  0  0  0  0  0
  153.0296  135.9556  162.7987 H   0  0  0  0  0  0  0  0  0  0  0  0
  153.8684  136.1899  165.1139 H   0  0  0  0  0  0  0  0  0  0  0  0
  155.2266  138.1726  165.7603 H   0  0  0  0  0  0  0  0  0  0  0  0
  155.7531  139.9201  164.0692 H   0  0  0  0  0  0  0  0  0  0  0  0
  154.9309  139.6988  161.7515 H   0  0  0  0  0  0  0  0  0  0  0  0
  1  2  2  0  0  0  0
  2  3  1  0  0  0  0
  2 30  1  0  0  0  0
  3  4  1  0  0  0  0
  4  9  1  0  0  0  0
  4  5  2  0  0  0  0
  5  6  1  0  0  0  0
  6  7  2  0  0  0  0
  6 36  1  0  0  0  0
  7  8  1  0  0  0  0
  8 12  1  0  0  0  0
  8  9  2  0  0  0  0
  9 10  1  0  0  0  0
 10 11  2  0  0  0  0
 11 12  1  0  0  0  0
 11 37  1  0  0  0  0
 12 13  1  0  0  0  0
 13 28  1  0  0  0  0
 13 14  1  0  0  0  0
 13 38  1  0  0  0  0
 14 15  1  0  0  0  0
 15 16  1  0  0  0  0
 15 26  1  0  0  0  0
 15 39  1  0  0  0  0
 16 17  1  0  0  0  0
 16 40  1  0  0  0  0
 16 41  1  0  0  0  0
 17 18  1  0  0  0  0
 18 19  2  0  0  0  0
 18 20  1  0  0  0  0
 20 25  1  0  0  0  0
 20 21  2  0  0  0  0
 21 22  1  0  0  0  0
 21 42  1  0  0  0  0
 22 23  2  0  0  0  0
 22 43  1  0  0  0  0
 23 24  1  0  0  0  0
 23 44  1  0  0  0  0
 24 25  2  0  0  0  0
 24 45  1  0  0  0  0
 25 46  1  0  0  0  0
 26 27  1  0  0  0  0
 26 28  1  0  0  0  0
 26 47  1  0  0  0  0
 28 29  1  0  0  0  0
 28 48  1  0  0  0  0
 29 49  1  0  0  0  0
 30 35  1  0  0  0  0
 30 31  2  0  0  0  0
 31 32  1  0  0  0  0
 31 50  1  0  0  0  0
 32 33  2  0  0  0  0
 32 51  1  0  0  0  0
 33 34  1  0  0  0  0
 33 52  1  0  0  0  0
 34 35  2  0  0  0  0
 34 53  1  0  0  0  0
 35 54  1  0  0  0  0
M  CHG  1   3  -1
M  END
> <s_m_source_file>
AV-unprocessed.smi

> <i_m_source_file_index>
34

> <i_lp_mmshare_version>
43012

> <i_f3d_flags>
0

> <s_epik_input>
W2NIXTFbY0hdW2NIXVtjSF1bY0hdYzFDKD1PKVtOSF1jKG5bY0hdbjIpYyhjMjMpbltjSF1uM1tDQEBIXTRPW0NASF0oW0NAQEhdKEYpW0NASF00W09IXSlbQ0gyXU9DKD1PKWM1W2NIXVtjSF1bY0hdW2NIXVtjSF01

> <s_epik_cmdline>
J2VwaWtfcHl0aG9uJywgJy1waCcsICc3LjAnLCAnLXRuJywgJzgnLCAnLW1hJywgJzIwMCcsICctbWV0YWxfYmluZGluZycsICctaW1hZScsICc8aW5maWxlLm1hZT4nLCAnLW9tYWUnLCAnPG91dGZpbGUubWFlPic=

> <r_lp_tautomer_probability>
1

> <r_epik_Ionization_Penalty>
4.33227

> <r_epik_Ionization_Penalty_Charging>
3.41027

> <r_epik_Ionization_Penalty_Neutral>
0.922001

> <r_epik_State_Penalty>
3.41358

> <r_epik_Charging_Adjusted_Penalty>
6.82385

> <i_epik_Tot_Q>
-1

> <i_epik_Tot_abs_Q>
1

> <r_epik_Metal_State_Penalty>
0.496292

> <b_epik_Metal_Only>
1

> <s_epik_Chemistry_Notes>
This compound has an ester and may undergo hydrolysis at high or low pH. This compound contains an acetal/aminal-like group ( X-CH(R)-Y where X, Y are N, S, or O) that may be acid/base labile, releasing an aldehyde.

> <s_lp_Force_Field>
OPLS_2005

> <r_lp_Energy>
44.3344

> <b_lp_Chiralities_Consistent>
1

> <s_lp_Variant>
AV-unprocessed.smi:34-23

> <Gold.Version>
5.8.1

> <Gold.Id.Protein>
6NUR|6NUR_protein|mol2

> <Gold.PLP.Fitness>
56.7957

> <Gold.PLP.PLP>
-49.8270

> <Gold.PLP.part.hbond>
-3.7302

> <Gold.PLP.part.metal>
0.0000

> <Gold.PLP.part.buried>
-9.1087

> <Gold.PLP.part.nonpolar>
-37.5803

> <Gold.PLP.part.repulsive>
0.2171

> <Gold.PLP.ligand.clash>
0.0000

> <Gold.PLP.ligand.torsion>
1.2327

> <Gold.PLP.Chemscore.Hbond>
3.0560

> <Gold.PLP.Chemscore.CHOScore>
0.0000

> <Gold.PLP.Chemscore.Metal>
0.0000

> <Gold.Chemscore.Hbonds>
donor molecule, donor type, donor heavy atom, donor atom, acceptor molecule, acceptor atom, score
      L1  H    29    49       P1  7957  0.69
      P1  H  6896  6907       L1     1  1.00
      P1  H  7989  7998       L1    29  0.36
      P1  H  8011  8017       L1    29  0.86

> <Gold.PLP.Chemscore.Internal.Correction>
0.2661

> <Gold.Rescore>
     Score         DG    S(hbond)    S(metal)    S(lipo)     H(rot)  DE(clash)    DE(int)     intcor
     12.28     -16.35       2.31        0.00      85.75       2.69       0.01       4.05       ----

> <Gold.Chemscore.Fitness>
12.2841

> <Gold.Chemscore.DG>
-16.3459

> <Gold.Chemscore.ZeroCoef>
-5.4800

> <Gold.Chemscore.Hbond>
2.3147

> <Gold.Chemscore.Metal>
0.0000

> <Gold.Chemscore.Lipo>
85.7467

> <Gold.Chemscore.Internal_Hbond>
0.0000

> <Gold.Chemscore.DEClash>
0.0102

> <Gold.Chemscore.DEInternal>
4.0516

> <Gold.Chemscore.Rot>
2.6944

> <Gold.Chemscore.Internal.Correction>
   9.000000E+99

> <Gold.Chemscore.Hbonds>
donor molecule, donor type, donor heavy atom, donor atom, acceptor molecule, acceptor atom, score
      L1  H    29    49       P1  7957  0.68
      P1  H  6896  6907       L1     1  1.00
      P1  H  7989  7998       L1    29  0.06
      P1  H  8011  8017       L1    29  0.15

> <Gold.Chemscore.Hbond.Weighted>
-7.7311

> <Gold.Chemscore.Metal.Weighted>
-0.0000

> <Gold.Chemscore.Lipo.Weighted>
-10.0324

> <Gold.Chemscore.Internal_Hbond.Weighted>
0.0000

> <Gold.Chemscore.DEClash.Weighted>
0.0102

> <Gold.Chemscore.DEInternal.Weighted>
4.0516

> <Gold.Chemscore.Rot.Weighted>
6.8975

> <Gold.Chemscore.Internal.Correction.Weighted>
   9.000000E+99

> <Gold.Protein.RotatedTorsions>
[ 6907 6896 6895 6894 ] final   35.84 input  -60.11 | X-H torsion
[ 7974 7965 7964 7962 ] final  103.63 input  175.53 | X-H torsion
[ 8008 7997 7996 7995 ] final  161.19 input   59.86 | X-H torsion
[ 10167 10162 10161 10158 ] final   61.87 input  -65.29 | X-H torsion
[ 10718 10713 10712 10709 ] final   24.19 input   66.30 | X-H torsion
[ 10763 10752 10751 10750 ] final -168.83 input  -60.55 | X-H torsion
[ 11005 11000 10999 10996 ] final   49.35 input  -57.11 | X-H torsion

> <Gold.Protein.ActiveResidues>
 VAL166  LYS551  ARG553  GLY616  TRP617  ASP618  TYR619  PRO620  LYS621  CYS622 
 ASP623  PHE694  ASN695  SER759  ASP760  ASP761  ALA762  ILE779  LEU786  VAL792 
 PHE793  MET794  SER795  GLU796  ALA797  LYS798  CYS799  TRP800  GLU811  SER814 

> <Gold.Protein.RotatedAtoms>
  152.1216  134.9201  160.0562 H   0  0  0  0  0  0  0  0  0  0  0  0  # atno 6907 bound_to 6896
  152.0340  133.3944  159.4317 H   0  0  0  0  0  0  0  0  0  0  0  0  # atno 6908 bound_to 6896
  150.6849  134.3410  159.4911 H   0  0  0  0  0  0  0  0  0  0  0  0  # atno 6909 bound_to 6896
  145.3433  139.2457  143.3597 H   0  0  0  0  0  0  0  0  0  0  0  0  # atno 7974 bound_to 7965
  156.2121  140.1784  156.7672 H   0  0  0  0  0  0  0  0  0  0  0  0  # atno 8008 bound_to 7997
  154.5737  140.0678  156.9032 H   0  0  0  0  0  0  0  0  0  0  0  0  # atno 8009 bound_to 7997
  155.2627  140.3337  155.4274 H   0  0  0  0  0  0  0  0  0  0  0  0  # atno 8010 bound_to 7997
  140.1500  144.4471  150.6764 H   0  0  0  0  0  0  0  0  0  0  0  0  # atno 10167 bound_to 10162
  157.1764  130.6783  149.6096 H   0  0  0  0  0  0  0  0  0  0  0  0  # atno 10718 bound_to 10713
  154.6588  135.2922  154.9893 H   0  0  0  0  0  0  0  0  0  0  0  0  # atno 10763 bound_to 10752
  154.0961  135.6583  153.4864 H   0  0  0  0  0  0  0  0  0  0  0  0  # atno 10764 bound_to 10752
  153.0417  135.5231  154.7529 H   0  0  0  0  0  0  0  0  0  0  0  0  # atno 10765 bound_to 10752
  140.1111  134.4954  155.8677 H   0  0  0  0  0  0  0  0  0  0  0  0  # atno 11005 bound_to 11000
  146.2998  140.4035  142.8708 LP  0  0  0  0  0  0  0  0  0  0  0  0  # atno 17320 bound_to 7965
  144.8773  140.7354  143.6009 LP  0  0  0  0  0  0  0  0  0  0  0  0  # atno 17321 bound_to 7965
  140.6708  143.2285  151.5630 LP  0  0  0  0  0  0  0  0  0  0  0  0  # atno 17342 bound_to 10162
  139.5430  144.2596  152.1388 LP  0  0  0  0  0  0  0  0  0  0  0  0  # atno 17343 bound_to 10162
  155.9731  130.4661  150.6279 LP  0  0  0  0  0  0  0  0  0  0  0  0  # atno 17370 bound_to 10713
  157.3995  131.0808  151.1322 LP  0  0  0  0  0  0  0  0  0  0  0  0  # atno 17371 bound_to 10713
  141.2130  133.6727  156.6706 LP  0  0  0  0  0  0  0  0  0  0  0  0  # atno 17394 bound_to 11000
  140.3090  134.8102  157.4160 LP  0  0  0  0  0  0  0  0  0  0  0  0  # atno 17395 bound_to 11000

$$$$
