AV-unprocessed.smi:258|AV-procd|sdf|1969|dock6
  -GOLD-   2262021123D 1   1.00000     0.00000
 Structure written by MMmdl.
 57 60  0  0  0  0  0  0  0  0  1 V2000
  148.3366  129.1728  152.3158 O   0  0  0  0  0  0  0  0  0  0  0  0
  147.0823  128.5495  152.4927 C   0  0  0  0  0  0  0  0  0  0  0  0
  145.9877  129.3503  151.7767 C   0  0  0  0  0  0  0  0  0  0  0  0
  146.2083  130.7354  152.0004 O   0  0  0  0  0  0  0  0  0  0  0  0
  145.1957  131.5871  151.4805 C   0  0  2  0  0  0  0  0  0  0  0  0
  145.2786  131.6732  149.9439 C   0  0  0  0  0  0  0  0  0  0  0  0
  144.2742  132.7086  149.4161 C   0  0  0  0  0  0  0  0  0  0  0  0
  144.4849  134.0777  150.0828 C   0  0  0  0  0  0  0  0  0  0  0  0
  144.4746  133.9571  151.5419 N   0  0  0  0  0  0  0  0  0  0  0  0
  144.2266  135.0996  152.2348 C   0  0  0  0  0  0  0  0  0  0  0  0
  145.2554  135.9763  152.3769 N   0  0  0  0  0  0  0  0  0  0  0  0
  145.0833  137.1279  153.0315 C   0  0  0  0  0  0  0  0  0  0  0  0
  143.9811  137.5982  153.6156 N   0  0  0  0  0  0  0  0  0  0  0  0
  142.9439  136.7231  153.4867 C   0  0  0  0  0  0  0  0  0  0  0  0
  142.9748  135.4636  152.8196 C   0  0  0  0  0  0  0  0  0  0  0  0
  141.7231  134.8616  152.9119 N   0  0  0  0  0  0  0  0  0  0  0  0
  140.9982  135.7149  153.5809 C   0  0  0  0  0  0  0  0  0  0  0  0
  141.6548  136.8592  153.9694 N   0  0  0  0  0  0  0  0  0  0  0  0
  141.0990  137.9718  154.7183 C   0  0  0  0  0  0  0  0  0  0  0  0
  140.2871  138.9643  153.8502 C   0  0  2  0  0  0  0  0  0  0  0  0
  140.6799  140.4446  154.0931 C   0  0  0  0  0  0  0  0  0  0  0  0
  140.0950  141.3012  153.1340 O   0  0  0  0  0  0  0  0  0  0  0  0
  138.7698  138.6969  154.0233 C   0  0  1  0  0  0  0  0  0  0  0  0
  138.3109  137.2606  153.7964 C   0  0  0  0  0  0  0  0  0  0  0  0
  137.0506  137.1903  154.6469 C   0  0  0  0  0  0  0  0  0  0  0  0
  137.4138  137.9228  155.8052 O   0  0  0  0  0  0  0  0  0  0  0  0
  138.1879  139.0485  155.4040 C   0  0  0  0  0  0  0  0  0  0  0  0
  145.4038  132.9781  152.1039 C   0  0  0  0  0  0  0  0  0  0  0  0
  148.3264  129.6407  151.4948 H   0  0  0  0  0  0  0  0  0  0  0  0
  147.1489  127.5497  152.0633 H   0  0  0  0  0  0  0  0  0  0  0  0
  146.8596  128.4316  153.5535 H   0  0  0  0  0  0  0  0  0  0  0  0
  145.9565  129.1022  150.7153 H   0  0  0  0  0  0  0  0  0  0  0  0
  145.0184  129.0818  152.1993 H   0  0  0  0  0  0  0  0  0  0  0  0
  144.2106  131.2226  151.7783 H   0  0  0  0  0  0  0  0  0  0  0  0
  146.2888  131.9550  149.6444 H   0  0  0  0  0  0  0  0  0  0  0  0
  145.0751  130.7052  149.4871 H   0  0  0  0  0  0  0  0  0  0  0  0
  144.3670  132.8034  148.3340 H   0  0  0  0  0  0  0  0  0  0  0  0
  143.2585  132.3622  149.6110 H   0  0  0  0  0  0  0  0  0  0  0  0
  145.4440  134.4970  149.7763 H   0  0  0  0  0  0  0  0  0  0  0  0
  143.7164  134.7657  149.7299 H   0  0  0  0  0  0  0  0  0  0  0  0
  145.9534  137.7648  153.0940 H   0  0  0  0  0  0  0  0  0  0  0  0
  139.9606  135.5281  153.8159 H   0  0  0  0  0  0  0  0  0  0  0  0
  140.4688  137.5565  155.5055 H   0  0  0  0  0  0  0  0  0  0  0  0
  141.9164  138.4907  155.2207 H   0  0  0  0  0  0  0  0  0  0  0  0
  140.5063  138.7359  152.8058 H   0  0  0  0  0  0  0  0  0  0  0  0
  140.3468  140.7884  155.0715 H   0  0  0  0  0  0  0  0  0  0  0  0
  141.7629  140.5692  154.0707 H   0  0  0  0  0  0  0  0  0  0  0  0
  140.3833  141.0333  152.2748 H   0  0  0  0  0  0  0  0  0  0  0  0
  138.2365  139.3210  153.3038 H   0  0  0  0  0  0  0  0  0  0  0  0
  138.1245  137.0336  152.7464 H   0  0  0  0  0  0  0  0  0  0  0  0
  139.0375  136.5413  154.1735 H   0  0  0  0  0  0  0  0  0  0  0  0
  136.2132  137.6812  154.1486 H   0  0  0  0  0  0  0  0  0  0  0  0
  136.7594  136.1683  154.8906 H   0  0  0  0  0  0  0  0  0  0  0  0
  138.9481  139.2606  156.1551 H   0  0  0  0  0  0  0  0  0  0  0  0
  137.5455  139.9273  155.3344 H   0  0  0  0  0  0  0  0  0  0  0  0
  145.2665  132.9064  153.1836 H   0  0  0  0  0  0  0  0  0  0  0  0
  146.4257  133.3152  151.9251 H   0  0  0  0  0  0  0  0  0  0  0  0
  1  2  1  0  0  0  0
  1 29  1  0  0  0  0
  2  3  1  0  0  0  0
  2 30  1  0  0  0  0
  2 31  1  0  0  0  0
  3  4  1  0  0  0  0
  3 32  1  0  0  0  0
  3 33  1  0  0  0  0
  4  5  1  0  0  0  0
  5 28  1  0  0  0  0
  5  6  1  0  0  0  0
  5 34  1  0  0  0  0
  6  7  1  0  0  0  0
  6 35  1  0  0  0  0
  6 36  1  0  0  0  0
  7  8  1  0  0  0  0
  7 37  1  0  0  0  0
  7 38  1  0  0  0  0
  8  9  1  0  0  0  0
  8 39  1  0  0  0  0
  8 40  1  0  0  0  0
  9 10  1  0  0  0  0
  9 28  1  0  0  0  0
 10 15  1  0  0  0  0
 10 11  2  0  0  0  0
 11 12  1  0  0  0  0
 12 13  2  0  0  0  0
 12 41  1  0  0  0  0
 13 14  1  0  0  0  0
 14 18  1  0  0  0  0
 14 15  2  0  0  0  0
 15 16  1  0  0  0  0
 16 17  2  0  0  0  0
 17 18  1  0  0  0  0
 17 42  1  0  0  0  0
 18 19  1  0  0  0  0
 19 20  1  0  0  0  0
 19 43  1  0  0  0  0
 19 44  1  0  0  0  0
 20 21  1  0  0  0  0
 20 23  1  0  0  0  0
 20 45  1  0  0  0  0
 21 22  1  0  0  0  0
 21 46  1  0  0  0  0
 21 47  1  0  0  0  0
 22 48  1  0  0  0  0
 23 27  1  0  0  0  0
 23 24  1  0  0  0  0
 23 49  1  0  0  0  0
 24 25  1  0  0  0  0
 24 50  1  0  0  0  0
 24 51  1  0  0  0  0
 25 26  1  0  0  0  0
 25 52  1  0  0  0  0
 25 53  1  0  0  0  0
 26 27  1  0  0  0  0
 27 54  1  0  0  0  0
 27 55  1  0  0  0  0
 28 56  1  0  0  0  0
 28 57  1  0  0  0  0
M  END
> <s_m_source_file>
AV-unprocessed.smi

> <i_m_source_file_index>
258

> <i_lp_mmshare_version>
43012

> <i_f3d_flags>
0

> <s_epik_input>
W09IXVtDSDJdW0NIMl1PW0NAQEhdMVtDSDJdW0NIMl1bQ0gyXU4oW0NIMl0xKWMobltjSF1uMiljKGMyMyluW2NIXW4zW0NIMl1bQ0BIXShbQ0gyXVtPSF0pW0NAQEhdNFtDSDJdW0NIMl1PW0NIMl00

> <s_epik_cmdline>
J2VwaWtfcHl0aG9uJywgJy1waCcsICc3LjAnLCAnLXRuJywgJzgnLCAnLW1hJywgJzIwMCcsICctbWV0YWxfYmluZGluZycsICctaW1hZScsICc8aW5maWxlLm1hZT4nLCAnLW9tYWUnLCAnPG91dGZpbGUubWFlPic=

> <r_lp_tautomer_probability>
1

> <r_epik_Ionization_Penalty>
0.00349036

> <r_epik_Ionization_Penalty_Charging>
0

> <r_epik_Ionization_Penalty_Neutral>
0.00349036

> <r_epik_State_Penalty>
0.00229798

> <r_epik_Charging_Adjusted_Penalty>
0.00229798

> <i_epik_Tot_Q>
0

> <i_epik_Tot_abs_Q>
0

> <r_epik_Metal_State_Penalty>
-0

> <b_epik_Metal_Only>
0

> <s_lp_Force_Field>
OPLS_2005

> <r_lp_Energy>
47.936

> <b_lp_Chiralities_Consistent>
1

> <s_lp_Variant>
AV-unprocessed.smi:258-5

> <Gold.Version>
5.8.1

> <Gold.Id.Protein>
6NUR|6NUR_protein|mol2

> <Gold.PLP.Fitness>
46.4026

> <Gold.PLP.PLP>
-44.6851

> <Gold.PLP.part.hbond>
-3.6412

> <Gold.PLP.part.metal>
0.0000

> <Gold.PLP.part.buried>
-4.6954

> <Gold.PLP.part.nonpolar>
-35.2925

> <Gold.PLP.part.repulsive>
0.7028

> <Gold.PLP.ligand.clash>
0.0000

> <Gold.PLP.ligand.torsion>
2.5217

> <Gold.PLP.Chemscore.Hbond>
2.0000

> <Gold.PLP.Chemscore.CHOScore>
0.0000

> <Gold.PLP.Chemscore.Metal>
0.0000

> <Gold.Chemscore.Hbonds>
donor molecule, donor type, donor heavy atom, donor atom, acceptor molecule, acceptor atom, score
      L1  H     1    29       P1 10747  1.00
      L1  H    22    48       P1 10160  0.89

> <Gold.PLP.Chemscore.Internal.Correction>
0.7609

> <Gold.Rescore>
     Score         DG    S(hbond)    S(metal)    S(lipo)     H(rot)  DE(clash)    DE(int)     intcor
     10.53     -13.22       1.77        0.00     101.83       3.94       0.07       2.62       ----

> <Gold.Chemscore.Fitness>
10.5311

> <Gold.Chemscore.DG>
-13.2171

> <Gold.Chemscore.ZeroCoef>
-5.4800

> <Gold.Chemscore.Hbond>
1.7660

> <Gold.Chemscore.Metal>
0.0000

> <Gold.Chemscore.Lipo>
101.8270

> <Gold.Chemscore.Internal_Hbond>
0.0000

> <Gold.Chemscore.DEClash>
0.0663

> <Gold.Chemscore.DEInternal>
2.6197

> <Gold.Chemscore.Rot>
3.9356

> <Gold.Chemscore.Internal.Correction>
   9.000000E+99

> <Gold.Chemscore.Hbonds>
donor molecule, donor type, donor heavy atom, donor atom, acceptor molecule, acceptor atom, score
      L1  H     1    29       P1 10747  0.44
      L1  H    22    48       P1 10160  0.86

> <Gold.Chemscore.Hbond.Weighted>
-5.8984

> <Gold.Chemscore.Metal.Weighted>
-0.0000

> <Gold.Chemscore.Lipo.Weighted>
-11.9138

> <Gold.Chemscore.Internal_Hbond.Weighted>
0.0000

> <Gold.Chemscore.DEClash.Weighted>
0.0663

> <Gold.Chemscore.DEInternal.Weighted>
2.6197

> <Gold.Chemscore.Rot.Weighted>
10.0751

> <Gold.Chemscore.Internal.Correction.Weighted>
   9.000000E+99

> <Gold.Protein.RotatedTorsions>
[ 6907 6896 6895 6894 ] final -133.97 input  -60.11 | X-H torsion
[ 7974 7965 7964 7962 ] final  -98.67 input  175.53 | X-H torsion
[ 8008 7997 7996 7995 ] final  -14.38 input   59.86 | X-H torsion
[ 10167 10162 10161 10158 ] final  -17.53 input  -65.29 | X-H torsion
[ 10718 10713 10712 10709 ] final    4.93 input   66.30 | X-H torsion
[ 10763 10752 10751 10750 ] final  -84.55 input  -60.55 | X-H torsion
[ 11005 11000 10999 10996 ] final -156.16 input  -57.11 | X-H torsion

> <Gold.Protein.ActiveResidues>
 VAL166  LYS551  ARG553  GLY616  TRP617  ASP618  TYR619  PRO620  LYS621  CYS622 
 ASP623  PHE694  ASN695  SER759  ASP760  ASP761  ALA762  ILE779  LEU786  VAL792 
 PHE793  MET794  SER795  GLU796  ALA797  LYS798  CYS799  TRP800  GLU811  SER814 

> <Gold.Protein.RotatedAtoms>
  150.9804  133.6252  159.2723 H   0  0  0  0  0  0  0  0  0  0  0  0  # atno 6907 bound_to 6896
  151.3509  135.0883  159.9412 H   0  0  0  0  0  0  0  0  0  0  0  0  # atno 6908 bound_to 6896
  152.5213  133.9396  159.7674 H   0  0  0  0  0  0  0  0  0  0  0  0  # atno 6909 bound_to 6896
  145.3176  140.9414  143.2734 H   0  0  0  0  0  0  0  0  0  0  0  0  # atno 7974 bound_to 7965
  154.5215  140.2224  155.8968 H   0  0  0  0  0  0  0  0  0  0  0  0  # atno 8008 bound_to 7997
  156.1666  140.3131  155.8865 H   0  0  0  0  0  0  0  0  0  0  0  0  # atno 8009 bound_to 7997
  155.3643  140.0463  157.3037 H   0  0  0  0  0  0  0  0  0  0  0  0  # atno 8010 bound_to 7997
  140.7248  143.5006  150.9874 H   0  0  0  0  0  0  0  0  0  0  0  0  # atno 10167 bound_to 10162
  156.8998  130.5718  149.5648 H   0  0  0  0  0  0  0  0  0  0  0  0  # atno 10718 bound_to 10713
  154.6008  135.5516  153.7372 H   0  0  0  0  0  0  0  0  0  0  0  0  # atno 10763 bound_to 10752
  153.0154  135.6366  154.1717 H   0  0  0  0  0  0  0  0  0  0  0  0  # atno 10764 bound_to 10752
  154.1657  135.2895  155.3076 H   0  0  0  0  0  0  0  0  0  0  0  0  # atno 10765 bound_to 10752
  140.6786  134.4169  157.5228 H   0  0  0  0  0  0  0  0  0  0  0  0  # atno 11005 bound_to 11000
  144.8965  139.4705  143.6653 LP  0  0  0  0  0  0  0  0  0  0  0  0  # atno 17320 bound_to 7965
  146.3094  139.7694  142.9031 LP  0  0  0  0  0  0  0  0  0  0  0  0  # atno 17321 bound_to 7965
  139.8715  143.7186  152.3166 LP  0  0  0  0  0  0  0  0  0  0  0  0  # atno 17342 bound_to 10162
  139.7437  144.7553  151.0613 LP  0  0  0  0  0  0  0  0  0  0  0  0  # atno 17343 bound_to 10162
  156.0587  130.5644  150.9147 LP  0  0  0  0  0  0  0  0  0  0  0  0  # atno 17370 bound_to 10713
  157.6033  131.0940  150.8923 LP  0  0  0  0  0  0  0  0  0  0  0  0  # atno 17371 bound_to 10713
  139.8959  134.8672  156.2112 LP  0  0  0  0  0  0  0  0  0  0  0  0  # atno 17394 bound_to 11000
  141.0336  133.6975  156.1472 LP  0  0  0  0  0  0  0  0  0  0  0  0  # atno 17395 bound_to 11000

$$$$
