#       Name:                AV-unprocessed.smi:2599
#       Creating user name   scv26
#       Creation time:       Fri Mar 27 14:19:16 2020


#       File generated by GOLD software.
#

@<TRIPOS>MOLECULE
AV-unprocessed.smi:2599
    48    49     1
SMALL
NO_CHARGES


@<TRIPOS>ATOM
      1 ****        -7.6477   0.4327  -0.3128 C.3            1 S1                 0.0000
      2 ****        -6.9393  -0.8018  -0.3050 O.3            1 S1                 0.0000
      3 ****        -5.5604  -0.7633  -0.3210 C.ar           1 S1                 0.0000
      4 ****        -4.8440  -1.9731  -0.3212 C.ar           1 S1                 0.0000
      5 ****        -3.4409  -1.8988  -0.3402 C.ar           1 S1                 0.0000
      6 ****        -2.8378  -0.6238  -0.3568 C.ar           1 S1                 0.0000
      7 ****        -1.4181  -0.6228  -0.3824 N.am           1 S1                 0.0000
      8 ****        -0.5908   0.4369  -0.3915 C.2            1 S1                 0.0000
      9 ****        -0.9429   1.6152  -0.3323 O.2            1 S1                 0.0000
     10 ****         0.6909   0.0500  -0.4726 N.am           1 S1                 0.0000
     11 ****         1.8507   0.9413  -0.4946 C.3            1 S1                 0.0000
     12 ****         2.0836   1.4229  -1.9397 C.3            1 S1                 0.0000
     13 ****         3.0825   0.2225   0.1162 C.3            1 S1                 0.0000
     14 ****         2.8121  -0.2990   1.5443 C.3            1 S1                 0.0000
     15 ****         4.0676  -0.9457   2.1509 C.3            1 S1                 0.0000
     16 ****         5.1409  -0.0131   2.1542 O.3            1 S1                 0.0000
     17 ****         5.5125   0.3984   0.8448 C.3            1 S1                 0.0000
     18 ****         4.3369   1.1188   0.1642 C.3            1 S1                 0.0000
     19 ****        -3.5966   0.5025  -0.3541 N.ar           1 S1                 0.0000
     20 ****        -4.9319   0.4392  -0.3368 N.ar           1 S1                 0.0000
     21 ****        -8.7192   0.2336  -0.3016 H              1 S1                 0.0000
     22 ****        -7.4285   1.0129  -1.2103 H              1 S1                 0.0000
     23 ****        -7.4141   1.0329   0.5676 H              1 S1                 0.0000
     24 ****        -5.3536  -2.9253  -0.3086 H              1 S1                 0.0000
     25 ****        -2.8457  -2.8004  -0.3427 H              1 S1                 0.0000
     26 ****        -0.9834  -1.5329  -0.4146 H              1 S1                 0.0000
     27 ****         0.8839  -0.9397  -0.5183 H              1 S1                 0.0000
     28 ****         1.6307   1.8135   0.1242 H              1 S1                 0.0000
     29 ****         2.8550   2.1904  -1.9905 H              1 S1                 0.0000
     30 ****         1.1790   1.8626  -2.3609 H              1 S1                 0.0000
     31 ****         2.3843   0.6001  -2.5891 H              1 S1                 0.0000
     32 ****         3.3146  -0.6390  -0.5124 H              1 S1                 0.0000
     33 ****         2.4874   0.5244   2.1818 H              1 S1                 0.0000
     34 ****         2.0034  -1.0298   1.5458 H              1 S1                 0.0000
     35 ****         3.8695  -1.2560   3.1768 H              1 S1                 0.0000
     36 ****         4.3504  -1.8423   1.5973 H              1 S1                 0.0000
     37 ****         6.3694   1.0681   0.9178 H              1 S1                 0.0000
     38 ****         5.8330  -0.4640   0.2580 H              1 S1                 0.0000
     39 ****         4.6425   1.4114  -0.8399 H              1 S1                 0.0000
     40 ****         4.1145   2.0398   0.7049 H              1 S1                 0.0000
     41 ****        -7.2308  -1.3158  -1.1117 LP             1 S1                 0.0000
     42 ****        -7.2124  -1.2949   0.5210 LP             1 S1                 0.0000
     43 ****        -1.9144   1.8443  -0.2715 LP             1 S1                 0.0000
     44 ****        -0.2574   2.3432  -0.3449 LP             1 S1                 0.0000
     45 ****         5.9327  -0.4378   2.5932 LP             1 S1                 0.0000
     46 ****         4.8629   0.7932   2.6764 LP             1 S1                 0.0000
     47 ****        -3.1480   1.3962  -0.3652 LP             1 S1                 0.0000
     48 ****        -5.4701   1.2821  -0.3355 LP             1 S1                 0.0000
@<TRIPOS>BOND
    1    1    2 1     
    2    1   21 1     
    3    1   22 1     
    4    1   23 1     
    5    2    3 1     
    6    3   20 ar    
    7    3    4 ar    
    8    4    5 ar    
    9    4   24 1     
   10    5    6 ar    
   11    5   25 1     
   12    6    7 1     
   13    6   19 ar    
   14    7    8 am    
   15    7   26 1     
   16    8    9 2     
   17    8   10 am    
   18   10   11 1     
   19   10   27 1     
   20   11   12 1     
   21   11   13 1     
   22   11   28 1     
   23   12   29 1     
   24   12   30 1     
   25   12   31 1     
   26   13   18 1     
   27   13   14 1     
   28   13   32 1     
   29   14   15 1     
   30   14   33 1     
   31   14   34 1     
   32   15   16 1     
   33   15   35 1     
   34   15   36 1     
   35   16   17 1     
   36   17   18 1     
   37   17   37 1     
   38   17   38 1     
   39   18   39 1     
   40   18   40 1     
   41   19   20 ar    
   42    2   41 1     
   43    2   42 1     
   44    9   43 1     
   45    9   44 1     
   46   16   45 1     
   47   16   46 1     
   48   19   47 1     
   49   20   48 1     
@<TRIPOS>SUBSTRUCTURE
      1 S1             1
@<TRIPOS>SET
LONE_PAIRS      STATIC     ATOMS    <user>   **** ""
8 41 42 43 44 45 46 47 48
DONOR_HYDROGENS      STATIC     ATOMS    <user>   **** ""
2 26 27
ATOM$BLUE        STATIC     ATOMS    COLORGROUP SYSTEM
8 41 42 43 44 45 46 47 48
ATOM$RED        STATIC     ATOMS    COLORGROUP SYSTEM
2 26 27
