AV-unprocessed.smi:2092|AV-procd|sdf|8543|dock3
  -GOLD-   2272011263D 1   1.00000     0.00000
 Structure written by MMmdl.
 44 45  0  0  0  0  0  0  0  0  1 V2000
  149.3626  141.0885  158.0231 C   0  0  0  0  0  0  0  0  0  0  0  0
  150.7291  141.3008  157.3543 C   0  0  1  0  0  0  0  0  0  0  0  0
  151.5977  141.8780  158.3263 O   0  0  0  0  0  0  0  0  0  0  0  0
  151.1032  143.0416  158.9826 C   0  0  0  0  0  0  0  0  0  0  0  0
  152.2813  143.8545  159.5321 C   0  0  0  0  0  0  0  0  0  0  0  0
  153.1356  143.0333  160.1414 F   0  0  0  0  0  0  0  0  0  0  0  0
  152.9178  144.4719  158.5373 F   0  0  0  0  0  0  0  0  0  0  0  0
  151.8497  144.7547  160.4148 F   0  0  0  0  0  0  0  0  0  0  0  0
  151.3094  139.9770  156.8302 C   0  0  0  0  0  0  0  0  0  0  0  0
  152.4343  139.9470  156.3308 O   0  0  0  0  0  0  0  0  0  0  0  0
  150.5197  138.8980  156.9417 N   0  0  0  0  0  0  0  0  0  0  0  0
  150.8681  137.5398  156.5350 C   0  0  0  0  0  0  0  0  0  0  0  0
  149.7789  136.5184  156.8248 C   0  0  0  0  0  0  0  0  0  0  0  0
  149.1648  135.7667  155.7999 C   0  0  0  0  0  0  0  0  0  0  0  0
  148.1681  134.8392  156.1557 C   0  0  0  0  0  0  0  0  0  0  0  0
  147.7648  134.6362  157.4272 N   0  0  0  0  0  0  0  0  0  0  0  0
  148.3350  135.3644  158.4185 C   0  0  0  0  0  0  0  0  0  0  0  0
  147.8973  135.1527  159.7430 N   0  0  0  0  0  0  0  0  0  0  0  0
  147.4372  136.3457  160.4488 C   0  0  0  0  0  0  0  0  0  0  0  0
  147.2836  136.0519  161.9510 C   0  0  0  0  0  0  0  0  0  0  0  0
  146.4229  134.9331  162.1383 O   0  0  0  0  0  0  0  0  0  0  0  0
  146.9462  133.7550  161.5335 C   0  0  0  0  0  0  0  0  0  0  0  0
  147.0847  133.9693  160.0166 C   0  0  0  0  0  0  0  0  0  0  0  0
  149.3486  136.3154  158.1520 C   0  0  0  0  0  0  0  0  0  0  0  0
  148.6529  140.6232  157.3380 H   0  0  0  0  0  0  0  0  0  0  0  0
  148.9367  142.0402  158.3416 H   0  0  0  0  0  0  0  0  0  0  0  0
  149.4422  140.4535  158.9062 H   0  0  0  0  0  0  0  0  0  0  0  0
  150.5979  141.9995  156.5257 H   0  0  0  0  0  0  0  0  0  0  0  0
  150.5250  143.6597  158.2949 H   0  0  0  0  0  0  0  0  0  0  0  0
  150.4413  142.7558  159.8014 H   0  0  0  0  0  0  0  0  0  0  0  0
  149.6101  139.0226  157.3619 H   0  0  0  0  0  0  0  0  0  0  0  0
  151.0706  137.5534  155.4635 H   0  0  0  0  0  0  0  0  0  0  0  0
  151.7838  137.1970  157.0188 H   0  0  0  0  0  0  0  0  0  0  0  0
  149.4411  135.8906  154.7632 H   0  0  0  0  0  0  0  0  0  0  0  0
  147.6796  134.2445  155.3980 H   0  0  0  0  0  0  0  0  0  0  0  0
  148.1233  137.1815  160.3179 H   0  0  0  0  0  0  0  0  0  0  0  0
  146.4785  136.6533  160.0290 H   0  0  0  0  0  0  0  0  0  0  0  0
  148.2547  135.8589  162.4098 H   0  0  0  0  0  0  0  0  0  0  0  0
  146.8577  136.9164  162.4602 H   0  0  0  0  0  0  0  0  0  0  0  0
  147.9088  133.5006  161.9802 H   0  0  0  0  0  0  0  0  0  0  0  0
  146.2718  132.9227  161.7349 H   0  0  0  0  0  0  0  0  0  0  0  0
  146.0988  134.0944  159.5667 H   0  0  0  0  0  0  0  0  0  0  0  0
  147.5408  133.0869  159.5659 H   0  0  0  0  0  0  0  0  0  0  0  0
  149.8074  136.8757  158.9534 H   0  0  0  0  0  0  0  0  0  0  0  0
  1  2  1  0  0  0  0
  1 25  1  0  0  0  0
  1 26  1  0  0  0  0
  1 27  1  0  0  0  0
  2  3  1  0  0  0  0
  2  9  1  0  0  0  0
  2 28  1  0  0  0  0
  3  4  1  0  0  0  0
  4  5  1  0  0  0  0
  4 29  1  0  0  0  0
  4 30  1  0  0  0  0
  5  6  1  0  0  0  0
  5  7  1  0  0  0  0
  5  8  1  0  0  0  0
  9 10  2  0  0  0  0
  9 11  1  0  0  0  0
 11 12  1  0  0  0  0
 11 31  1  0  0  0  0
 12 13  1  0  0  0  0
 12 32  1  0  0  0  0
 12 33  1  0  0  0  0
 13 24  1  0  0  0  0
 13 14  2  0  0  0  0
 14 15  1  0  0  0  0
 14 34  1  0  0  0  0
 15 16  2  0  0  0  0
 15 35  1  0  0  0  0
 16 17  1  0  0  0  0
 17 18  1  0  0  0  0
 17 24  2  0  0  0  0
 18 23  1  0  0  0  0
 18 19  1  0  0  0  0
 19 20  1  0  0  0  0
 19 36  1  0  0  0  0
 19 37  1  0  0  0  0
 20 21  1  0  0  0  0
 20 38  1  0  0  0  0
 20 39  1  0  0  0  0
 21 22  1  0  0  0  0
 22 23  1  0  0  0  0
 22 40  1  0  0  0  0
 22 41  1  0  0  0  0
 23 42  1  0  0  0  0
 23 43  1  0  0  0  0
 24 44  1  0  0  0  0
M  END
> <s_m_source_file>
AV-unprocessed.smi

> <i_m_source_file_index>
2092

> <i_lp_mmshare_version>
43012

> <i_f3d_flags>
0

> <s_epik_input>
RkMoRikoRilbQ0gyXU9bQ0BASF0oW0NIM10pQyg9TylbTkhdW0NIMl1jMVtjSF1bY0hdbmMoW2NIXTEpTjJbQ0gyXVtDSDJdT1tDSDJdW0NIMl0y

> <s_epik_cmdline>
J2VwaWtfcHl0aG9uJywgJy1waCcsICc3LjAnLCAnLXRuJywgJzgnLCAnLW1hJywgJzIwMCcsICctbWV0YWxfYmluZGluZycsICctaW1hZScsICc8aW5maWxlLm1hZT4nLCAnLW9tYWUnLCAnPG91dGZpbGUubWFlPic=

> <r_lp_tautomer_probability>
1

> <r_epik_Ionization_Penalty>
0.00451782

> <r_epik_Ionization_Penalty_Charging>
0

> <r_epik_Ionization_Penalty_Neutral>
0.00451782

> <r_epik_State_Penalty>
0.00326147

> <r_epik_Charging_Adjusted_Penalty>
0.00326147

> <i_epik_Tot_Q>
0

> <i_epik_Tot_abs_Q>
0

> <r_epik_Metal_State_Penalty>
-0

> <b_epik_Metal_Only>
0

> <s_lp_Force_Field>
OPLS_2005

> <r_lp_Energy>
17.1262

> <b_lp_Chiralities_Consistent>
1

> <s_lp_Variant>
AV-unprocessed.smi:2092-2

> <Gold.Version>
5.8.1

> <Gold.Id.Protein>
6NUR|6NUR_protein|mol2

> <Gold.PLP.Fitness>
43.3539

> <Gold.PLP.PLP>
-42.5530

> <Gold.PLP.part.hbond>
-1.0000

> <Gold.PLP.part.metal>
0.0000

> <Gold.PLP.part.buried>
-5.3758

> <Gold.PLP.part.nonpolar>
-35.3570

> <Gold.PLP.part.repulsive>
0.0237

> <Gold.PLP.ligand.clash>
1.6933

> <Gold.PLP.ligand.torsion>
0.5184

> <Gold.PLP.Chemscore.Hbond>
1.0000

> <Gold.PLP.Chemscore.CHOScore>
0.0000

> <Gold.PLP.Chemscore.Metal>
0.0000

> <Gold.Chemscore.Hbonds>
donor molecule, donor type, donor heavy atom, donor atom, acceptor molecule, acceptor atom, score
      P1  H  7997  8008       L1    10  1.00

> <Gold.PLP.Chemscore.Internal.Correction>
0.5309

> <Gold.Rescore>
     Score         DG    S(hbond)    S(metal)    S(lipo)     H(rot)  DE(clash)    DE(int)     intcor
     11.13     -11.54       0.99        0.00      77.92       2.49       0.01       0.40       ----

> <Gold.Chemscore.Fitness>
11.1267

> <Gold.Chemscore.DG>
-11.5414

> <Gold.Chemscore.ZeroCoef>
-5.4800

> <Gold.Chemscore.Hbond>
0.9936

> <Gold.Chemscore.Metal>
0.0000

> <Gold.Chemscore.Lipo>
77.9226

> <Gold.Chemscore.Internal_Hbond>
0.0000

> <Gold.Chemscore.DEClash>
0.0139

> <Gold.Chemscore.DEInternal>
0.4009

> <Gold.Chemscore.Rot>
2.4899

> <Gold.Chemscore.Internal.Correction>
   9.000000E+99

> <Gold.Chemscore.Hbonds>
donor molecule, donor type, donor heavy atom, donor atom, acceptor molecule, acceptor atom, score
      P1  H  7997  8008       L1    10  0.99

> <Gold.Chemscore.Hbond.Weighted>
-3.3186

> <Gold.Chemscore.Metal.Weighted>
-0.0000

> <Gold.Chemscore.Lipo.Weighted>
-9.1169

> <Gold.Chemscore.Internal_Hbond.Weighted>
0.0000

> <Gold.Chemscore.DEClash.Weighted>
0.0139

> <Gold.Chemscore.DEInternal.Weighted>
0.4009

> <Gold.Chemscore.Rot.Weighted>
6.3741

> <Gold.Chemscore.Internal.Correction.Weighted>
   9.000000E+99

> <Gold.Protein.RotatedTorsions>
[ 6907 6896 6895 6894 ] final -115.29 input  -60.11 | X-H torsion
[ 7974 7965 7964 7962 ] final   16.08 input  175.53 | X-H torsion
[ 8008 7997 7996 7995 ] final  -35.99 input   59.86 | X-H torsion
[ 10167 10162 10161 10158 ] final   12.12 input  -65.29 | X-H torsion
[ 10718 10713 10712 10709 ] final   67.75 input   66.30 | X-H torsion
[ 10763 10752 10751 10750 ] final   32.49 input  -60.55 | X-H torsion
[ 11005 11000 10999 10996 ] final  134.14 input  -57.11 | X-H torsion

> <Gold.Protein.ActiveResidues>
 VAL166  LYS551  ARG553  GLY616  TRP617  ASP618  TYR619  PRO620  LYS621  CYS622 
 ASP623  PHE694  ASN695  SER759  ASP760  ASP761  ALA762  ILE779  LEU786  VAL792 
 PHE793  MET794  SER795  GLU796  ALA797  LYS798  CYS799  TRP800  GLU811  SER814 

> <Gold.Protein.RotatedAtoms>
  150.7966  133.8680  159.3250 H   0  0  0  0  0  0  0  0  0  0  0  0  # atno 6907 bound_to 6896
  151.6503  135.1000  160.0169 H   0  0  0  0  0  0  0  0  0  0  0  0  # atno 6908 bound_to 6896
  152.4049  133.6834  159.6383 H   0  0  0  0  0  0  0  0  0  0  0  0  # atno 6909 bound_to 6896
  146.2260  139.8800  142.8572 H   0  0  0  0  0  0  0  0  0  0  0  0  # atno 7974 bound_to 7965
  154.4083  140.1642  156.2302 H   0  0  0  0  0  0  0  0  0  0  0  0  # atno 8008 bound_to 7997
  155.9289  140.3416  155.6210 H   0  0  0  0  0  0  0  0  0  0  0  0  # atno 8009 bound_to 7997
  155.7130  140.0759  157.2353 H   0  0  0  0  0  0  0  0  0  0  0  0  # atno 8010 bound_to 7997
  140.6088  143.8452  150.7042 H   0  0  0  0  0  0  0  0  0  0  0  0  # atno 10167 bound_to 10162
  157.6249  130.9337  150.0284 H   0  0  0  0  0  0  0  0  0  0  0  0  # atno 10718 bound_to 10713
  153.0259  135.6412  154.1364 H   0  0  0  0  0  0  0  0  0  0  0  0  # atno 10763 bound_to 10752
  154.1093  135.2854  155.3236 H   0  0  0  0  0  0  0  0  0  0  0  0  # atno 10764 bound_to 10752
  154.6343  135.5482  153.7779 H   0  0  0  0  0  0  0  0  0  0  0  0  # atno 10765 bound_to 10752
  139.9896  134.9520  156.9824 H   0  0  0  0  0  0  0  0  0  0  0  0  # atno 11005 bound_to 11000
  145.2522  141.0048  143.3874 LP  0  0  0  0  0  0  0  0  0  0  0  0  # atno 17320 bound_to 7965
  144.9365  139.4238  143.6470 LP  0  0  0  0  0  0  0  0  0  0  0  0  # atno 17321 bound_to 7965
  140.2015  143.3955  152.1788 LP  0  0  0  0  0  0  0  0  0  0  0  0  # atno 17342 bound_to 10162
  139.5345  144.7195  151.4940 LP  0  0  0  0  0  0  0  0  0  0  0  0  # atno 17343 bound_to 10162
  156.1415  130.3642  149.9576 LP  0  0  0  0  0  0  0  0  0  0  0  0  # atno 17370 bound_to 10713
  156.7616  130.9153  151.3641 LP  0  0  0  0  0  0  0  0  0  0  0  0  # atno 17371 bound_to 10713
  140.4935  134.1169  155.7237 LP  0  0  0  0  0  0  0  0  0  0  0  0  # atno 17394 bound_to 11000
  141.1554  133.8892  157.1990 LP  0  0  0  0  0  0  0  0  0  0  0  0  # atno 17395 bound_to 11000

$$$$
