AV-unprocessed.smi:794|AV-procd|sdf|3763|dock6
  -GOLD-   22720 1193D 1   1.00000     0.00000
 Structure written by MMmdl.
 41 43  0  0  0  0  0  0  0  0  1 V2000
  150.3601  129.8998  155.3162 C   0  0  0  0  0  0  0  0  0  0  0  0
  149.5420  130.9367  154.6094 C   0  0  0  0  0  0  0  0  0  0  0  0
  149.8699  132.2881  154.7531 N   0  0  0  0  0  0  0  0  0  0  0  0
  149.0490  133.0841  154.0604 C   0  0  0  0  0  0  0  0  0  0  0  0
  149.1515  134.4990  154.0177 N   0  0  0  0  0  0  0  0  0  0  0  0
  149.5398  135.3343  154.9967 C   0  0  0  0  0  0  0  0  0  0  0  0
  149.8591  134.9970  156.1372 O   0  0  0  0  0  0  0  0  0  0  0  0
  149.5379  136.6062  154.5747 N   0  0  0  0  0  0  0  0  0  0  0  0
  149.9117  137.7605  155.3875 C   0  0  1  0  0  0  0  0  0  0  0  0
  151.2788  137.5248  156.0664 C   0  0  2  0  0  0  0  0  0  0  0  0
  151.4454  138.5453  157.2064 C   0  0  0  0  0  0  0  0  0  0  0  0
  151.6864  139.8607  156.4418 C   0  0  0  0  0  0  0  0  0  0  0  0
  151.6090  139.4225  154.9631 C   0  0  1  0  0  0  0  0  0  0  0  0
  152.2710  138.0523  155.0333 C   0  0  0  0  0  0  0  0  0  0  0  0
  150.1694  139.0339  154.5421 C   0  0  2  0  0  0  0  0  0  0  0  0
  149.0938  140.1255  154.7048 C   0  0  0  0  0  0  0  0  0  0  0  0
  149.2538  141.1240  153.7195 O   0  0  0  0  0  0  0  0  0  0  0  0
  147.8048  132.2167  153.1780 S   0  0  0  0  0  0  0  0  0  0  0  0
  148.4583  130.7177  153.7903 C   0  0  0  0  0  0  0  0  0  0  0  0
  147.8466  129.4086  153.4165 C   0  0  0  0  0  0  0  0  0  0  0  0
  149.7248  129.1484  155.7852 H   0  0  0  0  0  0  0  0  0  0  0  0
  150.9791  130.3390  156.0992 H   0  0  0  0  0  0  0  0  0  0  0  0
  151.0232  129.3848  154.6209 H   0  0  0  0  0  0  0  0  0  0  0  0
  148.9151  134.9235  153.1332 H   0  0  0  0  0  0  0  0  0  0  0  0
  149.2588  136.7932  153.6227 H   0  0  0  0  0  0  0  0  0  0  0  0
  149.1427  137.9262  156.1448 H   0  0  0  0  0  0  0  0  0  0  0  0
  151.4460  136.4951  156.3848 H   0  0  0  0  0  0  0  0  0  0  0  0
  150.5709  138.5938  157.8562 H   0  0  0  0  0  0  0  0  0  0  0  0
  152.3081  138.2988  157.8265 H   0  0  0  0  0  0  0  0  0  0  0  0
  150.9712  140.6396  156.7023 H   0  0  0  0  0  0  0  0  0  0  0  0
  152.6798  140.2494  156.6693 H   0  0  0  0  0  0  0  0  0  0  0  0
  152.0887  140.1209  154.2767 H   0  0  0  0  0  0  0  0  0  0  0  0
  153.2993  138.0850  155.3979 H   0  0  0  0  0  0  0  0  0  0  0  0
  152.2462  137.5080  154.0878 H   0  0  0  0  0  0  0  0  0  0  0  0
  150.2009  138.7613  153.4849 H   0  0  0  0  0  0  0  0  0  0  0  0
  148.1017  139.6889  154.5887 H   0  0  0  0  0  0  0  0  0  0  0  0
  149.1180  140.5800  155.6944 H   0  0  0  0  0  0  0  0  0  0  0  0
  149.3009  140.7059  152.8732 H   0  0  0  0  0  0  0  0  0  0  0  0
  148.6157  128.6795  153.1606 H   0  0  0  0  0  0  0  0  0  0  0  0
  147.1864  129.5133  152.5551 H   0  0  0  0  0  0  0  0  0  0  0  0
  147.2609  129.0066  154.2433 H   0  0  0  0  0  0  0  0  0  0  0  0
  1  2  1  0  0  0  0
  1 21  1  0  0  0  0
  1 22  1  0  0  0  0
  1 23  1  0  0  0  0
  2 19  2  0  0  0  0
  2  3  1  0  0  0  0
  3  4  2  0  0  0  0
  4  5  1  0  0  0  0
  4 18  1  0  0  0  0
  5  6  1  0  0  0  0
  5 24  1  0  0  0  0
  6  7  2  0  0  0  0
  6  8  1  0  0  0  0
  8  9  1  0  0  0  0
  8 25  1  0  0  0  0
  9 15  1  0  0  0  0
  9 10  1  0  0  0  0
  9 26  1  0  0  0  0
 10 14  1  0  0  0  0
 10 11  1  0  0  0  0
 10 27  1  0  0  0  0
 11 12  1  0  0  0  0
 11 28  1  0  0  0  0
 11 29  1  0  0  0  0
 12 13  1  0  0  0  0
 12 30  1  0  0  0  0
 12 31  1  0  0  0  0
 13 14  1  0  0  0  0
 13 15  1  0  0  0  0
 13 32  1  0  0  0  0
 14 33  1  0  0  0  0
 14 34  1  0  0  0  0
 15 16  1  0  0  0  0
 15 35  1  0  0  0  0
 16 17  1  0  0  0  0
 16 36  1  0  0  0  0
 16 37  1  0  0  0  0
 17 38  1  0  0  0  0
 18 19  1  0  0  0  0
 19 20  1  0  0  0  0
 20 39  1  0  0  0  0
 20 40  1  0  0  0  0
 20 41  1  0  0  0  0
M  END
> <s_m_source_file>
AV-unprocessed.smi

> <i_m_source_file_index>
794

> <i_lp_mmshare_version>
43012

> <i_f3d_flags>
0

> <s_epik_input>
W0NIM11jMW5jKHNjMVtDSDNdKVtOSF1DKD1PKVtOSF1bQ0BIXShbQ0BASF0yMylbQ0BIXShbQ0gyXVtPSF0pW0NAQEhdKFtDSDJdMylbQ0gyXVtDSDJdMg==

> <s_epik_cmdline>
J2VwaWtfcHl0aG9uJywgJy1waCcsICc3LjAnLCAnLXRuJywgJzgnLCAnLW1hJywgJzIwMCcsICctbWV0YWxfYmluZGluZycsICctaW1hZScsICc8aW5maWxlLm1hZT4nLCAnLW9tYWUnLCAnPG91dGZpbGUubWFlPic=

> <r_lp_tautomer_probability>
0.999

> <r_epik_Ionization_Penalty>
0.000713029

> <r_epik_Ionization_Penalty_Charging>
0

> <r_epik_Ionization_Penalty_Neutral>
0.000713029

> <r_epik_State_Penalty>
0.000177984

> <r_epik_Charging_Adjusted_Penalty>
0.000177984

> <i_epik_Tot_Q>
0

> <i_epik_Tot_abs_Q>
0

> <r_epik_Metal_State_Penalty>
-0

> <b_epik_Metal_Only>
0

> <s_lp_Force_Field>
OPLS_2005

> <r_lp_Energy>
46.861

> <b_lp_Chiralities_Consistent>
1

> <s_lp_Variant>
AV-unprocessed.smi:794-8

> <Gold.Version>
5.8.1

> <Gold.Id.Protein>
6NUR|6NUR_protein|mol2

> <Gold.PLP.Fitness>
43.1465

> <Gold.PLP.PLP>
-35.2004

> <Gold.PLP.part.hbond>
-5.0000

> <Gold.PLP.part.metal>
0.0000

> <Gold.PLP.part.buried>
-1.4621

> <Gold.PLP.part.nonpolar>
-29.7680

> <Gold.PLP.part.repulsive>
0.0903

> <Gold.PLP.ligand.clash>
0.0000

> <Gold.PLP.ligand.torsion>
0.4489

> <Gold.PLP.Chemscore.Hbond>
2.9420

> <Gold.PLP.Chemscore.CHOScore>
0.0000

> <Gold.PLP.Chemscore.Metal>
0.0000

> <Gold.Chemscore.Hbonds>
donor molecule, donor type, donor heavy atom, donor atom, acceptor molecule, acceptor atom, score
      L1  H     5    24       P1  7948  0.95
      L1  H     8    25       P1  7948  1.00
      L1  H    17    38       P1  7957  1.00

> <Gold.PLP.Chemscore.Internal.Correction>
0.0178

> <Gold.Rescore>
     Score         DG    S(hbond)    S(metal)    S(lipo)     H(rot)  DE(clash)    DE(int)     intcor
     14.52     -16.61       2.14        0.00      72.93       1.78       0.36       1.73       ----

> <Gold.Chemscore.Fitness>
14.5169

> <Gold.Chemscore.DG>
-16.6062

> <Gold.Chemscore.ZeroCoef>
-5.4800

> <Gold.Chemscore.Hbond>
2.1407

> <Gold.Chemscore.Metal>
0.0000

> <Gold.Chemscore.Lipo>
72.9282

> <Gold.Chemscore.Internal_Hbond>
0.0000

> <Gold.Chemscore.DEClash>
0.3605

> <Gold.Chemscore.DEInternal>
1.7287

> <Gold.Chemscore.Rot>
1.7798

> <Gold.Chemscore.Internal.Correction>
   9.000000E+99

> <Gold.Chemscore.Hbonds>
donor molecule, donor type, donor heavy atom, donor atom, acceptor molecule, acceptor atom, score
      L1  H     5    24       P1  7948  0.21
      L1  H     8    25       P1  7948  0.93
      L1  H    17    38       P1  7957  1.00

> <Gold.Chemscore.Hbond.Weighted>
-7.1498

> <Gold.Chemscore.Metal.Weighted>
-0.0000

> <Gold.Chemscore.Lipo.Weighted>
-8.5326

> <Gold.Chemscore.Internal_Hbond.Weighted>
0.0000

> <Gold.Chemscore.DEClash.Weighted>
0.3605

> <Gold.Chemscore.DEInternal.Weighted>
1.7287

> <Gold.Chemscore.Rot.Weighted>
4.5562

> <Gold.Chemscore.Internal.Correction.Weighted>
   9.000000E+99

> <Gold.Protein.RotatedTorsions>
[ 6907 6896 6895 6894 ] final -100.23 input  -60.11 | X-H torsion
[ 7974 7965 7964 7962 ] final  -53.27 input  175.53 | X-H torsion
[ 8008 7997 7996 7995 ] final  -93.18 input   59.86 | X-H torsion
[ 10167 10162 10161 10158 ] final  -33.32 input  -65.29 | X-H torsion
[ 10718 10713 10712 10709 ] final  157.06 input   66.30 | X-H torsion
[ 10763 10752 10751 10750 ] final  -94.81 input  -60.55 | X-H torsion
[ 11005 11000 10999 10996 ] final   81.76 input  -57.11 | X-H torsion

> <Gold.Protein.ActiveResidues>
 VAL166  LYS551  ARG553  GLY616  TRP617  ASP618  TYR619  PRO620  LYS621  CYS622 
 ASP623  PHE694  ASN695  SER759  ASP760  ASP761  ALA762  ILE779  LEU786  VAL792 
 PHE793  MET794  SER795  GLU796  ALA797  LYS798  CYS799  TRP800  GLU811  SER814 

> <Gold.Protein.RotatedAtoms>
  150.7108  134.0920  159.3934 H   0  0  0  0  0  0  0  0  0  0  0  0  # atno 6907 bound_to 6896
  151.8905  135.0416  160.0506 H   0  0  0  0  0  0  0  0  0  0  0  0  # atno 6908 bound_to 6896
  152.2495  133.5167  159.5354 H   0  0  0  0  0  0  0  0  0  0  0  0  # atno 6909 bound_to 6896
  145.8987  140.8012  142.9754 H   0  0  0  0  0  0  0  0  0  0  0  0  # atno 7974 bound_to 7965
  154.7325  140.0501  157.0739 H   0  0  0  0  0  0  0  0  0  0  0  0  # atno 8008 bound_to 7997
  155.0284  140.3155  155.4748 H   0  0  0  0  0  0  0  0  0  0  0  0  # atno 8009 bound_to 7997
  156.2845  140.2154  156.5404 H   0  0  0  0  0  0  0  0  0  0  0  0  # atno 8010 bound_to 7997
  140.7206  143.3629  151.1928 H   0  0  0  0  0  0  0  0  0  0  0  0  # atno 10167 bound_to 10162
  157.1966  131.0666  151.2049 H   0  0  0  0  0  0  0  0  0  0  0  0  # atno 10718 bound_to 10713
  154.7090  135.5144  153.8638 H   0  0  0  0  0  0  0  0  0  0  0  0  # atno 10763 bound_to 10752
  153.0765  135.6618  154.0145 H   0  0  0  0  0  0  0  0  0  0  0  0  # atno 10764 bound_to 10752
  153.9990  135.3012  155.3384 H   0  0  0  0  0  0  0  0  0  0  0  0  # atno 10765 bound_to 10752
  139.9087  134.8021  156.2084 H   0  0  0  0  0  0  0  0  0  0  0  0  # atno 11005 bound_to 11000
  144.6734  140.1643  143.7420 LP  0  0  0  0  0  0  0  0  0  0  0  0  # atno 17320 bound_to 7965
  145.8818  139.2327  143.1601 LP  0  0  0  0  0  0  0  0  0  0  0  0  # atno 17321 bound_to 7965
  139.7184  143.9262  152.2976 LP  0  0  0  0  0  0  0  0  0  0  0  0  # atno 17342 bound_to 10162
  139.9011  144.6911  150.8664 LP  0  0  0  0  0  0  0  0  0  0  0  0  # atno 17343 bound_to 10162
  157.3808  130.7230  149.6629 LP  0  0  0  0  0  0  0  0  0  0  0  0  # atno 17370 bound_to 10713
  155.9705  130.4173  150.4272 LP  0  0  0  0  0  0  0  0  0  0  0  0  # atno 17371 bound_to 10713
  141.0481  133.6903  156.1720 LP  0  0  0  0  0  0  0  0  0  0  0  0  # atno 17394 bound_to 11000
  140.6853  134.4723  157.5589 LP  0  0  0  0  0  0  0  0  0  0  0  0  # atno 17395 bound_to 11000

$$$$
