AV-unprocessed.smi:373|AV-procd|sdf|2449|dock4
  -GOLD-   2262022383D 1   1.00000     0.00000
 Structure written by MMmdl.
 40 41  0  0  0  0  0  0  0  0  1 V2000
  148.9043  132.0022  153.6531 C   0  0  0  0  0  0  0  0  0  0  0  0
  148.0422  130.8104  154.0833 C   0  0  0  0  0  0  0  0  0  0  0  0
  146.6476  130.8325  153.4483 C   0  0  0  0  0  0  0  0  0  0  0  0
  146.7836  131.1024  152.0610 O   0  0  0  0  0  0  0  0  0  0  0  0
  145.5827  131.5158  151.4230 C   0  0  2  0  0  0  0  0  0  0  0  0
  145.8228  131.7975  149.9254 C   0  0  0  0  0  0  0  0  0  0  0  0
  144.5603  132.3976  149.2861 C   0  0  0  0  0  0  0  0  0  0  0  0
  144.0897  133.6427  150.0556 C   0  0  0  0  0  0  0  0  0  0  0  0
  143.9130  133.3395  151.4738 N   0  0  0  0  0  0  0  0  0  0  0  0
  143.2174  134.3445  152.1712 C   0  0  0  0  0  0  0  0  0  0  0  0
  142.0678  133.9964  152.7986 N   0  0  0  0  0  0  0  0  0  0  0  0
  141.3933  134.9378  153.4915 C   0  0  0  0  0  0  0  0  0  0  0  0
  141.8257  136.2758  153.6115 C   0  0  0  0  0  0  0  0  0  0  0  0
  141.0127  137.2756  154.3819 C   0  0  0  0  0  0  0  0  0  0  0  0
  140.1722  136.7763  155.2934 N   0  0  0  0  0  0  0  0  0  0  0  0
  141.0848  138.4789  154.1410 O   0  0  0  0  0  0  0  0  0  0  0  0
  143.0159  136.6413  152.9446 C   0  0  0  0  0  0  0  0  0  0  0  0
  143.7264  135.6663  152.2173 C   0  0  0  0  0  0  0  0  0  0  0  0
  145.1739  136.1185  151.3848 Cl  0  0  0  0  0  0  0  0  0  0  0  0
  145.0992  132.7929  152.1323 C   0  0  0  0  0  0  0  0  0  0  0  0
  149.8855  131.9627  154.1267 H   0  0  0  0  0  0  0  0  0  0  0  0
  148.4377  132.9472  153.9320 H   0  0  0  0  0  0  0  0  0  0  0  0
  149.0559  132.0082  152.5734 H   0  0  0  0  0  0  0  0  0  0  0  0
  148.5495  129.8829  153.8154 H   0  0  0  0  0  0  0  0  0  0  0  0
  147.9462  130.8073  155.1694 H   0  0  0  0  0  0  0  0  0  0  0  0
  146.1529  129.8745  153.6097 H   0  0  0  0  0  0  0  0  0  0  0  0
  146.0361  131.6039  153.9187 H   0  0  0  0  0  0  0  0  0  0  0  0
  144.8135  130.7494  151.5377 H   0  0  0  0  0  0  0  0  0  0  0  0
  146.6552  132.4930  149.8117 H   0  0  0  0  0  0  0  0  0  0  0  0
  146.1018  130.8869  149.3960 H   0  0  0  0  0  0  0  0  0  0  0  0
  144.7530  132.6545  148.2443 H   0  0  0  0  0  0  0  0  0  0  0  0
  143.7647  131.6515  149.2801 H   0  0  0  0  0  0  0  0  0  0  0  0
  144.8249  134.4424  149.9548 H   0  0  0  0  0  0  0  0  0  0  0  0
  143.1608  134.0139  149.6218 H   0  0  0  0  0  0  0  0  0  0  0  0
  140.4833  134.6035  153.9682 H   0  0  0  0  0  0  0  0  0  0  0  0
  139.6013  137.3958  155.8494 H   0  0  0  0  0  0  0  0  0  0  0  0
  140.1164  135.7767  155.4266 H   0  0  0  0  0  0  0  0  0  0  0  0
  143.3848  137.6562  152.9782 H   0  0  0  0  0  0  0  0  0  0  0  0
  144.8714  132.5719  153.1760 H   0  0  0  0  0  0  0  0  0  0  0  0
  145.8939  133.5406  152.1277 H   0  0  0  0  0  0  0  0  0  0  0  0
  1  2  1  0  0  0  0
  1 21  1  0  0  0  0
  1 22  1  0  0  0  0
  1 23  1  0  0  0  0
  2  3  1  0  0  0  0
  2 24  1  0  0  0  0
  2 25  1  0  0  0  0
  3  4  1  0  0  0  0
  3 26  1  0  0  0  0
  3 27  1  0  0  0  0
  4  5  1  0  0  0  0
  5 20  1  0  0  0  0
  5  6  1  0  0  0  0
  5 28  1  0  0  0  0
  6  7  1  0  0  0  0
  6 29  1  0  0  0  0
  6 30  1  0  0  0  0
  7  8  1  0  0  0  0
  7 31  1  0  0  0  0
  7 32  1  0  0  0  0
  8  9  1  0  0  0  0
  8 33  1  0  0  0  0
  8 34  1  0  0  0  0
  9 10  1  0  0  0  0
  9 20  1  0  0  0  0
 10 18  1  0  0  0  0
 10 11  2  0  0  0  0
 11 12  1  0  0  0  0
 12 13  2  0  0  0  0
 12 35  1  0  0  0  0
 13 14  1  0  0  0  0
 13 17  1  0  0  0  0
 14 15  1  0  0  0  0
 14 16  2  0  0  0  0
 15 36  1  0  0  0  0
 15 37  1  0  0  0  0
 17 18  2  0  0  0  0
 17 38  1  0  0  0  0
 18 19  1  0  0  0  0
 20 39  1  0  0  0  0
 20 40  1  0  0  0  0
M  END
> <s_m_source_file>
AV-unprocessed.smi

> <i_m_source_file_index>
373

> <i_lp_mmshare_version>
43012

> <i_f3d_flags>
0

> <s_epik_input>
W0NIM11bQ0gyXVtDSDJdT1tDQEBIXTFbQ0gyXVtDSDJdW0NIMl1OKFtDSDJdMSljMm5bY0hdYyhDKD1PKVtOSDJdKVtjSF1jMkNs

> <s_epik_cmdline>
J2VwaWtfcHl0aG9uJywgJy1waCcsICc3LjAnLCAnLXRuJywgJzgnLCAnLW1hJywgJzIwMCcsICctbWV0YWxfYmluZGluZycsICctaW1hZScsICc8aW5maWxlLm1hZT4nLCAnLW9tYWUnLCAnPG91dGZpbGUubWFlPic=

> <r_lp_tautomer_probability>
1

> <r_epik_Ionization_Penalty>
3.23666e-05

> <r_epik_Ionization_Penalty_Charging>
0

> <r_epik_Ionization_Penalty_Neutral>
3.23666e-05

> <r_epik_State_Penalty>
-0

> <r_epik_Charging_Adjusted_Penalty>
0

> <i_epik_Tot_Q>
0

> <i_epik_Tot_abs_Q>
0

> <r_epik_Metal_State_Penalty>
-0

> <b_epik_Metal_Only>
0

> <s_lp_Force_Field>
OPLS_2005

> <r_lp_Energy>
19.8682

> <b_lp_Chiralities_Consistent>
1

> <s_lp_Variant>
AV-unprocessed.smi:373-1

> <Gold.Version>
5.8.1

> <Gold.Id.Protein>
6NUR|6NUR_protein|mol2

> <Gold.PLP.Fitness>
37.5707

> <Gold.PLP.PLP>
-33.9451

> <Gold.PLP.part.hbond>
-1.0000

> <Gold.PLP.part.metal>
0.0000

> <Gold.PLP.part.buried>
-7.2113

> <Gold.PLP.part.nonpolar>
-29.8235

> <Gold.PLP.part.repulsive>
3.2917

> <Gold.PLP.ligand.clash>
0.0000

> <Gold.PLP.ligand.torsion>
0.5567

> <Gold.PLP.Chemscore.Hbond>
0.9920

> <Gold.PLP.Chemscore.CHOScore>
0.4960

> <Gold.PLP.Chemscore.Metal>
0.0000

> <Gold.Chemscore.Hbonds>
donor molecule, donor type, donor heavy atom, donor atom, acceptor molecule, acceptor atom, score
      L1  H    15    37       P1 11000  0.94
      L1  C    12    35       P1 11000  0.45

> <Gold.PLP.Chemscore.Internal.Correction>
0.2750

> <Gold.Rescore>
     Score         DG    S(hbond)    S(metal)    S(lipo)     H(rot)  DE(clash)    DE(int)     intcor
     12.31     -14.42       0.91        0.00      84.90       1.57       0.45       1.66       ----

> <Gold.Chemscore.Fitness>
12.3131

> <Gold.Chemscore.DG>
-14.4212

> <Gold.Chemscore.ZeroCoef>
-5.4800

> <Gold.Chemscore.Hbond>
0.9053

> <Gold.Chemscore.Metal>
0.0000

> <Gold.Chemscore.Lipo>
84.9008

> <Gold.Chemscore.Internal_Hbond>
0.0000

> <Gold.Chemscore.DEClash>
0.4472

> <Gold.Chemscore.DEInternal>
1.6608

> <Gold.Chemscore.Rot>
1.5687

> <Gold.Chemscore.Internal.Correction>
   9.000000E+99

> <Gold.Chemscore.Hbonds>
donor molecule, donor type, donor heavy atom, donor atom, acceptor molecule, acceptor atom, score
      L1  H    15    37       P1 11000  0.84

> <Gold.Chemscore.Hbond.Weighted>
-3.0236

> <Gold.Chemscore.Metal.Weighted>
-0.0000

> <Gold.Chemscore.Lipo.Weighted>
-9.9334

> <Gold.Chemscore.Internal_Hbond.Weighted>
0.0000

> <Gold.Chemscore.DEClash.Weighted>
0.4472

> <Gold.Chemscore.DEInternal.Weighted>
1.6608

> <Gold.Chemscore.Rot.Weighted>
4.0158

> <Gold.Chemscore.Internal.Correction.Weighted>
   9.000000E+99

> <Gold.Protein.RotatedTorsions>
[ 6907 6896 6895 6894 ] final -109.01 input  -60.11 | X-H torsion
[ 7974 7965 7964 7962 ] final   54.43 input  175.53 | X-H torsion
[ 8008 7997 7996 7995 ] final   66.30 input   59.86 | X-H torsion
[ 10167 10162 10161 10158 ] final  -12.45 input  -65.29 | X-H torsion
[ 10718 10713 10712 10709 ] final  -50.75 input   66.30 | X-H torsion
[ 10763 10752 10751 10750 ] final -176.73 input  -60.55 | X-H torsion
[ 11005 11000 10999 10996 ] final -126.22 input  -57.11 | X-H torsion

> <Gold.Protein.ActiveResidues>
 VAL166  LYS551  ARG553  GLY616  TRP617  ASP618  TYR619  PRO620  LYS621  CYS622 
 ASP623  PHE694  ASN695  SER759  ASP760  ASP761  ALA762  ILE779  LEU786  VAL792 
 PHE793  MET794  SER795  GLU796  ALA797  LYS798  CYS799  TRP800  GLU811  SER814 

> <Gold.Protein.RotatedAtoms>
  150.7536  133.9592  159.3509 H   0  0  0  0  0  0  0  0  0  0  0  0  # atno 6907 bound_to 6896
  151.7516  135.0829  160.0341 H   0  0  0  0  0  0  0  0  0  0  0  0  # atno 6908 bound_to 6896
  152.3462  133.6088  159.5948 H   0  0  0  0  0  0  0  0  0  0  0  0  # atno 6909 bound_to 6896
  145.9610  139.4059  143.0248 H   0  0  0  0  0  0  0  0  0  0  0  0  # atno 7974 bound_to 7965
  155.6753  140.3497  155.4834 H   0  0  0  0  0  0  0  0  0  0  0  0  # atno 8008 bound_to 7997
  155.9654  140.1145  157.0882 H   0  0  0  0  0  0  0  0  0  0  0  0  # atno 8009 bound_to 7997
  154.4153  140.1167  156.5220 H   0  0  0  0  0  0  0  0  0  0  0  0  # atno 8010 bound_to 7997
  140.7161  143.5531  150.9278 H   0  0  0  0  0  0  0  0  0  0  0  0  # atno 10167 bound_to 10162
  156.1772  130.4150  149.9560 H   0  0  0  0  0  0  0  0  0  0  0  0  # atno 10718 bound_to 10713
  154.5688  135.2826  155.0847 H   0  0  0  0  0  0  0  0  0  0  0  0  # atno 10763 bound_to 10752
  154.2228  135.6388  153.5154 H   0  0  0  0  0  0  0  0  0  0  0  0  # atno 10764 bound_to 10752
  153.0051  135.5518  154.6305 H   0  0  0  0  0  0  0  0  0  0  0  0  # atno 10765 bound_to 10752
  140.9699  134.0820  157.3881 H   0  0  0  0  0  0  0  0  0  0  0  0  # atno 11005 bound_to 11000
  145.8040  140.9757  143.0984 LP  0  0  0  0  0  0  0  0  0  0  0  0  # atno 17320 bound_to 7965
  144.6815  139.9837  143.7483 LP  0  0  0  0  0  0  0  0  0  0  0  0  # atno 17321 bound_to 7965
  139.9256  143.6554  152.3087 LP  0  0  0  0  0  0  0  0  0  0  0  0  # atno 17342 bound_to 10162
  139.6986  144.7638  151.1312 LP  0  0  0  0  0  0  0  0  0  0  0  0  # atno 17343 bound_to 10162
  156.7341  130.9054  151.3628 LP  0  0  0  0  0  0  0  0  0  0  0  0  # atno 17370 bound_to 10713
  157.6844  130.9171  150.0348 LP  0  0  0  0  0  0  0  0  0  0  0  0  # atno 17371 bound_to 10713
  139.8908  135.0114  156.6757 LP  0  0  0  0  0  0  0  0  0  0  0  0  # atno 17394 bound_to 11000
  140.7345  133.9031  155.8234 LP  0  0  0  0  0  0  0  0  0  0  0  0  # atno 17395 bound_to 11000

$$$$
