#       Name:                AV-unprocessed.smi:266
#       Creating user name   scv26
#       Creation time:       Thu Mar 26 21:24:16 2020


#       File generated by GOLD software.
#

@<TRIPOS>MOLECULE
AV-unprocessed.smi:266
    59    62     1
SMALL
NO_CHARGES


@<TRIPOS>ATOM
      1 ****        -5.8941   0.5730  -0.3303 C.3            1 S1                 0.0000
      2 ****        -5.0308  -0.2423   0.6481 C.3            1 S1                 0.0000
      3 ****        -5.2181   0.3368   1.9410 O.3            1 S1                 0.0000
      4 ****        -3.9654   0.6360   2.5400 C.3            1 S1                 0.0000
      5 ****        -3.0388   0.8583   1.3552 C.3            1 S1                 0.0000
      6 ****        -3.5043  -0.2172   0.3802 C.3            1 S1                 0.0000
      7 ****        -3.1855   0.1905  -0.9388 O.3            1 S1                 0.0000
      8 ****        -2.8738  -1.6145   0.6277 C.3            1 S1                 0.0000
      9 ****        -1.4190  -1.6290   0.5982 N.pl3          1 S1                 0.0000
     10 ****        -0.5753  -1.5398   1.6809 C.2            1 S1                 0.0000
     11 ****         0.6969  -1.5737   1.3964 N.2            1 S1                 0.0000
     12 ****         0.7411  -1.7020   0.0122 C.ar           1 S1                 0.0000
     13 ****         1.7895  -1.7879  -0.9529 C.ar           1 S1                 0.0000
     14 ****         3.1160  -1.6996  -0.6546 N.pl3          1 S1                 0.0000
     15 ****         4.0786  -2.1625  -1.6514 C.3            1 S1                 0.0000
     16 ****         3.5636  -0.6600   0.2741 C.3            1 S1                 0.0000
     17 ****         3.6018   0.7530  -0.3474 C.3            1 S1                 0.0000
     18 ****         4.3547   1.7492   0.5561 C.3            1 S1                 0.0000
     19 ****         4.1209   3.1677   0.0288 C.3            1 S1                 0.0000
     20 ****         2.4071   3.1721  -0.6119 S.o2           1 S1                 0.0000
     21 ****         1.5056   3.7384   0.4029 O.2            1 S1                 0.0000
     22 ****         2.4102   3.6807  -1.9918 O.2            1 S1                 0.0000
     23 ****         2.2097   1.3507  -0.6278 C.3            1 S1                 0.0000
     24 ****         1.4181  -1.9488  -2.2522 N.ar           1 S1                 0.0000
     25 ****         0.1279  -1.9988  -2.5931 C.ar           1 S1                 0.0000
     26 ****        -0.9447  -1.9079  -1.8073 N.ar           1 S1                 0.0000
     27 ****        -0.5876  -1.7602  -0.5005 C.ar           1 S1                 0.0000
     28 ****        -5.8363   0.1704  -1.3419 H              1 S1                 0.0000
     29 ****        -5.5808   1.6169  -0.3632 H              1 S1                 0.0000
     30 ****        -6.9423   0.5521  -0.0312 H              1 S1                 0.0000
     31 ****        -5.4006  -1.2684   0.6647 H              1 S1                 0.0000
     32 ****        -4.0319   1.5070   3.1920 H              1 S1                 0.0000
     33 ****        -3.6365  -0.2145   3.1383 H              1 S1                 0.0000
     34 ****        -3.2269   1.8513   0.9429 H              1 S1                 0.0000
     35 ****        -1.9832   0.8128   1.6193 H              1 S1                 0.0000
     36 ****        -2.2453   0.1923  -1.0344 H              1 S1                 0.0000
     37 ****        -3.1907  -2.0075   1.5945 H              1 S1                 0.0000
     38 ****        -3.2370  -2.3259  -0.1155 H              1 S1                 0.0000
     39 ****        -0.9359  -1.4395   2.6945 H              1 S1                 0.0000
     40 ****         3.8315  -3.1691  -1.9910 H              1 S1                 0.0000
     41 ****         5.0846  -2.1940  -1.2326 H              1 S1                 0.0000
     42 ****         4.0938  -1.4975  -2.5158 H              1 S1                 0.0000
     43 ****         2.9799  -0.6548   1.1912 H              1 S1                 0.0000
     44 ****         4.5723  -0.9267   0.5916 H              1 S1                 0.0000
     45 ****         4.1445   0.7113  -1.2928 H              1 S1                 0.0000
     46 ****         3.9602   1.6819   1.5708 H              1 S1                 0.0000
     47 ****         5.4189   1.5183   0.6131 H              1 S1                 0.0000
     48 ****         4.2429   3.9357   0.7927 H              1 S1                 0.0000
     49 ****         4.7927   3.3872  -0.8012 H              1 S1                 0.0000
     50 ****         1.7939   1.0309  -1.5833 H              1 S1                 0.0000
     51 ****         1.5038   1.0926   0.1615 H              1 S1                 0.0000
     52 ****        -0.0735  -2.1230  -3.6471 H              1 S1                 0.0000
     53 ****        -5.7145  -0.3087   2.5216 LP             1 S1                 0.0000
     54 ****        -5.7488   1.1795   1.8501 LP             1 S1                 0.0000
     55 ****        -3.5427   1.1100  -1.1029 LP             1 S1                 0.0000
     56 ****        -3.5898  -0.4463  -1.5953 LP             1 S1                 0.0000
     57 ****         1.4677  -1.5196   2.0311 LP             1 S1                 0.0000
     58 ****         2.1196  -2.0306  -2.9601 LP             1 S1                 0.0000
     59 ****        -1.8891  -1.9435  -2.1342 LP             1 S1                 0.0000
@<TRIPOS>BOND
    1    1    2 1     
    2    1   28 1     
    3    1   29 1     
    4    1   30 1     
    5    2    6 1     
    6    2    3 1     
    7    2   31 1     
    8    3    4 1     
    9    4    5 1     
   10    4   32 1     
   11    4   33 1     
   12    5    6 1     
   13    5   34 1     
   14    5   35 1     
   15    6    7 1     
   16    6    8 1     
   17    7   36 1     
   18    8    9 1     
   19    8   37 1     
   20    8   38 1     
   21    9   27 1     
   22    9   10 1     
   23   10   11 2     
   24   10   39 1     
   25   11   12 1     
   26   12   27 ar    
   27   12   13 ar    
   28   13   14 1     
   29   13   24 ar    
   30   14   15 1     
   31   14   16 1     
   32   15   40 1     
   33   15   41 1     
   34   15   42 1     
   35   16   17 1     
   36   16   43 1     
   37   16   44 1     
   38   17   23 1     
   39   17   18 1     
   40   17   45 1     
   41   18   19 1     
   42   18   46 1     
   43   18   47 1     
   44   19   20 1     
   45   19   48 1     
   46   19   49 1     
   47   20   21 2     
   48   20   22 2     
   49   20   23 1     
   50   23   50 1     
   51   23   51 1     
   52   24   25 ar    
   53   25   26 ar    
   54   25   52 1     
   55   26   27 ar    
   56    3   53 1     
   57    3   54 1     
   58    7   55 1     
   59    7   56 1     
   60   11   57 1     
   61   24   58 1     
   62   26   59 1     
@<TRIPOS>SUBSTRUCTURE
      1 S1             1
@<TRIPOS>SET
LONE_PAIRS      STATIC     ATOMS    <user>   **** ""
9 53 54 55 56 57 21 22 58 59
DONOR_HYDROGENS      STATIC     ATOMS    <user>   **** ""
1 36
ATOM$BLUE        STATIC     ATOMS    COLORGROUP SYSTEM
9 53 54 55 56 57 21 22 58 59
ATOM$RED        STATIC     ATOMS    COLORGROUP SYSTEM
1 36
