AV-unprocessed.smi:1760|AV-procd|sdf|7092|dock9
  -GOLD-   22720 8313D 1   1.00000     0.00000
 Structure written by MMmdl.
 43 45  0  0  0  0  0  0  0  0  3 V2000
  150.4397  138.1169  158.6804 O   0  0  0  0  0  0  0  0  0  0  0  0
  150.7941  138.5745  157.5943 C   0  0  0  0  0  0  0  0  0  0  0  0
  151.4511  139.7323  157.4008 N   0  0  0  0  0  0  0  0  0  0  0  0
  151.9185  140.6628  158.3444 C   0  0  0  0  0  0  0  0  0  0  0  0
  151.5590  141.9759  158.3870 C   0  0  0  0  0  0  0  0  0  0  0  0
  152.0709  142.8902  159.4004 C   0  0  0  0  0  0  0  0  0  0  0  0
  151.7204  144.3646  159.4793 C   0  0  0  0  0  0  0  0  0  0  0  0
  152.1759  144.8850  160.6185 F   0  0  0  0  0  0  0  0  0  0  0  0
  152.2833  145.0277  158.4697 F   0  0  0  0  0  0  0  0  0  0  0  0
  150.4023  144.5565  159.4265 F   0  0  0  0  0  0  0  0  0  0  0  0
  152.9304  142.2686  160.2839 C   0  0  0  0  0  0  0  0  0  0  0  0
  153.3261  140.9774  160.3201 N   0  5  0  0  0  0  0  0  0  0  0  0
  152.8438  140.1309  159.3670 C   0  0  0  0  0  0  0  0  0  0  0  0
  153.1614  138.9411  159.3413 O   0  0  0  0  0  0  0  0  0  0  0  0
  150.5471  137.9697  156.4232 N   0  0  0  0  0  0  0  0  0  0  0  0
  149.8370  136.7060  156.2446 C   0  0  2  0  0  0  0  0  0  0  0  0
  150.7004  135.7284  155.4300 C   0  0  0  0  0  0  0  0  0  0  0  0
  149.9316  134.4319  155.1249 C   0  0  0  0  0  0  0  0  0  0  0  0
  148.6578  134.7216  154.4207 N   0  3  1  0  0  0  0  0  0  0  0  0
  147.9535  133.4874  154.0109 C   0  0  0  0  0  0  0  0  0  0  0  0
  148.8733  132.4049  153.4958 C   0  0  0  0  0  0  0  0  0  0  0  0
  148.0326  133.2078  152.5281 C   0  0  0  0  0  0  0  0  0  0  0  0
  147.7863  135.6262  155.2112 C   0  0  0  0  0  0  0  0  0  0  0  0
  148.5024  136.9515  155.5209 C   0  0  0  0  0  0  0  0  0  0  0  0
  151.6084  140.0051  156.4415 H   0  0  0  0  0  0  0  0  0  0  0  0
  150.8613  142.3803  157.6727 H   0  0  0  0  0  0  0  0  0  0  0  0
  153.3643  142.9084  161.0817 H   0  0  0  0  0  0  0  0  0  0  0  0
  150.8748  138.4275  155.5851 H   0  0  0  0  0  0  0  0  0  0  0  0
  149.6220  136.2463  157.2111 H   0  0  0  0  0  0  0  0  0  0  0  0
  151.0088  136.1951  154.4931 H   0  0  0  0  0  0  0  0  0  0  0  0
  151.6159  135.4949  155.9749 H   0  0  0  0  0  0  0  0  0  0  0  0
  150.5508  133.7786  154.5092 H   0  0  0  0  0  0  0  0  0  0  0  0
  149.7232  133.8910  156.0496 H   0  0  0  0  0  0  0  0  0  0  0  0
  147.0589  133.2299  154.5754 H   0  0  0  0  0  0  0  0  0  0  0  0
  149.9456  132.5916  153.5027 H   0  0  0  0  0  0  0  0  0  0  0  0
  148.5804  131.3716  153.6714 H   0  0  0  0  0  0  0  0  0  0  0  0
  147.1862  132.7036  152.0661 H   0  0  0  0  0  0  0  0  0  0  0  0
  148.5479  133.9267  151.8937 H   0  0  0  0  0  0  0  0  0  0  0  0
  146.8696  135.8290  154.6562 H   0  0  0  0  0  0  0  0  0  0  0  0
  147.4922  135.1317  156.1385 H   0  0  0  0  0  0  0  0  0  0  0  0
  147.8575  137.5854  156.1309 H   0  0  0  0  0  0  0  0  0  0  0  0
  148.6777  137.4934  154.5903 H   0  0  0  0  0  0  0  0  0  0  0  0
  148.8977  135.2137  153.5719 H   0  0  0  0  0  0  0  0  0  0  0  0
  1  2  2  0  0  0  0
  2  3  1  0  0  0  0
  2 15  1  0  0  0  0
  3  4  1  0  0  0  0
  3 25  1  0  0  0  0
  4 13  1  0  0  0  0
  4  5  2  0  0  0  0
  5  6  1  0  0  0  0
  5 26  1  0  0  0  0
  6  7  1  0  0  0  0
  6 11  2  0  0  0  0
  7  8  1  0  0  0  0
  7  9  1  0  0  0  0
  7 10  1  0  0  0  0
 11 12  1  0  0  0  0
 11 27  1  0  0  0  0
 12 13  1  0  0  0  0
 13 14  2  0  0  0  0
 15 16  1  0  0  0  0
 15 28  1  0  0  0  0
 16 24  1  0  0  0  0
 16 17  1  0  0  0  0
 16 29  1  0  0  0  0
 17 18  1  0  0  0  0
 17 30  1  0  0  0  0
 17 31  1  0  0  0  0
 18 19  1  0  0  0  0
 18 32  1  0  0  0  0
 18 33  1  0  0  0  0
 19 20  1  0  0  0  0
 19 23  1  0  0  0  0
 19 43  1  0  0  0  0
 20 22  1  0  0  0  0
 20 21  1  0  0  0  0
 20 34  1  0  0  0  0
 21 22  1  0  0  0  0
 21 35  1  0  0  0  0
 21 36  1  0  0  0  0
 22 37  1  0  0  0  0
 22 38  1  0  0  0  0
 23 24  1  0  0  0  0
 23 39  1  0  0  0  0
 23 40  1  0  0  0  0
 24 41  1  0  0  0  0
 24 42  1  0  0  0  0
M  CHG  1  12  -1
M  CHG  1  19   1
M  END
> <s_m_source_file>
AV-unprocessed.smi

> <i_m_source_file_index>
1760

> <i_lp_mmshare_version>
43012

> <i_f3d_flags>
0

> <s_epik_input>
W0NIMl0xW0NIMl1bQ0hdMU4oW0NIMl1bQ0gyXTIpW0NIMl1bQ0gyXVtDSF0yW05IXUMoPU8pW05IXWMzW2NIXWMoQyhGKShGKUYpW2NIXVtuSF1jMz1P

> <s_epik_cmdline>
J2VwaWtfcHl0aG9uJywgJy1waCcsICc3LjAnLCAnLXRuJywgJzgnLCAnLW1hJywgJzIwMCcsICctbWV0YWxfYmluZGluZycsICctaW1hZScsICc8aW5maWxlLm1hZT4nLCAnLW9tYWUnLCAnPG91dGZpbGUubWFlPic=

> <r_lp_tautomer_probability>
0.999

> <r_epik_Ionization_Penalty>
3.16043

> <r_epik_Ionization_Penalty_Charging>
0.268029

> <r_epik_Ionization_Penalty_Neutral>
2.8924

> <r_epik_State_Penalty>
3.0039

> <r_epik_Charging_Adjusted_Penalty>
3.27193

> <i_epik_Tot_Q>
0

> <i_epik_Tot_abs_Q>
2

> <r_epik_Metal_State_Penalty>
0.560618

> <b_epik_Metal_Only>
1

> <s_lp_Force_Field>
OPLS_2005

> <r_lp_Energy>
39.9714

> <b_lp_Chiralities_Consistent>
1

> <s_lp_Variant>
AV-unprocessed.smi:1760-4

> <Gold.Version>
5.8.1

> <Gold.Id.Protein>
6NUR|6NUR_protein|mol2

> <Gold.PLP.Fitness>
47.3634

> <Gold.PLP.PLP>
-43.7181

> <Gold.PLP.part.hbond>
-1.0000

> <Gold.PLP.part.metal>
0.0000

> <Gold.PLP.part.buried>
-6.8563

> <Gold.PLP.part.nonpolar>
-35.4360

> <Gold.PLP.part.repulsive>
0.0672

> <Gold.PLP.ligand.clash>
0.2365

> <Gold.PLP.ligand.torsion>
1.6943

> <Gold.PLP.Chemscore.Hbond>
2.0000

> <Gold.PLP.Chemscore.CHOScore>
0.0000

> <Gold.PLP.Chemscore.Metal>
0.0000

> <Gold.Chemscore.Hbonds>
donor molecule, donor type, donor heavy atom, donor atom, acceptor molecule, acceptor atom, score
      L1  H    19    43       P1  7948  2.00

> <Gold.PLP.Chemscore.Internal.Correction>
1.2704

> <Gold.Rescore>
     Score         DG    S(hbond)    S(metal)    S(lipo)     H(rot)  DE(clash)    DE(int)     intcor
     12.77     -14.80       0.96        0.00      80.35       1.28       0.02       2.02       ----

> <Gold.Chemscore.Fitness>
12.7683

> <Gold.Chemscore.DG>
-14.8039

> <Gold.Chemscore.ZeroCoef>
-5.4800

> <Gold.Chemscore.Hbond>
0.9572

> <Gold.Chemscore.Metal>
0.0000

> <Gold.Chemscore.Lipo>
80.3455

> <Gold.Chemscore.Internal_Hbond>
0.0000

> <Gold.Chemscore.DEClash>
0.0192

> <Gold.Chemscore.DEInternal>
2.0163

> <Gold.Chemscore.Rot>
1.2787

> <Gold.Chemscore.Internal.Correction>
   9.000000E+99

> <Gold.Chemscore.Hbonds>
donor molecule, donor type, donor heavy atom, donor atom, acceptor molecule, acceptor atom, score
      L1  H    19    43       P1  7948  0.64

> <Gold.Chemscore.Hbond.Weighted>
-3.1970

> <Gold.Chemscore.Metal.Weighted>
-0.0000

> <Gold.Chemscore.Lipo.Weighted>
-9.4004

> <Gold.Chemscore.Internal_Hbond.Weighted>
0.0000

> <Gold.Chemscore.DEClash.Weighted>
0.0192

> <Gold.Chemscore.DEInternal.Weighted>
2.0163

> <Gold.Chemscore.Rot.Weighted>
3.2735

> <Gold.Chemscore.Internal.Correction.Weighted>
   9.000000E+99

> <Gold.Protein.RotatedTorsions>
[ 6907 6896 6895 6894 ] final  -27.81 input  -60.11 | X-H torsion
[ 7974 7965 7964 7962 ] final  -24.81 input  175.53 | X-H torsion
[ 8008 7997 7996 7995 ] final -100.97 input   59.86 | X-H torsion
[ 10167 10162 10161 10158 ] final  169.54 input  -65.29 | X-H torsion
[ 10718 10713 10712 10709 ] final  -97.63 input   66.30 | X-H torsion
[ 10763 10752 10751 10750 ] final   13.56 input  -60.55 | X-H torsion
[ 11005 11000 10999 10996 ] final -119.42 input  -57.11 | X-H torsion

> <Gold.Protein.ActiveResidues>
 VAL166  LYS551  ARG553  GLY616  TRP617  ASP618  TYR619  PRO620  LYS621  CYS622 
 ASP623  PHE694  ASN695  SER759  ASP760  ASP761  ALA762  ILE779  LEU786  VAL792 
 PHE793  MET794  SER795  GLU796  ALA797  LYS798  CYS799  TRP800  GLU811  SER814 

> <Gold.Protein.RotatedAtoms>
  151.1417  135.0183  159.8628 H   0  0  0  0  0  0  0  0  0  0  0  0  # atno 6907 bound_to 6896
  152.5452  134.1491  159.8521 H   0  0  0  0  0  0  0  0  0  0  0  0  # atno 6908 bound_to 6896
  151.1568  133.4826  159.2627 H   0  0  0  0  0  0  0  0  0  0  0  0  # atno 6909 bound_to 6896
  146.1531  140.4802  142.8603 H   0  0  0  0  0  0  0  0  0  0  0  0  # atno 7974 bound_to 7965
  154.8361  140.0437  157.1510 H   0  0  0  0  0  0  0  0  0  0  0  0  # atno 8008 bound_to 7997
  154.9099  140.3012  155.5252 H   0  0  0  0  0  0  0  0  0  0  0  0  # atno 8009 bound_to 7997
  156.2990  140.2360  156.4136 H   0  0  0  0  0  0  0  0  0  0  0  0  # atno 8010 bound_to 7997
  139.4995  144.3694  151.9740 H   0  0  0  0  0  0  0  0  0  0  0  0  # atno 10167 bound_to 10162
  156.0088  130.5203  150.6403 H   0  0  0  0  0  0  0  0  0  0  0  0  # atno 10718 bound_to 10713
  153.1709  135.6812  153.8609 H   0  0  0  0  0  0  0  0  0  0  0  0  # atno 10763 bound_to 10752
  153.7974  135.3160  155.3387 H   0  0  0  0  0  0  0  0  0  0  0  0  # atno 10764 bound_to 10752
  154.7997  135.4785  154.0338 H   0  0  0  0  0  0  0  0  0  0  0  0  # atno 10765 bound_to 10752
  141.0216  134.0115  157.3273 H   0  0  0  0  0  0  0  0  0  0  0  0  # atno 11005 bound_to 11000
  144.7929  140.6066  143.6530 LP  0  0  0  0  0  0  0  0  0  0  0  0  # atno 17320 bound_to 7965
  145.4775  139.1498  143.3780 LP  0  0  0  0  0  0  0  0  0  0  0  0  # atno 17321 bound_to 7965
  140.3130  144.3515  150.6029 LP  0  0  0  0  0  0  0  0  0  0  0  0  # atno 17342 bound_to 10162
  140.5783  143.2174  151.7475 LP  0  0  0  0  0  0  0  0  0  0  0  0  # atno 17343 bound_to 10162
  157.4184  131.0833  151.1154 LP  0  0  0  0  0  0  0  0  0  0  0  0  # atno 17370 bound_to 10713
  157.1764  130.6290  149.5657 LP  0  0  0  0  0  0  0  0  0  0  0  0  # atno 17371 bound_to 10713
  139.9150  135.0195  156.7844 LP  0  0  0  0  0  0  0  0  0  0  0  0  # atno 17394 bound_to 11000
  140.6562  133.9686  155.7781 LP  0  0  0  0  0  0  0  0  0  0  0  0  # atno 17395 bound_to 11000

$$$$
