AV-unprocessed.smi:1867|AV-procd|sdf|7576|dock8
  -GOLD-   22720 9283D 1   1.00000     0.00000
 Structure written by MMmdl.
 52 55  0  0  0  0  0  0  0  0  4 V2000
  148.4134  137.5433  157.9179 O   0  0  0  0  0  0  0  0  0  0  0  0
  148.0665  137.7823  156.7626 C   0  0  0  0  0  0  0  0  0  0  0  0
  148.5078  138.9176  156.1664 N   0  0  0  0  0  0  0  0  0  0  0  0
  149.2674  139.9844  156.7167 C   0  0  0  0  0  0  0  0  0  0  0  0
  150.2743  139.6629  157.6500 C   0  0  0  0  0  0  0  0  0  0  0  0
  151.0714  140.6870  158.2006 C   0  0  0  0  0  0  0  0  0  0  0  0
  150.8595  142.0287  157.8047 C   0  0  0  0  0  0  0  0  0  0  0  0
  151.6219  143.1004  158.3061 N   0  0  0  0  0  0  0  0  0  0  0  0
  151.2376  144.4831  158.0722 C   0  0  0  0  0  0  0  0  0  0  0  0
  152.2167  145.3018  158.9122 C   0  0  0  0  0  0  0  0  0  0  0  0
  152.4931  144.3914  160.1089 C   0  0  0  0  0  0  0  0  0  0  0  0
  152.3945  142.9734  159.5337 C   0  0  0  0  0  0  0  0  0  0  0  0
  149.8944  142.2886  156.8907 N   0  3  0  0  0  0  0  0  0  0  0  0
  149.1082  141.3386  156.3398 C   0  0  0  0  0  0  0  0  0  0  0  0
  147.2712  136.9136  156.0670 N   0  5  0  0  0  0  0  0  0  0  0  0
  147.4150  136.4305  154.6863 C   0  0  2  0  0  0  0  0  0  0  0  0
  146.0592  136.3727  153.9568 C   0  0  0  0  0  0  0  0  0  0  0  0
  146.1300  135.1264  153.0532 C   0  0  0  0  0  0  0  0  0  0  0  0
  147.4566  134.5302  153.3043 N   0  3  2  0  0  0  0  0  0  0  0  0
  147.5932  133.0707  153.1041 C   0  0  0  0  0  0  0  0  0  0  0  0
  149.0677  132.6655  153.3055 C   0  0  0  0  0  0  0  0  0  0  0  0
  149.6187  133.1573  154.6600 C   0  0  0  0  0  0  0  0  0  0  0  0
  149.3726  134.6676  154.8475 C   0  0  0  0  0  0  0  0  0  0  0  0
  147.8724  134.9676  154.6467 C   0  0  1  0  0  0  0  0  0  0  0  0
  148.2956  138.9996  155.1831 H   0  0  0  0  0  0  0  0  0  0  0  0
  150.4365  138.6368  157.9463 H   0  0  0  0  0  0  0  0  0  0  0  0
  151.8409  140.4289  158.9128 H   0  0  0  0  0  0  0  0  0  0  0  0
  151.2962  144.7453  157.0153 H   0  0  0  0  0  0  0  0  0  0  0  0
  150.2131  144.6398  158.4127 H   0  0  0  0  0  0  0  0  0  0  0  0
  153.1390  145.4646  158.3525 H   0  0  0  0  0  0  0  0  0  0  0  0
  151.8189  146.2757  159.1992 H   0  0  0  0  0  0  0  0  0  0  0  0
  153.4553  144.5902  160.5814 H   0  0  0  0  0  0  0  0  0  0  0  0
  151.7159  144.5356  160.8606 H   0  0  0  0  0  0  0  0  0  0  0  0
  151.9271  142.2950  160.2484 H   0  0  0  0  0  0  0  0  0  0  0  0
  153.3838  142.5859  159.2888 H   0  0  0  0  0  0  0  0  0  0  0  0
  148.3973  141.7000  155.6117 H   0  0  0  0  0  0  0  0  0  0  0  0
  148.1104  137.0302  154.0960 H   0  0  0  0  0  0  0  0  0  0  0  0
  145.2321  136.2603  154.6601 H   0  0  0  0  0  0  0  0  0  0  0  0
  145.8777  137.2834  153.3851 H   0  0  0  0  0  0  0  0  0  0  0  0
  145.3389  134.4232  153.3201 H   0  0  0  0  0  0  0  0  0  0  0  0
  146.0186  135.3727  151.9965 H   0  0  0  0  0  0  0  0  0  0  0  0
  146.9496  132.5383  153.8063 H   0  0  0  0  0  0  0  0  0  0  0  0
  147.2642  132.8068  152.0985 H   0  0  0  0  0  0  0  0  0  0  0  0
  149.1711  131.5826  153.2310 H   0  0  0  0  0  0  0  0  0  0  0  0
  149.6700  133.0879  152.5003 H   0  0  0  0  0  0  0  0  0  0  0  0
  149.1340  132.6087  155.4686 H   0  0  0  0  0  0  0  0  0  0  0  0
  150.6843  132.9386  154.7337 H   0  0  0  0  0  0  0  0  0  0  0  0
  149.7000  134.9713  155.8435 H   0  0  0  0  0  0  0  0  0  0  0  0
  149.9829  135.2240  154.1332 H   0  0  0  0  0  0  0  0  0  0  0  0
  147.2955  134.3982  155.3799 H   0  0  0  0  0  0  0  0  0  0  0  0
  148.0913  134.9818  152.6616 H   0  0  0  0  0  0  0  0  0  0  0  0
  149.7530  143.2553  156.5979 H   0  0  0  0  0  0  0  0  0  0  0  0
  1  2  2  0  0  0  0
  2  3  1  0  0  0  0
  2 15  1  0  0  0  0
  3  4  1  0  0  0  0
  3 25  1  0  0  0  0
  4 14  1  0  0  0  0
  4  5  2  0  0  0  0
  5  6  1  0  0  0  0
  5 26  1  0  0  0  0
  6  7  2  0  0  0  0
  6 27  1  0  0  0  0
  7  8  1  0  0  0  0
  7 13  1  0  0  0  0
  8 12  1  0  0  0  0
  8  9  1  0  0  0  0
  9 10  1  0  0  0  0
  9 28  1  0  0  0  0
  9 29  1  0  0  0  0
 10 11  1  0  0  0  0
 10 30  1  0  0  0  0
 10 31  1  0  0  0  0
 11 12  1  0  0  0  0
 11 32  1  0  0  0  0
 11 33  1  0  0  0  0
 12 34  1  0  0  0  0
 12 35  1  0  0  0  0
 13 14  2  0  0  0  0
 13 52  1  0  0  0  0
 14 36  1  0  0  0  0
 15 16  1  0  0  0  0
 16 24  1  0  0  0  0
 16 17  1  0  0  0  0
 16 37  1  0  0  0  0
 17 18  1  0  0  0  0
 17 38  1  0  0  0  0
 17 39  1  0  0  0  0
 18 19  1  0  0  0  0
 18 40  1  0  0  0  0
 18 41  1  0  0  0  0
 19 24  1  0  0  0  0
 19 20  1  0  0  0  0
 19 51  1  0  0  0  0
 20 21  1  0  0  0  0
 20 42  1  0  0  0  0
 20 43  1  0  0  0  0
 21 22  1  0  0  0  0
 21 44  1  0  0  0  0
 21 45  1  0  0  0  0
 22 23  1  0  0  0  0
 22 46  1  0  0  0  0
 22 47  1  0  0  0  0
 23 24  1  0  0  0  0
 23 48  1  0  0  0  0
 23 49  1  0  0  0  0
 24 50  1  0  0  0  0
M  CHG  1  13   1
M  CHG  1  15  -1
M  CHG  1  19   1
M  END
> <s_m_source_file>
AV-unprocessed.smi

> <i_m_source_file_index>
1867

> <i_lp_mmshare_version>
43012

> <i_f3d_flags>
0

> <s_epik_input>
W0NIMl0xW0NIMl1bQ0gyXVtDSDJdW0NASF0oTjEyKVtDQEBIXShbQ0gyXVtDSDJdMilbTkhdQyg9TylbTkhdYzNbY0hdW2NIXWMobltjSF0zKU40W0NIMl1bQ0gyXVtDSDJdW0NIMl00

> <s_epik_cmdline>
J2VwaWtfcHl0aG9uJywgJy1waCcsICc3LjAnLCAnLXRuJywgJzgnLCAnLW1hJywgJzIwMCcsICctbWV0YWxfYmluZGluZycsICctaW1hZScsICc8aW5maWxlLm1hZT4nLCAnLW9tYWUnLCAnPG91dGZpbGUubWFlPic=

> <r_lp_tautomer_probability>
0.999994

> <r_epik_Ionization_Penalty>
8.56137

> <r_epik_Ionization_Penalty_Charging>
8.56136

> <r_epik_Ionization_Penalty_Neutral>
3.91889e-06

> <r_epik_State_Penalty>
8.16255

> <r_epik_Charging_Adjusted_Penalty>
16.7239

> <i_epik_Tot_Q>
1

> <i_epik_Tot_abs_Q>
3

> <r_epik_Metal_State_Penalty>
4.14279

> <b_epik_Metal_Only>
1

> <s_lp_Force_Field>
OPLS_2005

> <r_lp_Energy>
66.0689

> <b_lp_Chiralities_Consistent>
1

> <s_lp_Variant>
AV-unprocessed.smi:1867-17

> <Gold.Version>
5.8.1

> <Gold.Id.Protein>
6NUR|6NUR_protein|mol2

> <Gold.PLP.Fitness>
48.9772

> <Gold.PLP.PLP>
-38.6240

> <Gold.PLP.part.hbond>
-2.0000

> <Gold.PLP.part.metal>
0.0000

> <Gold.PLP.part.buried>
-4.7460

> <Gold.PLP.part.nonpolar>
-31.3398

> <Gold.PLP.part.repulsive>
0.0360

> <Gold.PLP.ligand.clash>
0.0000

> <Gold.PLP.ligand.torsion>
0.9353

> <Gold.PLP.Chemscore.Hbond>
4.0000

> <Gold.PLP.Chemscore.CHOScore>
0.0000

> <Gold.PLP.Chemscore.Metal>
0.0000

> <Gold.Chemscore.Hbonds>
donor molecule, donor type, donor heavy atom, donor atom, acceptor molecule, acceptor atom, score
      L1  H    13    52       P1  8028  2.00
      L1  H    19    51       P1  7948  2.00

> <Gold.PLP.Chemscore.Internal.Correction>
0.2239

> <Gold.Rescore>
     Score         DG    S(hbond)    S(metal)    S(lipo)     H(rot)  DE(clash)    DE(int)     intcor
     18.72     -21.07       1.96        0.00      99.16       1.00       0.06       2.28       ----

> <Gold.Chemscore.Fitness>
18.7249

> <Gold.Chemscore.DG>
-21.0716

> <Gold.Chemscore.ZeroCoef>
-5.4800

> <Gold.Chemscore.Hbond>
1.9611

> <Gold.Chemscore.Metal>
0.0000

> <Gold.Chemscore.Lipo>
99.1576

> <Gold.Chemscore.Internal_Hbond>
0.0000

> <Gold.Chemscore.DEClash>
0.0647

> <Gold.Chemscore.DEInternal>
2.2820

> <Gold.Chemscore.Rot>
1.0000

> <Gold.Chemscore.Internal.Correction>
   9.000000E+99

> <Gold.Chemscore.Hbonds>
donor molecule, donor type, donor heavy atom, donor atom, acceptor molecule, acceptor atom, score
      L1  H    13    52       P1  8028  0.98
      L1  H    19    51       P1  7948  0.85

> <Gold.Chemscore.Hbond.Weighted>
-6.5502

> <Gold.Chemscore.Metal.Weighted>
-0.0000

> <Gold.Chemscore.Lipo.Weighted>
-11.6014

> <Gold.Chemscore.Internal_Hbond.Weighted>
0.0000

> <Gold.Chemscore.DEClash.Weighted>
0.0647

> <Gold.Chemscore.DEInternal.Weighted>
2.2820

> <Gold.Chemscore.Rot.Weighted>
2.5600

> <Gold.Chemscore.Internal.Correction.Weighted>
   9.000000E+99

> <Gold.Protein.RotatedTorsions>
[ 6907 6896 6895 6894 ] final   39.42 input  -60.11 | X-H torsion
[ 7974 7965 7964 7962 ] final    5.48 input  175.53 | X-H torsion
[ 8008 7997 7996 7995 ] final  -96.14 input   59.86 | X-H torsion
[ 10167 10162 10161 10158 ] final   -2.96 input  -65.29 | X-H torsion
[ 10718 10713 10712 10709 ] final   72.24 input   66.30 | X-H torsion
[ 10763 10752 10751 10750 ] final   53.28 input  -60.55 | X-H torsion
[ 11005 11000 10999 10996 ] final   -9.52 input  -57.11 | X-H torsion

> <Gold.Protein.ActiveResidues>
 VAL166  LYS551  ARG553  GLY616  TRP617  ASP618  TYR619  PRO620  LYS621  CYS622 
 ASP623  PHE694  ASN695  SER759  ASP760  ASP761  ALA762  ILE779  LEU786  VAL792 
 PHE793  MET794  SER795  GLU796  ALA797  LYS798  CYS799  TRP800  GLU811  SER814 

> <Gold.Protein.RotatedAtoms>
  152.1694  134.8847  160.0535 H   0  0  0  0  0  0  0  0  0  0  0  0  # atno 6907 bound_to 6896
  151.9813  133.3753  159.4116 H   0  0  0  0  0  0  0  0  0  0  0  0  # atno 6908 bound_to 6896
  150.6899  134.3959  159.5141 H   0  0  0  0  0  0  0  0  0  0  0  0  # atno 6909 bound_to 6896
  146.2440  140.0378  142.8384 H   0  0  0  0  0  0  0  0  0  0  0  0  # atno 7974 bound_to 7965
  154.7705  140.0474  157.1047 H   0  0  0  0  0  0  0  0  0  0  0  0  # atno 8008 bound_to 7997
  154.9826  140.3103  155.4920 H   0  0  0  0  0  0  0  0  0  0  0  0  # atno 8009 bound_to 7997
  156.2920  140.2233  156.4926 H   0  0  0  0  0  0  0  0  0  0  0  0  # atno 8010 bound_to 7997
  140.6871  143.6596  150.8278 H   0  0  0  0  0  0  0  0  0  0  0  0  # atno 10167 bound_to 10162
  157.6491  130.9569  150.0901 H   0  0  0  0  0  0  0  0  0  0  0  0  # atno 10718 bound_to 10713
  152.9794  135.5784  154.4715 H   0  0  0  0  0  0  0  0  0  0  0  0  # atno 10763 bound_to 10752
  154.4277  135.2773  155.1935 H   0  0  0  0  0  0  0  0  0  0  0  0  # atno 10764 bound_to 10752
  154.3657  135.6179  153.5767 H   0  0  0  0  0  0  0  0  0  0  0  0  # atno 10765 bound_to 10752
  140.7351  133.8717  155.8923 H   0  0  0  0  0  0  0  0  0  0  0  0  # atno 11005 bound_to 11000
  145.1097  140.9397  143.4664 LP  0  0  0  0  0  0  0  0  0  0  0  0  # atno 17320 bound_to 7965
  145.0589  139.3121  143.5890 LP  0  0  0  0  0  0  0  0  0  0  0  0  # atno 17321 bound_to 7965
  140.0304  143.5449  152.2762 LP  0  0  0  0  0  0  0  0  0  0  0  0  # atno 17342 bound_to 10162
  139.6240  144.7634  151.2679 LP  0  0  0  0  0  0  0  0  0  0  0  0  # atno 17343 bound_to 10162
  156.1853  130.3652  149.8981 LP  0  0  0  0  0  0  0  0  0  0  0  0  # atno 17370 bound_to 10713
  156.6923  130.8900  151.3589 LP  0  0  0  0  0  0  0  0  0  0  0  0  # atno 17371 bound_to 10713
  140.9887  134.1308  157.4428 LP  0  0  0  0  0  0  0  0  0  0  0  0  # atno 17394 bound_to 11000
  139.8818  135.0033  156.6182 LP  0  0  0  0  0  0  0  0  0  0  0  0  # atno 17395 bound_to 11000

$$$$
