AV-unprocessed.smi:1804|AV-procd|sdf|7296|dock3
  -GOLD-   22720 8553D 1   1.00000     0.00000
 Structure written by MMmdl.
 43 44  0  0  0  0  0  0  0  0  3 V2000
  149.4239  139.5408  154.5924 C   0  0  0  0  0  0  0  0  0  0  0  0
  150.4531  139.2989  155.6385 N   0  3  0  0  0  0  0  0  0  0  0  0
  151.3381  138.1795  155.2203 C   0  0  0  0  0  0  0  0  0  0  0  0
  149.9356  139.2356  157.0536 C   0  0  0  0  0  0  0  0  0  0  0  0
  149.0482  137.9590  157.2284 C   0  0  0  0  0  0  0  0  0  0  0  0
  148.3824  137.8763  158.5288 N   0  0  0  0  0  0  0  0  0  0  0  0
  148.5739  136.9379  159.4671 C   0  0  0  0  0  0  0  0  0  0  0  0
  149.3842  136.0283  159.2763 O   0  0  0  0  0  0  0  0  0  0  0  0
  147.8087  137.1107  160.5677 N   0  5  0  0  0  0  0  0  0  0  0  0
  147.2249  136.0508  161.1508 C   0  0  0  0  0  0  0  0  0  0  0  0
  146.5260  135.1410  160.4531 N   0  0  0  0  0  0  0  0  0  0  0  0
  146.0049  134.1278  161.2466 N   0  0  0  0  0  0  0  0  0  0  0  0
  146.3184  134.3053  162.5298 C   0  0  0  0  0  0  0  0  0  0  0  0
  147.2755  135.7275  162.8859 S   0  0  0  0  0  0  0  0  0  0  0  0
  151.0970  139.1439  158.0983 C   0  0  0  0  0  0  0  0  0  0  0  0
  152.2156  140.2015  158.0396 C   0  0  0  0  0  0  0  0  0  0  0  0
  151.7563  141.6512  158.2398 C   0  0  0  0  0  0  0  0  0  0  0  0
  151.0460  142.2103  157.0030 C   0  0  0  0  0  0  0  0  0  0  0  0
  149.5468  141.8887  156.9153 C   0  0  0  0  0  0  0  0  0  0  0  0
  149.0740  140.4948  157.3911 C   0  0  0  0  0  0  0  0  0  0  0  0
  148.8333  138.6455  154.3973 H   0  0  0  0  0  0  0  0  0  0  0  0
  149.9078  139.8178  153.6553 H   0  0  0  0  0  0  0  0  0  0  0  0
  148.7366  140.3466  154.8406 H   0  0  0  0  0  0  0  0  0  0  0  0
  150.7973  137.2343  155.1752 H   0  0  0  0  0  0  0  0  0  0  0  0
  152.1999  138.0477  155.8708 H   0  0  0  0  0  0  0  0  0  0  0  0
  151.7350  138.3731  154.2233 H   0  0  0  0  0  0  0  0  0  0  0  0
  148.3064  137.8809  156.4339 H   0  0  0  0  0  0  0  0  0  0  0  0
  149.6559  137.0587  157.1455 H   0  0  0  0  0  0  0  0  0  0  0  0
  147.7073  138.5973  158.7382 H   0  0  0  0  0  0  0  0  0  0  0  0
  145.9814  133.5969  163.2716 H   0  0  0  0  0  0  0  0  0  0  0  0
  150.6814  139.1768  159.1063 H   0  0  0  0  0  0  0  0  0  0  0  0
  151.5639  138.1603  158.0392 H   0  0  0  0  0  0  0  0  0  0  0  0
  152.9311  139.9652  158.8280 H   0  0  0  0  0  0  0  0  0  0  0  0
  152.7793  140.1208  157.1107 H   0  0  0  0  0  0  0  0  0  0  0  0
  151.1365  141.7526  159.1315 H   0  0  0  0  0  0  0  0  0  0  0  0
  152.6438  142.2584  158.4219 H   0  0  0  0  0  0  0  0  0  0  0  0
  151.1560  143.2953  156.9932 H   0  0  0  0  0  0  0  0  0  0  0  0
  151.5539  141.8660  156.1016 H   0  0  0  0  0  0  0  0  0  0  0  0
  149.0021  142.6314  157.4997 H   0  0  0  0  0  0  0  0  0  0  0  0
  149.2267  142.0572  155.8876 H   0  0  0  0  0  0  0  0  0  0  0  0
  148.0635  140.3574  157.0051 H   0  0  0  0  0  0  0  0  0  0  0  0
  148.9357  140.5449  158.4721 H   0  0  0  0  0  0  0  0  0  0  0  0
  151.0404  140.1205  155.6269 H   0  0  0  0  0  0  0  0  0  0  0  0
  1  2  1  0  0  0  0
  1 21  1  0  0  0  0
  1 22  1  0  0  0  0
  1 23  1  0  0  0  0
  2  3  1  0  0  0  0
  2  4  1  0  0  0  0
  2 43  1  0  0  0  0
  3 24  1  0  0  0  0
  3 25  1  0  0  0  0
  3 26  1  0  0  0  0
  4 20  1  0  0  0  0
  4  5  1  0  0  0  0
  4 15  1  0  0  0  0
  5  6  1  0  0  0  0
  5 27  1  0  0  0  0
  5 28  1  0  0  0  0
  6  7  1  0  0  0  0
  6 29  1  0  0  0  0
  7  8  2  0  0  0  0
  7  9  1  0  0  0  0
  9 10  1  0  0  0  0
 10 14  1  0  0  0  0
 10 11  2  0  0  0  0
 11 12  1  0  0  0  0
 12 13  2  0  0  0  0
 13 14  1  0  0  0  0
 13 30  1  0  0  0  0
 15 16  1  0  0  0  0
 15 31  1  0  0  0  0
 15 32  1  0  0  0  0
 16 17  1  0  0  0  0
 16 33  1  0  0  0  0
 16 34  1  0  0  0  0
 17 18  1  0  0  0  0
 17 35  1  0  0  0  0
 17 36  1  0  0  0  0
 18 19  1  0  0  0  0
 18 37  1  0  0  0  0
 18 38  1  0  0  0  0
 19 20  1  0  0  0  0
 19 39  1  0  0  0  0
 19 40  1  0  0  0  0
 20 41  1  0  0  0  0
 20 42  1  0  0  0  0
M  CHG  1   2   1
M  CHG  1   9  -1
M  END
> <s_m_source_file>
AV-unprocessed.smi

> <i_m_source_file_index>
1804

> <i_lp_mmshare_version>
43012

> <i_f3d_flags>
0

> <s_epik_input>
W0NIMl0xW0NIMl1bQ0gyXVtDSDJdW0NIMl1bQ0gyXUMxKE4oW0NIM10pW0NIM10pW0NIMl1bTkhdQyg9TylbTkhdYzJubltjSF1zMg==

> <s_epik_cmdline>
J2VwaWtfcHl0aG9uJywgJy1waCcsICc3LjAnLCAnLXRuJywgJzgnLCAnLW1hJywgJzIwMCcsICctbWV0YWxfYmluZGluZycsICctaW1hZScsICc8aW5maWxlLm1hZT4nLCAnLW9tYWUnLCAnPG91dGZpbGUubWFlPic=

> <r_lp_tautomer_probability>
1

> <r_epik_Ionization_Penalty>
3.99544

> <r_epik_Ionization_Penalty_Charging>
3.96227

> <r_epik_Ionization_Penalty_Neutral>
0.0331711

> <r_epik_State_Penalty>
3.95985

> <r_epik_Charging_Adjusted_Penalty>
7.92213

> <i_epik_Tot_Q>
0

> <i_epik_Tot_abs_Q>
2

> <r_epik_Metal_State_Penalty>
0.609364

> <b_epik_Metal_Only>
1

> <s_lp_Force_Field>
OPLS_2005

> <r_lp_Energy>
27.9036

> <b_lp_Chiralities_Consistent>
1

> <s_lp_Variant>
AV-unprocessed.smi:1804-2

> <Gold.Version>
5.8.1

> <Gold.Id.Protein>
6NUR|6NUR_protein|mol2

> <Gold.PLP.Fitness>
42.0815

> <Gold.PLP.PLP>
-30.7189

> <Gold.PLP.part.hbond>
-3.0000

> <Gold.PLP.part.metal>
0.0000

> <Gold.PLP.part.buried>
-4.9815

> <Gold.PLP.part.nonpolar>
-24.8148

> <Gold.PLP.part.repulsive>
0.2139

> <Gold.PLP.ligand.clash>
0.0000

> <Gold.PLP.ligand.torsion>
0.8277

> <Gold.PLP.Chemscore.Hbond>
4.2989

> <Gold.PLP.Chemscore.CHOScore>
0.0000

> <Gold.PLP.Chemscore.Metal>
0.0000

> <Gold.Chemscore.Hbonds>
donor molecule, donor type, donor heavy atom, donor atom, acceptor molecule, acceptor atom, score
      P1  H  6896  6907       L1     8  1.00
      P1  H  6931  6943       L1     9  1.19
      P1  H  6934  6947       L1     9  1.72

> <Gold.PLP.Chemscore.Internal.Correction>
0.1215

> <Gold.Rescore>
     Score         DG    S(hbond)    S(metal)    S(lipo)     H(rot)  DE(clash)    DE(int)     intcor
     16.14     -16.90       2.24        0.00      69.19       1.62       0.01       0.75       ----

> <Gold.Chemscore.Fitness>
16.1365

> <Gold.Chemscore.DG>
-16.8962

> <Gold.Chemscore.ZeroCoef>
-5.4800

> <Gold.Chemscore.Hbond>
2.2391

> <Gold.Chemscore.Metal>
0.0000

> <Gold.Chemscore.Lipo>
69.1933

> <Gold.Chemscore.Internal_Hbond>
0.0000

> <Gold.Chemscore.DEClash>
0.0110

> <Gold.Chemscore.DEInternal>
0.7487

> <Gold.Chemscore.Rot>
1.6242

> <Gold.Chemscore.Internal.Correction>
   9.000000E+99

> <Gold.Chemscore.Hbonds>
donor molecule, donor type, donor heavy atom, donor atom, acceptor molecule, acceptor atom, score
      P1  H  6896  6907       L1     8  1.00
      P1  H  6931  6943       L1     9  0.23
      P1  H  6934  6947       L1     9  0.71

> <Gold.Chemscore.Hbond.Weighted>
-7.4785

> <Gold.Chemscore.Metal.Weighted>
-0.0000

> <Gold.Chemscore.Lipo.Weighted>
-8.0956

> <Gold.Chemscore.Internal_Hbond.Weighted>
0.0000

> <Gold.Chemscore.DEClash.Weighted>
0.0110

> <Gold.Chemscore.DEInternal.Weighted>
0.7487

> <Gold.Chemscore.Rot.Weighted>
4.1579

> <Gold.Chemscore.Internal.Correction.Weighted>
   9.000000E+99

> <Gold.Protein.RotatedTorsions>
[ 6907 6896 6895 6894 ] final  -54.24 input  -60.11 | X-H torsion
[ 7974 7965 7964 7962 ] final  154.62 input  175.53 | X-H torsion
[ 8008 7997 7996 7995 ] final  177.74 input   59.86 | X-H torsion
[ 10167 10162 10161 10158 ] final  -14.07 input  -65.29 | X-H torsion
[ 10718 10713 10712 10709 ] final  150.41 input   66.30 | X-H torsion
[ 10763 10752 10751 10750 ] final  -98.71 input  -60.55 | X-H torsion
[ 11005 11000 10999 10996 ] final  -17.87 input  -57.11 | X-H torsion

> <Gold.Protein.ActiveResidues>
 VAL166  LYS551  ARG553  GLY616  TRP617  ASP618  TYR619  PRO620  LYS621  CYS622 
 ASP623  PHE694  ASN695  SER759  ASP760  ASP761  ALA762  ILE779  LEU786  VAL792 
 PHE793  MET794  SER795  GLU796  ALA797  LYS798  CYS799  TRP800  GLU811  SER814 

> <Gold.Protein.RotatedAtoms>
  150.8355  134.7626  159.6889 H   0  0  0  0  0  0  0  0  0  0  0  0  # atno 6907 bound_to 6896
  152.4452  134.5505  159.9875 H   0  0  0  0  0  0  0  0  0  0  0  0  # atno 6908 bound_to 6896
  151.5656  133.3359  159.3015 H   0  0  0  0  0  0  0  0  0  0  0  0  # atno 6909 bound_to 6896
  144.8077  139.6958  143.6155 H   0  0  0  0  0  0  0  0  0  0  0  0  # atno 7974 bound_to 7965
  156.0623  140.1351  156.9926 H   0  0  0  0  0  0  0  0  0  0  0  0  # atno 8008 bound_to 7997
  154.4488  140.0989  156.6607 H   0  0  0  0  0  0  0  0  0  0  0  0  # atno 8009 bound_to 7997
  155.5358  140.3459  155.4438 H   0  0  0  0  0  0  0  0  0  0  0  0  # atno 8010 bound_to 7997
  140.7194  143.5360  150.9464 H   0  0  0  0  0  0  0  0  0  0  0  0  # atno 10167 bound_to 10162
  157.2838  131.0840  151.1512 H   0  0  0  0  0  0  0  0  0  0  0  0  # atno 10718 bound_to 10713
  154.7437  135.4999  153.9166 H   0  0  0  0  0  0  0  0  0  0  0  0  # atno 10763 bound_to 10752
  153.1069  135.6699  153.9578 H   0  0  0  0  0  0  0  0  0  0  0  0  # atno 10764 bound_to 10752
  153.9348  135.3074  155.3423 H   0  0  0  0  0  0  0  0  0  0  0  0  # atno 10765 bound_to 10752
  140.8211  133.8067  155.9660 H   0  0  0  0  0  0  0  0  0  0  0  0  # atno 11005 bound_to 11000
  146.2371  139.5926  142.9516 LP  0  0  0  0  0  0  0  0  0  0  0  0  # atno 17320 bound_to 7965
  145.5399  141.0421  143.2336 LP  0  0  0  0  0  0  0  0  0  0  0  0  # atno 17321 bound_to 7965
  139.9082  143.6753  152.3120 LP  0  0  0  0  0  0  0  0  0  0  0  0  # atno 17342 bound_to 10162
  139.7126  144.7617  151.1087 LP  0  0  0  0  0  0  0  0  0  0  0  0  # atno 17343 bound_to 10162
  157.2936  130.6808  149.6127 LP  0  0  0  0  0  0  0  0  0  0  0  0  # atno 17370 bound_to 10713
  155.9665  130.4413  150.5336 LP  0  0  0  0  0  0  0  0  0  0  0  0  # atno 17371 bound_to 10713
  140.9098  134.2275  157.4993 LP  0  0  0  0  0  0  0  0  0  0  0  0  # atno 17394 bound_to 11000
  139.8708  134.9745  156.4847 LP  0  0  0  0  0  0  0  0  0  0  0  0  # atno 17395 bound_to 11000

$$$$
