AV-unprocessed.smi:522|AV-procd|sdf|2801|dock6
  -GOLD-   2262023273D 1   1.00000     0.00000
 Structure written by MMmdl.
 41 42  0  0  0  0  0  0  0  0  1 V2000
  148.6082  141.3364  154.1738 C   0  0  0  0  0  0  0  0  0  0  0  0
  149.8713  140.7276  154.3773 O   0  0  0  0  0  0  0  0  0  0  0  0
  149.8589  139.8214  155.4687 C   0  0  0  0  0  0  0  0  0  0  0  0
  149.5790  140.5720  156.7776 C   0  0  0  0  0  0  0  0  0  0  0  0
  150.6543  140.4037  157.7442 N   0  0  0  0  0  0  0  0  0  0  0  0
  151.1232  139.2540  158.2900 C   0  0  0  0  0  0  0  0  0  0  0  0
  150.4428  137.6783  157.8656 S   0  0  0  0  0  0  0  0  0  0  0  0
  149.3487  137.4101  159.2945 C   0  0  0  0  0  0  0  0  0  0  0  0
  148.9298  135.9428  159.4115 C   0  0  0  0  0  0  0  0  0  0  0  0
  149.3525  135.1601  158.5597 O   0  0  0  0  0  0  0  0  0  0  0  0
  148.0402  135.5664  160.5448 C   0  0  0  0  0  0  0  0  0  0  0  0
  147.5375  136.5549  161.4456 C   0  0  0  0  0  0  0  0  0  0  0  0
  147.1394  137.3685  162.1669 N   0  0  0  0  0  0  0  0  0  0  0  0
  147.6629  134.2801  160.7744 C   0  0  0  0  0  0  0  0  0  0  0  0
  146.7545  133.9007  161.9341 C   0  0  0  0  0  0  0  0  0  0  0  0
  148.0358  133.1811  160.0179 N   0  0  0  0  0  0  0  0  0  0  0  0
  152.1329  139.3980  159.1504 N   0  0  0  0  0  0  0  0  0  0  0  0
  152.3215  140.7651  159.1798 C   0  0  0  0  0  0  0  0  0  0  0  0
  153.2398  141.5510  159.9119 C   0  0  0  0  0  0  0  0  0  0  0  0
  153.2441  142.9547  159.7763 C   0  0  0  0  0  0  0  0  0  0  0  0
  152.3337  143.5909  158.9077 C   0  0  0  0  0  0  0  0  0  0  0  0
  151.4112  142.8257  158.1684 C   0  0  0  0  0  0  0  0  0  0  0  0
  151.4106  141.4251  158.3088 C   0  0  0  0  0  0  0  0  0  0  0  0
  148.6636  142.0339  153.3398 H   0  0  0  0  0  0  0  0  0  0  0  0
  148.2924  141.8950  155.0555 H   0  0  0  0  0  0  0  0  0  0  0  0
  147.8461  140.5924  153.9378 H   0  0  0  0  0  0  0  0  0  0  0  0
  149.0930  139.0605  155.3118 H   0  0  0  0  0  0  0  0  0  0  0  0
  150.8187  139.3065  155.5354 H   0  0  0  0  0  0  0  0  0  0  0  0
  149.4184  141.6319  156.5829 H   0  0  0  0  0  0  0  0  0  0  0  0
  148.6548  140.2040  157.2242 H   0  0  0  0  0  0  0  0  0  0  0  0
  149.8754  137.7060  160.2018 H   0  0  0  0  0  0  0  0  0  0  0  0
  148.4690  138.0493  159.2208 H   0  0  0  0  0  0  0  0  0  0  0  0
  147.2124  134.1815  162.8833 H   0  0  0  0  0  0  0  0  0  0  0  0
  146.5563  132.8282  161.9659 H   0  0  0  0  0  0  0  0  0  0  0  0
  145.7955  134.4135  161.8506 H   0  0  0  0  0  0  0  0  0  0  0  0
  148.6380  133.2647  159.2114 H   0  0  0  0  0  0  0  0  0  0  0  0
  147.7074  132.2506  160.2377 H   0  0  0  0  0  0  0  0  0  0  0  0
  153.9416  141.0732  160.5793 H   0  0  0  0  0  0  0  0  0  0  0  0
  153.9496  143.5461  160.3413 H   0  0  0  0  0  0  0  0  0  0  0  0
  152.3439  144.6667  158.8098 H   0  0  0  0  0  0  0  0  0  0  0  0
  150.7119  143.3095  157.5027 H   0  0  0  0  0  0  0  0  0  0  0  0
  1  2  1  0  0  0  0
  1 24  1  0  0  0  0
  1 25  1  0  0  0  0
  1 26  1  0  0  0  0
  2  3  1  0  0  0  0
  3  4  1  0  0  0  0
  3 27  1  0  0  0  0
  3 28  1  0  0  0  0
  4  5  1  0  0  0  0
  4 29  1  0  0  0  0
  4 30  1  0  0  0  0
  5 23  1  0  0  0  0
  5  6  1  0  0  0  0
  6  7  1  0  0  0  0
  6 17  2  0  0  0  0
  7  8  1  0  0  0  0
  8  9  1  0  0  0  0
  8 31  1  0  0  0  0
  8 32  1  0  0  0  0
  9 10  2  0  0  0  0
  9 11  1  0  0  0  0
 11 12  1  0  0  0  0
 11 14  2  0  0  0  0
 12 13  3  0  0  0  0
 14 15  1  0  0  0  0
 14 16  1  0  0  0  0
 15 33  1  0  0  0  0
 15 34  1  0  0  0  0
 15 35  1  0  0  0  0
 16 36  1  0  0  0  0
 16 37  1  0  0  0  0
 17 18  1  0  0  0  0
 18 23  2  0  0  0  0
 18 19  1  0  0  0  0
 19 20  2  0  0  0  0
 19 38  1  0  0  0  0
 20 21  1  0  0  0  0
 20 39  1  0  0  0  0
 21 22  2  0  0  0  0
 21 40  1  0  0  0  0
 22 23  1  0  0  0  0
 22 41  1  0  0  0  0
M  END
> <s_m_source_file>
AV-unprocessed.smi

> <i_m_source_file_index>
522

> <i_lp_mmshare_version>
43012

> <i_f3d_flags>
0

> <s_epik_input>
W2NIXTFbY0hdW2NIXVtjSF1jKGMxMiluKFtDSDJdW0NIMl1PW0NIM10pYyhuMilTW0NIMl1DKD1PKS9DKEMjTik9QygvW0NIM10pW05IMl0=

> <s_epik_cmdline>
J2VwaWtfcHl0aG9uJywgJy1waCcsICc3LjAnLCAnLXRuJywgJzgnLCAnLW1hJywgJzIwMCcsICctbWV0YWxfYmluZGluZycsICctaW1hZScsICc8aW5maWxlLm1hZT4nLCAnLW9tYWUnLCAnPG91dGZpbGUubWFlPic=

> <r_lp_tautomer_probability>
0.5

> <r_epik_Ionization_Penalty>
0.0129021

> <r_epik_Ionization_Penalty_Charging>
0

> <r_epik_Ionization_Penalty_Neutral>
0.0129021

> <r_epik_State_Penalty>
0.42069

> <r_epik_Charging_Adjusted_Penalty>
0.42069

> <i_epik_Tot_Q>
0

> <i_epik_Tot_abs_Q>
0

> <r_epik_Metal_State_Penalty>
0.41068

> <b_epik_Metal_Only>
0

> <s_lp_Force_Field>
OPLS_2005

> <r_lp_Energy>
14.5632

> <b_lp_Chiralities_Consistent>
1

> <s_lp_Variant>
AV-unprocessed.smi:522-1

> <Gold.Version>
5.8.1

> <Gold.Id.Protein>
6NUR|6NUR_protein|mol2

> <Gold.PLP.Fitness>
50.0821

> <Gold.PLP.PLP>
-43.9797

> <Gold.PLP.part.hbond>
-4.0000

> <Gold.PLP.part.metal>
0.0000

> <Gold.PLP.part.buried>
-3.9445

> <Gold.PLP.part.nonpolar>
-35.9211

> <Gold.PLP.part.repulsive>
0.2059

> <Gold.PLP.ligand.clash>
0.0000

> <Gold.PLP.ligand.torsion>
0.7426

> <Gold.PLP.Chemscore.Hbond>
2.4956

> <Gold.PLP.Chemscore.CHOScore>
0.0000

> <Gold.PLP.Chemscore.Metal>
0.0000

> <Gold.Chemscore.Hbonds>
donor molecule, donor type, donor heavy atom, donor atom, acceptor molecule, acceptor atom, score
      P1  H  6896  6909       L1    10  1.00
      P1  H  6931  6943       L1    13  0.18
      P1  H  6934  6947       L1    13  0.64
      P1  H  7989  7998       L1     2  0.70

> <Gold.PLP.Chemscore.Internal.Correction>
0.1008

> <Gold.Rescore>
     Score         DG    S(hbond)    S(metal)    S(lipo)     H(rot)  DE(clash)    DE(int)     intcor
     18.54     -19.71       2.46        0.00     102.38       2.33       0.28       0.88       ----

> <Gold.Chemscore.Fitness>
18.5434

> <Gold.Chemscore.DG>
-19.7058

> <Gold.Chemscore.ZeroCoef>
-5.4800

> <Gold.Chemscore.Hbond>
2.4571

> <Gold.Chemscore.Metal>
0.0000

> <Gold.Chemscore.Lipo>
102.3843

> <Gold.Chemscore.Internal_Hbond>
0.0000

> <Gold.Chemscore.DEClash>
0.2814

> <Gold.Chemscore.DEInternal>
0.8810

> <Gold.Chemscore.Rot>
2.3280

> <Gold.Chemscore.Internal.Correction>
   9.000000E+99

> <Gold.Chemscore.Hbonds>
donor molecule, donor type, donor heavy atom, donor atom, acceptor molecule, acceptor atom, score
      P1  H  6896  6909       L1    10  0.44
      P1  H  6934  6947       L1    13  0.21
      P1  H  7989  7998       L1     2  0.63

> <Gold.Chemscore.Hbond.Weighted>
-8.2066

> <Gold.Chemscore.Metal.Weighted>
-0.0000

> <Gold.Chemscore.Lipo.Weighted>
-11.9790

> <Gold.Chemscore.Internal_Hbond.Weighted>
0.0000

> <Gold.Chemscore.DEClash.Weighted>
0.2814

> <Gold.Chemscore.DEInternal.Weighted>
0.8810

> <Gold.Chemscore.Rot.Weighted>
5.9598

> <Gold.Chemscore.Internal.Correction.Weighted>
   9.000000E+99

> <Gold.Protein.RotatedTorsions>
[ 6907 6896 6895 6894 ] final   26.60 input  -60.11 | X-H torsion
[ 7974 7965 7964 7962 ] final  -36.12 input  175.53 | X-H torsion
[ 8008 7997 7996 7995 ] final -100.11 input   59.86 | X-H torsion
[ 10167 10162 10161 10158 ] final   78.99 input  -65.29 | X-H torsion
[ 10718 10713 10712 10709 ] final    1.56 input   66.30 | X-H torsion
[ 10763 10752 10751 10750 ] final   77.12 input  -60.55 | X-H torsion
[ 11005 11000 10999 10996 ] final -130.36 input  -57.11 | X-H torsion

> <Gold.Protein.ActiveResidues>
 VAL166  LYS551  ARG553  GLY616  TRP617  ASP618  TYR619  PRO620  LYS621  CYS622 
 ASP623  PHE694  ASN695  SER759  ASP760  ASP761  ALA762  ILE779  LEU786  VAL792 
 PHE793  MET794  SER795  GLU796  ALA797  LYS798  CYS799  TRP800  GLU811  SER814 

> <Gold.Protein.RotatedAtoms>
  151.9898  134.9985  160.0560 H   0  0  0  0  0  0  0  0  0  0  0  0  # atno 6907 bound_to 6896
  152.1619  133.4582  159.4873 H   0  0  0  0  0  0  0  0  0  0  0  0  # atno 6908 bound_to 6896
  150.6889  134.1979  159.4353 H   0  0  0  0  0  0  0  0  0  0  0  0  # atno 6909 bound_to 6896
  146.0688  140.6241  142.8962 H   0  0  0  0  0  0  0  0  0  0  0  0  # atno 7974 bound_to 7965
  154.8240  140.0443  157.1431 H   0  0  0  0  0  0  0  0  0  0  0  0  # atno 8008 bound_to 7997
  154.9227  140.3029  155.5188 H   0  0  0  0  0  0  0  0  0  0  0  0  # atno 8009 bound_to 7997
  156.2982  140.2337  156.4279 H   0  0  0  0  0  0  0  0  0  0  0  0  # atno 8010 bound_to 7997
  139.9650  144.5934  150.8037 H   0  0  0  0  0  0  0  0  0  0  0  0  # atno 10167 bound_to 10162
  156.8500  130.5550  149.5670 H   0  0  0  0  0  0  0  0  0  0  0  0  # atno 10718 bound_to 10713
  153.0775  135.4926  154.8434 H   0  0  0  0  0  0  0  0  0  0  0  0  # atno 10763 bound_to 10752
  154.7107  135.3019  154.9204 H   0  0  0  0  0  0  0  0  0  0  0  0  # atno 10764 bound_to 10752
  153.9899  135.6779  153.4806 H   0  0  0  0  0  0  0  0  0  0  0  0  # atno 10765 bound_to 10752
  140.9352  134.1266  157.4199 H   0  0  0  0  0  0  0  0  0  0  0  0  # atno 11005 bound_to 11000
  144.7219  140.4401  143.7002 LP  0  0  0  0  0  0  0  0  0  0  0  0  # atno 17320 bound_to 7965
  145.6428  139.1552  143.2906 LP  0  0  0  0  0  0  0  0  0  0  0  0  # atno 17321 bound_to 7965
  140.7541  143.3020  151.3057 LP  0  0  0  0  0  0  0  0  0  0  0  0  # atno 17342 bound_to 10162
  139.6524  144.0337  152.2636 LP  0  0  0  0  0  0  0  0  0  0  0  0  # atno 17343 bound_to 10162
  156.0833  130.5838  150.9603 LP  0  0  0  0  0  0  0  0  0  0  0  0  # atno 17370 bound_to 10713
  157.6308  131.0921  150.8444 LP  0  0  0  0  0  0  0  0  0  0  0  0  # atno 17371 bound_to 10713
  139.8806  135.0018  156.6092 LP  0  0  0  0  0  0  0  0  0  0  0  0  # atno 17394 bound_to 11000
  140.7808  133.8661  155.8566 LP  0  0  0  0  0  0  0  0  0  0  0  0  # atno 17395 bound_to 11000

$$$$
