AV-unprocessed.smi:2684|AV-procd|sdf|10380|dock8
  -GOLD-   2272014413D 1   1.00000     0.00000
 Structure written by MMmdl.
 44 45  0  0  0  0  0  0  0  0  1 V2000
  150.8833  142.2181  157.9500 C   0  0  0  0  0  0  0  0  0  0  0  0
  150.5343  141.4279  156.7228 C   0  0  0  0  0  0  0  0  0  0  0  0
  151.2368  140.3229  156.1639 C   0  0  0  0  0  0  0  0  0  0  0  0
  150.6691  139.8553  155.0642 N   0  0  0  0  0  0  0  0  0  0  0  0
  149.5805  140.6350  154.8892 N   0  0  0  0  0  0  0  0  0  0  0  0
  148.7047  140.4142  153.7521 C   0  0  0  0  0  0  0  0  0  0  0  0
  147.7461  139.2140  153.9259 C   0  0  2  0  0  0  0  0  0  0  0  0
  148.3496  138.1685  154.8740 C   0  0  0  0  0  0  0  0  0  0  0  0
  147.5074  138.5484  152.6475 N   0  0  0  0  0  0  0  0  0  0  0  0
  146.0777  138.3327  152.3910 C   0  0  0  0  0  0  0  0  0  0  0  0
  145.7473  136.8412  152.2415 C   0  0  0  0  0  0  0  0  0  0  0  0
  145.9112  136.0956  153.2056 O   0  0  0  0  0  0  0  0  0  0  0  0
  145.2757  136.3562  151.0787 N   0  0  0  0  0  0  0  0  0  0  0  0
  144.9058  134.9834  150.7398 C   0  0  0  0  0  0  0  0  0  0  0  0
  143.7226  134.4884  151.5929 C   0  0  0  0  0  0  0  0  0  0  0  0
  143.4598  132.9957  151.3393 C   0  0  0  0  0  0  0  0  0  0  0  0
  144.6346  132.2418  151.6170 O   0  0  0  0  0  0  0  0  0  0  0  0
  145.7271  132.5862  150.7727 C   0  0  0  0  0  0  0  0  0  0  0  0
  146.1114  134.0607  150.9770 C   0  0  0  0  0  0  0  0  0  0  0  0
  149.4776  141.5947  155.8733 C   0  0  0  0  0  0  0  0  0  0  0  0
  151.4885  141.6379  158.6468 H   0  0  0  0  0  0  0  0  0  0  0  0
  149.9917  142.5401  158.4885 H   0  0  0  0  0  0  0  0  0  0  0  0
  151.4506  143.1152  157.7009 H   0  0  0  0  0  0  0  0  0  0  0  0
  152.1410  139.8523  156.5207 H   0  0  0  0  0  0  0  0  0  0  0  0
  148.1400  141.3288  153.5635 H   0  0  0  0  0  0  0  0  0  0  0  0
  149.3368  140.2591  152.8764 H   0  0  0  0  0  0  0  0  0  0  0  0
  146.8065  139.5479  154.3703 H   0  0  0  0  0  0  0  0  0  0  0  0
  148.5354  138.5965  155.8594 H   0  0  0  0  0  0  0  0  0  0  0  0
  149.2983  137.7851  154.4961 H   0  0  0  0  0  0  0  0  0  0  0  0
  147.6759  137.3212  155.0085 H   0  0  0  0  0  0  0  0  0  0  0  0
  148.0022  137.6676  152.6426 H   0  0  0  0  0  0  0  0  0  0  0  0
  145.4974  138.7193  153.2298 H   0  0  0  0  0  0  0  0  0  0  0  0
  145.7769  138.9029  151.5175 H   0  0  0  0  0  0  0  0  0  0  0  0
  145.1476  137.0312  150.3388 H   0  0  0  0  0  0  0  0  0  0  0  0
  144.6491  134.9256  149.6817 H   0  0  0  0  0  0  0  0  0  0  0  0
  143.9412  134.6388  152.6510 H   0  0  0  0  0  0  0  0  0  0  0  0
  142.8188  135.0587  151.3805 H   0  0  0  0  0  0  0  0  0  0  0  0
  142.6550  132.6428  151.9842 H   0  0  0  0  0  0  0  0  0  0  0  0
  143.1398  132.8271  150.3100 H   0  0  0  0  0  0  0  0  0  0  0  0
  146.5737  131.9432  151.0136 H   0  0  0  0  0  0  0  0  0  0  0  0
  145.4699  132.3915  149.7317 H   0  0  0  0  0  0  0  0  0  0  0  0
  146.9300  134.3279  150.3079 H   0  0  0  0  0  0  0  0  0  0  0  0
  146.4847  134.1917  151.9939 H   0  0  0  0  0  0  0  0  0  0  0  0
  148.6685  142.3100  155.8874 H   0  0  0  0  0  0  0  0  0  0  0  0
  1  2  1  0  0  0  0
  1 21  1  0  0  0  0
  1 22  1  0  0  0  0
  1 23  1  0  0  0  0
  2 20  2  0  0  0  0
  2  3  1  0  0  0  0
  3  4  2  0  0  0  0
  3 24  1  0  0  0  0
  4  5  1  0  0  0  0
  5  6  1  0  0  0  0
  5 20  1  0  0  0  0
  6  7  1  0  0  0  0
  6 25  1  0  0  0  0
  6 26  1  0  0  0  0
  7  8  1  0  0  0  0
  7  9  1  0  0  0  0
  7 27  1  0  0  0  0
  8 28  1  0  0  0  0
  8 29  1  0  0  0  0
  8 30  1  0  0  0  0
  9 10  1  0  0  0  0
  9 31  1  0  0  0  0
 10 11  1  0  0  0  0
 10 32  1  0  0  0  0
 10 33  1  0  0  0  0
 11 12  2  0  0  0  0
 11 13  1  0  0  0  0
 13 14  1  0  0  0  0
 13 34  1  0  0  0  0
 14 19  1  0  0  0  0
 14 15  1  0  0  0  0
 14 35  1  0  0  0  0
 15 16  1  0  0  0  0
 15 36  1  0  0  0  0
 15 37  1  0  0  0  0
 16 17  1  0  0  0  0
 16 38  1  0  0  0  0
 16 39  1  0  0  0  0
 17 18  1  0  0  0  0
 18 19  1  0  0  0  0
 18 40  1  0  0  0  0
 18 41  1  0  0  0  0
 19 42  1  0  0  0  0
 19 43  1  0  0  0  0
 20 44  1  0  0  0  0
M  END
> <s_m_source_file>
AV-unprocessed.smi

> <i_m_source_file_index>
2684

> <i_lp_mmshare_version>
43012

> <i_f3d_flags>
0

> <s_epik_input>
W0NIM11jMVtjSF1ubihbY0hdMSlbQ0gyXVtDQEhdKFtDSDNdKVtOSF1bQ0gyXUMoPU8pW05IXVtDSF0yW0NIMl1bQ0gyXU9bQ0gyXVtDSDJdMg==

> <s_epik_cmdline>
J2VwaWtfcHl0aG9uJywgJy1waCcsICc3LjAnLCAnLXRuJywgJzgnLCAnLW1hJywgJzIwMCcsICctbWV0YWxfYmluZGluZycsICctaW1hZScsICc8aW5maWxlLm1hZT4nLCAnLW9tYWUnLCAnPG91dGZpbGUubWFlPic=

> <r_lp_tautomer_probability>
1

> <r_epik_Ionization_Penalty>
0.968507

> <r_epik_Ionization_Penalty_Charging>
0

> <r_epik_Ionization_Penalty_Neutral>
0.968507

> <r_epik_State_Penalty>
1.01412

> <r_epik_Charging_Adjusted_Penalty>
1.01412

> <i_epik_Tot_Q>
0

> <i_epik_Tot_abs_Q>
0

> <r_epik_Metal_State_Penalty>
1.01401

> <b_epik_Metal_Only>
0

> <s_lp_Force_Field>
OPLS_2005

> <r_lp_Energy>
12.1402

> <b_lp_Chiralities_Consistent>
1

> <s_lp_Variant>
AV-unprocessed.smi:2684-3

> <Gold.Version>
5.8.1

> <Gold.Id.Protein>
6NUR|6NUR_protein|mol2

> <Gold.PLP.Fitness>
44.3583

> <Gold.PLP.PLP>
-36.3018

> <Gold.PLP.part.hbond>
-4.0000

> <Gold.PLP.part.metal>
0.0000

> <Gold.PLP.part.buried>
-0.1117

> <Gold.PLP.part.nonpolar>
-32.9967

> <Gold.PLP.part.repulsive>
0.3510

> <Gold.PLP.ligand.clash>
0.0000

> <Gold.PLP.ligand.torsion>
1.7628

> <Gold.PLP.Chemscore.Hbond>
3.0000

> <Gold.PLP.Chemscore.CHOScore>
0.8516

> <Gold.PLP.Chemscore.Metal>
0.0000

> <Gold.Chemscore.Hbonds>
donor molecule, donor type, donor heavy atom, donor atom, acceptor molecule, acceptor atom, score
      L1  H     9    31       P1  7948  1.00
      L1  H    13    34       P1 10171  0.73
      P1  H  7989  7998       L1     4  0.41
      L1  C    20    44       P1  8028  0.93

> <Gold.PLP.Chemscore.Internal.Correction>
0.0272

> <Gold.Rescore>
     Score         DG    S(hbond)    S(metal)    S(lipo)     H(rot)  DE(clash)    DE(int)     intcor
     14.94     -19.28       2.82        0.00      80.54       1.97       0.25       4.10       ----

> <Gold.Chemscore.Fitness>
14.9376

> <Gold.Chemscore.DG>
-19.2815

> <Gold.Chemscore.ZeroCoef>
-5.4800

> <Gold.Chemscore.Hbond>
2.8237

> <Gold.Chemscore.Metal>
0.0000

> <Gold.Chemscore.Lipo>
80.5365

> <Gold.Chemscore.Internal_Hbond>
0.0000

> <Gold.Chemscore.DEClash>
0.2455

> <Gold.Chemscore.DEInternal>
4.0984

> <Gold.Chemscore.Rot>
1.9736

> <Gold.Chemscore.Internal.Correction>
   9.000000E+99

> <Gold.Chemscore.Hbonds>
donor molecule, donor type, donor heavy atom, donor atom, acceptor molecule, acceptor atom, score
      L1  H     9    31       P1  7948  0.98
      L1  H    13    34       P1 10171  0.71
      P1  H  7989  7998       L1     4  0.01

> <Gold.Chemscore.Hbond.Weighted>
-9.4310

> <Gold.Chemscore.Metal.Weighted>
-0.0000

> <Gold.Chemscore.Lipo.Weighted>
-9.4228

> <Gold.Chemscore.Internal_Hbond.Weighted>
0.0000

> <Gold.Chemscore.DEClash.Weighted>
0.2455

> <Gold.Chemscore.DEInternal.Weighted>
4.0984

> <Gold.Chemscore.Rot.Weighted>
5.0523

> <Gold.Chemscore.Internal.Correction.Weighted>
   9.000000E+99

> <Gold.Protein.RotatedTorsions>
[ 6907 6896 6895 6894 ] final  -39.04 input  -60.11 | X-H torsion
[ 7974 7965 7964 7962 ] final  -40.41 input  175.53 | X-H torsion
[ 8008 7997 7996 7995 ] final -104.35 input   59.86 | X-H torsion
[ 10167 10162 10161 10158 ] final  130.17 input  -65.29 | X-H torsion
[ 10718 10713 10712 10709 ] final  -91.78 input   66.30 | X-H torsion
[ 10763 10752 10751 10750 ] final  -82.62 input  -60.55 | X-H torsion
[ 11005 11000 10999 10996 ] final  106.46 input  -57.11 | X-H torsion

> <Gold.Protein.ActiveResidues>
 VAL166  LYS551  ARG553  GLY616  TRP617  ASP618  TYR619  PRO620  LYS621  CYS622 
 ASP623  PHE694  ASN695  SER759  ASP760  ASP761  ALA762  ILE779  LEU786  VAL792 
 PHE793  MET794  SER795  GLU796  ALA797  LYS798  CYS799  TRP800  GLU811  SER814 

> <Gold.Protein.RotatedAtoms>
  150.9951  134.9277  159.7921 H   0  0  0  0  0  0  0  0  0  0  0  0  # atno 6907 bound_to 6896
  152.5262  134.3229  159.9165 H   0  0  0  0  0  0  0  0  0  0  0  0  # atno 6908 bound_to 6896
  151.3235  133.3989  159.2691 H   0  0  0  0  0  0  0  0  0  0  0  0  # atno 6909 bound_to 6896
  146.0307  140.6735  142.9134 H   0  0  0  0  0  0  0  0  0  0  0  0  # atno 7974 bound_to 7965
  154.8840  140.0418  157.1799 H   0  0  0  0  0  0  0  0  0  0  0  0  # atno 8008 bound_to 7997
  154.8609  140.2944  155.5518 H   0  0  0  0  0  0  0  0  0  0  0  0  # atno 8009 bound_to 7997
  156.2998  140.2447  156.3583 H   0  0  0  0  0  0  0  0  0  0  0  0  # atno 8010 bound_to 7997
  139.5442  144.6759  151.4525 H   0  0  0  0  0  0  0  0  0  0  0  0  # atno 10167 bound_to 10162
  155.9996  130.4961  150.5526 H   0  0  0  0  0  0  0  0  0  0  0  0  # atno 10718 bound_to 10713
  154.5779  135.5585  153.7157 H   0  0  0  0  0  0  0  0  0  0  0  0  # atno 10763 bound_to 10752
  153.0071  135.6313  154.2023 H   0  0  0  0  0  0  0  0  0  0  0  0  # atno 10764 bound_to 10752
  154.1964  135.2880  155.2985 H   0  0  0  0  0  0  0  0  0  0  0  0  # atno 10765 bound_to 10752
  139.8814  134.9370  156.5669 H   0  0  0  0  0  0  0  0  0  0  0  0  # atno 11005 bound_to 11000
  144.7029  140.3731  143.7141 LP  0  0  0  0  0  0  0  0  0  0  0  0  # atno 17320 bound_to 7965
  145.7045  139.1669  143.2574 LP  0  0  0  0  0  0  0  0  0  0  0  0  # atno 17321 bound_to 7965
  140.6684  143.8347  150.6970 LP  0  0  0  0  0  0  0  0  0  0  0  0  # atno 17342 bound_to 10162
  140.1763  143.4152  152.1965 LP  0  0  0  0  0  0  0  0  0  0  0  0  # atno 17343 bound_to 10162
  157.3447  131.0723  151.1760 LP  0  0  0  0  0  0  0  0  0  0  0  0  # atno 17370 bound_to 10713
  157.2597  130.6653  149.5969 LP  0  0  0  0  0  0  0  0  0  0  0  0  # atno 17371 bound_to 10713
  140.8127  133.8416  155.8824 LP  0  0  0  0  0  0  0  0  0  0  0  0  # atno 17394 bound_to 11000
  140.9491  134.1802  157.4741 LP  0  0  0  0  0  0  0  0  0  0  0  0  # atno 17395 bound_to 11000

$$$$
