AV-unprocessed.smi:1672|AV-procd|sdf|6702|dock7
  -GOLD-   22720 7443D 1   1.00000     0.00000
 Structure written by MMmdl.
 48 50  0  0  0  0  0  0  0  0  2 V2000
  144.0105  133.1737  151.8027 C   0  0  0  0  0  0  0  0  0  0  0  0
  144.2697  134.6787  151.6463 C   0  0  2  0  0  0  0  0  0  0  0  0
  145.3139  134.9671  150.5544 C   0  0  0  0  0  0  0  0  0  0  0  0
  145.5968  136.4743  150.4331 C   0  0  0  0  0  0  0  0  0  0  0  0
  146.0353  137.0436  151.7328 N   0  3  1  0  0  0  0  0  0  0  0  0
  146.4586  138.4632  151.6171 C   0  0  0  0  0  0  0  0  0  0  0  0
  146.8991  139.0546  152.9701 C   0  0  1  0  0  0  0  0  0  0  0  0
  147.6153  138.0672  153.6869 O   0  0  0  0  0  0  0  0  0  0  0  0
  147.7839  140.3042  152.7944 C   0  0  0  0  0  0  0  0  0  0  0  0
  148.3128  140.7917  154.0617 N   0  0  0  0  0  0  0  0  0  0  0  0
  147.8042  141.7426  154.8866 C   0  0  0  0  0  0  0  0  0  0  0  0
  146.5313  142.4714  154.5833 C   0  0  0  0  0  0  0  0  0  0  0  0
  145.5604  142.3125  155.5953 O   0  0  0  0  0  0  0  0  0  0  0  0
  148.5088  141.9885  155.9915 N   0  0  0  0  0  0  0  0  0  0  0  0
  149.5732  141.1162  155.8754 C   0  0  0  0  0  0  0  0  0  0  0  0
  150.6770  140.8932  156.7293 C   0  0  0  0  0  0  0  0  0  0  0  0
  151.6549  139.9332  156.3958 C   0  0  0  0  0  0  0  0  0  0  0  0
  151.5433  139.1833  155.2071 C   0  0  0  0  0  0  0  0  0  0  0  0
  150.4512  139.3894  154.3426 C   0  0  0  0  0  0  0  0  0  0  0  0
  149.4789  140.3501  154.6793 C   0  0  0  0  0  0  0  0  0  0  0  0
  145.0203  136.8158  152.7959 C   0  0  0  0  0  0  0  0  0  0  0  0
  144.7283  135.3159  152.9686 C   0  0  0  0  0  0  0  0  0  0  0  0
  144.9141  132.6441  152.1066 H   0  0  0  0  0  0  0  0  0  0  0  0
  143.6670  132.7345  150.8660 H   0  0  0  0  0  0  0  0  0  0  0  0
  143.2449  132.9840  152.5556 H   0  0  0  0  0  0  0  0  0  0  0  0
  143.3304  135.1483  151.3503 H   0  0  0  0  0  0  0  0  0  0  0  0
  146.2420  134.4399  150.7803 H   0  0  0  0  0  0  0  0  0  0  0  0
  144.9666  134.5819  149.5948 H   0  0  0  0  0  0  0  0  0  0  0  0
  146.3721  136.6304  149.6819 H   0  0  0  0  0  0  0  0  0  0  0  0
  144.7062  137.0000  150.0849 H   0  0  0  0  0  0  0  0  0  0  0  0
  147.2901  138.5500  150.9159 H   0  0  0  0  0  0  0  0  0  0  0  0
  145.6415  139.0460  151.1894 H   0  0  0  0  0  0  0  0  0  0  0  0
  146.0266  139.3298  153.5612 H   0  0  0  0  0  0  0  0  0  0  0  0
  148.1503  137.5789  153.0797 H   0  0  0  0  0  0  0  0  0  0  0  0
  148.6016  140.1059  152.1020 H   0  0  0  0  0  0  0  0  0  0  0  0
  147.2003  141.1101  152.3473 H   0  0  0  0  0  0  0  0  0  0  0  0
  146.7438  143.5351  154.4707 H   0  0  0  0  0  0  0  0  0  0  0  0
  146.1253  142.1336  153.6303 H   0  0  0  0  0  0  0  0  0  0  0  0
  145.5440  141.4053  155.8580 H   0  0  0  0  0  0  0  0  0  0  0  0
  150.7719  141.4620  157.6426 H   0  0  0  0  0  0  0  0  0  0  0  0
  152.4946  139.7711  157.0556 H   0  0  0  0  0  0  0  0  0  0  0  0
  152.2968  138.4498  154.9597 H   0  0  0  0  0  0  0  0  0  0  0  0
  150.3633  138.8162  153.4319 H   0  0  0  0  0  0  0  0  0  0  0  0
  145.3659  137.2183  153.7471 H   0  0  0  0  0  0  0  0  0  0  0  0
  144.1018  137.3492  152.5456 H   0  0  0  0  0  0  0  0  0  0  0  0
  143.9636  135.1778  153.7337 H   0  0  0  0  0  0  0  0  0  0  0  0
  145.6239  134.8107  153.3334 H   0  0  0  0  0  0  0  0  0  0  0  0
  146.8622  136.5272  151.9992 H   0  0  0  0  0  0  0  0  0  0  0  0
  1  2  1  0  0  0  0
  1 23  1  0  0  0  0
  1 24  1  0  0  0  0
  1 25  1  0  0  0  0
  2 22  1  0  0  0  0
  2  3  1  0  0  0  0
  2 26  1  0  0  0  0
  3  4  1  0  0  0  0
  3 27  1  0  0  0  0
  3 28  1  0  0  0  0
  4  5  1  0  0  0  0
  4 29  1  0  0  0  0
  4 30  1  0  0  0  0
  5  6  1  0  0  0  0
  5 21  1  0  0  0  0
  5 48  1  0  0  0  0
  6  7  1  0  0  0  0
  6 31  1  0  0  0  0
  6 32  1  0  0  0  0
  7  8  1  0  0  0  0
  7  9  1  0  0  0  0
  7 33  1  0  0  0  0
  8 34  1  0  0  0  0
  9 10  1  0  0  0  0
  9 35  1  0  0  0  0
  9 36  1  0  0  0  0
 10 20  1  0  0  0  0
 10 11  1  0  0  0  0
 11 12  1  0  0  0  0
 11 14  2  0  0  0  0
 12 13  1  0  0  0  0
 12 37  1  0  0  0  0
 12 38  1  0  0  0  0
 13 39  1  0  0  0  0
 14 15  1  0  0  0  0
 15 20  2  0  0  0  0
 15 16  1  0  0  0  0
 16 17  2  0  0  0  0
 16 40  1  0  0  0  0
 17 18  1  0  0  0  0
 17 41  1  0  0  0  0
 18 19  2  0  0  0  0
 18 42  1  0  0  0  0
 19 20  1  0  0  0  0
 19 43  1  0  0  0  0
 21 22  1  0  0  0  0
 21 44  1  0  0  0  0
 21 45  1  0  0  0  0
 22 46  1  0  0  0  0
 22 47  1  0  0  0  0
M  CHG  1   5   1
M  END
> <s_m_source_file>
AV-unprocessed.smi

> <i_m_source_file_index>
1672

> <i_lp_mmshare_version>
43012

> <i_f3d_flags>
0

> <s_epik_input>
W0NIM11bQ0hdMVtDSDJdW0NIMl1OKFtDSDJdW0NIMl0xKVtDSDJdW0NASF0oW09IXSlbQ0gyXW4oYyhuMilbQ0gyXVtPSF0pYyhjMjMpW2NIXVtjSF1bY0hdW2NIXTM=

> <s_epik_cmdline>
J2VwaWtfcHl0aG9uJywgJy1waCcsICc3LjAnLCAnLXRuJywgJzgnLCAnLW1hJywgJzIwMCcsICctbWV0YWxfYmluZGluZycsICctaW1hZScsICc8aW5maWxlLm1hZT4nLCAnLW9tYWUnLCAnPG91dGZpbGUubWFlPic=

> <r_epik_Ionization_Penalty>
0.0498263

> <r_epik_Ionization_Penalty_Charging>
0.00181365

> <r_epik_Ionization_Penalty_Neutral>
0.0480127

> <r_epik_State_Penalty>
0.0408546

> <r_epik_Charging_Adjusted_Penalty>
0.0426682

> <i_epik_Tot_Q>
1

> <i_epik_Tot_abs_Q>
1

> <r_epik_Metal_State_Penalty>
4.22946e-05

> <b_epik_Metal_Only>
0

> <s_lp_Force_Field>
OPLS_2005

> <r_lp_Energy>
23.0912

> <b_lp_Chiralities_Consistent>
1

> <s_lp_Variant>
AV-unprocessed.smi:1672-2

> <Gold.Version>
5.8.1

> <Gold.Id.Protein>
6NUR|6NUR_protein|mol2

> <Gold.PLP.Fitness>
45.8795

> <Gold.PLP.PLP>
-38.0608

> <Gold.PLP.part.hbond>
-2.0000

> <Gold.PLP.part.metal>
0.0000

> <Gold.PLP.part.buried>
6.5479

> <Gold.PLP.part.nonpolar>
-43.1065

> <Gold.PLP.part.repulsive>
0.7122

> <Gold.PLP.ligand.clash>
0.0000

> <Gold.PLP.ligand.torsion>
0.5995

> <Gold.PLP.Chemscore.Hbond>
2.9840

> <Gold.PLP.Chemscore.CHOScore>
0.0000

> <Gold.PLP.Chemscore.Metal>
0.0000

> <Gold.Chemscore.Hbonds>
donor molecule, donor type, donor heavy atom, donor atom, acceptor molecule, acceptor atom, score
      L1  H     5    48       P1  7948  1.65
      L1  H     8    34       P1  7948  1.00

> <Gold.PLP.Chemscore.Internal.Correction>
0.0657

> <Gold.Rescore>
     Score         DG    S(hbond)    S(metal)    S(lipo)     H(rot)  DE(clash)    DE(int)     intcor
     11.17     -16.37       1.94        0.00     100.54       2.88       3.49       1.72       ----

> <Gold.Chemscore.Fitness>
11.1662

> <Gold.Chemscore.DG>
-16.3685

> <Gold.Chemscore.ZeroCoef>
-5.4800

> <Gold.Chemscore.Hbond>
1.9439

> <Gold.Chemscore.Metal>
0.0000

> <Gold.Chemscore.Lipo>
100.5374

> <Gold.Chemscore.Internal_Hbond>
0.0000

> <Gold.Chemscore.DEClash>
3.4860

> <Gold.Chemscore.DEInternal>
1.7163

> <Gold.Chemscore.Rot>
2.8778

> <Gold.Chemscore.Internal.Correction>
   9.000000E+99

> <Gold.Chemscore.Hbonds>
donor molecule, donor type, donor heavy atom, donor atom, acceptor molecule, acceptor atom, score
      L1  H     5    48       P1  7948  0.77
      L1  H     8    34       P1  7948  0.98

> <Gold.Chemscore.Hbond.Weighted>
-6.4927

> <Gold.Chemscore.Metal.Weighted>
-0.0000

> <Gold.Chemscore.Lipo.Weighted>
-11.7629

> <Gold.Chemscore.Internal_Hbond.Weighted>
0.0000

> <Gold.Chemscore.DEClash.Weighted>
3.4860

> <Gold.Chemscore.DEInternal.Weighted>
1.7163

> <Gold.Chemscore.Rot.Weighted>
7.3671

> <Gold.Chemscore.Internal.Correction.Weighted>
   9.000000E+99

> <Gold.Protein.RotatedTorsions>
[ 6907 6896 6895 6894 ] final   47.06 input  -60.11 | X-H torsion
[ 7974 7965 7964 7962 ] final  132.67 input  175.53 | X-H torsion
[ 8008 7997 7996 7995 ] final  -47.67 input   59.86 | X-H torsion
[ 10167 10162 10161 10158 ] final -141.67 input  -65.29 | X-H torsion
[ 10718 10713 10712 10709 ] final   93.66 input   66.30 | X-H torsion
[ 10763 10752 10751 10750 ] final -146.61 input  -60.55 | X-H torsion
[ 11005 11000 10999 10996 ] final   54.69 input  -57.11 | X-H torsion

> <Gold.Protein.ActiveResidues>
 VAL166  LYS551  ARG553  GLY616  TRP617  ASP618  TYR619  PRO620  LYS621  CYS622 
 ASP623  PHE694  ASN695  SER759  ASP760  ASP761  ALA762  ILE779  LEU786  VAL792 
 PHE793  MET794  SER795  GLU796  ALA797  LYS798  CYS799  TRP800  GLU811  SER814 

> <Gold.Protein.RotatedAtoms>
  152.2637  134.8007  160.0426 H   0  0  0  0  0  0  0  0  0  0  0  0  # atno 6907 bound_to 6896
  151.8644  133.3458  159.3722 H   0  0  0  0  0  0  0  0  0  0  0  0  # atno 6908 bound_to 6896
  150.7126  134.5102  159.5648 H   0  0  0  0  0  0  0  0  0  0  0  0  # atno 6909 bound_to 6896
  144.9944  139.4374  143.5323 H   0  0  0  0  0  0  0  0  0  0  0  0  # atno 7974 bound_to 7965
  154.4019  140.1340  156.4214 H   0  0  0  0  0  0  0  0  0  0  0  0  # atno 8008 bound_to 7997
  155.7639  140.3485  155.5192 H   0  0  0  0  0  0  0  0  0  0  0  0  # atno 8009 bound_to 7997
  155.8832  140.0991  157.1461 H   0  0  0  0  0  0  0  0  0  0  0  0  # atno 8010 bound_to 7997
  139.8162  143.7635  152.2665 H   0  0  0  0  0  0  0  0  0  0  0  0  # atno 10167 bound_to 10162
  157.6953  131.0486  150.4067 H   0  0  0  0  0  0  0  0  0  0  0  0  # atno 10718 bound_to 10713
  154.8328  135.3382  154.6688 H   0  0  0  0  0  0  0  0  0  0  0  0  # atno 10763 bound_to 10752
  153.7306  135.6952  153.4995 H   0  0  0  0  0  0  0  0  0  0  0  0  # atno 10764 bound_to 10752
  153.2315  135.4415  155.0552 H   0  0  0  0  0  0  0  0  0  0  0  0  # atno 10765 bound_to 10752
  140.0666  134.5528  155.9092 H   0  0  0  0  0  0  0  0  0  0  0  0  # atno 11005 bound_to 11000
  146.3438  139.9296  142.8755 LP  0  0  0  0  0  0  0  0  0  0  0  0  # atno 17320 bound_to 7965
  145.2240  140.9946  143.4029 LP  0  0  0  0  0  0  0  0  0  0  0  0  # atno 17321 bound_to 7965
  139.7799  144.7448  151.0102 LP  0  0  0  0  0  0  0  0  0  0  0  0  # atno 17342 bound_to 10162
  140.7815  143.4553  151.0355 LP  0  0  0  0  0  0  0  0  0  0  0  0  # atno 17343 bound_to 10162
  156.4455  130.4000  149.6669 LP  0  0  0  0  0  0  0  0  0  0  0  0  # atno 17370 bound_to 10713
  156.3837  130.7592  151.2587 LP  0  0  0  0  0  0  0  0  0  0  0  0  # atno 17371 bound_to 10713
  141.1995  133.6607  156.5848 LP  0  0  0  0  0  0  0  0  0  0  0  0  # atno 17394 bound_to 11000
  140.3689  134.7623  157.4585 LP  0  0  0  0  0  0  0  0  0  0  0  0  # atno 17395 bound_to 11000

$$$$
