AV-unprocessed.smi:77|AV-procd|sdf|771|dock5
  -GOLD-   2262017113D 1   1.00000     0.00000
 Structure written by MMmdl.
 57 61  0  0  0  0  0  0  0  0  1 V2000
  146.5367  137.5342  159.9090 O   0  0  0  0  0  0  0  0  0  0  0  0
  146.0758  136.3941  159.8348 C   0  0  0  0  0  0  0  0  0  0  0  0
  144.9170  136.0782  158.8799 C   0  0  0  0  0  0  0  0  0  0  0  0
  144.4009  137.2664  158.1915 N   0  0  0  0  0  0  0  0  0  0  0  0
  144.6393  137.2974  156.8605 C   0  0  0  0  0  0  0  0  0  0  0  0
  145.5219  138.1963  156.3505 N   0  0  0  0  0  0  0  0  0  0  0  0
  145.7517  138.2290  155.0339 C   0  0  0  0  0  0  0  0  0  0  0  0
  145.2178  137.4707  154.0730 N   0  0  0  0  0  0  0  0  0  0  0  0
  144.3344  136.5677  154.5882 C   0  0  0  0  0  0  0  0  0  0  0  0
  143.9941  136.4110  155.9597 C   0  0  0  0  0  0  0  0  0  0  0  0
  143.0680  135.3870  156.1099 N   0  0  0  0  0  0  0  0  0  0  0  0
  142.8620  134.9677  154.8912 C   0  0  0  0  0  0  0  0  0  0  0  0
  143.5746  135.6282  153.9150 N   0  0  0  0  0  0  0  0  0  0  0  0
  143.5362  135.3772  152.4859 C   0  0  0  0  0  0  0  0  0  0  0  0
  144.8884  134.8961  151.8942 C   0  0  2  0  0  0  0  0  0  0  0  0
  145.3164  135.7176  150.6506 C   0  0  0  0  0  0  0  0  0  0  0  0
  145.5094  137.0831  150.9582 O   0  0  0  0  0  0  0  0  0  0  0  0
  144.8267  133.3812  151.5670 C   0  0  2  0  0  0  0  0  0  0  0  0
  146.0423  132.8324  150.8380 C   0  0  0  0  0  0  0  0  0  0  0  0
  145.5096  131.5285  150.2578 C   0  0  0  0  0  0  0  0  0  0  0  0
  144.1492  131.7885  149.9366 O   0  0  0  0  0  0  0  0  0  0  0  0
  143.7146  132.9784  150.5882 C   0  0  0  0  0  0  0  0  0  0  0  0
  143.0410  137.6661  158.5256 C   0  0  0  0  0  0  0  0  0  0  0  0
  142.5247  137.4301  159.9266 C   0  0  0  0  0  0  0  0  0  0  0  0
  142.0166  136.5871  158.7789 C   0  0  0  0  0  0  0  0  0  0  0  0
  146.5198  135.3698  160.5776 N   0  0  0  0  0  0  0  0  0  0  0  0
  147.5860  135.4333  161.5242 C   0  0  0  0  0  0  0  0  0  0  0  0
  147.2927  134.9868  162.9402 C   0  0  0  0  0  0  0  0  0  0  0  0
  147.4775  136.4488  162.6408 C   0  0  0  0  0  0  0  0  0  0  0  0
  145.2210  135.3168  158.1591 H   0  0  0  0  0  0  0  0  0  0  0  0
  144.1164  135.6330  159.4724 H   0  0  0  0  0  0  0  0  0  0  0  0
  146.4623  138.9714  154.7019 H   0  0  0  0  0  0  0  0  0  0  0  0
  142.1732  134.1658  154.6691 H   0  0  0  0  0  0  0  0  0  0  0  0
  142.7545  134.6373  152.3141 H   0  0  0  0  0  0  0  0  0  0  0  0
  143.2125  136.2901  151.9840 H   0  0  0  0  0  0  0  0  0  0  0  0
  145.6562  135.0252  152.6590 H   0  0  0  0  0  0  0  0  0  0  0  0
  146.2627  135.3616  150.2469 H   0  0  0  0  0  0  0  0  0  0  0  0
  144.5810  135.6225  149.8512 H   0  0  0  0  0  0  0  0  0  0  0  0
  144.7314  137.5608  150.7140 H   0  0  0  0  0  0  0  0  0  0  0  0
  144.6984  132.8156  152.4917 H   0  0  0  0  0  0  0  0  0  0  0  0
  146.3417  133.5053  150.0330 H   0  0  0  0  0  0  0  0  0  0  0  0
  146.9024  132.6718  151.4885 H   0  0  0  0  0  0  0  0  0  0  0  0
  146.0717  131.1970  149.3845 H   0  0  0  0  0  0  0  0  0  0  0  0
  145.5460  130.7365  151.0068 H   0  0  0  0  0  0  0  0  0  0  0  0
  142.7594  132.8139  151.0869 H   0  0  0  0  0  0  0  0  0  0  0  0
  143.5690  133.7471  149.8282 H   0  0  0  0  0  0  0  0  0  0  0  0
  142.6749  138.5619  158.0268 H   0  0  0  0  0  0  0  0  0  0  0  0
  143.1886  136.9503  160.6432 H   0  0  0  0  0  0  0  0  0  0  0  0
  141.8494  138.1744  160.3432 H   0  0  0  0  0  0  0  0  0  0  0  0
  141.0017  136.7681  158.4314 H   0  0  0  0  0  0  0  0  0  0  0  0
  142.3489  135.5517  158.7309 H   0  0  0  0  0  0  0  0  0  0  0  0
  146.0740  134.4719  160.4559 H   0  0  0  0  0  0  0  0  0  0  0  0
  148.5914  135.2261  161.1600 H   0  0  0  0  0  0  0  0  0  0  0  0
  146.2849  134.6448  163.1686 H   0  0  0  0  0  0  0  0  0  0  0  0
  148.0894  134.4806  163.4818 H   0  0  0  0  0  0  0  0  0  0  0  0
  148.3978  136.9192  162.9815 H   0  0  0  0  0  0  0  0  0  0  0  0
  146.5933  137.0830  162.6678 H   0  0  0  0  0  0  0  0  0  0  0  0
  1  2  2  0  0  0  0
  2  3  1  0  0  0  0
  2 26  1  0  0  0  0
  3  4  1  0  0  0  0
  3 30  1  0  0  0  0
  3 31  1  0  0  0  0
  4  5  1  0  0  0  0
  4 23  1  0  0  0  0
  5 10  1  0  0  0  0
  5  6  2  0  0  0  0
  6  7  1  0  0  0  0
  7  8  2  0  0  0  0
  7 32  1  0  0  0  0
  8  9  1  0  0  0  0
  9 13  1  0  0  0  0
  9 10  2  0  0  0  0
 10 11  1  0  0  0  0
 11 12  2  0  0  0  0
 12 13  1  0  0  0  0
 12 33  1  0  0  0  0
 13 14  1  0  0  0  0
 14 15  1  0  0  0  0
 14 34  1  0  0  0  0
 14 35  1  0  0  0  0
 15 16  1  0  0  0  0
 15 18  1  0  0  0  0
 15 36  1  0  0  0  0
 16 17  1  0  0  0  0
 16 37  1  0  0  0  0
 16 38  1  0  0  0  0
 17 39  1  0  0  0  0
 18 22  1  0  0  0  0
 18 19  1  0  0  0  0
 18 40  1  0  0  0  0
 19 20  1  0  0  0  0
 19 41  1  0  0  0  0
 19 42  1  0  0  0  0
 20 21  1  0  0  0  0
 20 43  1  0  0  0  0
 20 44  1  0  0  0  0
 21 22  1  0  0  0  0
 22 45  1  0  0  0  0
 22 46  1  0  0  0  0
 23 25  1  0  0  0  0
 23 24  1  0  0  0  0
 23 47  1  0  0  0  0
 24 25  1  0  0  0  0
 24 48  1  0  0  0  0
 24 49  1  0  0  0  0
 25 50  1  0  0  0  0
 25 51  1  0  0  0  0
 26 27  1  0  0  0  0
 26 52  1  0  0  0  0
 27 29  1  0  0  0  0
 27 28  1  0  0  0  0
 27 53  1  0  0  0  0
 28 29  1  0  0  0  0
 28 54  1  0  0  0  0
 28 55  1  0  0  0  0
 29 56  1  0  0  0  0
 29 57  1  0  0  0  0
M  END
> <s_m_source_file>
AV-unprocessed.smi

> <i_m_source_file_index>
77

> <i_lp_mmshare_version>
43012

> <i_f3d_flags>
0

> <s_epik_input>
W0NIMl0xW0NIMl1bQ0hdMVtOSF1DKD1PKVtDSDJdTihbQ0hdMltDSDJdW0NIMl0yKWMobltjSF1uMyljKGMzNCluW2NIXW40W0NIMl1bQ0BIXShbQ0gyXVtPSF0pW0NAQEhdNVtDSDJdW0NIMl1PW0NIMl01

> <s_epik_cmdline>
J2VwaWtfcHl0aG9uJywgJy1waCcsICc3LjAnLCAnLXRuJywgJzgnLCAnLW1hJywgJzIwMCcsICctbWV0YWxfYmluZGluZycsICctaW1hZScsICc8aW5maWxlLm1hZT4nLCAnLW9tYWUnLCAnPG91dGZpbGUubWFlPic=

> <r_lp_tautomer_probability>
1

> <r_epik_Ionization_Penalty>
0.000703847

> <r_epik_Ionization_Penalty_Charging>
0

> <r_epik_Ionization_Penalty_Neutral>
0.000703847

> <r_epik_State_Penalty>
0.00034025

> <r_epik_Charging_Adjusted_Penalty>
0.00034025

> <i_epik_Tot_Q>
0

> <i_epik_Tot_abs_Q>
0

> <r_epik_Metal_State_Penalty>
-0

> <b_epik_Metal_Only>
0

> <s_lp_Force_Field>
OPLS_2005

> <r_lp_Energy>
55.2708

> <b_lp_Chiralities_Consistent>
1

> <s_lp_Variant>
AV-unprocessed.smi:77-1

> <Gold.Version>
5.8.1

> <Gold.Id.Protein>
6NUR|6NUR_protein|mol2

> <Gold.PLP.Fitness>
43.6847

> <Gold.PLP.PLP>
-35.4940

> <Gold.PLP.part.hbond>
-3.4909

> <Gold.PLP.part.metal>
0.0000

> <Gold.PLP.part.buried>
-6.3641

> <Gold.PLP.part.nonpolar>
-27.2203

> <Gold.PLP.part.repulsive>
0.3481

> <Gold.PLP.ligand.clash>
0.0000

> <Gold.PLP.ligand.torsion>
2.2358

> <Gold.PLP.Chemscore.Hbond>
2.3130

> <Gold.PLP.Chemscore.CHOScore>
1.1921

> <Gold.PLP.Chemscore.Metal>
0.0000

> <Gold.Chemscore.Hbonds>
donor molecule, donor type, donor heavy atom, donor atom, acceptor molecule, acceptor atom, score
      L1  H    17    39       P1 10171  1.00
      P1  H  6934  6947       L1     1  1.00
      P1  H 10785 10796       L1    21  0.34
      L1  C    12    33       P1 10957  0.94
      L1  C    12    33       P1 11000  0.32

> <Gold.PLP.Chemscore.Internal.Correction>
2.1468

> <Gold.Rescore>
     Score         DG    S(hbond)    S(metal)    S(lipo)     H(rot)  DE(clash)    DE(int)     intcor
     11.09     -13.48       2.45        0.00      80.84       3.77       0.07       2.32       ----

> <Gold.Chemscore.Fitness>
11.0939

> <Gold.Chemscore.DG>
-13.4783

> <Gold.Chemscore.ZeroCoef>
-5.4800

> <Gold.Chemscore.Hbond>
2.4536

> <Gold.Chemscore.Metal>
0.0000

> <Gold.Chemscore.Lipo>
80.8383

> <Gold.Chemscore.Internal_Hbond>
0.0000

> <Gold.Chemscore.DEClash>
0.0694

> <Gold.Chemscore.DEInternal>
2.3151

> <Gold.Chemscore.Rot>
3.7714

> <Gold.Chemscore.Internal.Correction>
   9.000000E+99

> <Gold.Chemscore.Hbonds>
donor molecule, donor type, donor heavy atom, donor atom, acceptor molecule, acceptor atom, score
      L1  H    17    39       P1 10171  0.97
      P1  H  6934  6947       L1     1  0.98
      P1  H 10785 10796       L1    21  0.27

> <Gold.Chemscore.Hbond.Weighted>
-8.1951

> <Gold.Chemscore.Metal.Weighted>
-0.0000

> <Gold.Chemscore.Lipo.Weighted>
-9.4581

> <Gold.Chemscore.Internal_Hbond.Weighted>
0.0000

> <Gold.Chemscore.DEClash.Weighted>
0.0694

> <Gold.Chemscore.DEInternal.Weighted>
2.3151

> <Gold.Chemscore.Rot.Weighted>
9.6548

> <Gold.Chemscore.Internal.Correction.Weighted>
   9.000000E+99

> <Gold.Protein.RotatedTorsions>
[ 6907 6896 6895 6894 ] final  -93.14 input  -60.11 | X-H torsion
[ 7974 7965 7964 7962 ] final  -92.86 input  175.53 | X-H torsion
[ 8008 7997 7996 7995 ] final   87.93 input   59.86 | X-H torsion
[ 10167 10162 10161 10158 ] final   69.53 input  -65.29 | X-H torsion
[ 10718 10713 10712 10709 ] final  149.55 input   66.30 | X-H torsion
[ 10763 10752 10751 10750 ] final  -67.63 input  -60.55 | X-H torsion
[ 11005 11000 10999 10996 ] final  140.99 input  -57.11 | X-H torsion

> <Gold.Protein.ActiveResidues>
 VAL166  LYS551  ARG553  GLY616  TRP617  ASP618  TYR619  PRO620  LYS621  CYS622 
 ASP623  PHE694  ASN695  SER759  ASP760  ASP761  ALA762  ILE779  LEU786  VAL792 
 PHE793  MET794  SER795  GLU796  ALA797  LYS798  CYS799  TRP800  GLU811  SER814 

> <Gold.Protein.RotatedAtoms>
  150.6917  134.2013  159.4322 H   0  0  0  0  0  0  0  0  0  0  0  0  # atno 6907 bound_to 6896
  151.9979  134.9942  160.0573 H   0  0  0  0  0  0  0  0  0  0  0  0  # atno 6908 bound_to 6896
  152.1606  133.4544  159.4896 H   0  0  0  0  0  0  0  0  0  0  0  0  # atno 6909 bound_to 6896
  145.3942  140.9531  143.2323 H   0  0  0  0  0  0  0  0  0  0  0  0  # atno 7974 bound_to 7965
  155.9815  140.3377  155.6667 H   0  0  0  0  0  0  0  0  0  0  0  0  # atno 8008 bound_to 7997
  155.6543  140.0709  157.2594 H   0  0  0  0  0  0  0  0  0  0  0  0  # atno 8009 bound_to 7997
  154.4193  140.1720  156.1695 H   0  0  0  0  0  0  0  0  0  0  0  0  # atno 8010 bound_to 7997
  140.0668  144.5186  150.7255 H   0  0  0  0  0  0  0  0  0  0  0  0  # atno 10167 bound_to 10162
  157.2947  131.0860  151.1435 H   0  0  0  0  0  0  0  0  0  0  0  0  # atno 10718 bound_to 10713
  154.3773  135.6082  153.5772 H   0  0  0  0  0  0  0  0  0  0  0  0  # atno 10763 bound_to 10752
  152.9789  135.5852  154.4452 H   0  0  0  0  0  0  0  0  0  0  0  0  # atno 10764 bound_to 10752
  154.4215  135.2846  155.1950 H   0  0  0  0  0  0  0  0  0  0  0  0  # atno 10765 bound_to 10752
  140.0368  134.9325  157.0767 H   0  0  0  0  0  0  0  0  0  0  0  0  # atno 11005 bound_to 11000
  144.8419  139.5458  143.6896 LP  0  0  0  0  0  0  0  0  0  0  0  0  # atno 17320 bound_to 7965
  146.2783  139.6810  142.9247 LP  0  0  0  0  0  0  0  0  0  0  0  0  # atno 17321 bound_to 7965
  140.7145  143.2532  151.4478 LP  0  0  0  0  0  0  0  0  0  0  0  0  # atno 17342 bound_to 10162
  139.5860  144.1604  152.2029 LP  0  0  0  0  0  0  0  0  0  0  0  0  # atno 17343 bound_to 10162
  157.2818  130.6753  149.6069 LP  0  0  0  0  0  0  0  0  0  0  0  0  # atno 17370 bound_to 10713
  155.9668  130.4447  150.5474 LP  0  0  0  0  0  0  0  0  0  0  0  0  # atno 17371 bound_to 10713
  140.4135  134.1956  155.7163 LP  0  0  0  0  0  0  0  0  0  0  0  0  # atno 17394 bound_to 11000
  141.1861  133.8308  157.1079 LP  0  0  0  0  0  0  0  0  0  0  0  0  # atno 17395 bound_to 11000

$$$$
