#       Name:                AV-unprocessed.smi:37
#       Creating user name   scv26
#       Creation time:       Thu Mar 26 16:11:05 2020


#       File generated by GOLD software.
#

@<TRIPOS>MOLECULE
AV-unprocessed.smi:37
    54    55     1
SMALL
NO_CHARGES


@<TRIPOS>ATOM
      1 ****        -6.0025   2.5588  -0.4344 C.3            1 S1                 0.0000
      2 ****        -4.5129   2.3801  -0.1061 C.3            1 S1                 0.0000
      3 ****        -3.9350   1.0474  -0.5874 C.2            1 S1                 0.0000
      4 ****        -4.6115   0.2124  -1.1905 O.2            1 S1                 0.0000
      5 ****        -2.6375   0.9206  -0.2718 O.3            1 S1                 0.0000
      6 ****        -1.9378  -0.2557  -0.6418 C.3            1 S1                 0.0000
      7 ****        -0.4898  -0.1607  -0.1505 C.3            1 S1                 0.0000
      8 ****         0.2492   0.7525  -0.9621 O.3            1 S1                 0.0000
      9 ****         1.4922   0.2106  -1.2967 C.3            1 S1                 0.0000
     10 ****         2.5724   1.2547  -1.1359 N.am           1 S1                 0.0000
     11 ****         2.3765   2.4152  -0.3965 C.2            1 S1                 0.0000
     12 ****         3.3357   3.3585  -0.2431 C.2            1 S1                 0.0000
     13 ****         3.0768   4.4545   0.4902 F              1 S1                 0.0000
     14 ****         4.6484   3.1947  -0.8614 C.2            1 S1                 0.0000
     15 ****         5.5783   3.9951  -0.7829 O.2            1 S1                 0.0000
     16 ****         4.8008   2.0096  -1.5876 N.am           1 S1                 0.0000
     17 ****         3.8220   1.0281  -1.7511 C.2            1 S1                 0.0000
     18 ****         4.0643   0.0156  -2.4066 O.2            1 S1                 0.0000
     19 ****         1.7044  -1.0124  -0.3970 C.3            1 S1                 0.0000
     20 ****         2.4474  -0.5162   1.3951 Br             1 S1                 0.0000
     21 ****         0.2678  -1.4861  -0.2575 C.3            1 S1                 0.0000
     22 ****         0.0617  -2.3066   0.8849 O.3            1 S1                 0.0000
     23 ****         0.3213  -3.6251   0.8271 C.2            1 S1                 0.0000
     24 ****         0.7318  -4.2374  -0.1588 O.2            1 S1                 0.0000
     25 ****         0.0527  -4.3357   2.1513 C.3            1 S1                 0.0000
     26 ****         1.0029  -3.8661   3.2612 C.3            1 S1                 0.0000
     27 ****         5.6951   1.8502  -2.0283 H              1 S1                 0.0000
     28 ****        -6.3639   3.5181  -0.0642 H              1 S1                 0.0000
     29 ****        -6.6084   1.7784   0.0273 H              1 S1                 0.0000
     30 ****        -6.1787   2.5333  -1.5104 H              1 S1                 0.0000
     31 ****        -3.9382   3.1891  -0.5579 H              1 S1                 0.0000
     32 ****        -4.3644   2.4520   0.9716 H              1 S1                 0.0000
     33 ****        -2.4259  -1.1153  -0.1803 H              1 S1                 0.0000
     34 ****        -1.9685  -0.4004  -1.7226 H              1 S1                 0.0000
     35 ****        -0.4569   0.1974   0.8800 H              1 S1                 0.0000
     36 ****         1.4640  -0.0406  -2.3592 H              1 S1                 0.0000
     37 ****         1.4300   2.5872   0.0947 H              1 S1                 0.0000
     38 ****         2.3683  -1.7421  -0.8612 H              1 S1                 0.0000
     39 ****        -0.0407  -1.9962  -1.1721 H              1 S1                 0.0000
     40 ****        -0.9821  -4.1570   2.4442 H              1 S1                 0.0000
     41 ****         0.1585  -5.4107   2.0034 H              1 S1                 0.0000
     42 ****         0.8125  -4.4119   4.1853 H              1 S1                 0.0000
     43 ****         0.8764  -2.8040   3.4741 H              1 S1                 0.0000
     44 ****         2.0453  -4.0326   2.9874 H              1 S1                 0.0000
     45 ****        -5.5761   0.3942  -1.3820 LP             1 S1                 0.0000
     46 ****        -4.1960  -0.6470  -1.4885 LP             1 S1                 0.0000
     47 ****         0.3864   1.6049  -0.4577 LP             1 S1                 0.0000
     48 ****        -0.2648   0.9396  -1.7993 LP             1 S1                 0.0000
     49 ****         5.4671   4.8411  -0.2616 LP             1 S1                 0.0000
     50 ****         6.4458   3.8000  -1.2405 LP             1 S1                 0.0000
     51 ****         3.3615  -0.6867  -2.5200 LP             1 S1                 0.0000
     52 ****         4.9640  -0.1051  -2.8261 LP             1 S1                 0.0000
     53 ****         0.9012  -3.7499  -1.0154 LP             1 S1                 0.0000
     54 ****         0.8958  -5.2223  -0.1032 LP             1 S1                 0.0000
@<TRIPOS>BOND
    1    1    2 1     
    2    1   28 1     
    3    1   29 1     
    4    1   30 1     
    5    2    3 1     
    6    2   31 1     
    7    2   32 1     
    8    3    4 2     
    9    3    5 1     
   10    5    6 1     
   11    6    7 1     
   12    6   33 1     
   13    6   34 1     
   14    7   21 1     
   15    7    8 1     
   16    7   35 1     
   17    8    9 1     
   18    9   10 1     
   19    9   19 1     
   20    9   36 1     
   21   10   17 1     
   22   10   11 1     
   23   11   12 2     
   24   11   37 1     
   25   12   13 1     
   26   12   14 1     
   27   14   15 2     
   28   14   16 1     
   29   16   27 1     
   30   16   17 1     
   31   17   18 2     
   32   19   20 1     
   33   19   21 1     
   34   19   38 1     
   35   21   22 1     
   36   21   39 1     
   37   22   23 1     
   38   23   24 2     
   39   23   25 1     
   40   25   26 1     
   41   25   40 1     
   42   25   41 1     
   43   26   42 1     
   44   26   43 1     
   45   26   44 1     
   46    4   45 1     
   47    4   46 1     
   48    8   47 1     
   49    8   48 1     
   50   15   49 1     
   51   15   50 1     
   52   18   51 1     
   53   18   52 1     
   54   24   53 1     
   55   24   54 1     
@<TRIPOS>SUBSTRUCTURE
      1 S1             1
@<TRIPOS>SET
LONE_PAIRS      STATIC     ATOMS    <user>   **** ""
10 45 46 47 48 49 50 51 52 53 54
DONOR_HYDROGENS      STATIC     ATOMS    <user>   **** ""
1 27
ATOM$BLUE        STATIC     ATOMS    COLORGROUP SYSTEM
10 45 46 47 48 49 50 51 52 53 54
ATOM$RED        STATIC     ATOMS    COLORGROUP SYSTEM
1 27
