AV-unprocessed.smi:38|AV-procd|sdf|342|dock6
  -GOLD-   2262016183D 1   1.00000     0.00000
 Structure written by MMmdl.
 28 29  0  0  0  0  0  0  0  0  1 V2000
  145.9204  131.2967  148.3987 O   0  0  0  0  0  0  0  0  0  0  0  0
  145.6644  132.0731  149.3169 C   0  0  0  0  0  0  0  0  0  0  0  0
  146.5748  132.2486  150.3634 N   0  0  0  0  0  0  0  0  0  0  0  0
  146.3995  133.0955  151.4597 C   0  0  0  0  0  0  0  0  0  0  0  0
  147.2682  133.1573  152.3284 O   0  0  0  0  0  0  0  0  0  0  0  0
  145.2002  133.8416  151.5112 N   0  0  0  0  0  0  0  0  0  0  0  0
  144.9447  134.7881  152.6618 C   0  0  2  0  0  0  0  0  0  0  0  0
  143.6050  135.5115  152.4904 C   0  0  0  0  0  0  0  0  0  0  0  0
  144.0372  136.9163  152.1121 C   0  0  1  0  0  0  0  0  0  0  0  0
  143.0985  137.8697  152.5663 O   0  0  0  0  0  0  0  0  0  0  0  0
  145.3908  137.0471  152.8161 C   0  0  2  0  0  0  0  0  0  0  0  0
  146.3182  138.0907  152.1749 C   0  0  0  0  0  0  0  0  0  0  0  0
  146.6440  137.7043  150.8572 O   0  0  0  0  0  0  0  0  0  0  0  0
  145.9572  135.7482  152.6734 O   0  0  0  0  0  0  0  0  0  0  0  0
  144.2666  133.6977  150.4937 C   0  0  0  0  0  0  0  0  0  0  0  0
  144.4477  132.8710  149.4372 C   0  0  0  0  0  0  0  0  0  0  0  0
  143.4974  132.7859  148.4909 F   0  0  0  0  0  0  0  0  0  0  0  0
  147.4315  131.7159  150.3238 H   0  0  0  0  0  0  0  0  0  0  0  0
  145.0010  134.2166  153.5890 H   0  0  0  0  0  0  0  0  0  0  0  0
  144.1542  136.9951  151.0307 H   0  0  0  0  0  0  0  0  0  0  0  0
  145.2337  137.2507  153.8774 H   0  0  0  0  0  0  0  0  0  0  0  0
  142.9663  135.0334  151.7465 H   0  0  0  0  0  0  0  0  0  0  0  0
  143.0898  135.5024  153.4521 H   0  0  0  0  0  0  0  0  0  0  0  0
  143.4821  138.7304  152.4930 H   0  0  0  0  0  0  0  0  0  0  0  0
  145.8640  139.0821  152.1804 H   0  0  0  0  0  0  0  0  0  0  0  0
  147.2516  138.1590  152.7346 H   0  0  0  0  0  0  0  0  0  0  0  0
  145.9556  137.9953  150.2788 H   0  0  0  0  0  0  0  0  0  0  0  0
  143.3503  134.2677  150.5346 H   0  0  0  0  0  0  0  0  0  0  0  0
  1  2  2  0  0  0  0
  2 16  1  0  0  0  0
  2  3  1  0  0  0  0
  3 18  1  0  0  0  0
  3  4  1  0  0  0  0
  4  5  2  0  0  0  0
  4  6  1  0  0  0  0
  6  7  1  0  0  0  0
  6 15  1  0  0  0  0
  7 19  1  0  0  0  0
  7 14  1  0  0  0  0
  7  8  1  0  0  0  0
  8  9  1  0  0  0  0
  8 22  1  0  0  0  0
  8 23  1  0  0  0  0
  9 20  1  0  0  0  0
  9 10  1  0  0  0  0
  9 11  1  0  0  0  0
 10 24  1  0  0  0  0
 11 21  1  0  0  0  0
 11 12  1  0  0  0  0
 11 14  1  0  0  0  0
 12 13  1  0  0  0  0
 12 25  1  0  0  0  0
 12 26  1  0  0  0  0
 13 27  1  0  0  0  0
 15 16  2  0  0  0  0
 15 28  1  0  0  0  0
 16 17  1  0  0  0  0
M  END
> <s_m_source_file>
AV-unprocessed.smi

> <i_m_source_file_index>
38

> <i_lp_mmshare_version>
43012

> <i_f3d_flags>
0

> <s_epik_input>
Tz1jMVtuSF1jKD1PKW4oW2NIXWMxRilbQ0BIXTJbQ0gyXVtDQEhdKFtPSF0pW0NASF0oTzIpW0NIMl1bT0hd

> <s_epik_cmdline>
J2VwaWtfcHl0aG9uJywgJy1waCcsICc3LjAnLCAnLXRuJywgJzgnLCAnLW1hJywgJzIwMCcsICctbWV0YWxfYmluZGluZycsICctaW1hZScsICc8aW5maWxlLm1hZT4nLCAnLW9tYWUnLCAnPG91dGZpbGUubWFlPic=

> <r_lp_tautomer_probability>
0.999537

> <r_epik_Ionization_Penalty>
0.0357432

> <r_epik_Ionization_Penalty_Charging>
0.0357431

> <r_epik_Ionization_Penalty_Neutral>
1.19946e-07

> <r_epik_State_Penalty>
0.0298169

> <r_epik_Charging_Adjusted_Penalty>
0.06556

> <i_epik_Tot_Q>
0

> <i_epik_Tot_abs_Q>
0

> <r_epik_Metal_State_Penalty>
2.348

> <b_epik_Metal_Only>
0

> <s_epik_Chemistry_Notes>
This compound contains an acetal/aminal-like group ( X-CH(R)-Y where X, Y are N, S, or O) that may be acid/base labile, releasing an aldehyde.

> <s_lp_Force_Field>
OPLS_2005

> <r_lp_Energy>
27.0037

> <b_lp_Chiralities_Consistent>
1

> <s_lp_Variant>
AV-unprocessed.smi:38-8

> <Gold.Version>
5.8.1

> <Gold.Id.Protein>
6NUR|6NUR_protein|mol2

> <Gold.PLP.Fitness>
46.4550

> <Gold.PLP.PLP>
-31.4929

> <Gold.PLP.part.hbond>
-7.8805

> <Gold.PLP.part.metal>
0.0000

> <Gold.PLP.part.buried>
-0.0538

> <Gold.PLP.part.nonpolar>
-24.5845

> <Gold.PLP.part.repulsive>
0.6382

> <Gold.PLP.ligand.clash>
0.0000

> <Gold.PLP.ligand.torsion>
0.0235

> <Gold.PLP.Chemscore.Hbond>
4.0000

> <Gold.PLP.Chemscore.CHOScore>
1.0000

> <Gold.PLP.Chemscore.Metal>
0.0000

> <Gold.Chemscore.Hbonds>
donor molecule, donor type, donor heavy atom, donor atom, acceptor molecule, acceptor atom, score
      L1  H     3    18       P1 10747  1.00
      L1  H    10    24       P1 10175  1.00
      L1  H    13    27       P1 10171  0.59
      P1  H  7954  7966       L1    13  1.00
      L1  C    15    28       P1 10186  0.98

> <Gold.PLP.Chemscore.Internal.Correction>
0.0091

> <Gold.Rescore>
     Score         DG    S(hbond)    S(metal)    S(lipo)     H(rot)  DE(clash)    DE(int)     intcor
     13.32     -15.48       3.86        0.00      39.11       2.91       1.91       0.25       ----

> <Gold.Chemscore.Fitness>
13.3186

> <Gold.Chemscore.DG>
-15.4763

> <Gold.Chemscore.ZeroCoef>
-5.4800

> <Gold.Chemscore.Hbond>
3.8565

> <Gold.Chemscore.Metal>
0.0000

> <Gold.Chemscore.Lipo>
39.1095

> <Gold.Chemscore.Internal_Hbond>
0.0000

> <Gold.Chemscore.DEClash>
1.9065

> <Gold.Chemscore.DEInternal>
0.2512

> <Gold.Chemscore.Rot>
2.9141

> <Gold.Chemscore.Internal.Correction>
   9.000000E+99

> <Gold.Chemscore.Hbonds>
donor molecule, donor type, donor heavy atom, donor atom, acceptor molecule, acceptor atom, score
      L1  H     3    18       P1 10747  1.00
      L1  H    10    24       P1 10175  1.00
      L1  H    13    27       P1 10171  0.57
      P1  H  7954  7966       L1    13  0.50

> <Gold.Chemscore.Hbond.Weighted>
-12.8806

> <Gold.Chemscore.Metal.Weighted>
-0.0000

> <Gold.Chemscore.Lipo.Weighted>
-4.5758

> <Gold.Chemscore.Internal_Hbond.Weighted>
0.0000

> <Gold.Chemscore.DEClash.Weighted>
1.9065

> <Gold.Chemscore.DEInternal.Weighted>
0.2512

> <Gold.Chemscore.Rot.Weighted>
7.4601

> <Gold.Chemscore.Internal.Correction.Weighted>
   9.000000E+99

> <Gold.Protein.RotatedTorsions>
[ 6907 6896 6895 6894 ] final  153.36 input  -60.11 | X-H torsion
[ 7974 7965 7964 7962 ] final  123.25 input  175.53 | X-H torsion
[ 8008 7997 7996 7995 ] final   70.63 input   59.86 | X-H torsion
[ 10167 10162 10161 10158 ] final  100.35 input  -65.29 | X-H torsion
[ 10718 10713 10712 10709 ] final   49.79 input   66.30 | X-H torsion
[ 10763 10752 10751 10750 ] final -100.19 input  -60.55 | X-H torsion
[ 11005 11000 10999 10996 ] final  -28.10 input  -57.11 | X-H torsion

> <Gold.Protein.ActiveResidues>
 VAL166  LYS551  ARG553  GLY616  TRP617  ASP618  TYR619  PRO620  LYS621  CYS622 
 ASP623  PHE694  ASN695  SER759  ASP760  ASP761  ALA762  ILE779  LEU786  VAL792 
 PHE793  MET794  SER795  GLU796  ALA797  LYS798  CYS799  TRP800  GLU811  SER814 

> <Gold.Protein.RotatedAtoms>
  152.0738  133.4119  159.4470 H   0  0  0  0  0  0  0  0  0  0  0  0  # atno 6907 bound_to 6896
  150.6863  134.3061  159.4736 H   0  0  0  0  0  0  0  0  0  0  0  0  # atno 6908 bound_to 6896
  152.0896  134.9416  160.0623 H   0  0  0  0  0  0  0  0  0  0  0  0  # atno 6909 bound_to 6896
  145.0981  139.3538  143.4826 H   0  0  0  0  0  0  0  0  0  0  0  0  # atno 7974 bound_to 7965
  155.7417  140.3490  155.5107 H   0  0  0  0  0  0  0  0  0  0  0  0  # atno 8008 bound_to 7997
  155.9087  140.1046  157.1317 H   0  0  0  0  0  0  0  0  0  0  0  0  # atno 8009 bound_to 7997
  154.4053  140.1272  156.4517 H   0  0  0  0  0  0  0  0  0  0  0  0  # atno 8010 bound_to 7997
  139.7535  144.6977  151.0397 H   0  0  0  0  0  0  0  0  0  0  0  0  # atno 10167 bound_to 10162
  157.4821  130.8322  149.8105 H   0  0  0  0  0  0  0  0  0  0  0  0  # atno 10718 bound_to 10713
  154.7559  135.4944  153.9374 H   0  0  0  0  0  0  0  0  0  0  0  0  # atno 10763 bound_to 10752
  153.1195  135.6728  153.9367 H   0  0  0  0  0  0  0  0  0  0  0  0  # atno 10764 bound_to 10752
  153.9103  135.3099  155.3427 H   0  0  0  0  0  0  0  0  0  0  0  0  # atno 10765 bound_to 10752
  140.9178  133.7418  156.0760 H   0  0  0  0  0  0  0  0  0  0  0  0  # atno 11005 bound_to 11000
  146.3530  140.0846  142.8616 LP  0  0  0  0  0  0  0  0  0  0  0  0  # atno 17320 bound_to 7965
  145.0987  140.9332  143.4725 LP  0  0  0  0  0  0  0  0  0  0  0  0  # atno 17321 bound_to 7965
  140.7800  143.4781  151.0055 LP  0  0  0  0  0  0  0  0  0  0  0  0  # atno 17342 bound_to 10162
  139.8468  143.7490  152.3179 LP  0  0  0  0  0  0  0  0  0  0  0  0  # atno 17343 bound_to 10162
  156.0127  130.3826  150.2211 LP  0  0  0  0  0  0  0  0  0  0  0  0  # atno 17370 bound_to 10713
  157.0397  131.0031  151.3287 LP  0  0  0  0  0  0  0  0  0  0  0  0  # atno 17371 bound_to 10713
  140.8027  134.3491  157.5435 LP  0  0  0  0  0  0  0  0  0  0  0  0  # atno 17394 bound_to 11000
  139.8769  134.9207  156.3257 LP  0  0  0  0  0  0  0  0  0  0  0  0  # atno 17395 bound_to 11000

$$$$
