AV-unprocessed.smi:1800|AV-procd|sdf|7266|dock3
  -GOLD-   22720 8523D 1   1.00000     0.00000
 Structure written by MMmdl.
 35 36  0  0  0  0  0  0  0  0  2 V2000
  153.7268  138.9454  159.8013 C   0  0  0  0  0  0  0  0  0  0  0  0
  152.9625  140.2200  159.4175 C   0  0  1  0  0  0  0  0  0  0  0  0
  153.7400  141.5007  159.8155 C   0  0  0  0  0  0  0  0  0  0  0  0
  153.0040  142.7444  159.6028 N   0  0  0  0  0  0  0  0  0  0  0  0
  151.9171  143.2378  160.3001 C   0  0  0  0  0  0  0  0  0  0  0  0
  151.5818  144.4378  159.7420 C   0  0  0  0  0  0  0  0  0  0  0  0
  152.5388  144.6061  158.7035 C   0  0  0  0  0  0  0  0  0  0  0  0
  153.3971  143.6025  158.6323 N   0  0  0  0  0  0  0  0  0  0  0  0
  152.7160  140.2089  157.9820 N   0  5  0  0  0  0  0  0  0  0  0  0
  151.8344  139.0156  157.3262 S   0  0  0  0  0  0  0  0  0  0  0  0
  152.5233  137.7169  157.3994 O   0  0  0  0  0  0  0  0  0  0  0  0
  150.4271  139.0450  157.7586 O   0  0  0  0  0  0  0  0  0  0  0  0
  151.8557  139.5284  155.5399 C   0  0  0  0  0  0  0  0  0  0  0  0
  150.4407  139.8148  155.0197 C   0  0  0  0  0  0  0  0  0  0  0  0
  149.8975  138.4829  154.4798 C   0  0  0  0  0  0  0  0  0  0  0  0
  151.0957  137.5256  154.3968 C   0  0  0  0  0  0  0  0  0  0  0  0
  152.3355  138.3907  154.6327 C   0  0  0  0  0  0  0  0  0  0  0  0
  153.9164  138.9131  160.8743 H   0  0  0  0  0  0  0  0  0  0  0  0
  154.6900  138.8884  159.2925 H   0  0  0  0  0  0  0  0  0  0  0  0
  153.1579  138.0515  159.5424 H   0  0  0  0  0  0  0  0  0  0  0  0
  152.0299  140.2112  159.9837 H   0  0  0  0  0  0  0  0  0  0  0  0
  153.9993  141.4544  160.8737 H   0  0  0  0  0  0  0  0  0  0  0  0
  154.6868  141.5521  159.2747 H   0  0  0  0  0  0  0  0  0  0  0  0
  151.4728  142.6926  161.1196 H   0  0  0  0  0  0  0  0  0  0  0  0
  150.7740  145.0933  160.0300 H   0  0  0  0  0  0  0  0  0  0  0  0
  152.6389  145.4254  158.0071 H   0  0  0  0  0  0  0  0  0  0  0  0
  152.5105  140.3958  155.4538 H   0  0  0  0  0  0  0  0  0  0  0  0
  149.7937  140.2504  155.7816 H   0  0  0  0  0  0  0  0  0  0  0  0
  150.4996  140.5342  154.2025 H   0  0  0  0  0  0  0  0  0  0  0  0
  149.1320  138.0758  155.1415 H   0  0  0  0  0  0  0  0  0  0  0  0
  149.4376  138.6266  153.5018 H   0  0  0  0  0  0  0  0  0  0  0  0
  151.0188  136.7742  155.1837 H   0  0  0  0  0  0  0  0  0  0  0  0
  151.1394  136.9965  153.4447 H   0  0  0  0  0  0  0  0  0  0  0  0
  152.6685  138.8079  153.6817 H   0  0  0  0  0  0  0  0  0  0  0  0
  153.1703  137.8241  155.0449 H   0  0  0  0  0  0  0  0  0  0  0  0
  1  2  1  0  0  0  0
  1 18  1  0  0  0  0
  1 19  1  0  0  0  0
  1 20  1  0  0  0  0
  2  3  1  0  0  0  0
  2  9  1  0  0  0  0
  2 21  1  0  0  0  0
  3  4  1  0  0  0  0
  3 22  1  0  0  0  0
  3 23  1  0  0  0  0
  4  8  1  0  0  0  0
  4  5  1  0  0  0  0
  5  6  2  0  0  0  0
  5 24  1  0  0  0  0
  6  7  1  0  0  0  0
  6 25  1  0  0  0  0
  7  8  2  0  0  0  0
  7 26  1  0  0  0  0
  9 10  1  0  0  0  0
 10 11  2  0  0  0  0
 10 12  2  0  0  0  0
 10 13  1  0  0  0  0
 13 17  1  0  0  0  0
 13 14  1  0  0  0  0
 13 27  1  0  0  0  0
 14 15  1  0  0  0  0
 14 28  1  0  0  0  0
 14 29  1  0  0  0  0
 15 16  1  0  0  0  0
 15 30  1  0  0  0  0
 15 31  1  0  0  0  0
 16 17  1  0  0  0  0
 16 32  1  0  0  0  0
 16 33  1  0  0  0  0
 17 34  1  0  0  0  0
 17 35  1  0  0  0  0
M  CHG  1   9  -1
M  END
> <s_m_source_file>
AV-unprocessed.smi

> <i_m_source_file_index>
1800

> <i_lp_mmshare_version>
43012

> <i_f3d_flags>
0

> <s_epik_input>
bjFbY0hdW2NIXVtjSF1uMVtDSDJdW0NAQEhdKFtDSDNdKVtOSF1TKD1PKSg9TylbQ0hdMltDSDJdW0NIMl1bQ0gyXVtDSDJdMg==

> <s_epik_cmdline>
J2VwaWtfcHl0aG9uJywgJy1waCcsICc3LjAnLCAnLXRuJywgJzgnLCAnLW1hJywgJzIwMCcsICctbWV0YWxfYmluZGluZycsICctaW1hZScsICc8aW5maWxlLm1hZT4nLCAnLW9tYWUnLCAnPG91dGZpbGUubWFlPic=

> <r_lp_tautomer_probability>
1

> <r_epik_Ionization_Penalty>
6.58538

> <r_epik_Ionization_Penalty_Charging>
6.58536

> <r_epik_Ionization_Penalty_Neutral>
2.3841e-05

> <r_epik_State_Penalty>
6.58535

> <r_epik_Charging_Adjusted_Penalty>
13.1707

> <i_epik_Tot_Q>
-1

> <i_epik_Tot_abs_Q>
1

> <r_epik_Metal_State_Penalty>
2.50999

> <b_epik_Metal_Only>
1

> <s_lp_Force_Field>
OPLS_2005

> <r_lp_Energy>
15.5507

> <b_lp_Chiralities_Consistent>
1

> <s_lp_Variant>
AV-unprocessed.smi:1800-4

> <Gold.Version>
5.8.1

> <Gold.Id.Protein>
6NUR|6NUR_protein|mol2

> <Gold.PLP.Fitness>
43.6259

> <Gold.PLP.PLP>
-38.3698

> <Gold.PLP.part.hbond>
-1.0000

> <Gold.PLP.part.metal>
0.0000

> <Gold.PLP.part.buried>
-1.8712

> <Gold.PLP.part.nonpolar>
-35.7055

> <Gold.PLP.part.repulsive>
0.0000

> <Gold.PLP.ligand.clash>
0.0000

> <Gold.PLP.ligand.torsion>
0.8488

> <Gold.PLP.Chemscore.Hbond>
1.9520

> <Gold.PLP.Chemscore.CHOScore>
0.0000

> <Gold.PLP.Chemscore.Metal>
0.0000

> <Gold.Chemscore.Hbonds>
donor molecule, donor type, donor heavy atom, donor atom, acceptor molecule, acceptor atom, score
      P1  H  7997  8010       L1     9  1.62

> <Gold.PLP.Chemscore.Internal.Correction>
1.0976

> <Gold.Rescore>
     Score         DG    S(hbond)    S(metal)    S(lipo)     H(rot)  DE(clash)    DE(int)     intcor
     12.06     -13.89       0.30        0.00      96.53       1.51       0.01       1.82       ----

> <Gold.Chemscore.Fitness>
12.0632

> <Gold.Chemscore.DG>
-13.8891

> <Gold.Chemscore.ZeroCoef>
-5.4800

> <Gold.Chemscore.Hbond>
0.2972

> <Gold.Chemscore.Metal>
0.0000

> <Gold.Chemscore.Lipo>
96.5284

> <Gold.Chemscore.Internal_Hbond>
0.0000

> <Gold.Chemscore.DEClash>
0.0056

> <Gold.Chemscore.DEInternal>
1.8203

> <Gold.Chemscore.Rot>
1.5146

> <Gold.Chemscore.Internal.Correction>
   9.000000E+99

> <Gold.Chemscore.Hbonds>
donor molecule, donor type, donor heavy atom, donor atom, acceptor molecule, acceptor atom, score
      P1  H  7997  8010       L1     9  0.21

> <Gold.Chemscore.Hbond.Weighted>
-0.9926

> <Gold.Chemscore.Metal.Weighted>
-0.0000

> <Gold.Chemscore.Lipo.Weighted>
-11.2938

> <Gold.Chemscore.Internal_Hbond.Weighted>
0.0000

> <Gold.Chemscore.DEClash.Weighted>
0.0056

> <Gold.Chemscore.DEInternal.Weighted>
1.8203

> <Gold.Chemscore.Rot.Weighted>
3.8773

> <Gold.Chemscore.Internal.Correction.Weighted>
   9.000000E+99

> <Gold.Protein.RotatedTorsions>
[ 6907 6896 6895 6894 ] final  164.49 input  -60.11 | X-H torsion
[ 7974 7965 7964 7962 ] final -168.64 input  175.53 | X-H torsion
[ 8008 7997 7996 7995 ] final   38.29 input   59.86 | X-H torsion
[ 10167 10162 10161 10158 ] final   29.74 input  -65.29 | X-H torsion
[ 10718 10713 10712 10709 ] final -115.69 input   66.30 | X-H torsion
[ 10763 10752 10751 10750 ] final    0.81 input  -60.55 | X-H torsion
[ 11005 11000 10999 10996 ] final  131.00 input  -57.11 | X-H torsion

> <Gold.Protein.ActiveResidues>
 VAL166  LYS551  ARG553  GLY616  TRP617  ASP618  TYR619  PRO620  LYS621  CYS622 
 ASP623  PHE694  ASN695  SER759  ASP760  ASP761  ALA762  ILE779  LEU786  VAL792 
 PHE793  MET794  SER795  GLU796  ALA797  LYS798  CYS799  TRP800  GLU811  SER814 

> <Gold.Protein.RotatedAtoms>
  151.9090  133.3556  159.3856 H   0  0  0  0  0  0  0  0  0  0  0  0  # atno 6907 bound_to 6896
  150.7062  134.4751  159.5453 H   0  0  0  0  0  0  0  0  0  0  0  0  # atno 6908 bound_to 6896
  152.2354  134.8281  160.0518 H   0  0  0  0  0  0  0  0  0  0  0  0  # atno 6909 bound_to 6896
  144.7199  140.2340  143.6300 H   0  0  0  0  0  0  0  0  0  0  0  0  # atno 7974 bound_to 7965
  155.2177  140.3328  155.4320 H   0  0  0  0  0  0  0  0  0  0  0  0  # atno 8008 bound_to 7997
  156.2345  140.1866  156.7202 H   0  0  0  0  0  0  0  0  0  0  0  0  # atno 8009 bound_to 7997
  154.6036  140.0619  156.9386 H   0  0  0  0  0  0  0  0  0  0  0  0  # atno 8010 bound_to 7997
  140.4739  144.0721  150.6245 H   0  0  0  0  0  0  0  0  0  0  0  0  # atno 10167 bound_to 10162
  156.0913  130.6095  150.8939 H   0  0  0  0  0  0  0  0  0  0  0  0  # atno 10718 bound_to 10713
  153.3160  135.6966  153.7073 H   0  0  0  0  0  0  0  0  0  0  0  0  # atno 10763 bound_to 10752
  153.5932  135.3476  155.2919 H   0  0  0  0  0  0  0  0  0  0  0  0  # atno 10764 bound_to 10752
  154.8586  135.4323  154.2311 H   0  0  0  0  0  0  0  0  0  0  0  0  # atno 10765 bound_to 10752
  139.9704  134.9579  156.9375 H   0  0  0  0  0  0  0  0  0  0  0  0  # atno 11005 bound_to 11000
  145.8384  139.2118  143.1842 LP  0  0  0  0  0  0  0  0  0  0  0  0  # atno 17320 bound_to 7965
  146.0369  140.8204  142.9848 LP  0  0  0  0  0  0  0  0  0  0  0  0  # atno 17321 bound_to 7965
  140.3943  143.2736  152.0023 LP  0  0  0  0  0  0  0  0  0  0  0  0  # atno 17342 bound_to 10162
  139.4822  144.6051  151.7536 LP  0  0  0  0  0  0  0  0  0  0  0  0  # atno 17343 bound_to 10162
  157.6063  131.0939  150.8874 LP  0  0  0  0  0  0  0  0  0  0  0  0  # atno 17370 bound_to 10713
  156.9022  130.5250  149.5282 LP  0  0  0  0  0  0  0  0  0  0  0  0  # atno 17371 bound_to 10713
  140.5305  134.0818  155.7314 LP  0  0  0  0  0  0  0  0  0  0  0  0  # atno 17394 bound_to 11000
  141.1384  133.9181  157.2382 LP  0  0  0  0  0  0  0  0  0  0  0  0  # atno 17395 bound_to 11000

$$$$
