#       Name:                AV-unprocessed.smi:2134
#       Creating user name   scv26
#       Creation time:       Fri Mar 27 11:45:19 2020


#       File generated by GOLD software.
#

@<TRIPOS>MOLECULE
AV-unprocessed.smi:2134
    41    42     1
SMALL
NO_CHARGES


@<TRIPOS>ATOM
      1 ****        -3.0746  -2.4560  -1.0009 C.3            1 S1                 0.0000
      2 ****        -2.7790  -1.0322  -1.1470 N.am           1 S1                 0.0000
      3 ****        -1.4356  -0.7178  -1.1589 N.2            1 S1                 0.0000
      4 ****        -1.0133   0.5030  -1.0500 C.2            1 S1                 0.0000
      5 ****         0.4459   0.7873  -1.0406 C.2            1 S1                 0.0000
      6 ****         0.8693   1.9202  -0.8095 O.2            1 S1                 0.0000
      7 ****         1.2519  -0.2653  -1.2754 N.am           1 S1                 0.0000
      8 ****         2.7116  -0.2497  -1.2229 C.3            1 S1                 0.0000
      9 ****         3.2459  -0.8362   0.0979 C.3            1 S1                 0.0000
     10 ****         2.6986  -0.1448   1.3347 C.ar           1 S1                 0.0000
     11 ****         1.6769  -0.7372   2.1061 C.ar           1 S1                 0.0000
     12 ****         1.1845  -0.0430   3.2276 C.ar           1 S1                 0.0000
     13 ****         1.7381   1.2167   3.5321 C.ar           1 S1                 0.0000
     14 ****         2.7181   1.7924   2.8029 N.ar           1 S1                 0.0000
     15 ****         3.1834   1.1208   1.7278 C.ar           1 S1                 0.0000
     16 ****        -1.9947   1.6472  -0.8909 C.3            1 S1                 0.0000
     17 ****        -3.3673   1.3247  -1.5141 C.3            1 S1                 0.0000
     18 ****        -3.7834  -0.1304  -1.2802 C.2            1 S1                 0.0000
     19 ****        -4.9776  -0.4265  -1.2470 O.2            1 S1                 0.0000
     20 ****        -3.6613  -2.8170  -1.8470 H              1 S1                 0.0000
     21 ****        -3.6450  -2.6364  -0.0885 H              1 S1                 0.0000
     22 ****        -2.1674  -3.0604  -0.9479 H              1 S1                 0.0000
     23 ****         0.8144  -1.1567  -1.4604 H              1 S1                 0.0000
     24 ****         3.0909  -0.8333  -2.0619 H              1 S1                 0.0000
     25 ****         3.0930   0.7630  -1.3627 H              1 S1                 0.0000
     26 ****         3.0050  -1.8988   0.1495 H              1 S1                 0.0000
     27 ****         4.3345  -0.7722   0.1140 H              1 S1                 0.0000
     28 ****         1.2691  -1.7011   1.8390 H              1 S1                 0.0000
     29 ****         0.3997  -0.4642   3.8383 H              1 S1                 0.0000
     30 ****         1.3833   1.7770   4.3845 H              1 S1                 0.0000
     31 ****         3.9598   1.6116   1.1593 H              1 S1                 0.0000
     32 ****        -2.1116   1.8750   0.1692 H              1 S1                 0.0000
     33 ****        -1.6082   2.5534  -1.3591 H              1 S1                 0.0000
     34 ****        -4.1289   2.0008  -1.1241 H              1 S1                 0.0000
     35 ****        -3.3269   1.4844  -2.5922 H              1 S1                 0.0000
     36 ****        -0.7666  -1.4548  -1.2546 LP             1 S1                 0.0000
     37 ****         0.2286   2.6654  -0.6245 LP             1 S1                 0.0000
     38 ****         1.8539   2.0952  -0.8069 LP             1 S1                 0.0000
     39 ****         3.0876   2.6879   3.0512 LP             1 S1                 0.0000
     40 ****        -5.2531  -1.3787  -1.1156 LP             1 S1                 0.0000
     41 ****        -5.6723   0.2852  -1.3515 LP             1 S1                 0.0000
@<TRIPOS>BOND
    1    1    2 1     
    2    1   20 1     
    3    1   21 1     
    4    1   22 1     
    5    2   18 am    
    6    2    3 1     
    7    3    4 2     
    8    4    5 1     
    9    4   16 1     
   10    5    6 2     
   11    5    7 am    
   12    7    8 1     
   13    7   23 1     
   14    8    9 1     
   15    8   24 1     
   16    8   25 1     
   17    9   10 1     
   18    9   26 1     
   19    9   27 1     
   20   10   15 ar    
   21   10   11 ar    
   22   11   12 ar    
   23   11   28 1     
   24   12   13 ar    
   25   12   29 1     
   26   13   14 ar    
   27   13   30 1     
   28   14   15 ar    
   29   15   31 1     
   30   16   17 1     
   31   16   32 1     
   32   16   33 1     
   33   17   18 1     
   34   17   34 1     
   35   17   35 1     
   36   18   19 2     
   37    3   36 1     
   38    6   37 1     
   39    6   38 1     
   40   14   39 1     
   41   19   40 1     
   42   19   41 1     
@<TRIPOS>SUBSTRUCTURE
      1 S1             1
@<TRIPOS>SET
LONE_PAIRS      STATIC     ATOMS    <user>   **** ""
6 36 37 38 39 40 41
DONOR_HYDROGENS      STATIC     ATOMS    <user>   **** ""
1 23
ATOM$BLUE        STATIC     ATOMS    COLORGROUP SYSTEM
6 36 37 38 39 40 41
ATOM$RED        STATIC     ATOMS    COLORGROUP SYSTEM
1 23
