AV-unprocessed.smi:155|AV-procd|sdf|1281|dock6
  -GOLD-   2262018553D 1   1.00000     0.00000
 Structure written by MMmdl.
 64 67  0  0  0  0  0  0  0  0  3 V2000
  146.5897  132.8178  150.2868 C   0  0  0  0  0  0  0  0  0  0  0  0
  146.9968  131.6567  151.1126 N   0  3  0  0  0  0  0  0  0  0  0  0
  145.9826  130.5796  151.0607 C   0  0  0  0  0  0  0  0  0  0  0  0
  147.3553  132.0224  152.5075 C   0  0  0  0  0  0  0  0  0  0  0  0
  148.6972  132.7821  152.5988 C   0  0  0  0  0  0  0  0  0  0  0  0
  149.1778  132.9486  153.9978 N   0  3  2  0  0  0  0  0  0  0  0  0
  150.0319  131.8174  154.4526 C   0  0  0  0  0  0  0  0  0  0  0  0
  151.2536  132.3362  155.2315 C   0  0  0  0  0  0  0  0  0  0  0  0
  150.9197  132.8593  156.6388 C   0  0  0  0  0  0  0  0  0  0  0  0
  149.8890  133.8949  156.6251 N   0  0  0  0  0  0  0  0  0  0  0  0
  150.1824  135.2047  156.3590 C   0  0  0  0  0  0  0  0  0  0  0  0
  150.2579  135.5827  155.0536 N   0  0  0  0  0  0  0  0  0  0  0  0
  150.5453  136.8406  154.7117 C   0  0  0  0  0  0  0  0  0  0  0  0
  150.7974  137.8798  155.5050 N   0  0  0  0  0  0  0  0  0  0  0  0
  150.7238  137.5238  156.8176 C   0  0  0  0  0  0  0  0  0  0  0  0
  150.4265  136.2261  157.3325 C   0  0  0  0  0  0  0  0  0  0  0  0
  150.4564  136.2755  158.7236 N   0  0  0  0  0  0  0  0  0  0  0  0
  150.7435  137.5149  159.0097 C   0  0  0  0  0  0  0  0  0  0  0  0
  150.9190  138.3340  157.9211 N   0  0  0  0  0  0  0  0  0  0  0  0
  151.2421  139.7498  157.9404 C   0  0  0  0  0  0  0  0  0  0  0  0
  152.7173  140.0082  158.3129 C   0  0  1  0  0  0  0  0  0  0  0  0
  153.5756  139.5746  157.2759 O   0  0  0  0  0  0  0  0  0  0  0  0
  153.0419  141.4790  158.6467 C   0  0  2  0  0  0  0  0  0  0  0  0
  152.8811  141.8375  160.1242 C   0  0  0  0  0  0  0  0  0  0  0  0
  152.7289  143.3398  160.0545 C   0  0  0  0  0  0  0  0  0  0  0  0
  151.8949  143.5156  158.7881 C   0  0  0  0  0  0  0  0  0  0  0  0
  152.1720  142.3826  157.9682 O   0  0  0  0  0  0  0  0  0  0  0  0
  148.5189  133.4096  156.4343 C   0  0  0  0  0  0  0  0  0  0  0  0
  148.0873  133.2981  154.9538 C   0  0  0  0  0  0  0  0  0  0  0  0
  145.6995  133.2964  150.6970 H   0  0  0  0  0  0  0  0  0  0  0  0
  146.3625  132.5016  149.2681 H   0  0  0  0  0  0  0  0  0  0  0  0
  147.3792  133.5653  150.2220 H   0  0  0  0  0  0  0  0  0  0  0  0
  145.0446  130.9035  151.5140 H   0  0  0  0  0  0  0  0  0  0  0  0
  146.3300  129.6909  151.5891 H   0  0  0  0  0  0  0  0  0  0  0  0
  145.7804  130.2881  150.0293 H   0  0  0  0  0  0  0  0  0  0  0  0
  146.5470  132.6065  152.9511 H   0  0  0  0  0  0  0  0  0  0  0  0
  147.4318  131.1059  153.0930 H   0  0  0  0  0  0  0  0  0  0  0  0
  149.4623  132.2862  151.9997 H   0  0  0  0  0  0  0  0  0  0  0  0
  148.5615  133.7736  152.1686 H   0  0  0  0  0  0  0  0  0  0  0  0
  149.4562  131.0984  155.0375 H   0  0  0  0  0  0  0  0  0  0  0  0
  150.4112  131.2594  153.5959 H   0  0  0  0  0  0  0  0  0  0  0  0
  151.9758  131.5256  155.3344 H   0  0  0  0  0  0  0  0  0  0  0  0
  151.7560  133.1086  154.6485 H   0  0  0  0  0  0  0  0  0  0  0  0
  150.5583  132.0268  157.2433 H   0  0  0  0  0  0  0  0  0  0  0  0
  151.8128  133.1987  157.1597 H   0  0  0  0  0  0  0  0  0  0  0  0
  150.5796  137.0426  153.6511 H   0  0  0  0  0  0  0  0  0  0  0  0
  150.8326  137.8678  160.0272 H   0  0  0  0  0  0  0  0  0  0  0  0
  151.0151  140.1676  156.9588 H   0  0  0  0  0  0  0  0  0  0  0  0
  150.5744  140.2397  158.6491 H   0  0  0  0  0  0  0  0  0  0  0  0
  152.9736  139.4016  159.1825 H   0  0  0  0  0  0  0  0  0  0  0  0
  153.2411  138.7609  156.9311 H   0  0  0  0  0  0  0  0  0  0  0  0
  154.0678  141.7135  158.3565 H   0  0  0  0  0  0  0  0  0  0  0  0
  151.9782  141.3921  160.5429 H   0  0  0  0  0  0  0  0  0  0  0  0
  153.7301  141.5226  160.7317 H   0  0  0  0  0  0  0  0  0  0  0  0
  152.2575  143.7674  160.9398 H   0  0  0  0  0  0  0  0  0  0  0  0
  153.7062  143.8075  159.9279 H   0  0  0  0  0  0  0  0  0  0  0  0
  150.8308  143.5167  159.0261 H   0  0  0  0  0  0  0  0  0  0  0  0
  152.1265  144.4459  158.2692 H   0  0  0  0  0  0  0  0  0  0  0  0
  148.4456  132.4208  156.8884 H   0  0  0  0  0  0  0  0  0  0  0  0
  147.8100  134.0208  156.9941 H   0  0  0  0  0  0  0  0  0  0  0  0
  147.6762  134.2640  154.6637 H   0  0  0  0  0  0  0  0  0  0  0  0
  147.2708  132.5795  154.8696 H   0  0  0  0  0  0  0  0  0  0  0  0
  147.8291  131.2712  150.6890 H   0  0  0  0  0  0  0  0  0  0  0  0
  149.7984  133.7454  153.9762 H   0  0  0  0  0  0  0  0  0  0  0  0
  1  2  1  0  0  0  0
  1 30  1  0  0  0  0
  1 31  1  0  0  0  0
  1 32  1  0  0  0  0
  2  3  1  0  0  0  0
  2  4  1  0  0  0  0
  2 63  1  0  0  0  0
  3 33  1  0  0  0  0
  3 34  1  0  0  0  0
  3 35  1  0  0  0  0
  4  5  1  0  0  0  0
  4 36  1  0  0  0  0
  4 37  1  0  0  0  0
  5  6  1  0  0  0  0
  5 38  1  0  0  0  0
  5 39  1  0  0  0  0
  6 29  1  0  0  0  0
  6  7  1  0  0  0  0
  6 64  1  0  0  0  0
  7  8  1  0  0  0  0
  7 40  1  0  0  0  0
  7 41  1  0  0  0  0
  8  9  1  0  0  0  0
  8 42  1  0  0  0  0
  8 43  1  0  0  0  0
  9 10  1  0  0  0  0
  9 44  1  0  0  0  0
  9 45  1  0  0  0  0
 10 11  1  0  0  0  0
 10 28  1  0  0  0  0
 11 16  1  0  0  0  0
 11 12  2  0  0  0  0
 12 13  1  0  0  0  0
 13 14  2  0  0  0  0
 13 46  1  0  0  0  0
 14 15  1  0  0  0  0
 15 19  1  0  0  0  0
 15 16  2  0  0  0  0
 16 17  1  0  0  0  0
 17 18  2  0  0  0  0
 18 19  1  0  0  0  0
 18 47  1  0  0  0  0
 19 20  1  0  0  0  0
 20 21  1  0  0  0  0
 20 48  1  0  0  0  0
 20 49  1  0  0  0  0
 21 22  1  0  0  0  0
 21 23  1  0  0  0  0
 21 50  1  0  0  0  0
 22 51  1  0  0  0  0
 23 27  1  0  0  0  0
 23 24  1  0  0  0  0
 23 52  1  0  0  0  0
 24 25  1  0  0  0  0
 24 53  1  0  0  0  0
 24 54  1  0  0  0  0
 25 26  1  0  0  0  0
 25 55  1  0  0  0  0
 25 56  1  0  0  0  0
 26 27  1  0  0  0  0
 26 57  1  0  0  0  0
 26 58  1  0  0  0  0
 28 29  1  0  0  0  0
 28 59  1  0  0  0  0
 28 60  1  0  0  0  0
 29 61  1  0  0  0  0
 29 62  1  0  0  0  0
M  CHG  1   2   1
M  CHG  1   6   1
M  END
> <s_m_source_file>
AV-unprocessed.smi

> <i_m_source_file_index>
155

> <i_lp_mmshare_version>
43012

> <i_f3d_flags>
0

> <s_epik_input>
W0NIM11OKFtDSDNdKVtDSDJdW0NIMl1OMVtDSDJdW0NIMl1bQ0gyXU4oW0NIMl1bQ0gyXTEpYyhuW2NIXW4yKWMoYzIzKW5bY0hdbjNbQ0gyXVtDQEhdKFtPSF0pW0NAQEhdNFtDSDJdW0NIMl1bQ0gyXU80

> <s_epik_cmdline>
J2VwaWtfcHl0aG9uJywgJy1waCcsICc3LjAnLCAnLXRuJywgJzgnLCAnLW1hJywgJzIwMCcsICctbWV0YWxfYmluZGluZycsICctaW1hZScsICc8aW5maWxlLm1hZT4nLCAnLW9tYWUnLCAnPG91dGZpbGUubWFlPic=

> <r_lp_tautomer_probability>
1

> <r_epik_Ionization_Penalty>
3.0333

> <r_epik_Ionization_Penalty_Charging>
3.03317

> <r_epik_Ionization_Penalty_Neutral>
0.000131872

> <r_epik_State_Penalty>
1.99939

> <r_epik_Charging_Adjusted_Penalty>
5.03256

> <i_epik_Tot_Q>
2

> <i_epik_Tot_abs_Q>
2

> <r_epik_Metal_State_Penalty>
2.00021

> <b_epik_Metal_Only>
0

> <s_lp_Force_Field>
OPLS_2005

> <r_lp_Energy>
62.4537

> <b_lp_Chiralities_Consistent>
1

> <s_lp_Variant>
AV-unprocessed.smi:155-15

> <Gold.Version>
5.8.1

> <Gold.Id.Protein>
6NUR|6NUR_protein|mol2

> <Gold.PLP.Fitness>
48.3192

> <Gold.PLP.PLP>
-41.6379

> <Gold.PLP.part.hbond>
-2.8833

> <Gold.PLP.part.metal>
0.0000

> <Gold.PLP.part.buried>
-6.7691

> <Gold.PLP.part.nonpolar>
-34.0451

> <Gold.PLP.part.repulsive>
0.1857

> <Gold.PLP.ligand.clash>
0.0000

> <Gold.PLP.ligand.torsion>
2.9518

> <Gold.PLP.Chemscore.Hbond>
2.9913

> <Gold.PLP.Chemscore.CHOScore>
1.0688

> <Gold.PLP.Chemscore.Metal>
0.0000

> <Gold.Chemscore.Hbonds>
donor molecule, donor type, donor heavy atom, donor atom, acceptor molecule, acceptor atom, score
      L1  H     2    63       P1 10747  0.39
      P1  H  6896  6909       L1    17  1.00
      L1  C    13    46       P1  7948  0.52
      L1  C    13    46       P1  7949  0.59

> <Gold.PLP.Chemscore.Internal.Correction>
0.4047

> <Gold.Rescore>
     Score         DG    S(hbond)    S(metal)    S(lipo)     H(rot)  DE(clash)    DE(int)     intcor
     16.39     -19.86       2.72        0.00     105.45       2.75       0.02       3.45       ----

> <Gold.Chemscore.Fitness>
16.3932

> <Gold.Chemscore.DG>
-19.8567

> <Gold.Chemscore.ZeroCoef>
-5.4800

> <Gold.Chemscore.Hbond>
2.7177

> <Gold.Chemscore.Metal>
0.0000

> <Gold.Chemscore.Lipo>
105.4514

> <Gold.Chemscore.Internal_Hbond>
0.0000

> <Gold.Chemscore.DEClash>
0.0183

> <Gold.Chemscore.DEInternal>
3.4452

> <Gold.Chemscore.Rot>
2.7493

> <Gold.Chemscore.Internal.Correction>
   9.000000E+99

> <Gold.Chemscore.Hbonds>
donor molecule, donor type, donor heavy atom, donor atom, acceptor molecule, acceptor atom, score
      L1  H     2    63       P1 10747  0.39
      P1  H  6896  6909       L1    17  0.94
      P1  H  7997  8010       L1    22  0.05

> <Gold.Chemscore.Hbond.Weighted>
-9.0772

> <Gold.Chemscore.Metal.Weighted>
-0.0000

> <Gold.Chemscore.Lipo.Weighted>
-12.3378

> <Gold.Chemscore.Internal_Hbond.Weighted>
0.0000

> <Gold.Chemscore.DEClash.Weighted>
0.0183

> <Gold.Chemscore.DEInternal.Weighted>
3.4452

> <Gold.Chemscore.Rot.Weighted>
7.0383

> <Gold.Chemscore.Internal.Correction.Weighted>
   9.000000E+99

> <Gold.Protein.RotatedTorsions>
[ 6907 6896 6895 6894 ] final   75.77 input  -60.11 | X-H torsion
[ 7974 7965 7964 7962 ] final -114.79 input  175.53 | X-H torsion
[ 8008 7997 7996 7995 ] final   56.83 input   59.86 | X-H torsion
[ 10167 10162 10161 10158 ] final  177.84 input  -65.29 | X-H torsion
[ 10718 10713 10712 10709 ] final -163.79 input   66.30 | X-H torsion
[ 10763 10752 10751 10750 ] final  -75.81 input  -60.55 | X-H torsion
[ 11005 11000 10999 10996 ] final  104.96 input  -57.11 | X-H torsion

> <Gold.Protein.ActiveResidues>
 VAL166  LYS551  ARG553  GLY616  TRP617  ASP618  TYR619  PRO620  LYS621  CYS622 
 ASP623  PHE694  ASN695  SER759  ASP760  ASP761  ALA762  ILE779  LEU786  VAL792 
 PHE793  MET794  SER795  GLU796  ALA797  LYS798  CYS799  TRP800  GLU811  SER814 

> <Gold.Protein.RotatedAtoms>
  152.5042  134.4070  159.9435 H   0  0  0  0  0  0  0  0  0  0  0  0  # atno 6907 bound_to 6896
  151.4036  133.3743  159.2743 H   0  0  0  0  0  0  0  0  0  0  0  0  # atno 6908 bound_to 6896
  150.9343  134.8778  159.7631 H   0  0  0  0  0  0  0  0  0  0  0  0  # atno 6909 bound_to 6896
  145.1160  140.8641  143.3841 H   0  0  0  0  0  0  0  0  0  0  0  0  # atno 7974 bound_to 7965
  155.5239  140.3480  155.4412 H   0  0  0  0  0  0  0  0  0  0  0  0  # atno 8008 bound_to 7997
  156.0765  140.1376  156.9792 H   0  0  0  0  0  0  0  0  0  0  0  0  # atno 8009 bound_to 7997
  154.4556  140.0955  156.6723 H   0  0  0  0  0  0  0  0  0  0  0  0  # atno 8010 bound_to 7997
  139.5270  144.2750  152.0595 H   0  0  0  0  0  0  0  0  0  0  0  0  # atno 10167 bound_to 10162
  156.6297  130.8924  151.2975 H   0  0  0  0  0  0  0  0  0  0  0  0  # atno 10718 bound_to 10713
  154.4915  135.5818  153.6463 H   0  0  0  0  0  0  0  0  0  0  0  0  # atno 10763 bound_to 10752
  152.9863  135.6114  154.3118 H   0  0  0  0  0  0  0  0  0  0  0  0  # atno 10764 bound_to 10752
  154.3018  135.2846  155.2587 H   0  0  0  0  0  0  0  0  0  0  0  0  # atno 10765 bound_to 10752
  139.8797  134.9319  156.5441 H   0  0  0  0  0  0  0  0  0  0  0  0  # atno 11005 bound_to 11000
  145.0793  139.2972  143.5792 LP  0  0  0  0  0  0  0  0  0  0  0  0  # atno 17320 bound_to 7965
  146.3524  140.0294  142.8652 LP  0  0  0  0  0  0  0  0  0  0  0  0  # atno 17321 bound_to 7965
  140.2208  144.4468  150.6343 LP  0  0  0  0  0  0  0  0  0  0  0  0  # atno 17342 bound_to 10162
  140.6420  143.2205  151.6270 LP  0  0  0  0  0  0  0  0  0  0  0  0  # atno 17343 bound_to 10162
  157.7203  130.9550  150.1414 LP  0  0  0  0  0  0  0  0  0  0  0  0  # atno 17370 bound_to 10713
  156.2245  130.3676  149.8517 LP  0  0  0  0  0  0  0  0  0  0  0  0  # atno 17371 bound_to 10713
  140.8288  133.8295  155.8965 LP  0  0  0  0  0  0  0  0  0  0  0  0  # atno 17394 bound_to 11000
  140.9348  134.1976  157.4839 LP  0  0  0  0  0  0  0  0  0  0  0  0  # atno 17395 bound_to 11000

$$$$
