#       Name:                AV-unprocessed.smi:2671
#       Creating user name   scv26
#       Creation time:       Fri Mar 27 14:37:08 2020


#       File generated by GOLD software.
#

@<TRIPOS>MOLECULE
AV-unprocessed.smi:2671
    34    35     1
SMALL
NO_CHARGES


@<TRIPOS>ATOM
      1 ****        -3.6375  -2.3249   3.6854 O.2            1 S1                 0.0000
      2 ****        -3.1445  -1.6632   2.7744 C.2            1 S1                 0.0000
      3 ****        -3.9367  -0.6120   2.1379 C.2            1 S1                 0.0000
      4 ****        -3.3828   0.1147   1.1354 C.2            1 S1                 0.0000
      5 ****        -4.1618   1.2112   0.4287 C.3            1 S1                 0.0000
      6 ****        -5.3137   0.7328  -0.0424 F              1 S1                 0.0000
      7 ****        -4.4405   2.1982   1.2800 F              1 S1                 0.0000
      8 ****        -3.4735   1.7238  -0.5930 F              1 S1                 0.0000
      9 ****        -2.0672  -0.1474   0.7091 N.2            1 S1                 0.0000
     10 ****        -1.3925  -1.0734   1.2819 C.2            1 S1                 0.0000
     11 ****         0.2938  -1.4103   0.7444 S.3            1 S1                 0.0000
     12 ****         0.5734  -0.2113  -0.5933 C.3            1 S1                 0.0000
     13 ****         1.9903  -0.3251  -1.1720 C.3            1 S1                 0.0000
     14 ****         3.1062   0.0990  -0.2147 C.3            1 S1                 0.0000
     15 ****         4.2115   0.5934  -1.1367 C.3            1 S1                 0.0000
     16 ****         3.5511   0.6578  -2.5159 C.3            1 S1                 0.0000
     17 ****         2.1580   0.5754  -2.2553 O.3            1 S1                 0.0000
     18 ****        -1.8758  -1.8542   2.3103 N.pl3          1 S1                -1.0000
     19 ****        -4.9481  -0.4195   2.4641 H              1 S1                 0.0000
     20 ****         0.3989   0.7981  -0.2190 H              1 S1                 0.0000
     21 ****        -0.1591  -0.3929  -1.3802 H              1 S1                 0.0000
     22 ****         2.1707  -1.3393  -1.5338 H              1 S1                 0.0000
     23 ****         2.7703   0.9185   0.4219 H              1 S1                 0.0000
     24 ****         3.4294  -0.7158   0.4335 H              1 S1                 0.0000
     25 ****         4.5619   1.5760  -0.8193 H              1 S1                 0.0000
     26 ****         5.0675  -0.0822  -1.1453 H              1 S1                 0.0000
     27 ****         3.8008   1.5690  -3.0600 H              1 S1                 0.0000
     28 ****         3.8512  -0.1958  -3.1255 H              1 S1                 0.0000
     29 ****        -3.1026  -3.0460   4.1257 LP             1 S1                 0.0000
     30 ****        -4.5735  -2.1422   3.9862 LP             1 S1                 0.0000
     31 ****        -1.6627   0.3848  -0.0347 LP             1 S1                 0.0000
     32 ****         1.8005   1.4768  -2.0109 LP             1 S1                 0.0000
     33 ****         1.6772   0.2340  -3.0630 LP             1 S1                 0.0000
     34 ****        -1.2963  -2.5608   2.7162 LP             1 S1                 0.0000
@<TRIPOS>BOND
    1    1    2 2     
    2    2   18 1     
    3    2    3 1     
    4    3   19 1     
    5    3    4 2     
    6    4    5 1     
    7    4    9 1     
    8    5    6 1     
    9    5    7 1     
   10    5    8 1     
   11    9   10 2     
   12   10   11 1     
   13   10   18 1     
   14   11   12 1     
   15   12   13 1     
   16   12   20 1     
   17   12   21 1     
   18   13   17 1     
   19   13   14 1     
   20   13   22 1     
   21   14   15 1     
   22   14   23 1     
   23   14   24 1     
   24   15   16 1     
   25   15   25 1     
   26   15   26 1     
   27   16   17 1     
   28   16   27 1     
   29   16   28 1     
   30    1   29 1     
   31    1   30 1     
   32    9   31 1     
   33   17   32 1     
   34   17   33 1     
   35   18   34 1     
@<TRIPOS>SUBSTRUCTURE
      1 S1             1
@<TRIPOS>SET
LONE_PAIRS      STATIC     ATOMS    <user>   **** ""
6 29 30 31 32 33 34
ATOM$BLUE        STATIC     ATOMS    COLORGROUP SYSTEM
6 29 30 31 32 33 34
