AV-unprocessed.smi:625|AV-procd|sdf|3108|dock3
  -GOLD-   22720 0 33D 1   1.00000     0.00000
 Structure written by MMmdl.
 49 51  0  0  0  0  0  0  0  0  1 V2000
  146.1165  133.0470  150.1223 C   0  0  0  0  0  0  0  0  0  0  0  0
  147.0095  132.8765  151.2585 N   0  0  0  0  0  0  0  0  0  0  0  0
  146.9998  133.6485  152.3576 C   0  0  0  0  0  0  0  0  0  0  0  0
  146.2076  134.5836  152.4843 O   0  0  0  0  0  0  0  0  0  0  0  0
  148.0021  133.2688  153.3566 C   0  0  0  0  0  0  0  0  0  0  0  0
  148.8113  132.0634  153.2537 C   0  0  0  0  0  0  0  0  0  0  0  0
  149.7075  131.7552  154.2115 C   0  0  0  0  0  0  0  0  0  0  0  0
  149.9069  132.6092  155.3853 C   0  0  0  0  0  0  0  0  0  0  0  0
  150.7117  132.3229  156.2717 O   0  0  0  0  0  0  0  0  0  0  0  0
  149.1362  133.7381  155.4372 N   0  0  0  0  0  0  0  0  0  0  0  0
  149.2368  134.6663  156.5791 C   0  0  0  0  0  0  0  0  0  0  0  0
  148.1124  134.5205  157.6189 C   0  0  0  0  0  0  0  0  0  0  0  0
  146.9635  134.8350  157.3106 O   0  0  0  0  0  0  0  0  0  0  0  0
  148.4434  134.0663  158.8394 N   0  0  0  0  0  0  0  0  0  0  0  0
  147.5501  133.9432  159.9865 C   0  0  1  0  0  0  0  0  0  0  0  0
  147.5688  132.4990  160.5169 C   0  0  0  0  0  0  0  0  0  0  0  0
  147.9814  134.9688  161.0610 C   0  0  1  0  0  0  0  0  0  0  0  0
  147.6585  136.4433  160.7235 C   0  0  0  0  0  0  0  0  0  0  0  0
  146.9884  136.9539  162.0125 C   0  0  1  0  0  0  0  0  0  0  0  0
  145.5652  136.3741  162.0996 C   0  0  0  0  0  0  0  0  0  0  0  0
  145.8238  134.8959  162.4433 C   0  0  0  0  0  0  0  0  0  0  0  0
  147.3642  134.8138  162.4729 C   0  0  2  0  0  0  0  0  0  0  0  0
  147.7168  136.1624  163.0933 C   0  0  0  0  0  0  0  0  0  0  0  0
  148.1971  134.0528  154.4352 C   0  0  0  0  0  0  0  0  0  0  0  0
  146.3389  132.3007  149.3599 H   0  0  0  0  0  0  0  0  0  0  0  0
  146.2376  134.0352  149.6770 H   0  0  0  0  0  0  0  0  0  0  0  0
  145.0757  132.9258  150.4249 H   0  0  0  0  0  0  0  0  0  0  0  0
  147.6803  132.1235  151.2083 H   0  0  0  0  0  0  0  0  0  0  0  0
  148.7148  131.3908  152.4143 H   0  0  0  0  0  0  0  0  0  0  0  0
  150.2959  130.8548  154.1134 H   0  0  0  0  0  0  0  0  0  0  0  0
  150.1971  134.5420  157.0827 H   0  0  0  0  0  0  0  0  0  0  0  0
  149.2367  135.6990  156.2278 H   0  0  0  0  0  0  0  0  0  0  0  0
  149.4105  133.8233  158.9985 H   0  0  0  0  0  0  0  0  0  0  0  0
  146.5414  134.1808  159.6479 H   0  0  0  0  0  0  0  0  0  0  0  0
  146.8753  132.3744  161.3484 H   0  0  0  0  0  0  0  0  0  0  0  0
  148.5626  132.2173  160.8665 H   0  0  0  0  0  0  0  0  0  0  0  0
  147.2744  131.7884  159.7442 H   0  0  0  0  0  0  0  0  0  0  0  0
  149.0645  134.8858  161.1724 H   0  0  0  0  0  0  0  0  0  0  0  0
  148.5746  136.9955  160.5100 H   0  0  0  0  0  0  0  0  0  0  0  0
  147.0011  136.5516  159.8595 H   0  0  0  0  0  0  0  0  0  0  0  0
  147.0268  138.0376  162.1264 H   0  0  0  0  0  0  0  0  0  0  0  0
  144.9943  136.8581  162.8931 H   0  0  0  0  0  0  0  0  0  0  0  0
  145.0110  136.4944  161.1679 H   0  0  0  0  0  0  0  0  0  0  0  0
  145.4138  134.6626  163.4269 H   0  0  0  0  0  0  0  0  0  0  0  0
  145.3638  134.2090  161.7343 H   0  0  0  0  0  0  0  0  0  0  0  0
  147.7447  133.9536  163.0244 H   0  0  0  0  0  0  0  0  0  0  0  0
  148.7898  136.3600  163.1263 H   0  0  0  0  0  0  0  0  0  0  0  0
  147.2972  136.3044  164.0911 H   0  0  0  0  0  0  0  0  0  0  0  0
  147.6452  134.9651  154.6146 H   0  0  0  0  0  0  0  0  0  0  0  0
  1  2  1  0  0  0  0
  1 25  1  0  0  0  0
  1 26  1  0  0  0  0
  1 27  1  0  0  0  0
  2  3  1  0  0  0  0
  2 28  1  0  0  0  0
  3  4  2  0  0  0  0
  3  5  1  0  0  0  0
  5 24  2  0  0  0  0
  5  6  1  0  0  0  0
  6  7  2  0  0  0  0
  6 29  1  0  0  0  0
  7  8  1  0  0  0  0
  7 30  1  0  0  0  0
  8  9  2  0  0  0  0
  8 10  1  0  0  0  0
 10 11  1  0  0  0  0
 10 24  1  0  0  0  0
 11 12  1  0  0  0  0
 11 31  1  0  0  0  0
 11 32  1  0  0  0  0
 12 13  2  0  0  0  0
 12 14  1  0  0  0  0
 14 15  1  0  0  0  0
 14 33  1  0  0  0  0
 15 16  1  0  0  0  0
 15 17  1  0  0  0  0
 15 34  1  0  0  0  0
 16 35  1  0  0  0  0
 16 36  1  0  0  0  0
 16 37  1  0  0  0  0
 17 22  1  0  0  0  0
 17 18  1  0  0  0  0
 17 38  1  0  0  0  0
 18 19  1  0  0  0  0
 18 39  1  0  0  0  0
 18 40  1  0  0  0  0
 19 23  1  0  0  0  0
 19 20  1  0  0  0  0
 19 41  1  0  0  0  0
 20 21  1  0  0  0  0
 20 42  1  0  0  0  0
 20 43  1  0  0  0  0
 21 22  1  0  0  0  0
 21 44  1  0  0  0  0
 21 45  1  0  0  0  0
 22 23  1  0  0  0  0
 22 46  1  0  0  0  0
 23 47  1  0  0  0  0
 23 48  1  0  0  0  0
 24 49  1  0  0  0  0
M  END
> <s_m_source_file>
AV-unprocessed.smi

> <i_m_source_file_index>
625

> <i_lp_mmshare_version>
43012

> <i_f3d_flags>
0

> <s_epik_input>
W0NIM11bTkhdQyg9TyljMVtjSF1bY0hdYyg9TyluKFtjSF0xKVtDSDJdQyg9TylbTkhdW0NASF0oW0NIM10pW0NASF0oW0NIMl1bQ0BIXTIzKVtDQEhdKFtDSDJdMylbQ0gyXVtDSDJdMg==

> <s_epik_cmdline>
J2VwaWtfcHl0aG9uJywgJy1waCcsICc3LjAnLCAnLXRuJywgJzgnLCAnLW1hJywgJzIwMCcsICctbWV0YWxfYmluZGluZycsICctaW1hZScsICc8aW5maWxlLm1hZT4nLCAnLW9tYWUnLCAnPG91dGZpbGUubWFlPic=

> <r_lp_tautomer_probability>
1

> <r_epik_Ionization_Penalty>
3.7129e-07

> <r_epik_Ionization_Penalty_Charging>
5.04114e-08

> <r_epik_Ionization_Penalty_Neutral>
3.20879e-07

> <r_epik_State_Penalty>
-0

> <r_epik_Charging_Adjusted_Penalty>
5.04114e-08

> <i_epik_Tot_Q>
0

> <i_epik_Tot_abs_Q>
0

> <r_epik_Metal_State_Penalty>
-0

> <b_epik_Metal_Only>
0

> <s_lp_Force_Field>
OPLS_2005

> <r_lp_Energy>
63.411

> <b_lp_Chiralities_Consistent>
1

> <s_lp_Variant>
AV-unprocessed.smi:625-8

> <Gold.Version>
5.8.1

> <Gold.Id.Protein>
6NUR|6NUR_protein|mol2

> <Gold.PLP.Fitness>
44.4448

> <Gold.PLP.PLP>
-42.6171

> <Gold.PLP.part.hbond>
-1.0000

> <Gold.PLP.part.metal>
0.0000

> <Gold.PLP.part.buried>
-5.1604

> <Gold.PLP.part.nonpolar>
-35.4223

> <Gold.PLP.part.repulsive>
0.2306

> <Gold.PLP.ligand.clash>
0.0000

> <Gold.PLP.ligand.torsion>
0.5504

> <Gold.PLP.Chemscore.Hbond>
0.9440

> <Gold.PLP.Chemscore.CHOScore>
0.0000

> <Gold.PLP.Chemscore.Metal>
0.0000

> <Gold.Chemscore.Hbonds>
donor molecule, donor type, donor heavy atom, donor atom, acceptor molecule, acceptor atom, score
      L1  H     2    28       P1 10747  0.99

> <Gold.PLP.Chemscore.Internal.Correction>
0.0966

> <Gold.Rescore>
     Score         DG    S(hbond)    S(metal)    S(lipo)     H(rot)  DE(clash)    DE(int)     intcor
     15.71     -16.29       0.99        0.00     100.70       1.67       0.02       0.56       ----

> <Gold.Chemscore.Fitness>
15.7089

> <Gold.Chemscore.DG>
-16.2874

> <Gold.Chemscore.ZeroCoef>
-5.4800

> <Gold.Chemscore.Hbond>
0.9890

> <Gold.Chemscore.Metal>
0.0000

> <Gold.Chemscore.Lipo>
100.6964

> <Gold.Chemscore.Internal_Hbond>
0.0000

> <Gold.Chemscore.DEClash>
0.0224

> <Gold.Chemscore.DEInternal>
0.5561

> <Gold.Chemscore.Rot>
1.6709

> <Gold.Chemscore.Internal.Correction>
   9.000000E+99

> <Gold.Chemscore.Hbonds>
donor molecule, donor type, donor heavy atom, donor atom, acceptor molecule, acceptor atom, score
      L1  H     2    28       P1 10747  0.91

> <Gold.Chemscore.Hbond.Weighted>
-3.3033

> <Gold.Chemscore.Metal.Weighted>
-0.0000

> <Gold.Chemscore.Lipo.Weighted>
-11.7815

> <Gold.Chemscore.Internal_Hbond.Weighted>
0.0000

> <Gold.Chemscore.DEClash.Weighted>
0.0224

> <Gold.Chemscore.DEInternal.Weighted>
0.5561

> <Gold.Chemscore.Rot.Weighted>
4.2774

> <Gold.Chemscore.Internal.Correction.Weighted>
   9.000000E+99

> <Gold.Protein.RotatedTorsions>
[ 6907 6896 6895 6894 ] final   51.10 input  -60.11 | X-H torsion
[ 7974 7965 7964 7962 ] final   27.48 input  175.53 | X-H torsion
[ 8008 7997 7996 7995 ] final  120.97 input   59.86 | X-H torsion
[ 10167 10162 10161 10158 ] final  -87.90 input  -65.29 | X-H torsion
[ 10718 10713 10712 10709 ] final  155.14 input   66.30 | X-H torsion
[ 10763 10752 10751 10750 ] final   97.96 input  -60.55 | X-H torsion
[ 11005 11000 10999 10996 ] final  -82.98 input  -57.11 | X-H torsion

> <Gold.Protein.ActiveResidues>
 VAL166  LYS551  ARG553  GLY616  TRP617  ASP618  TYR619  PRO620  LYS621  CYS622 
 ASP623  PHE694  ASN695  SER759  ASP760  ASP761  ALA762  ILE779  LEU786  VAL792 
 PHE793  MET794  SER795  GLU796  ALA797  LYS798  CYS799  TRP800  GLU811  SER814 

> <Gold.Protein.RotatedAtoms>
  152.3090  134.7521  160.0340 H   0  0  0  0  0  0  0  0  0  0  0  0  # atno 6907 bound_to 6896
  151.8008  133.3364  159.3534 H   0  0  0  0  0  0  0  0  0  0  0  0  # atno 6908 bound_to 6896
  150.7310  134.5685  159.5923 H   0  0  0  0  0  0  0  0  0  0  0  0  # atno 6909 bound_to 6896
  146.1782  139.7186  142.8919 H   0  0  0  0  0  0  0  0  0  0  0  0  # atno 7974 bound_to 7965
  156.2666  140.2819  156.1235 H   0  0  0  0  0  0  0  0  0  0  0  0  # atno 8008 bound_to 7997
  155.1131  140.0391  157.2747 H   0  0  0  0  0  0  0  0  0  0  0  0  # atno 8009 bound_to 7997
  154.6728  140.2591  155.6996 H   0  0  0  0  0  0  0  0  0  0  0  0  # atno 8010 bound_to 7997
  140.3799  143.2753  151.9396 H   0  0  0  0  0  0  0  0  0  0  0  0  # atno 10167 bound_to 10162
  157.2224  131.0721  151.1904 H   0  0  0  0  0  0  0  0  0  0  0  0  # atno 10718 bound_to 10713
  153.2833  135.4165  155.1099 H   0  0  0  0  0  0  0  0  0  0  0  0  # atno 10763 bound_to 10752
  154.8496  135.3500  154.6082 H   0  0  0  0  0  0  0  0  0  0  0  0  # atno 10764 bound_to 10752
  153.6503  135.7053  153.5269 H   0  0  0  0  0  0  0  0  0  0  0  0  # atno 10765 bound_to 10752
  141.1660  133.7271  156.8652 H   0  0  0  0  0  0  0  0  0  0  0  0  # atno 11005 bound_to 11000
  145.4152  141.0401  143.2995 LP  0  0  0  0  0  0  0  0  0  0  0  0  # atno 17320 bound_to 7965
  144.8271  139.5692  143.6961 LP  0  0  0  0  0  0  0  0  0  0  0  0  # atno 17321 bound_to 7965
  139.4796  144.5828  151.7904 LP  0  0  0  0  0  0  0  0  0  0  0  0  # atno 17342 bound_to 10162
  140.4948  144.1257  150.5958 LP  0  0  0  0  0  0  0  0  0  0  0  0  # atno 17343 bound_to 10162
  157.3563  130.7108  149.6472 LP  0  0  0  0  0  0  0  0  0  0  0  0  # atno 17370 bound_to 10713
  155.9681  130.4238  150.4580 LP  0  0  0  0  0  0  0  0  0  0  0  0  # atno 17371 bound_to 10713
  140.1820  134.9026  157.2960 LP  0  0  0  0  0  0  0  0  0  0  0  0  # atno 17394 bound_to 11000
  140.2384  134.3825  155.7491 LP  0  0  0  0  0  0  0  0  0  0  0  0  # atno 17395 bound_to 11000

$$$$
