AV-unprocessed.smi:3096|AV-procd|sdf|11796|dock6
  -GOLD-   2272017173D 1   1.00000     0.00000
 Structure written by MMmdl.
 33 33  0  0  0  0  0  0  0  0  2 V2000
  141.5306  134.9648  153.8877 C   0  0  0  0  0  0  0  0  0  0  0  0
  141.8242  136.2426  154.1699 C   0  0  0  0  0  0  0  0  0  0  0  0
  142.8401  137.0712  153.4153 C   0  0  0  0  0  0  0  0  0  0  0  0
  144.0882  136.3072  153.3020 N   0  0  0  0  0  0  0  0  0  0  0  0
  145.2302  136.7439  152.7357 C   0  0  0  0  0  0  0  0  0  0  0  0
  145.2901  137.9802  152.2031 N   0  3  0  0  0  0  0  0  0  0  0  0
  146.4662  138.5764  151.5581 C   0  0  0  0  0  0  0  0  0  0  0  0
  146.3132  135.9427  152.7028 N   0  0  0  0  0  0  0  0  0  0  0  0
  146.3868  134.5842  153.2564 C   0  0  0  0  0  0  0  0  0  0  0  0
  146.9657  133.5966  152.2348 C   0  0  0  0  0  0  0  0  0  0  0  0
  145.9205  132.9679  151.4510 N   0  0  0  0  0  0  0  0  0  0  0  0
  146.0482  132.1187  150.3717 C   0  0  0  0  0  0  0  0  0  0  0  0
  144.7875  131.7856  149.9666 C   0  0  0  0  0  0  0  0  0  0  0  0
  143.9441  132.4877  150.8726 C   0  0  0  0  0  0  0  0  0  0  0  0
  144.6255  133.1943  151.7601 N   0  0  0  0  0  0  0  0  0  0  0  0
  142.0162  134.4423  153.0767 H   0  0  0  0  0  0  0  0  0  0  0  0
  140.7971  134.4236  154.4674 H   0  0  0  0  0  0  0  0  0  0  0  0
  141.3194  136.7303  154.9915 H   0  0  0  0  0  0  0  0  0  0  0  0
  142.4552  137.2977  152.4207 H   0  0  0  0  0  0  0  0  0  0  0  0
  143.0258  138.0144  153.9304 H   0  0  0  0  0  0  0  0  0  0  0  0
  144.0785  135.3762  153.6936 H   0  0  0  0  0  0  0  0  0  0  0  0
  146.2348  139.5841  151.2123 H   0  0  0  0  0  0  0  0  0  0  0  0
  146.7736  137.9789  150.6998 H   0  0  0  0  0  0  0  0  0  0  0  0
  147.2982  138.6345  152.2599 H   0  0  0  0  0  0  0  0  0  0  0  0
  147.1567  136.3002  152.2773 H   0  0  0  0  0  0  0  0  0  0  0  0
  147.0072  134.6072  154.1530 H   0  0  0  0  0  0  0  0  0  0  0  0
  145.3888  134.2680  153.5609 H   0  0  0  0  0  0  0  0  0  0  0  0
  147.6490  134.1088  151.5560 H   0  0  0  0  0  0  0  0  0  0  0  0
  147.5410  132.8168  152.7362 H   0  0  0  0  0  0  0  0  0  0  0  0
  147.0137  131.8259  149.9855 H   0  0  0  0  0  0  0  0  0  0  0  0
  144.5092  131.1384  149.1479 H   0  0  0  0  0  0  0  0  0  0  0  0
  142.8646  132.5052  150.9111 H   0  0  0  0  0  0  0  0  0  0  0  0
  144.4625  138.5577  152.2465 H   0  0  0  0  0  0  0  0  0  0  0  0
  1  2  2  0  0  0  0
  1 16  1  0  0  0  0
  1 17  1  0  0  0  0
  2  3  1  0  0  0  0
  2 18  1  0  0  0  0
  3  4  1  0  0  0  0
  3 19  1  0  0  0  0
  3 20  1  0  0  0  0
  4  5  1  0  0  0  0
  4 21  1  0  0  0  0
  5  6  2  0  0  0  0
  5  8  1  0  0  0  0
  6  7  1  0  0  0  0
  6 33  1  0  0  0  0
  7 22  1  0  0  0  0
  7 23  1  0  0  0  0
  7 24  1  0  0  0  0
  8  9  1  0  0  0  0
  8 25  1  0  0  0  0
  9 10  1  0  0  0  0
  9 26  1  0  0  0  0
  9 27  1  0  0  0  0
 10 11  1  0  0  0  0
 10 28  1  0  0  0  0
 10 29  1  0  0  0  0
 11 15  1  0  0  0  0
 11 12  1  0  0  0  0
 12 13  2  0  0  0  0
 12 30  1  0  0  0  0
 13 14  1  0  0  0  0
 13 31  1  0  0  0  0
 14 15  2  0  0  0  0
 14 32  1  0  0  0  0
M  CHG  1   6   1
M  END
> <s_m_source_file>
AV-unprocessed.smi

> <i_m_source_file_index>
3096

> <i_lp_mmshare_version>
43012

> <i_f3d_flags>
0

> <s_epik_input>
W0NIMl09W0NIXVtDSDJdW05IXS9DKD1OL1tDSDNdKVtOSF1bQ0gyXVtDSDJdbjFbY0hdW2NIXVtjSF1uMQ==

> <s_epik_cmdline>
J2VwaWtfcHl0aG9uJywgJy1waCcsICc3LjAnLCAnLXRuJywgJzgnLCAnLW1hJywgJzIwMCcsICctbWV0YWxfYmluZGluZycsICctaW1hZScsICc8aW5maWxlLm1hZT4nLCAnLW9tYWUnLCAnPG91dGZpbGUubWFlPic=

> <r_lp_tautomer_probability>
1

> <r_epik_Ionization_Penalty>
5.14269e-05

> <r_epik_Ionization_Penalty_Charging>
1.55211e-07

> <r_epik_Ionization_Penalty_Neutral>
5.12717e-05

> <r_epik_State_Penalty>
-0

> <r_epik_Charging_Adjusted_Penalty>
1.55211e-07

> <i_epik_Tot_Q>
1

> <i_epik_Tot_abs_Q>
1

> <r_epik_Metal_State_Penalty>
-0

> <b_epik_Metal_Only>
0

> <s_epik_Chemistry_Notes>
This compound has an imine and may undergo hydrolysis.

> <s_lp_Force_Field>
OPLS_2005

> <r_lp_Energy>
4.847

> <b_lp_Chiralities_Consistent>
1

> <s_lp_Variant>
AV-unprocessed.smi:3096-1

> <Gold.Version>
5.8.1

> <Gold.Id.Protein>
6NUR|6NUR_protein|mol2

> <Gold.PLP.Fitness>
49.4575

> <Gold.PLP.PLP>
-32.1330

> <Gold.PLP.part.hbond>
-3.0000

> <Gold.PLP.part.metal>
0.0000

> <Gold.PLP.part.buried>
-4.2669

> <Gold.PLP.part.nonpolar>
-26.2814

> <Gold.PLP.part.repulsive>
0.1595

> <Gold.PLP.ligand.clash>
0.0000

> <Gold.PLP.ligand.torsion>
0.3482

> <Gold.PLP.Chemscore.Hbond>
4.0000

> <Gold.PLP.Chemscore.CHOScore>
2.0000

> <Gold.PLP.Chemscore.Metal>
0.0000

> <Gold.Chemscore.Hbonds>
donor molecule, donor type, donor heavy atom, donor atom, acceptor molecule, acceptor atom, score
      L1  H     6    33       P1 10175  1.81
      L1  H     8    25       P1  7948  2.00
      L1  C    12    30       P1 10747  1.00

> <Gold.PLP.Chemscore.Internal.Correction>
0.0211

> <Gold.Rescore>
     Score         DG    S(hbond)    S(metal)    S(lipo)     H(rot)  DE(clash)    DE(int)     intcor
     14.21     -14.67       1.98        0.00      63.21       1.89       0.07       0.38       ----

> <Gold.Chemscore.Fitness>
14.2137

> <Gold.Chemscore.DG>
-14.6668

> <Gold.Chemscore.ZeroCoef>
-5.4800

> <Gold.Chemscore.Hbond>
1.9841

> <Gold.Chemscore.Metal>
0.0000

> <Gold.Chemscore.Lipo>
63.2127

> <Gold.Chemscore.Internal_Hbond>
0.0000

> <Gold.Chemscore.DEClash>
0.0726

> <Gold.Chemscore.DEInternal>
0.3805

> <Gold.Chemscore.Rot>
1.8891

> <Gold.Chemscore.Internal.Correction>
   9.000000E+99

> <Gold.Chemscore.Hbonds>
donor molecule, donor type, donor heavy atom, donor atom, acceptor molecule, acceptor atom, score
      L1  H     6    33       P1 10175  0.83
      L1  H     8    25       P1  7948  0.98

> <Gold.Chemscore.Hbond.Weighted>
-6.6270

> <Gold.Chemscore.Metal.Weighted>
-0.0000

> <Gold.Chemscore.Lipo.Weighted>
-7.3959

> <Gold.Chemscore.Internal_Hbond.Weighted>
0.0000

> <Gold.Chemscore.DEClash.Weighted>
0.0726

> <Gold.Chemscore.DEInternal.Weighted>
0.3805

> <Gold.Chemscore.Rot.Weighted>
4.8361

> <Gold.Chemscore.Internal.Correction.Weighted>
   9.000000E+99

> <Gold.Protein.RotatedTorsions>
[ 6907 6896 6895 6894 ] final -168.08 input  -60.11 | X-H torsion
[ 7974 7965 7964 7962 ] final   51.17 input  175.53 | X-H torsion
[ 8008 7997 7996 7995 ] final   37.24 input   59.86 | X-H torsion
[ 10167 10162 10161 10158 ] final  112.23 input  -65.29 | X-H torsion
[ 10718 10713 10712 10709 ] final  -21.30 input   66.30 | X-H torsion
[ 10763 10752 10751 10750 ] final -165.74 input  -60.55 | X-H torsion
[ 11005 11000 10999 10996 ] final  135.04 input  -57.11 | X-H torsion

> <Gold.Protein.ActiveResidues>
 VAL166  LYS551  ARG553  GLY616  TRP617  ASP618  TYR619  PRO620  LYS621  CYS622 
 ASP623  PHE694  ASN695  SER759  ASP760  ASP761  ALA762  ILE779  LEU786  VAL792 
 PHE793  MET794  SER795  GLU796  ALA797  LYS798  CYS799  TRP800  GLU811  SER814 

> <Gold.Protein.RotatedAtoms>
  151.4699  133.3572  159.2821 H   0  0  0  0  0  0  0  0  0  0  0  0  # atno 6907 bound_to 6896
  150.8968  134.8379  159.7343 H   0  0  0  0  0  0  0  0  0  0  0  0  # atno 6908 bound_to 6896
  152.4856  134.4615  159.9658 H   0  0  0  0  0  0  0  0  0  0  0  0  # atno 6909 bound_to 6896
  145.9939  139.4368  143.0056 H   0  0  0  0  0  0  0  0  0  0  0  0  # atno 7974 bound_to 7965
  155.2006  140.3315  155.4344 H   0  0  0  0  0  0  0  0  0  0  0  0  # atno 8008 bound_to 7997
  156.2408  140.1894  156.7043 H   0  0  0  0  0  0  0  0  0  0  0  0  # atno 8009 bound_to 7997
  154.6144  140.0604  156.9521 H   0  0  0  0  0  0  0  0  0  0  0  0  # atno 8010 bound_to 7997
  139.6551  144.7129  151.1972 H   0  0  0  0  0  0  0  0  0  0  0  0  # atno 10167 bound_to 10162
  156.5201  130.4630  149.6601 H   0  0  0  0  0  0  0  0  0  0  0  0  # atno 10718 bound_to 10713
  154.6902  135.2969  154.9490 H   0  0  0  0  0  0  0  0  0  0  0  0  # atno 10763 bound_to 10752
  154.0456  135.6651  153.4798 H   0  0  0  0  0  0  0  0  0  0  0  0  # atno 10764 bound_to 10752
  153.0607  135.5117  154.7991 H   0  0  0  0  0  0  0  0  0  0  0  0  # atno 10765 bound_to 10752
  139.9953  134.9499  156.9951 H   0  0  0  0  0  0  0  0  0  0  0  0  # atno 11005 bound_to 11000
  145.7588  140.9943  143.1211 LP  0  0  0  0  0  0  0  0  0  0  0  0  # atno 17320 bound_to 7965
  144.6897  139.9305  143.7471 LP  0  0  0  0  0  0  0  0  0  0  0  0  # atno 17321 bound_to 7965
  140.7555  143.6085  150.8629 LP  0  0  0  0  0  0  0  0  0  0  0  0  # atno 17342 bound_to 10162
  139.9737  143.6028  152.2965 LP  0  0  0  0  0  0  0  0  0  0  0  0  # atno 17343 bound_to 10162
  156.3158  130.7253  151.2155 LP  0  0  0  0  0  0  0  0  0  0  0  0  # atno 17370 bound_to 10713
  157.7438  131.0469  150.4917 LP  0  0  0  0  0  0  0  0  0  0  0  0  # atno 17371 bound_to 10713
  140.4829  134.1271  155.7220 LP  0  0  0  0  0  0  0  0  0  0  0  0  # atno 17394 bound_to 11000
  141.1599  133.8812  157.1875 LP  0  0  0  0  0  0  0  0  0  0  0  0  # atno 17395 bound_to 11000

$$$$
