AV-unprocessed.smi:2772|AV-procd|sdf|10669|dock6
  -GOLD-   2272015113D 1   1.00000     0.00000
 Structure written by MMmdl.
 54 56  0  0  0  0  0  0  0  0  2 V2000
  153.9588  141.8612  161.0698 C   0  0  0  0  0  0  0  0  0  0  0  0
  152.9454  141.9855  159.9513 C   0  0  0  0  0  0  0  0  0  0  0  0
  152.2001  140.8688  159.5205 C   0  0  0  0  0  0  0  0  0  0  0  0
  151.2750  141.0448  158.4739 C   0  0  0  0  0  0  0  0  0  0  0  0
  151.1324  142.3193  157.8883 C   0  0  0  0  0  0  0  0  0  0  0  0
  150.1834  142.4716  156.8417 N   0  0  0  0  0  0  0  0  0  0  0  0
  149.3607  141.5441  156.3225 C   0  0  0  0  0  0  0  0  0  0  0  0
  149.2997  140.3672  156.6775 O   0  0  0  0  0  0  0  0  0  0  0  0
  148.5797  142.0685  155.3673 N   0  0  0  0  0  0  0  0  0  0  0  0
  147.5546  141.3370  154.6284 C   0  0  0  0  0  0  0  0  0  0  0  0
  146.5515  140.7082  155.5984 C   0  0  0  0  0  0  0  0  0  0  0  0
  145.5239  139.8440  154.8470 C   0  0  0  0  0  0  0  0  0  0  0  0
  146.1696  138.7549  154.0942 N   0  0  0  0  0  0  0  0  0  0  0  0
  145.1662  137.8826  153.4404 C   0  0  2  0  0  0  0  0  0  0  0  0
  144.0018  137.4688  154.3774 C   0  0  0  0  0  0  0  0  0  0  0  0
  144.4680  136.5039  155.4826 C   0  0  0  0  0  0  0  0  0  0  0  0
  145.0856  135.2859  154.9033 N   0  3  2  0  0  0  0  0  0  0  0  0
  145.4676  134.3014  155.9380 C   0  0  0  0  0  0  0  0  0  0  0  0
  146.2066  135.6061  153.9860 C   0  0  0  0  0  0  0  0  0  0  0  0
  145.7522  136.5645  152.8702 C   0  0  0  0  0  0  0  0  0  0  0  0
  147.0859  139.3606  153.1131 C   0  0  0  0  0  0  0  0  0  0  0  0
  148.1734  140.2121  153.7900 C   0  0  0  0  0  0  0  0  0  0  0  0
  151.9205  143.3762  158.4071 C   0  0  0  0  0  0  0  0  0  0  0  0
  152.8086  143.2158  159.4120 N   0  0  0  0  0  0  0  0  0  0  0  0
  153.9700  140.8528  161.4840 H   0  0  0  0  0  0  0  0  0  0  0  0
  153.7226  142.5569  161.8756 H   0  0  0  0  0  0  0  0  0  0  0  0
  154.9593  142.0891  160.7010 H   0  0  0  0  0  0  0  0  0  0  0  0
  152.3317  139.8994  159.9784 H   0  0  0  0  0  0  0  0  0  0  0  0
  150.6887  140.2078  158.1230 H   0  0  0  0  0  0  0  0  0  0  0  0
  150.0630  143.4135  156.4996 H   0  0  0  0  0  0  0  0  0  0  0  0
  148.6952  143.0454  155.1404 H   0  0  0  0  0  0  0  0  0  0  0  0
  147.0196  142.0265  153.9723 H   0  0  0  0  0  0  0  0  0  0  0  0
  147.0729  140.0932  156.3335 H   0  0  0  0  0  0  0  0  0  0  0  0
  146.0351  141.4888  156.1581 H   0  0  0  0  0  0  0  0  0  0  0  0
  144.8484  139.4538  155.6032 H   0  0  0  0  0  0  0  0  0  0  0  0
  144.9281  140.4626  154.1739 H   0  0  0  0  0  0  0  0  0  0  0  0
  144.7463  138.4491  152.6076 H   0  0  0  0  0  0  0  0  0  0  0  0
  143.4695  138.3153  154.8045 H   0  0  0  0  0  0  0  0  0  0  0  0
  143.2454  136.9591  153.7791 H   0  0  0  0  0  0  0  0  0  0  0  0
  145.1804  137.0014  156.1428 H   0  0  0  0  0  0  0  0  0  0  0  0
  143.6139  136.2173  156.0975 H   0  0  0  0  0  0  0  0  0  0  0  0
  146.2379  134.7048  156.5965 H   0  0  0  0  0  0  0  0  0  0  0  0
  145.8521  133.3896  155.4796 H   0  0  0  0  0  0  0  0  0  0  0  0
  144.6050  134.0288  156.5472 H   0  0  0  0  0  0  0  0  0  0  0  0
  147.0320  136.0448  154.5489 H   0  0  0  0  0  0  0  0  0  0  0  0
  146.5826  134.6839  153.5408 H   0  0  0  0  0  0  0  0  0  0  0  0
  144.9728  136.0656  152.2924 H   0  0  0  0  0  0  0  0  0  0  0  0
  146.5484  136.7246  152.1465 H   0  0  0  0  0  0  0  0  0  0  0  0
  147.6144  138.5972  152.5479 H   0  0  0  0  0  0  0  0  0  0  0  0
  146.5242  139.9621  152.3966 H   0  0  0  0  0  0  0  0  0  0  0  0
  148.8330  140.6302  153.0287 H   0  0  0  0  0  0  0  0  0  0  0  0
  148.7949  139.5732  154.4196 H   0  0  0  0  0  0  0  0  0  0  0  0
  151.8385  144.3860  158.0368 H   0  0  0  0  0  0  0  0  0  0  0  0
  144.3727  134.8458  154.3388 H   0  0  0  0  0  0  0  0  0  0  0  0
  1  2  1  0  0  0  0
  1 25  1  0  0  0  0
  1 26  1  0  0  0  0
  1 27  1  0  0  0  0
  2 24  1  0  0  0  0
  2  3  2  0  0  0  0
  3  4  1  0  0  0  0
  3 28  1  0  0  0  0
  4  5  2  0  0  0  0
  4 29  1  0  0  0  0
  5  6  1  0  0  0  0
  5 23  1  0  0  0  0
  6  7  1  0  0  0  0
  6 30  1  0  0  0  0
  7  8  2  0  0  0  0
  7  9  1  0  0  0  0
  9 10  1  0  0  0  0
  9 31  1  0  0  0  0
 10 22  1  0  0  0  0
 10 11  1  0  0  0  0
 10 32  1  0  0  0  0
 11 12  1  0  0  0  0
 11 33  1  0  0  0  0
 11 34  1  0  0  0  0
 12 13  1  0  0  0  0
 12 35  1  0  0  0  0
 12 36  1  0  0  0  0
 13 14  1  0  0  0  0
 13 21  1  0  0  0  0
 14 20  1  0  0  0  0
 14 15  1  0  0  0  0
 14 37  1  0  0  0  0
 15 16  1  0  0  0  0
 15 38  1  0  0  0  0
 15 39  1  0  0  0  0
 16 17  1  0  0  0  0
 16 40  1  0  0  0  0
 16 41  1  0  0  0  0
 17 18  1  0  0  0  0
 17 19  1  0  0  0  0
 17 54  1  0  0  0  0
 18 42  1  0  0  0  0
 18 43  1  0  0  0  0
 18 44  1  0  0  0  0
 19 20  1  0  0  0  0
 19 45  1  0  0  0  0
 19 46  1  0  0  0  0
 20 47  1  0  0  0  0
 20 48  1  0  0  0  0
 21 22  1  0  0  0  0
 21 49  1  0  0  0  0
 21 50  1  0  0  0  0
 22 51  1  0  0  0  0
 22 52  1  0  0  0  0
 23 24  2  0  0  0  0
 23 53  1  0  0  0  0
M  CHG  1  17   1
M  END
> <s_m_source_file>
AV-unprocessed.smi

> <i_m_source_file_index>
2772

> <i_lp_mmshare_version>
43012

> <i_f3d_flags>
0

> <s_epik_input>
W0NIM11jMVtjSF1bY0hdYyhbY0hdbjEpW05IXUMoPU8pW05IXVtDSF0yW0NIMl1bQ0gyXU4oW0NIMl1bQ0gyXTIpW0NIXTNbQ0gyXVtDSDJdTihbQ0gzXSlbQ0gyXVtDSDJdMw==

> <s_epik_cmdline>
J2VwaWtfcHl0aG9uJywgJy1waCcsICc3LjAnLCAnLXRuJywgJzgnLCAnLW1hJywgJzIwMCcsICctbWV0YWxfYmluZGluZycsICctaW1hZScsICc8aW5maWxlLm1hZT4nLCAnLW9tYWUnLCAnPG91dGZpbGUubWFlPic=

> <r_epik_Ionization_Penalty>
1.02952

> <r_epik_Ionization_Penalty_Charging>
0.000974969

> <r_epik_Ionization_Penalty_Neutral>
1.02854

> <r_epik_State_Penalty>
1.11259

> <r_epik_Charging_Adjusted_Penalty>
1.11356

> <i_epik_Tot_Q>
1

> <i_epik_Tot_abs_Q>
1

> <r_epik_Metal_State_Penalty>
1.1091

> <b_epik_Metal_Only>
0

> <s_lp_Force_Field>
OPLS_2005

> <r_lp_Energy>
36.1162

> <b_lp_Chiralities_Consistent>
1

> <s_lp_Variant>
AV-unprocessed.smi:2772-6

> <Gold.Version>
5.8.1

> <Gold.Id.Protein>
6NUR|6NUR_protein|mol2

> <Gold.PLP.Fitness>
35.3648

> <Gold.PLP.PLP>
-29.6744

> <Gold.PLP.part.hbond>
-2.0000

> <Gold.PLP.part.metal>
0.0000

> <Gold.PLP.part.buried>
-0.9844

> <Gold.PLP.part.nonpolar>
-25.6166

> <Gold.PLP.part.repulsive>
0.3027

> <Gold.PLP.ligand.clash>
0.0000

> <Gold.PLP.ligand.torsion>
0.1569

> <Gold.PLP.Chemscore.Hbond>
2.0000

> <Gold.PLP.Chemscore.CHOScore>
0.0000

> <Gold.PLP.Chemscore.Metal>
0.0000

> <Gold.Chemscore.Hbonds>
donor molecule, donor type, donor heavy atom, donor atom, acceptor molecule, acceptor atom, score
      L1  H     6    30       P1  8028  0.96
      L1  H     9    31       P1  8028  1.00

> <Gold.PLP.Chemscore.Internal.Correction>
0.0042

> <Gold.Rescore>
     Score         DG    S(hbond)    S(metal)    S(lipo)     H(rot)  DE(clash)    DE(int)     intcor
     16.44     -19.42       1.94        0.00      90.05       1.20       0.25       2.74       ----

> <Gold.Chemscore.Fitness>
16.4381

> <Gold.Chemscore.DG>
-19.4247

> <Gold.Chemscore.ZeroCoef>
-5.4800

> <Gold.Chemscore.Hbond>
1.9382

> <Gold.Chemscore.Metal>
0.0000

> <Gold.Chemscore.Lipo>
90.0532

> <Gold.Chemscore.Internal_Hbond>
0.0000

> <Gold.Chemscore.DEClash>
0.2490

> <Gold.Chemscore.DEInternal>
2.7375

> <Gold.Chemscore.Rot>
1.1974

> <Gold.Chemscore.Internal.Correction>
   9.000000E+99

> <Gold.Chemscore.Hbonds>
donor molecule, donor type, donor heavy atom, donor atom, acceptor molecule, acceptor atom, score
      L1  H     6    30       P1  8028  0.91
      L1  H     9    31       P1  8028  0.95

> <Gold.Chemscore.Hbond.Weighted>
-6.4737

> <Gold.Chemscore.Metal.Weighted>
-0.0000

> <Gold.Chemscore.Lipo.Weighted>
-10.5362

> <Gold.Chemscore.Internal_Hbond.Weighted>
0.0000

> <Gold.Chemscore.DEClash.Weighted>
0.2490

> <Gold.Chemscore.DEInternal.Weighted>
2.7375

> <Gold.Chemscore.Rot.Weighted>
3.0652

> <Gold.Chemscore.Internal.Correction.Weighted>
   9.000000E+99

> <Gold.Protein.RotatedTorsions>
[ 6907 6896 6895 6894 ] final  -27.47 input  -60.11 | X-H torsion
[ 7974 7965 7964 7962 ] final   35.55 input  175.53 | X-H torsion
[ 8008 7997 7996 7995 ] final  159.80 input   59.86 | X-H torsion
[ 10167 10162 10161 10158 ] final -127.59 input  -65.29 | X-H torsion
[ 10718 10713 10712 10709 ] final  136.99 input   66.30 | X-H torsion
[ 10763 10752 10751 10750 ] final   66.07 input  -60.55 | X-H torsion
[ 11005 11000 10999 10996 ] final -150.11 input  -57.11 | X-H torsion

> <Gold.Protein.ActiveResidues>
 VAL166  LYS551  ARG553  GLY616  TRP617  ASP618  TYR619  PRO620  LYS621  CYS622 
 ASP623  PHE694  ASN695  SER759  ASP760  ASP761  ALA762  ILE779  LEU786  VAL792 
 PHE793  MET794  SER795  GLU796  ALA797  LYS798  CYS799  TRP800  GLU811  SER814 

> <Gold.Protein.RotatedAtoms>
  151.1465  135.0206  159.8648 H   0  0  0  0  0  0  0  0  0  0  0  0  # atno 6907 bound_to 6896
  152.5453  134.1438  159.8500 H   0  0  0  0  0  0  0  0  0  0  0  0  # atno 6908 bound_to 6896
  151.1519  133.4856  159.2628 H   0  0  0  0  0  0  0  0  0  0  0  0  # atno 6909 bound_to 6896
  146.1275  139.6128  142.9249 H   0  0  0  0  0  0  0  0  0  0  0  0  # atno 7974 bound_to 7965
  156.2215  140.1821  156.7466 H   0  0  0  0  0  0  0  0  0  0  0  0  # atno 8008 bound_to 7997
  154.5872  140.0656  156.9217 H   0  0  0  0  0  0  0  0  0  0  0  0  # atno 8009 bound_to 7997
  155.2398  140.3321  155.4296 H   0  0  0  0  0  0  0  0  0  0  0  0  # atno 8010 bound_to 7997
  139.9592  143.5969  152.2450 H   0  0  0  0  0  0  0  0  0  0  0  0  # atno 10167 bound_to 10162
  157.4408  131.1057  151.0145 H   0  0  0  0  0  0  0  0  0  0  0  0  # atno 10718 bound_to 10713
  153.0123  135.5334  154.6765 H   0  0  0  0  0  0  0  0  0  0  0  0  # atno 10763 bound_to 10752
  154.5936  135.2861  155.0611 H   0  0  0  0  0  0  0  0  0  0  0  0  # atno 10764 bound_to 10752
  154.1695  135.6534  153.5058 H   0  0  0  0  0  0  0  0  0  0  0  0  # atno 10765 bound_to 10752
  140.7436  134.3486  157.5142 H   0  0  0  0  0  0  0  0  0  0  0  0  # atno 11005 bound_to 11000
  145.5334  141.0425  143.2370 LP  0  0  0  0  0  0  0  0  0  0  0  0  # atno 17320 bound_to 7965
  144.7657  139.6852  143.7216 LP  0  0  0  0  0  0  0  0  0  0  0  0  # atno 17321 bound_to 7965
  139.6567  144.7662  151.2041 LP  0  0  0  0  0  0  0  0  0  0  0  0  # atno 17342 bound_to 10162
  140.7558  143.6074  150.8639 LP  0  0  0  0  0  0  0  0  0  0  0  0  # atno 17343 bound_to 10162
  157.1009  130.5981  149.5460 LP  0  0  0  0  0  0  0  0  0  0  0  0  # atno 17370 bound_to 10713
  155.9948  130.5013  150.7434 LP  0  0  0  0  0  0  0  0  0  0  0  0  # atno 17371 bound_to 10713
  139.8801  134.9097  156.2996 LP  0  0  0  0  0  0  0  0  0  0  0  0  # atno 17394 bound_to 11000
  140.9814  133.7265  156.0678 LP  0  0  0  0  0  0  0  0  0  0  0  0  # atno 17395 bound_to 11000

$$$$
