#       Name:                AV-unprocessed.smi:3234
#       Creating user name   scv26
#       Creation time:       Fri Mar 27 18:21:29 2020


#       File generated by GOLD software.
#

@<TRIPOS>MOLECULE
AV-unprocessed.smi:3234
    40    42     1
SMALL
NO_CHARGES


@<TRIPOS>ATOM
      1 ****        -0.1882   2.1046  -0.5155 O.2            1 S1                 0.0000
      2 ****        -0.9457   1.1782  -0.2309 C.2            1 S1                 0.0000
      3 ****        -2.2874   1.2505  -0.1678 N.am           1 S1                 0.0000
      4 ****        -3.1518   2.3571  -0.4045 C.ar           1 S1                 0.0000
      5 ****        -4.5340   2.1432  -0.2026 C.ar           1 S1                 0.0000
      6 ****        -5.4446   3.1970  -0.4213 C.ar           1 S1                 0.0000
      7 ****        -4.9918   4.4031  -0.8236 N.pl3          1 S1                 1.0000
      8 ****        -3.6826   4.6574  -1.0328 C.ar           1 S1                 0.0000
      9 ****        -2.7251   3.6423  -0.8303 C.ar           1 S1                 0.0000
     10 ****        -0.5126  -0.0564   0.0619 N.am           1 S1                 0.0000
     11 ****         0.8897  -0.4604   0.0757 C.3            1 S1                 0.0000
     12 ****         1.5038  -0.6695  -1.3051 C.3            1 S1                 0.0000
     13 ****         2.7177  -1.5544  -0.9998 C.3            1 S1                 0.0000
     14 ****         2.3892  -2.3238   0.2266 N.4            1 S1                 1.0000
     15 ****         3.4611  -2.2964   1.2457 C.3            1 S1                 0.0000
     16 ****         4.5367  -3.3319   1.0190 C.3            1 S1                 0.0000
     17 ****         3.5064  -3.5346   2.1090 C.3            1 S1                 0.0000
     18 ****         1.0864  -1.8296   0.7249 C.3            1 S1                 0.0000
     19 ****        -2.7561   0.3954   0.0934 H              1 S1                 0.0000
     20 ****        -4.8997   1.1785   0.1187 H              1 S1                 0.0000
     21 ****        -6.5131   3.1113  -0.2879 H              1 S1                 0.0000
     22 ****        -3.4404   5.6596  -1.3553 H              1 S1                 0.0000
     23 ****        -1.6895   3.8812  -1.0107 H              1 S1                 0.0000
     24 ****        -1.1966  -0.7633   0.2899 H              1 S1                 0.0000
     25 ****         1.4788   0.2765   0.6260 H              1 S1                 0.0000
     26 ****         0.8072  -1.2031  -1.9539 H              1 S1                 0.0000
     27 ****         1.7765   0.2648  -1.7974 H              1 S1                 0.0000
     28 ****         2.9558  -2.2222  -1.8282 H              1 S1                 0.0000
     29 ****         3.5911  -0.9233  -0.8264 H              1 S1                 0.0000
     30 ****         3.7096  -1.3218   1.6628 H              1 S1                 0.0000
     31 ****         4.4658  -3.9643   0.1358 H              1 S1                 0.0000
     32 ****         5.5485  -3.0807   1.3305 H              1 S1                 0.0000
     33 ****         3.8401  -3.4170   3.1380 H              1 S1                 0.0000
     34 ****         2.7504  -4.3017   1.9504 H              1 S1                 0.0000
     35 ****         1.0375  -1.7855   1.8142 H              1 S1                 0.0000
     36 ****         0.3152  -2.5247   0.3893 H              1 S1                 0.0000
     37 ****         2.2572  -3.2892  -0.0396 H              1 S1                 0.0000
     38 ****        -5.6665   5.1532  -0.9769 H              1 S1                 0.0000
     39 ****        -0.5607   3.0086  -0.7255 LP             1 S1                 0.0000
     40 ****         0.8002   1.9538  -0.5369 LP             1 S1                 0.0000
@<TRIPOS>BOND
    1    1    2 2     
    2    2    3 am    
    3    2   10 am    
    4    3    4 1     
    5    3   19 1     
    6    4    9 ar    
    7    4    5 ar    
    8    5    6 ar    
    9    5   20 1     
   10    6    7 ar    
   11    6   21 1     
   12    7    8 ar    
   13    7   38 1     
   14    8    9 ar    
   15    8   22 1     
   16    9   23 1     
   17   10   11 1     
   18   10   24 1     
   19   11   18 1     
   20   11   12 1     
   21   11   25 1     
   22   12   13 1     
   23   12   26 1     
   24   12   27 1     
   25   13   14 1     
   26   13   28 1     
   27   13   29 1     
   28   14   15 1     
   29   14   18 1     
   30   14   37 1     
   31   15   17 1     
   32   15   16 1     
   33   15   30 1     
   34   16   17 1     
   35   16   31 1     
   36   16   32 1     
   37   17   33 1     
   38   17   34 1     
   39   18   35 1     
   40   18   36 1     
   41    1   39 1     
   42    1   40 1     
@<TRIPOS>SUBSTRUCTURE
      1 S1             1
@<TRIPOS>SET
LONE_PAIRS      STATIC     ATOMS    <user>   **** ""
2 39 40
DONOR_HYDROGENS      STATIC     ATOMS    <user>   **** ""
4 19 38 24 37
ATOM$BLUE        STATIC     ATOMS    COLORGROUP SYSTEM
2 39 40
ATOM$RED        STATIC     ATOMS    COLORGROUP SYSTEM
4 19 38 24 37
