AV-unprocessed.smi:3272|AV-procd|sdf|12519|dock1
  -GOLD-   2272018433D 1   1.00000     0.00000
 Structure written by MMmdl.
 35 36  0  0  0  0  0  0  0  0  1 V2000
  145.2226  130.7709  151.3852 C   0  0  0  0  0  0  0  0  0  0  0  0
  144.4019  131.7096  150.4931 C   0  0  0  0  0  0  0  0  0  0  0  0
  144.7417  133.1004  150.7212 N   0  0  0  0  0  0  0  0  0  0  0  0
  145.6916  133.6165  151.5801 C   0  0  0  0  0  0  0  0  0  0  0  0
  145.6294  134.9728  151.4274 C   0  0  0  0  0  0  0  0  0  0  0  0
  146.3868  135.9857  152.0684 N   0  0  0  0  0  0  0  0  0  0  0  0
  145.9190  137.0467  152.7461 C   0  0  0  0  0  0  0  0  0  0  0  0
  144.7280  137.3020  152.9251 O   0  0  0  0  0  0  0  0  0  0  0  0
  146.9198  137.8116  153.2055 N   0  0  0  0  0  0  0  0  0  0  0  0
  146.7586  139.0509  153.9602 C   0  0  0  0  0  0  0  0  0  0  0  0
  147.9866  139.9704  153.8199 C   0  0  1  0  0  0  0  0  0  0  0  0
  147.9935  141.1858  154.7276 C   0  0  0  0  0  0  0  0  0  0  0  0
  149.4667  141.5824  154.7158 C   0  0  0  0  0  0  0  0  0  0  0  0
  150.1959  140.3724  154.5308 O   0  0  0  0  0  0  0  0  0  0  0  0
  149.3036  139.3064  154.2198 C   0  0  0  0  0  0  0  0  0  0  0  0
  144.6200  135.2074  150.4578 C   0  0  0  0  0  0  0  0  0  0  0  0
  144.0875  134.0707  150.0359 N   0  0  0  0  0  0  0  0  0  0  0  0
  144.9471  129.7310  151.2102 H   0  0  0  0  0  0  0  0  0  0  0  0
  145.0563  130.9867  152.4412 H   0  0  0  0  0  0  0  0  0  0  0  0
  146.2904  130.8695  151.1866 H   0  0  0  0  0  0  0  0  0  0  0  0
  144.5663  131.4748  149.4406 H   0  0  0  0  0  0  0  0  0  0  0  0
  143.3368  131.5752  150.6852 H   0  0  0  0  0  0  0  0  0  0  0  0
  146.3072  132.9835  152.2018 H   0  0  0  0  0  0  0  0  0  0  0  0
  147.3897  135.8988  151.9930 H   0  0  0  0  0  0  0  0  0  0  0  0
  147.8666  137.5206  153.0103 H   0  0  0  0  0  0  0  0  0  0  0  0
  145.8486  139.5741  153.6610 H   0  0  0  0  0  0  0  0  0  0  0  0
  146.6235  138.7844  155.0086 H   0  0  0  0  0  0  0  0  0  0  0  0
  148.0700  140.3075  152.7852 H   0  0  0  0  0  0  0  0  0  0  0  0
  147.3384  141.9861  154.3822 H   0  0  0  0  0  0  0  0  0  0  0  0
  147.6898  140.9079  155.7379 H   0  0  0  0  0  0  0  0  0  0  0  0
  149.6757  142.2435  153.8739 H   0  0  0  0  0  0  0  0  0  0  0  0
  149.7664  142.0942  155.6305 H   0  0  0  0  0  0  0  0  0  0  0  0
  149.1730  138.6968  155.1151 H   0  0  0  0  0  0  0  0  0  0  0  0
  149.7059  138.6681  153.4329 H   0  0  0  0  0  0  0  0  0  0  0  0
  144.2628  136.1435  150.0547 H   0  0  0  0  0  0  0  0  0  0  0  0
  1  2  1  0  0  0  0
  1 18  1  0  0  0  0
  1 19  1  0  0  0  0
  1 20  1  0  0  0  0
  2  3  1  0  0  0  0
  2 21  1  0  0  0  0
  2 22  1  0  0  0  0
  3 17  1  0  0  0  0
  3  4  1  0  0  0  0
  4  5  2  0  0  0  0
  4 23  1  0  0  0  0
  5  6  1  0  0  0  0
  5 16  1  0  0  0  0
  6  7  1  0  0  0  0
  6 24  1  0  0  0  0
  7  8  2  0  0  0  0
  7  9  1  0  0  0  0
  9 10  1  0  0  0  0
  9 25  1  0  0  0  0
 10 11  1  0  0  0  0
 10 26  1  0  0  0  0
 10 27  1  0  0  0  0
 11 15  1  0  0  0  0
 11 12  1  0  0  0  0
 11 28  1  0  0  0  0
 12 13  1  0  0  0  0
 12 29  1  0  0  0  0
 12 30  1  0  0  0  0
 13 14  1  0  0  0  0
 13 31  1  0  0  0  0
 13 32  1  0  0  0  0
 14 15  1  0  0  0  0
 15 33  1  0  0  0  0
 15 34  1  0  0  0  0
 16 17  2  0  0  0  0
 16 35  1  0  0  0  0
M  END
> <s_m_source_file>
AV-unprocessed.smi

> <i_m_source_file_index>
3272

> <i_lp_mmshare_version>
43012

> <i_f3d_flags>
0

> <s_epik_input>
W0NIM11bQ0gyXW4xW2NIXWMoW2NIXW4xKVtOSF1DKD1PKVtOSF1bQ0gyXVtDQEBIXTJbQ0gyXVtDSDJdT1tDSDJdMg==

> <s_epik_cmdline>
J2VwaWtfcHl0aG9uJywgJy1waCcsICc3LjAnLCAnLXRuJywgJzgnLCAnLW1hJywgJzIwMCcsICctbWV0YWxfYmluZGluZycsICctaW1hZScsICc8aW5maWxlLm1hZT4nLCAnLW9tYWUnLCAnPG91dGZpbGUubWFlPic=

> <r_lp_tautomer_probability>
1

> <r_epik_Ionization_Penalty>
0.000182896

> <r_epik_Ionization_Penalty_Charging>
0

> <r_epik_Ionization_Penalty_Neutral>
0.000182896

> <r_epik_State_Penalty>
-0

> <r_epik_Charging_Adjusted_Penalty>
0

> <i_epik_Tot_Q>
0

> <i_epik_Tot_abs_Q>
0

> <r_epik_Metal_State_Penalty>
-0

> <b_epik_Metal_Only>
0

> <s_lp_Force_Field>
OPLS_2005

> <r_lp_Energy>
22.1585

> <b_lp_Chiralities_Consistent>
1

> <s_lp_Variant>
AV-unprocessed.smi:3272-2

> <Gold.Version>
5.8.1

> <Gold.Id.Protein>
6NUR|6NUR_protein|mol2

> <Gold.PLP.Fitness>
40.2917

> <Gold.PLP.PLP>
-30.1077

> <Gold.PLP.part.hbond>
-3.0000

> <Gold.PLP.part.metal>
0.0000

> <Gold.PLP.part.buried>
-2.9470

> <Gold.PLP.part.nonpolar>
-24.4363

> <Gold.PLP.part.repulsive>
0.5807

> <Gold.PLP.ligand.clash>
0.0000

> <Gold.PLP.ligand.torsion>
0.6937

> <Gold.PLP.Chemscore.Hbond>
2.8480

> <Gold.PLP.Chemscore.CHOScore>
1.0000

> <Gold.PLP.Chemscore.Metal>
0.0000

> <Gold.Chemscore.Hbonds>
donor molecule, donor type, donor heavy atom, donor atom, acceptor molecule, acceptor atom, score
      L1  H     6    24       P1  7948  1.00
      L1  H     9    25       P1  7948  0.84
      P1  H  7989  7998       L1    14  0.99
      L1  C    16    35       P1 10171  1.00

> <Gold.PLP.Chemscore.Internal.Correction>
0.0274

> <Gold.Rescore>
     Score         DG    S(hbond)    S(metal)    S(lipo)     H(rot)  DE(clash)    DE(int)     intcor
     17.68     -18.55       2.56        0.00      69.48       1.41       0.28       0.59       ----

> <Gold.Chemscore.Fitness>
17.6804

> <Gold.Chemscore.DG>
-18.5507

> <Gold.Chemscore.ZeroCoef>
-5.4800

> <Gold.Chemscore.Hbond>
2.5576

> <Gold.Chemscore.Metal>
0.0000

> <Gold.Chemscore.Lipo>
69.4761

> <Gold.Chemscore.Internal_Hbond>
0.0000

> <Gold.Chemscore.DEClash>
0.2805

> <Gold.Chemscore.DEInternal>
0.5898

> <Gold.Chemscore.Rot>
1.4064

> <Gold.Chemscore.Internal.Correction>
   9.000000E+99

> <Gold.Chemscore.Hbonds>
donor molecule, donor type, donor heavy atom, donor atom, acceptor molecule, acceptor atom, score
      L1  H     6    24       P1  7948  0.97
      L1  H     9    25       P1  7948  0.77
      P1  H  7989  7998       L1    14  0.37

> <Gold.Chemscore.Hbond.Weighted>
-8.5424

> <Gold.Chemscore.Metal.Weighted>
-0.0000

> <Gold.Chemscore.Lipo.Weighted>
-8.1287

> <Gold.Chemscore.Internal_Hbond.Weighted>
0.0000

> <Gold.Chemscore.DEClash.Weighted>
0.2805

> <Gold.Chemscore.DEInternal.Weighted>
0.5898

> <Gold.Chemscore.Rot.Weighted>
3.6004

> <Gold.Chemscore.Internal.Correction.Weighted>
   9.000000E+99

> <Gold.Protein.RotatedTorsions>
[ 6907 6896 6895 6894 ] final  -91.17 input  -60.11 | X-H torsion
[ 7974 7965 7964 7962 ] final  -38.02 input  175.53 | X-H torsion
[ 8008 7997 7996 7995 ] final  148.21 input   59.86 | X-H torsion
[ 10167 10162 10161 10158 ] final  124.70 input  -65.29 | X-H torsion
[ 10718 10713 10712 10709 ] final   75.54 input   66.30 | X-H torsion
[ 10763 10752 10751 10750 ] final  -47.95 input  -60.55 | X-H torsion
[ 11005 11000 10999 10996 ] final -121.15 input  -57.11 | X-H torsion

> <Gold.Protein.ActiveResidues>
 VAL166  LYS551  ARG553  GLY616  TRP617  ASP618  TYR619  PRO620  LYS621  CYS622 
 ASP623  PHE694  ASN695  SER759  ASP760  ASP761  ALA762  ILE779  LEU786  VAL792 
 PHE793  MET794  SER795  GLU796  ALA797  LYS798  CYS799  TRP800  GLU811  SER814 

> <Gold.Protein.RotatedAtoms>
  150.6889  134.2319  159.4437 H   0  0  0  0  0  0  0  0  0  0  0  0  # atno 6907 bound_to 6896
  152.0269  134.9788  160.0581 H   0  0  0  0  0  0  0  0  0  0  0  0  # atno 6908 bound_to 6896
  152.1343  133.4391  159.4773 H   0  0  0  0  0  0  0  0  0  0  0  0  # atno 6909 bound_to 6896
  146.0524  140.6463  142.9036 H   0  0  0  0  0  0  0  0  0  0  0  0  # atno 7974 bound_to 7965
  156.2799  140.2135  156.5662 H   0  0  0  0  0  0  0  0  0  0  0  0  # atno 8008 bound_to 7997
  154.7173  140.0506  157.0629 H   0  0  0  0  0  0  0  0  0  0  0  0  # atno 8009 bound_to 7997
  155.0526  140.3158  155.4690 H   0  0  0  0  0  0  0  0  0  0  0  0  # atno 8010 bound_to 7997
  139.5727  144.6947  151.3737 H   0  0  0  0  0  0  0  0  0  0  0  0  # atno 10167 bound_to 10162
  157.6638  130.9731  150.1368 H   0  0  0  0  0  0  0  0  0  0  0  0  # atno 10718 bound_to 10713
  154.0698  135.6606  153.4822 H   0  0  0  0  0  0  0  0  0  0  0  0  # atno 10763 bound_to 10752
  153.0395  135.5154  154.7578 H   0  0  0  0  0  0  0  0  0  0  0  0  # atno 10764 bound_to 10752
  154.6640  135.3019  154.9796 H   0  0  0  0  0  0  0  0  0  0  0  0  # atno 10765 bound_to 10752
  141.0091  134.0291  157.3438 H   0  0  0  0  0  0  0  0  0  0  0  0  # atno 11005 bound_to 11000
  144.7129  140.4106  143.7066 LP  0  0  0  0  0  0  0  0  0  0  0  0  # atno 17320 bound_to 7965
  145.6702  139.1598  143.2759 LP  0  0  0  0  0  0  0  0  0  0  0  0  # atno 17321 bound_to 7965
  140.7010  143.7630  150.7404 LP  0  0  0  0  0  0  0  0  0  0  0  0  # atno 17342 bound_to 10162
  140.1141  143.4672  152.2352 LP  0  0  0  0  0  0  0  0  0  0  0  0  # atno 17343 bound_to 10162
  156.2200  130.3673  149.8567 LP  0  0  0  0  0  0  0  0  0  0  0  0  # atno 17370 bound_to 10713
  156.6422  130.8709  151.3516 LP  0  0  0  0  0  0  0  0  0  0  0  0  # atno 17371 bound_to 10713
  139.9080  135.0184  156.7569 LP  0  0  0  0  0  0  0  0  0  0  0  0  # atno 17394 bound_to 11000
  140.6763  133.9514  155.7885 LP  0  0  0  0  0  0  0  0  0  0  0  0  # atno 17395 bound_to 11000

$$$$
