AV-unprocessed.smi:3153|AV-procd|sdf|12019|dock1
  -GOLD-   2272017433D 1   1.00000     0.00000
 Structure written by MMmdl.
 38 39  0  0  0  0  0  0  0  0  2 V2000
  147.4036  139.8229  152.1055 O   0  0  0  0  0  0  0  0  0  0  0  0
  147.1170  139.4189  153.4334 C   0  0  0  0  0  0  0  0  0  0  0  0
  146.0642  138.2904  153.3555 C   0  0  0  0  0  0  0  0  0  0  0  0
  146.2619  137.4127  152.1822 N   0  3  0  0  0  0  0  0  0  0  0  0
  145.4691  136.1691  152.2219 C   0  0  0  0  0  0  0  0  0  0  0  0
  145.1685  135.6603  150.8038 C   0  0  0  0  0  0  0  0  0  0  0  0
  145.1539  134.2111  150.7369 N   0  0  0  0  0  0  0  0  0  0  0  0
  144.1204  133.3803  150.3573 C   0  0  0  0  0  0  0  0  0  0  0  0
  144.5788  132.0969  150.4410 C   0  0  0  0  0  0  0  0  0  0  0  0
  145.9248  132.2459  150.8774 C   0  0  0  0  0  0  0  0  0  0  0  0
  146.2675  133.5129  151.0488 N   0  0  0  0  0  0  0  0  0  0  0  0
  148.4230  138.8736  154.0596 C   0  0  0  0  0  0  0  0  0  0  0  0
  149.4917  139.9608  154.2709 C   0  0  0  0  0  0  0  0  0  0  0  0
  148.9419  141.1276  155.1022 C   0  0  0  0  0  0  0  0  0  0  0  0
  147.6800  141.7145  154.4550 C   0  0  0  0  0  0  0  0  0  0  0  0
  146.6020  140.6361  154.2425 C   0  0  0  0  0  0  0  0  0  0  0  0
  148.3286  139.7099  151.9467 H   0  0  0  0  0  0  0  0  0  0  0  0
  146.0987  137.6819  154.2606 H   0  0  0  0  0  0  0  0  0  0  0  0
  145.0632  138.7216  153.3049 H   0  0  0  0  0  0  0  0  0  0  0  0
  146.0124  137.9283  151.3504 H   0  0  0  0  0  0  0  0  0  0  0  0
  146.0199  135.4141  152.7848 H   0  0  0  0  0  0  0  0  0  0  0  0
  144.5370  136.3555  152.7572 H   0  0  0  0  0  0  0  0  0  0  0  0
  144.1996  136.0313  150.4670 H   0  0  0  0  0  0  0  0  0  0  0  0
  145.9132  136.0299  150.0974 H   0  0  0  0  0  0  0  0  0  0  0  0
  143.1548  133.7656  150.0641 H   0  0  0  0  0  0  0  0  0  0  0  0
  144.0364  131.1894  150.2202 H   0  0  0  0  0  0  0  0  0  0  0  0
  146.6582  131.4770  151.0713 H   0  0  0  0  0  0  0  0  0  0  0  0
  148.1959  138.4216  155.0262 H   0  0  0  0  0  0  0  0  0  0  0  0
  148.8337  138.0727  153.4433 H   0  0  0  0  0  0  0  0  0  0  0  0
  150.3623  139.5312  154.7673 H   0  0  0  0  0  0  0  0  0  0  0  0
  149.8414  140.3305  153.3064 H   0  0  0  0  0  0  0  0  0  0  0  0
  148.7114  140.7833  156.1112 H   0  0  0  0  0  0  0  0  0  0  0  0
  149.7028  141.9021  155.2050 H   0  0  0  0  0  0  0  0  0  0  0  0
  147.2834  142.5158  155.0793 H   0  0  0  0  0  0  0  0  0  0  0  0
  147.9390  142.1714  153.4992 H   0  0  0  0  0  0  0  0  0  0  0  0
  145.7386  141.0871  153.7521 H   0  0  0  0  0  0  0  0  0  0  0  0
  146.2523  140.2964  155.2183 H   0  0  0  0  0  0  0  0  0  0  0  0
  147.2414  137.1715  152.1290 H   0  0  0  0  0  0  0  0  0  0  0  0
  1  2  1  0  0  0  0
  1 17  1  0  0  0  0
  2 16  1  0  0  0  0
  2  3  1  0  0  0  0
  2 12  1  0  0  0  0
  3  4  1  0  0  0  0
  3 18  1  0  0  0  0
  3 19  1  0  0  0  0
  4  5  1  0  0  0  0
  4 20  1  0  0  0  0
  4 38  1  0  0  0  0
  5  6  1  0  0  0  0
  5 21  1  0  0  0  0
  5 22  1  0  0  0  0
  6  7  1  0  0  0  0
  6 23  1  0  0  0  0
  6 24  1  0  0  0  0
  7 11  1  0  0  0  0
  7  8  1  0  0  0  0
  8  9  2  0  0  0  0
  8 25  1  0  0  0  0
  9 10  1  0  0  0  0
  9 26  1  0  0  0  0
 10 11  2  0  0  0  0
 10 27  1  0  0  0  0
 12 13  1  0  0  0  0
 12 28  1  0  0  0  0
 12 29  1  0  0  0  0
 13 14  1  0  0  0  0
 13 30  1  0  0  0  0
 13 31  1  0  0  0  0
 14 15  1  0  0  0  0
 14 32  1  0  0  0  0
 14 33  1  0  0  0  0
 15 16  1  0  0  0  0
 15 34  1  0  0  0  0
 15 35  1  0  0  0  0
 16 36  1  0  0  0  0
 16 37  1  0  0  0  0
M  CHG  1   4   1
M  END
> <s_m_source_file>
AV-unprocessed.smi

> <i_m_source_file_index>
3153

> <i_lp_mmshare_version>
43012

> <i_f3d_flags>
0

> <s_epik_input>
W0NIMl0xW0NIMl1bQ0gyXVtDSDJdW0NIMl1DMShbT0hdKVtDSDJdW05IXVtDSDJdW0NIMl1uMltjSF1bY0hdW2NIXW4y

> <s_epik_cmdline>
J2VwaWtfcHl0aG9uJywgJy1waCcsICc3LjAnLCAnLXRuJywgJzgnLCAnLW1hJywgJzIwMCcsICctbWV0YWxfYmluZGluZycsICctaW1hZScsICc8aW5maWxlLm1hZT4nLCAnLW9tYWUnLCAnPG91dGZpbGUubWFlPic=

> <r_lp_tautomer_probability>
1

> <r_epik_Ionization_Penalty>
0.0240152

> <r_epik_Ionization_Penalty_Charging>
0.0240119

> <r_epik_Ionization_Penalty_Neutral>
3.38076e-06

> <r_epik_State_Penalty>
0.0194671

> <r_epik_Charging_Adjusted_Penalty>
0.043479

> <i_epik_Tot_Q>
1

> <i_epik_Tot_abs_Q>
1

> <r_epik_Metal_State_Penalty>
0.0195093

> <b_epik_Metal_Only>
0

> <s_lp_Force_Field>
OPLS_2005

> <r_lp_Energy>
15.7554

> <b_lp_Chiralities_Consistent>
1

> <s_lp_Variant>
AV-unprocessed.smi:3153-1

> <Gold.Version>
5.8.1

> <Gold.Id.Protein>
6NUR|6NUR_protein|mol2

> <Gold.PLP.Fitness>
45.4639

> <Gold.PLP.PLP>
-32.0290

> <Gold.PLP.part.hbond>
-1.5316

> <Gold.PLP.part.metal>
0.0000

> <Gold.PLP.part.buried>
-6.3308

> <Gold.PLP.part.nonpolar>
-26.5452

> <Gold.PLP.part.repulsive>
0.2421

> <Gold.PLP.ligand.clash>
0.0000

> <Gold.PLP.ligand.torsion>
0.8020

> <Gold.PLP.Chemscore.Hbond>
2.9913

> <Gold.PLP.Chemscore.CHOScore>
2.0000

> <Gold.PLP.Chemscore.Metal>
0.0000

> <Gold.Chemscore.Hbonds>
donor molecule, donor type, donor heavy atom, donor atom, acceptor molecule, acceptor atom, score
      L1  H     1    17       P1  7957  0.95
      L1  H     4    38       P1  7948  2.00
      L1  C     8    25       P1 10186  1.00
      L1  C    10    27       P1 10747  1.00

> <Gold.PLP.Chemscore.Internal.Correction>
0.0653

> <Gold.Rescore>
     Score         DG    S(hbond)    S(metal)    S(lipo)     H(rot)  DE(clash)    DE(int)     intcor
     14.83     -15.40       1.96        0.00      78.43       2.26       0.07       0.50       ----

> <Gold.Chemscore.Fitness>
14.8325

> <Gold.Chemscore.DG>
-15.4048

> <Gold.Chemscore.ZeroCoef>
-5.4800

> <Gold.Chemscore.Hbond>
1.9564

> <Gold.Chemscore.Metal>
0.0000

> <Gold.Chemscore.Lipo>
78.4282

> <Gold.Chemscore.Internal_Hbond>
0.0000

> <Gold.Chemscore.DEClash>
0.0710

> <Gold.Chemscore.DEInternal>
0.5012

> <Gold.Chemscore.Rot>
2.2601

> <Gold.Chemscore.Internal.Correction>
   9.000000E+99

> <Gold.Chemscore.Hbonds>
donor molecule, donor type, donor heavy atom, donor atom, acceptor molecule, acceptor atom, score
      L1  H     1    17       P1  7957  0.86
      L1  H     4    38       P1  7948  0.99

> <Gold.Chemscore.Hbond.Weighted>
-6.5345

> <Gold.Chemscore.Metal.Weighted>
-0.0000

> <Gold.Chemscore.Lipo.Weighted>
-9.1761

> <Gold.Chemscore.Internal_Hbond.Weighted>
0.0000

> <Gold.Chemscore.DEClash.Weighted>
0.0710

> <Gold.Chemscore.DEInternal.Weighted>
0.5012

> <Gold.Chemscore.Rot.Weighted>
5.7858

> <Gold.Chemscore.Internal.Correction.Weighted>
   9.000000E+99

> <Gold.Protein.RotatedTorsions>
[ 6907 6896 6895 6894 ] final   22.43 input  -60.11 | X-H torsion
[ 7974 7965 7964 7962 ] final  139.63 input  175.53 | X-H torsion
[ 8008 7997 7996 7995 ] final  142.13 input   59.86 | X-H torsion
[ 10167 10162 10161 10158 ] final -165.74 input  -65.29 | X-H torsion
[ 10718 10713 10712 10709 ] final -171.54 input   66.30 | X-H torsion
[ 10763 10752 10751 10750 ] final  170.67 input  -60.55 | X-H torsion
[ 11005 11000 10999 10996 ] final  145.83 input  -57.11 | X-H torsion

> <Gold.Protein.ActiveResidues>
 VAL166  LYS551  ARG553  GLY616  TRP617  ASP618  TYR619  PRO620  LYS621  CYS622 
 ASP623  PHE694  ASN695  SER759  ASP760  ASP761  ALA762  ILE779  LEU786  VAL792 
 PHE793  MET794  SER795  GLU796  ALA797  LYS798  CYS799  TRP800  GLU811  SER814 

> <Gold.Protein.RotatedAtoms>
  151.9270  135.0273  160.0526 H   0  0  0  0  0  0  0  0  0  0  0  0  # atno 6907 bound_to 6896
  152.2151  133.4936  159.5140 H   0  0  0  0  0  0  0  0  0  0  0  0  # atno 6908 bound_to 6896
  150.6985  134.1333  159.4120 H   0  0  0  0  0  0  0  0  0  0  0  0  # atno 6909 bound_to 6896
  144.9261  139.5106  143.5640 H   0  0  0  0  0  0  0  0  0  0  0  0  # atno 7974 bound_to 7965
  156.2954  140.2297  156.4677 H   0  0  0  0  0  0  0  0  0  0  0  0  # atno 8008 bound_to 7997
  154.7963  140.0451  157.1260 H   0  0  0  0  0  0  0  0  0  0  0  0  # atno 8009 bound_to 7997
  154.9586  140.3051  155.5045 H   0  0  0  0  0  0  0  0  0  0  0  0  # atno 8010 bound_to 7997
  139.6161  144.0716  152.1889 H   0  0  0  0  0  0  0  0  0  0  0  0  # atno 10167 bound_to 10162
  156.7424  130.9347  151.3111 H   0  0  0  0  0  0  0  0  0  0  0  0  # atno 10718 bound_to 10713
  154.4010  135.2755  155.2097 H   0  0  0  0  0  0  0  0  0  0  0  0  # atno 10763 bound_to 10752
  154.4123  135.6019  153.5963 H   0  0  0  0  0  0  0  0  0  0  0  0  # atno 10764 bound_to 10752
  152.9831  135.5952  154.4277 H   0  0  0  0  0  0  0  0  0  0  0  0  # atno 10765 bound_to 10752
  140.0744  134.9133  157.1398 H   0  0  0  0  0  0  0  0  0  0  0  0  # atno 11005 bound_to 11000
  146.3226  139.8177  142.8933 LP  0  0  0  0  0  0  0  0  0  0  0  0  # atno 17320 bound_to 7965
  145.3217  141.0245  143.3496 LP  0  0  0  0  0  0  0  0  0  0  0  0  # atno 17321 bound_to 7965
  140.0347  144.6054  150.7459 LP  0  0  0  0  0  0  0  0  0  0  0  0  # atno 17342 bound_to 10162
  140.7352  143.2738  151.3806 LP  0  0  0  0  0  0  0  0  0  0  0  0  # atno 17343 bound_to 10162
  157.6813  130.9142  150.0273 LP  0  0  0  0  0  0  0  0  0  0  0  0  # atno 17370 bound_to 10713
  156.1455  130.3642  149.9516 LP  0  0  0  0  0  0  0  0  0  0  0  0  # atno 17371 bound_to 10713
  140.3579  134.2526  155.7190 LP  0  0  0  0  0  0  0  0  0  0  0  0  # atno 17394 bound_to 11000
  141.2024  133.7939  157.0393 LP  0  0  0  0  0  0  0  0  0  0  0  0  # atno 17395 bound_to 11000

$$$$
