AV-unprocessed.smi:1459|AV-procd|sdf|5924|dock7
  -GOLD-   22720 6 03D 1   1.00000     0.00000
 Structure written by MMmdl.
 34 35  0  0  0  0  0  0  0  0  1 V2000
  151.4384  142.6205  158.1865 C   0  0  0  0  0  0  0  0  0  0  0  0
  152.3957  142.1144  159.2102 C   0  0  0  0  0  0  0  0  0  0  0  0
  152.7415  142.5522  160.4576 C   0  0  0  0  0  0  0  0  0  0  0  0
  153.7117  141.6017  160.8730 C   0  0  0  0  0  0  0  0  0  0  0  0
  154.3328  141.7033  162.1442 N   0  0  0  0  0  0  0  0  0  0  0  0
  153.9279  142.4314  163.1987 C   0  0  0  0  0  0  0  0  0  0  0  0
  152.9229  143.1421  163.2244 O   0  0  0  0  0  0  0  0  0  0  0  0
  154.7618  142.2824  164.2391 N   0  0  0  0  0  0  0  0  0  0  0  0
  154.6274  142.9252  165.5458 C   0  0  2  0  0  0  0  0  0  0  0  0
  154.8802  144.4313  165.3833 C   0  0  0  0  0  0  0  0  0  0  0  0
  155.5957  142.2870  166.5637 C   0  0  2  0  0  0  0  0  0  0  0  0
  155.6676  140.7588  166.5189 C   0  0  0  0  0  0  0  0  0  0  0  0
  156.1546  140.4341  167.9120 C   0  0  0  0  0  0  0  0  0  0  0  0
  155.4010  141.4623  168.7493 C   0  0  0  0  0  0  0  0  0  0  0  0
  155.1905  142.5863  167.8981 O   0  0  0  0  0  0  0  0  0  0  0  0
  153.9378  140.6681  159.9614 N   0  0  0  0  0  0  0  0  0  0  0  0
  153.0952  140.9917  158.8913 O   0  0  0  0  0  0  0  0  0  0  0  0
  150.8746  143.4724  158.5671 H   0  0  0  0  0  0  0  0  0  0  0  0
  150.7270  141.8443  157.9046 H   0  0  0  0  0  0  0  0  0  0  0  0
  151.9668  142.9389  157.2877 H   0  0  0  0  0  0  0  0  0  0  0  0
  152.3597  143.4138  160.9848 H   0  0  0  0  0  0  0  0  0  0  0  0
  155.1762  141.1624  162.2640 H   0  0  0  0  0  0  0  0  0  0  0  0
  155.5575  141.6728  164.1205 H   0  0  0  0  0  0  0  0  0  0  0  0
  153.6084  142.8024  165.9167 H   0  0  0  0  0  0  0  0  0  0  0  0
  154.7534  144.9574  166.3298 H   0  0  0  0  0  0  0  0  0  0  0  0
  154.1823  144.8713  164.6701 H   0  0  0  0  0  0  0  0  0  0  0  0
  155.8914  144.6295  165.0265 H   0  0  0  0  0  0  0  0  0  0  0  0
  156.6008  142.6899  166.4276 H   0  0  0  0  0  0  0  0  0  0  0  0
  154.6762  140.3306  166.3629 H   0  0  0  0  0  0  0  0  0  0  0  0
  156.3289  140.3844  165.7369 H   0  0  0  0  0  0  0  0  0  0  0  0
  155.9488  139.4063  168.2116 H   0  0  0  0  0  0  0  0  0  0  0  0
  157.2298  140.6042  167.9826 H   0  0  0  0  0  0  0  0  0  0  0  0
  154.4285  141.0702  169.0486 H   0  0  0  0  0  0  0  0  0  0  0  0
  155.9457  141.7421  169.6514 H   0  0  0  0  0  0  0  0  0  0  0  0
  1  2  1  0  0  0  0
  1 18  1  0  0  0  0
  1 19  1  0  0  0  0
  1 20  1  0  0  0  0
  2 17  1  0  0  0  0
  2  3  2  0  0  0  0
  3  4  1  0  0  0  0
  3 21  1  0  0  0  0
  4  5  1  0  0  0  0
  4 16  2  0  0  0  0
  5  6  1  0  0  0  0
  5 22  1  0  0  0  0
  6  7  2  0  0  0  0
  6  8  1  0  0  0  0
  8  9  1  0  0  0  0
  8 23  1  0  0  0  0
  9 10  1  0  0  0  0
  9 11  1  0  0  0  0
  9 24  1  0  0  0  0
 10 25  1  0  0  0  0
 10 26  1  0  0  0  0
 10 27  1  0  0  0  0
 11 15  1  0  0  0  0
 11 12  1  0  0  0  0
 11 28  1  0  0  0  0
 12 13  1  0  0  0  0
 12 29  1  0  0  0  0
 12 30  1  0  0  0  0
 13 14  1  0  0  0  0
 13 31  1  0  0  0  0
 13 32  1  0  0  0  0
 14 15  1  0  0  0  0
 14 33  1  0  0  0  0
 14 34  1  0  0  0  0
 16 17  1  0  0  0  0
M  END
> <s_m_source_file>
AV-unprocessed.smi

> <i_m_source_file_index>
1459

> <i_lp_mmshare_version>
43012

> <i_f3d_flags>
0

> <s_epik_input>
W0NIM11jMVtjSF1jKG5vMSlbTkhdQyg9TylbTkhdW0NASF0oW0NIM10pW0NAQEhdMltDSDJdW0NIMl1bQ0gyXU8y

> <s_epik_cmdline>
J2VwaWtfcHl0aG9uJywgJy1waCcsICc3LjAnLCAnLXRuJywgJzgnLCAnLW1hJywgJzIwMCcsICctbWV0YWxfYmluZGluZycsICctaW1hZScsICc8aW5maWxlLm1hZT4nLCAnLW9tYWUnLCAnPG91dGZpbGUubWFlPic=

> <r_lp_tautomer_probability>
1

> <r_epik_Ionization_Penalty>
2.20869e-05

> <r_epik_Ionization_Penalty_Charging>
0

> <r_epik_Ionization_Penalty_Neutral>
2.20869e-05

> <r_epik_State_Penalty>
-0

> <r_epik_Charging_Adjusted_Penalty>
0

> <i_epik_Tot_Q>
0

> <i_epik_Tot_abs_Q>
0

> <r_epik_Metal_State_Penalty>
-0

> <b_epik_Metal_Only>
0

> <s_lp_Force_Field>
OPLS_2005

> <r_lp_Energy>
15.5661

> <b_lp_Chiralities_Consistent>
1

> <s_lp_Variant>
AV-unprocessed.smi:1459-1

> <Gold.Version>
5.8.1

> <Gold.Id.Protein>
6NUR|6NUR_protein|mol2

> <Gold.PLP.Fitness>
34.0711

> <Gold.PLP.PLP>
-34.9426

> <Gold.PLP.part.hbond>
-2.0000

> <Gold.PLP.part.metal>
0.0000

> <Gold.PLP.part.buried>
-2.9806

> <Gold.PLP.part.nonpolar>
-27.5016

> <Gold.PLP.part.repulsive>
0.2876

> <Gold.PLP.ligand.clash>
0.0000

> <Gold.PLP.ligand.torsion>
0.4399

> <Gold.PLP.Chemscore.Hbond>
0.0000

> <Gold.PLP.Chemscore.CHOScore>
0.0000

> <Gold.PLP.Chemscore.Metal>
0.0000

> <Gold.PLP.Chemscore.Internal.Correction>
0.0082

> <Gold.Rescore>
     Score         DG    S(hbond)    S(metal)    S(lipo)     H(rot)  DE(clash)    DE(int)     intcor
      9.00     -10.88       0.00        0.00      74.08       1.28       0.25       1.62       ----

> <Gold.Chemscore.Fitness>
9.0026

> <Gold.Chemscore.DG>
-10.8762

> <Gold.Chemscore.ZeroCoef>
-5.4800

> <Gold.Chemscore.Hbond>
0.0000

> <Gold.Chemscore.Metal>
0.0000

> <Gold.Chemscore.Lipo>
74.0760

> <Gold.Chemscore.Internal_Hbond>
0.0000

> <Gold.Chemscore.DEClash>
0.2498

> <Gold.Chemscore.DEInternal>
1.6237

> <Gold.Chemscore.Rot>
1.2776

> <Gold.Chemscore.Internal.Correction>
   9.000000E+99

> <Gold.Chemscore.Hbond.Weighted>
-0.0000

> <Gold.Chemscore.Metal.Weighted>
-0.0000

> <Gold.Chemscore.Lipo.Weighted>
-8.6669

> <Gold.Chemscore.Internal_Hbond.Weighted>
0.0000

> <Gold.Chemscore.DEClash.Weighted>
0.2498

> <Gold.Chemscore.DEInternal.Weighted>
1.6237

> <Gold.Chemscore.Rot.Weighted>
3.2707

> <Gold.Chemscore.Internal.Correction.Weighted>
   9.000000E+99

> <Gold.Protein.RotatedTorsions>
[ 6907 6896 6895 6894 ] final   85.97 input  -60.11 | X-H torsion
[ 7974 7965 7964 7962 ] final -167.96 input  175.53 | X-H torsion
[ 8008 7997 7996 7995 ] final  123.27 input   59.86 | X-H torsion
[ 10167 10162 10161 10158 ] final    8.91 input  -65.29 | X-H torsion
[ 10718 10713 10712 10709 ] final  -99.76 input   66.30 | X-H torsion
[ 10763 10752 10751 10750 ] final  -84.68 input  -60.55 | X-H torsion
[ 11005 11000 10999 10996 ] final  -70.01 input  -57.11 | X-H torsion

> <Gold.Protein.ActiveResidues>
 VAL166  LYS551  ARG553  GLY616  TRP617  ASP618  TYR619  PRO620  LYS621  CYS622 
 ASP623  PHE694  ASN695  SER759  ASP760  ASP761  ALA762  ILE779  LEU786  VAL792 
 PHE793  MET794  SER795  GLU796  ALA797  LYS798  CYS799  TRP800  GLU811  SER814 

> <Gold.Protein.RotatedAtoms>
  152.5385  134.2503  159.8895 H   0  0  0  0  0  0  0  0  0  0  0  0  # atno 6907 bound_to 6896
  151.2467  133.4365  159.2617 H   0  0  0  0  0  0  0  0  0  0  0  0  # atno 6908 bound_to 6896
  151.0577  134.9730  159.8300 H   0  0  0  0  0  0  0  0  0  0  0  0  # atno 6909 bound_to 6896
  144.7212  140.2441  143.6287 H   0  0  0  0  0  0  0  0  0  0  0  0  # atno 7974 bound_to 7965
  156.2759  140.2766  156.1601 H   0  0  0  0  0  0  0  0  0  0  0  0  # atno 8008 bound_to 7997
  155.0763  140.0387  157.2642 H   0  0  0  0  0  0  0  0  0  0  0  0  # atno 8009 bound_to 7997
  154.7000  140.2647  155.6735 H   0  0  0  0  0  0  0  0  0  0  0  0  # atno 8010 bound_to 7997
  140.6286  143.8044  150.7266 H   0  0  0  0  0  0  0  0  0  0  0  0  # atno 10167 bound_to 10162
  156.0143  130.5297  150.6718 H   0  0  0  0  0  0  0  0  0  0  0  0  # atno 10718 bound_to 10713
  154.6024  135.5512  153.7388 H   0  0  0  0  0  0  0  0  0  0  0  0  # atno 10763 bound_to 10752
  153.0160  135.6369  154.1696 H   0  0  0  0  0  0  0  0  0  0  0  0  # atno 10764 bound_to 10752
  154.1635  135.2896  155.3082 H   0  0  0  0  0  0  0  0  0  0  0  0  # atno 10765 bound_to 10752
  141.1565  133.6779  156.6687 H   0  0  0  0  0  0  0  0  0  0  0  0  # atno 11005 bound_to 11000
  145.8292  139.2078  143.1893 LP  0  0  0  0  0  0  0  0  0  0  0  0  # atno 17320 bound_to 7965
  146.0446  140.8131  142.9811 LP  0  0  0  0  0  0  0  0  0  0  0  0  # atno 17321 bound_to 7965
  140.1651  143.4242  152.2040 LP  0  0  0  0  0  0  0  0  0  0  0  0  # atno 17342 bound_to 10162
  139.5503  144.7332  151.4455 LP  0  0  0  0  0  0  0  0  0  0  0  0  # atno 17343 bound_to 10162
  157.4439  131.0864  151.0916 LP  0  0  0  0  0  0  0  0  0  0  0  0  # atno 17370 bound_to 10713
  157.1452  130.6160  149.5566 LP  0  0  0  0  0  0  0  0  0  0  0  0  # atno 17371 bound_to 10713
  140.3192  134.8022  157.4238 LP  0  0  0  0  0  0  0  0  0  0  0  0  # atno 17394 bound_to 11000
  140.1112  134.5343  155.8265 LP  0  0  0  0  0  0  0  0  0  0  0  0  # atno 17395 bound_to 11000

$$$$
