#       Name:                AV-unprocessed.smi:1495
#       Creating user name   scv26
#       Creation time:       Fri Mar 27 06:17:10 2020


#       File generated by GOLD software.
#

@<TRIPOS>MOLECULE
AV-unprocessed.smi:1495
    45    46     1
SMALL
NO_CHARGES


@<TRIPOS>ATOM
      1 ****        -4.1101  -1.4682  -0.5323 C.3            1 S1                 0.0000
      2 ****        -2.9130  -0.6368  -1.0089 C.3            1 S1                 0.0000
      3 ****        -2.3679   0.3058   0.0752 C.3            1 S1                 0.0000
      4 ****        -1.0848   1.0263  -0.3808 C.3            1 S1                 0.0000
      5 ****        -0.6503   1.9287   0.6948 N.am           1 S1                 0.0000
      6 ****         0.5382   1.8954   1.3442 C.2            1 S1                 0.0000
      7 ****         0.9496   2.8173   2.0494 O.2            1 S1                 0.0000
      8 ****         1.2041   0.7374   1.2096 N.am           1 S1                 0.0000
      9 ****         2.5333   0.4389   1.7328 C.3            1 S1                 0.0000
     10 ****         3.5797   0.3906   0.6050 C.3            1 S1                 0.0000
     11 ****         3.1792  -0.5079  -0.5301 C.2            1 S1                 0.0000
     12 ****         2.6886  -0.1216  -1.7528 C.2            1 S1                 0.0000
     13 ****         2.3083  -1.4893  -2.7620 S.3            1 S1                 0.0000
     14 ****         2.8484  -2.5538  -1.4692 C.2            1 S1                 0.0000
     15 ****         2.8314  -4.0404  -1.5700 C.3            1 S1                 0.0000
     16 ****         3.2671  -1.8960  -0.3853 N.2            1 S1                 0.0000
     17 ****        -1.6765   2.9376   0.9640 C.3            1 S1                 0.0000
     18 ****        -2.9671   2.2102   1.3830 C.3            1 S1                 0.0000
     19 ****        -3.3596   1.2910   0.3659 O.3            1 S1                 0.0000
     20 ****        -4.4611  -2.1309  -1.3234 H              1 S1                 0.0000
     21 ****        -4.9445  -0.8305  -0.2392 H              1 S1                 0.0000
     22 ****        -3.8427  -2.0864   0.3250 H              1 S1                 0.0000
     23 ****        -2.1219  -1.3168  -1.3271 H              1 S1                 0.0000
     24 ****        -3.1954  -0.0608  -1.8908 H              1 S1                 0.0000
     25 ****        -2.1579  -0.2730   0.9767 H              1 S1                 0.0000
     26 ****        -0.3295   0.2971  -0.6748 H              1 S1                 0.0000
     27 ****        -1.2840   1.6155  -1.2774 H              1 S1                 0.0000
     28 ****         0.7740   0.0177   0.6467 H              1 S1                 0.0000
     29 ****         2.8388   1.1508   2.5008 H              1 S1                 0.0000
     30 ****         2.4800  -0.5340   2.2221 H              1 S1                 0.0000
     31 ****         3.7437   1.4022   0.2315 H              1 S1                 0.0000
     32 ****         4.5372   0.0699   1.0169 H              1 S1                 0.0000
     33 ****         2.5174   0.8815  -2.1147 H              1 S1                 0.0000
     34 ****         3.7430  -4.4589  -1.1423 H              1 S1                 0.0000
     35 ****         2.7631  -4.3483  -2.6136 H              1 S1                 0.0000
     36 ****         1.9732  -4.4406  -1.0297 H              1 S1                 0.0000
     37 ****        -1.3855   3.6373   1.7487 H              1 S1                 0.0000
     38 ****        -1.8480   3.5334   0.0665 H              1 S1                 0.0000
     39 ****        -2.8248   1.6804   2.3263 H              1 S1                 0.0000
     40 ****        -3.7720   2.9286   1.5385 H              1 S1                 0.0000
     41 ****         0.3976   3.6432   2.1649 LP             1 S1                 0.0000
     42 ****         1.8356   2.7401   2.5066 LP             1 S1                 0.0000
     43 ****         3.6065  -2.3469   0.4402 LP             1 S1                 0.0000
     44 ****        -4.1916   0.8239   0.6653 LP             1 S1                 0.0000
     45 ****        -3.5489   1.8059  -0.4702 LP             1 S1                 0.0000
@<TRIPOS>BOND
    1    1    2 1     
    2    1   20 1     
    3    1   21 1     
    4    1   22 1     
    5    2    3 1     
    6    2   23 1     
    7    2   24 1     
    8    3   19 1     
    9    3    4 1     
   10    3   25 1     
   11    4    5 1     
   12    4   26 1     
   13    4   27 1     
   14    5    6 am    
   15    5   17 1     
   16    6    7 2     
   17    6    8 am    
   18    8    9 1     
   19    8   28 1     
   20    9   10 1     
   21    9   29 1     
   22    9   30 1     
   23   10   11 1     
   24   10   31 1     
   25   10   32 1     
   26   11   16 1     
   27   11   12 2     
   28   12   13 1     
   29   12   33 1     
   30   13   14 1     
   31   14   15 1     
   32   14   16 2     
   33   15   34 1     
   34   15   35 1     
   35   15   36 1     
   36   17   18 1     
   37   17   37 1     
   38   17   38 1     
   39   18   19 1     
   40   18   39 1     
   41   18   40 1     
   42    7   41 1     
   43    7   42 1     
   44   16   43 1     
   45   19   44 1     
   46   19   45 1     
@<TRIPOS>SUBSTRUCTURE
      1 S1             1
@<TRIPOS>SET
LONE_PAIRS      STATIC     ATOMS    <user>   **** ""
5 41 42 43 44 45
DONOR_HYDROGENS      STATIC     ATOMS    <user>   **** ""
1 28
ATOM$BLUE        STATIC     ATOMS    COLORGROUP SYSTEM
5 41 42 43 44 45
ATOM$RED        STATIC     ATOMS    COLORGROUP SYSTEM
1 28
