AV-unprocessed.smi:2202|AV-procd|sdf|8932|dock5
  -GOLD-   2272012143D 1   1.00000     0.00000
 Structure written by MMmdl.
 43 45  0  0  0  0  0  0  0  0  2 V2000
  146.5999  135.9155  154.5166 O   0  0  0  0  0  0  0  0  0  0  0  0
  147.5657  135.3122  154.9878 C   0  0  0  0  0  0  0  0  0  0  0  0
  148.5517  136.0089  155.9367 C   0  0  0  0  0  0  0  0  0  0  0  0
  149.3814  137.0268  155.2756 N   0  0  0  0  0  0  0  0  0  0  0  0
  150.7138  136.9491  155.1644 C   0  0  0  0  0  0  0  0  0  0  0  0
  151.4206  136.0388  155.5987 O   0  0  0  0  0  0  0  0  0  0  0  0
  151.2835  138.1448  154.3979 C   0  0  2  0  0  0  0  0  0  0  0  0
  152.3692  138.8863  155.2219 C   0  0  0  0  0  0  0  0  0  0  0  0
  151.7821  139.8653  156.2174 C   0  0  0  0  0  0  0  0  0  0  0  0
  150.6842  140.5753  155.9263 C   0  0  0  0  0  0  0  0  0  0  0  0
  149.9865  140.4269  154.5900 C   0  0  0  0  0  0  0  0  0  0  0  0
  150.0085  138.9684  154.0612 C   0  0  2  0  0  0  0  0  0  0  0  0
  148.8938  138.1258  154.6855 C   0  0  0  0  0  0  0  0  0  0  0  0
  147.7055  138.4425  154.6223 O   0  0  0  0  0  0  0  0  0  0  0  0
  147.8255  134.0246  154.7159 N   0  0  0  0  0  0  0  0  0  0  0  0
  147.0200  133.1800  153.8421 C   0  0  0  0  0  0  0  0  0  0  0  0
  147.5207  133.2289  152.3885 C   0  0  0  0  0  0  0  0  0  0  0  0
  146.4141  132.9483  151.3911 C   0  0  0  0  0  0  0  0  0  0  0  0
  145.1325  133.5301  151.5030 C   0  0  0  0  0  0  0  0  0  0  0  0
  144.1523  133.2277  150.5347 C   0  0  0  0  0  0  0  0  0  0  0  0
  144.4740  132.3526  149.4763 C   0  0  0  0  0  0  0  0  0  0  0  0
  145.7698  131.8006  149.4130 C   0  0  0  0  0  0  0  0  0  0  0  0
  146.6813  132.1145  150.3597 N   0  3  0  0  0  0  0  0  0  0  0  0
  147.9876  136.4566  156.7567 H   0  0  0  0  0  0  0  0  0  0  0  0
  149.1906  135.2536  156.3983 H   0  0  0  0  0  0  0  0  0  0  0  0
  151.7318  137.7591  153.4814 H   0  0  0  0  0  0  0  0  0  0  0  0
  153.0058  138.1796  155.7559 H   0  0  0  0  0  0  0  0  0  0  0  0
  153.0295  139.4410  154.5547 H   0  0  0  0  0  0  0  0  0  0  0  0
  152.3064  140.0146  157.1498 H   0  0  0  0  0  0  0  0  0  0  0  0
  150.3013  141.3113  156.6180 H   0  0  0  0  0  0  0  0  0  0  0  0
  148.9634  140.7937  154.6842 H   0  0  0  0  0  0  0  0  0  0  0  0
  150.4798  141.0895  153.8782 H   0  0  0  0  0  0  0  0  0  0  0  0
  149.8439  138.9765  152.9829 H   0  0  0  0  0  0  0  0  0  0  0  0
  148.6348  133.6010  155.1469 H   0  0  0  0  0  0  0  0  0  0  0  0
  147.0669  132.1574  154.2174 H   0  0  0  0  0  0  0  0  0  0  0  0
  145.9733  133.4837  153.8991 H   0  0  0  0  0  0  0  0  0  0  0  0
  147.9467  134.2081  152.1652 H   0  0  0  0  0  0  0  0  0  0  0  0
  148.3246  132.5054  152.2466 H   0  0  0  0  0  0  0  0  0  0  0  0
  144.9019  134.2009  152.3181 H   0  0  0  0  0  0  0  0  0  0  0  0
  143.1658  133.6630  150.6024 H   0  0  0  0  0  0  0  0  0  0  0  0
  143.7376  132.1085  148.7245 H   0  0  0  0  0  0  0  0  0  0  0  0
  146.1027  131.1233  148.6400 H   0  0  0  0  0  0  0  0  0  0  0  0
  147.6132  131.7040  150.2943 H   0  0  0  0  0  0  0  0  0  0  0  0
  1  2  2  0  0  0  0
  2  3  1  0  0  0  0
  2 15  1  0  0  0  0
  3  4  1  0  0  0  0
  3 24  1  0  0  0  0
  3 25  1  0  0  0  0
  4 13  1  0  0  0  0
  4  5  1  0  0  0  0
  5  6  2  0  0  0  0
  5  7  1  0  0  0  0
  7 12  1  0  0  0  0
  7  8  1  0  0  0  0
  7 26  1  0  0  0  0
  8  9  1  0  0  0  0
  8 27  1  0  0  0  0
  8 28  1  0  0  0  0
  9 10  2  0  0  0  0
  9 29  1  0  0  0  0
 10 11  1  0  0  0  0
 10 30  1  0  0  0  0
 11 12  1  0  0  0  0
 11 31  1  0  0  0  0
 11 32  1  0  0  0  0
 12 13  1  0  0  0  0
 12 33  1  0  0  0  0
 13 14  2  0  0  0  0
 15 16  1  0  0  0  0
 15 34  1  0  0  0  0
 16 17  1  0  0  0  0
 16 35  1  0  0  0  0
 16 36  1  0  0  0  0
 17 18  1  0  0  0  0
 17 37  1  0  0  0  0
 17 38  1  0  0  0  0
 18 23  1  0  0  0  0
 18 19  2  0  0  0  0
 19 20  1  0  0  0  0
 19 39  1  0  0  0  0
 20 21  2  0  0  0  0
 20 40  1  0  0  0  0
 21 22  1  0  0  0  0
 21 41  1  0  0  0  0
 22 23  2  0  0  0  0
 22 42  1  0  0  0  0
 23 43  1  0  0  0  0
M  CHG  1  23   1
M  END
> <s_m_source_file>
AV-unprocessed.smi

> <i_m_source_file_index>
2202

> <i_lp_mmshare_version>
43012

> <i_f3d_flags>
0

> <s_epik_input>
W0NIMl0xW0NIXT1bQ0hdW0NIMl1bQ0BIXShbQ0BIXTEyKUMoPU8pTihDMj1PKVtDSDJdQyg9TylbTkhdW0NIMl1bQ0gyXWMzW2NIXVtjSF1bY0hdW2NIXW4z

> <s_epik_cmdline>
J2VwaWtfcHl0aG9uJywgJy1waCcsICc3LjAnLCAnLXRuJywgJzgnLCAnLW1hJywgJzIwMCcsICctbWV0YWxfYmluZGluZycsICctaW1hZScsICc8aW5maWxlLm1hZT4nLCAnLW9tYWUnLCAnPG91dGZpbGUubWFlPic=

> <r_lp_tautomer_probability>
1

> <r_epik_Ionization_Penalty>
1.90039

> <r_epik_Ionization_Penalty_Charging>
1.90039

> <r_epik_Ionization_Penalty_Neutral>
1.50224e-07

> <r_epik_State_Penalty>
2.02162

> <r_epik_Charging_Adjusted_Penalty>
3.922

> <i_epik_Tot_Q>
1

> <i_epik_Tot_abs_Q>
1

> <r_epik_Metal_State_Penalty>
2.04542

> <b_epik_Metal_Only>
0

> <s_lp_Force_Field>
OPLS_2005

> <r_lp_Energy>
20.8283

> <b_lp_Chiralities_Consistent>
1

> <s_lp_Variant>
AV-unprocessed.smi:2202-4

> <Gold.Version>
5.8.1

> <Gold.Id.Protein>
6NUR|6NUR_protein|mol2

> <Gold.PLP.Fitness>
46.3588

> <Gold.PLP.PLP>
-41.6094

> <Gold.PLP.part.hbond>
-2.0000

> <Gold.PLP.part.metal>
0.0000

> <Gold.PLP.part.buried>
-4.3823

> <Gold.PLP.part.nonpolar>
-35.5425

> <Gold.PLP.part.repulsive>
0.3934

> <Gold.PLP.ligand.clash>
0.0000

> <Gold.PLP.ligand.torsion>
0.6423

> <Gold.PLP.Chemscore.Hbond>
2.0000

> <Gold.PLP.Chemscore.CHOScore>
0.0000

> <Gold.PLP.Chemscore.Metal>
0.0000

> <Gold.Chemscore.Hbonds>
donor molecule, donor type, donor heavy atom, donor atom, acceptor molecule, acceptor atom, score
      L1  H    23    43       P1 10747  1.00
      P1  H 10752 10765       L1     6  0.98

> <Gold.PLP.Chemscore.Internal.Correction>
0.0340

> <Gold.Rescore>
     Score         DG    S(hbond)    S(metal)    S(lipo)     H(rot)  DE(clash)    DE(int)     intcor
     17.61     -19.37       1.98        0.00     105.15       1.96       0.12       1.64       ----

> <Gold.Chemscore.Fitness>
17.6102

> <Gold.Chemscore.DG>
-19.3728

> <Gold.Chemscore.ZeroCoef>
-5.4800

> <Gold.Chemscore.Hbond>
1.9801

> <Gold.Chemscore.Metal>
0.0000

> <Gold.Chemscore.Lipo>
105.1544

> <Gold.Chemscore.Internal_Hbond>
0.0000

> <Gold.Chemscore.DEClash>
0.1208

> <Gold.Chemscore.DEInternal>
1.6417

> <Gold.Chemscore.Rot>
1.9625

> <Gold.Chemscore.Internal.Correction>
   9.000000E+99

> <Gold.Chemscore.Hbonds>
donor molecule, donor type, donor heavy atom, donor atom, acceptor molecule, acceptor atom, score
      L1  H    23    43       P1 10747  0.98
      P1  H 10752 10765       L1     6  0.82

> <Gold.Chemscore.Hbond.Weighted>
-6.6137

> <Gold.Chemscore.Metal.Weighted>
-0.0000

> <Gold.Chemscore.Lipo.Weighted>
-12.3031

> <Gold.Chemscore.Internal_Hbond.Weighted>
0.0000

> <Gold.Chemscore.DEClash.Weighted>
0.1208

> <Gold.Chemscore.DEInternal.Weighted>
1.6417

> <Gold.Chemscore.Rot.Weighted>
5.0240

> <Gold.Chemscore.Internal.Correction.Weighted>
   9.000000E+99

> <Gold.Protein.RotatedTorsions>
[ 6907 6896 6895 6894 ] final  -10.04 input  -60.11 | X-H torsion
[ 7974 7965 7964 7962 ] final -100.67 input  175.53 | X-H torsion
[ 8008 7997 7996 7995 ] final  108.80 input   59.86 | X-H torsion
[ 10167 10162 10161 10158 ] final  106.21 input  -65.29 | X-H torsion
[ 10718 10713 10712 10709 ] final  -25.98 input   66.30 | X-H torsion
[ 10763 10752 10751 10750 ] final  171.67 input  -60.55 | X-H torsion
[ 11005 11000 10999 10996 ] final  143.91 input  -57.11 | X-H torsion

> <Gold.Protein.ActiveResidues>
 VAL166  LYS551  ARG553  GLY616  TRP617  ASP618  TYR619  PRO620  LYS621  CYS622 
 ASP623  PHE694  ASN695  SER759  ASP760  ASP761  ALA762  ILE779  LEU786  VAL792 
 PHE793  MET794  SER795  GLU796  ALA797  LYS798  CYS799  TRP800  GLU811  SER814 

> <Gold.Protein.RotatedAtoms>
  151.4082  135.0981  159.9576 H   0  0  0  0  0  0  0  0  0  0  0  0  # atno 6907 bound_to 6896
  152.5028  133.8822  159.7362 H   0  0  0  0  0  0  0  0  0  0  0  0  # atno 6908 bound_to 6896
  150.9311  133.6708  159.2839 H   0  0  0  0  0  0  0  0  0  0  0  0  # atno 6909 bound_to 6896
  145.2915  140.9354  143.2875 H   0  0  0  0  0  0  0  0  0  0  0  0  # atno 7974 bound_to 7965
  156.1931  140.3069  155.9372 H   0  0  0  0  0  0  0  0  0  0  0  0  # atno 8008 bound_to 7997
  155.3128  140.0452  157.3053 H   0  0  0  0  0  0  0  0  0  0  0  0  # atno 8009 bound_to 7997
  154.5476  140.2281  155.8547 H   0  0  0  0  0  0  0  0  0  0  0  0  # atno 8010 bound_to 7997
  139.7028  144.7091  151.1156 H   0  0  0  0  0  0  0  0  0  0  0  0  # atno 10167 bound_to 10162
  156.4572  130.4496  149.6952 H   0  0  0  0  0  0  0  0  0  0  0  0  # atno 10718 bound_to 10713
  154.4152  135.2757  155.2011 H   0  0  0  0  0  0  0  0  0  0  0  0  # atno 10763 bound_to 10752
  154.3980  135.6051  153.5884 H   0  0  0  0  0  0  0  0  0  0  0  0  # atno 10764 bound_to 10752
  152.9832  135.5919  154.4439 H   0  0  0  0  0  0  0  0  0  0  0  0  # atno 10765 bound_to 10752
  140.0591  134.9214  157.1152 H   0  0  0  0  0  0  0  0  0  0  0  0  # atno 11005 bound_to 11000
  144.9169  139.4460  143.6560 LP  0  0  0  0  0  0  0  0  0  0  0  0  # atno 17320 bound_to 7965
  146.3183  139.8007  142.8966 LP  0  0  0  0  0  0  0  0  0  0  0  0  # atno 17321 bound_to 7965
  140.7714  143.5400  150.9324 LP  0  0  0  0  0  0  0  0  0  0  0  0  # atno 17342 bound_to 10162
  139.9082  143.6752  152.3120 LP  0  0  0  0  0  0  0  0  0  0  0  0  # atno 17343 bound_to 10162
  156.3754  130.7552  151.2539 LP  0  0  0  0  0  0  0  0  0  0  0  0  # atno 17370 bound_to 10713
  157.7500  131.0311  150.4166 LP  0  0  0  0  0  0  0  0  0  0  0  0  # atno 17371 bound_to 10713
  140.3798  134.2299  155.7172 LP  0  0  0  0  0  0  0  0  0  0  0  0  # atno 17394 bound_to 11000
  141.1965  133.8081  157.0669 LP  0  0  0  0  0  0  0  0  0  0  0  0  # atno 17395 bound_to 11000

$$$$
