AV-unprocessed.smi:281|AV-procd|sdf|2114|dock6
  -GOLD-   2262021413D 1   1.00000     0.00000
 Structure written by MMmdl.
 55 59  0  0  0  0  0  0  0  0  1 V2000
  153.1878  138.8772  154.8349 C   0  0  0  0  0  0  0  0  0  0  0  0
  151.9871  139.3413  155.6651 C   0  0  1  0  0  0  0  0  0  0  0  0
  151.0867  138.1680  156.0824 C   0  0  0  0  0  0  0  0  0  0  0  0
  150.0205  138.6556  156.9431 N   0  0  0  0  0  0  0  0  0  0  0  0
  149.0742  137.7335  157.2144 C   0  0  0  0  0  0  0  0  0  0  0  0
  148.2430  137.3878  156.2017 N   0  0  0  0  0  0  0  0  0  0  0  0
  147.2839  136.4799  156.4070 C   0  0  0  0  0  0  0  0  0  0  0  0
  146.9896  135.8139  157.5259 N   0  0  0  0  0  0  0  0  0  0  0  0
  147.8239  136.1633  158.5473 C   0  0  0  0  0  0  0  0  0  0  0  0
  148.8892  137.1043  158.4779 C   0  0  0  0  0  0  0  0  0  0  0  0
  149.5263  137.1908  159.7098 N   0  0  0  0  0  0  0  0  0  0  0  0
  148.8734  136.3503  160.4647 C   0  0  0  0  0  0  0  0  0  0  0  0
  147.8268  135.6983  159.8512 N   0  0  0  0  0  0  0  0  0  0  0  0
  146.9335  134.7188  160.4520 C   0  0  0  0  0  0  0  0  0  0  0  0
  146.1523  135.2557  161.6767 C   0  0  1  0  0  0  0  0  0  0  0  0
  145.3250  134.2244  162.1834 O   0  0  0  0  0  0  0  0  0  0  0  0
  147.0794  135.7432  162.7927 C   0  0  0  0  0  0  0  0  0  0  0  0
  146.9250  137.2586  162.7521 C   0  0  0  0  0  0  0  0  0  0  0  0
  145.5620  137.4203  162.4036 O   0  0  0  0  0  0  0  0  0  0  0  0
  145.2859  136.4928  161.3642 C   0  0  0  0  0  0  0  0  0  0  0  0
  150.5229  139.3490  158.1214 C   0  0  0  0  0  0  0  0  0  0  0  0
  151.4783  140.4988  157.7251 C   0  0  1  0  0  0  0  0  0  0  0  0
  150.7608  141.7054  157.1039 C   0  0  0  0  0  0  0  0  0  0  0  0
  150.8045  142.7711  158.1903 C   0  0  0  0  0  0  0  0  0  0  0  0
  152.0481  142.5174  158.8161 O   0  0  0  0  0  0  0  0  0  0  0  0
  152.1430  141.1106  158.9826 C   0  0  2  0  0  0  0  0  0  0  0  0
  153.5989  140.6980  159.2431 C   0  0  0  0  0  0  0  0  0  0  0  0
  152.4832  139.9950  156.8344 O   0  0  0  0  0  0  0  0  0  0  0  0
  152.8642  138.3755  153.9226 H   0  0  0  0  0  0  0  0  0  0  0  0
  153.8111  138.1819  155.3976 H   0  0  0  0  0  0  0  0  0  0  0  0
  153.8108  139.7239  154.5457 H   0  0  0  0  0  0  0  0  0  0  0  0
  151.4086  140.0451  155.0657 H   0  0  0  0  0  0  0  0  0  0  0  0
  150.6615  137.6879  155.1999 H   0  0  0  0  0  0  0  0  0  0  0  0
  151.6741  137.4154  156.6100 H   0  0  0  0  0  0  0  0  0  0  0  0
  146.6626  136.2552  155.5526 H   0  0  0  0  0  0  0  0  0  0  0  0
  149.1396  136.1852  161.4985 H   0  0  0  0  0  0  0  0  0  0  0  0
  146.2395  134.3736  159.6841 H   0  0  0  0  0  0  0  0  0  0  0  0
  147.5266  133.8493  160.7380 H   0  0  0  0  0  0  0  0  0  0  0  0
  145.8075  133.7499  162.8429 H   0  0  0  0  0  0  0  0  0  0  0  0
  146.7449  135.3808  163.7663 H   0  0  0  0  0  0  0  0  0  0  0  0
  148.1161  135.4287  162.6673 H   0  0  0  0  0  0  0  0  0  0  0  0
  147.1586  137.7331  163.7055 H   0  0  0  0  0  0  0  0  0  0  0  0
  147.5592  137.6979  161.9804 H   0  0  0  0  0  0  0  0  0  0  0  0
  145.5884  136.9583  160.4260 H   0  0  0  0  0  0  0  0  0  0  0  0
  144.2193  136.2751  161.2951 H   0  0  0  0  0  0  0  0  0  0  0  0
  149.6879  139.7345  158.7086 H   0  0  0  0  0  0  0  0  0  0  0  0
  151.0563  138.6394  158.7553 H   0  0  0  0  0  0  0  0  0  0  0  0
  151.3182  142.0725  156.2412 H   0  0  0  0  0  0  0  0  0  0  0  0
  149.7452  141.4884  156.7718 H   0  0  0  0  0  0  0  0  0  0  0  0
  150.7511  143.7842  157.7910 H   0  0  0  0  0  0  0  0  0  0  0  0
  149.9926  142.6366  158.9069 H   0  0  0  0  0  0  0  0  0  0  0  0
  151.5498  140.8624  159.8648 H   0  0  0  0  0  0  0  0  0  0  0  0
  153.6857  139.6162  159.3473 H   0  0  0  0  0  0  0  0  0  0  0  0
  153.9707  141.1513  160.1620 H   0  0  0  0  0  0  0  0  0  0  0  0
  154.2555  141.0131  158.4317 H   0  0  0  0  0  0  0  0  0  0  0  0
  1  2  1  0  0  0  0
  1 29  1  0  0  0  0
  1 30  1  0  0  0  0
  1 31  1  0  0  0  0
  2 28  1  0  0  0  0
  2  3  1  0  0  0  0
  2 32  1  0  0  0  0
  3  4  1  0  0  0  0
  3 33  1  0  0  0  0
  3 34  1  0  0  0  0
  4  5  1  0  0  0  0
  4 21  1  0  0  0  0
  5 10  1  0  0  0  0
  5  6  2  0  0  0  0
  6  7  1  0  0  0  0
  7  8  2  0  0  0  0
  7 35  1  0  0  0  0
  8  9  1  0  0  0  0
  9 13  1  0  0  0  0
  9 10  2  0  0  0  0
 10 11  1  0  0  0  0
 11 12  2  0  0  0  0
 12 13  1  0  0  0  0
 12 36  1  0  0  0  0
 13 14  1  0  0  0  0
 14 15  1  0  0  0  0
 14 37  1  0  0  0  0
 14 38  1  0  0  0  0
 15 20  1  0  0  0  0
 15 16  1  0  0  0  0
 15 17  1  0  0  0  0
 16 39  1  0  0  0  0
 17 18  1  0  0  0  0
 17 40  1  0  0  0  0
 17 41  1  0  0  0  0
 18 19  1  0  0  0  0
 18 42  1  0  0  0  0
 18 43  1  0  0  0  0
 19 20  1  0  0  0  0
 20 44  1  0  0  0  0
 20 45  1  0  0  0  0
 21 22  1  0  0  0  0
 21 46  1  0  0  0  0
 21 47  1  0  0  0  0
 22 26  1  0  0  0  0
 22 23  1  0  0  0  0
 22 28  1  0  0  0  0
 23 24  1  0  0  0  0
 23 48  1  0  0  0  0
 23 49  1  0  0  0  0
 24 25  1  0  0  0  0
 24 50  1  0  0  0  0
 24 51  1  0  0  0  0
 25 26  1  0  0  0  0
 26 27  1  0  0  0  0
 26 52  1  0  0  0  0
 27 53  1  0  0  0  0
 27 54  1  0  0  0  0
 27 55  1  0  0  0  0
M  END
> <s_m_source_file>
AV-unprocessed.smi

> <i_m_source_file_index>
281

> <i_lp_mmshare_version>
43012

> <i_f3d_flags>
0

> <s_epik_input>
W0NIM11bQ0BASF0xT1tDSDJdW0NIMl1bQ0BAXTEyW0NIMl1OKFtDSDJdW0NASF0oTzIpW0NIM10pYyhuW2NIXW4zKWMoYzM0KW5bY0hdbjRbQ0gyXVtDQEBdNShbT0hdKVtDSDJdW0NIMl1PW0NIMl01

> <s_epik_cmdline>
J2VwaWtfcHl0aG9uJywgJy1waCcsICc3LjAnLCAnLXRuJywgJzgnLCAnLW1hJywgJzIwMCcsICctbWV0YWxfYmluZGluZycsICctaW1hZScsICc8aW5maWxlLm1hZT4nLCAnLW9tYWUnLCAnPG91dGZpbGUubWFlPic=

> <r_lp_tautomer_probability>
1

> <r_epik_Ionization_Penalty>
0.00571331

> <r_epik_Ionization_Penalty_Charging>
0

> <r_epik_Ionization_Penalty_Neutral>
0.00571331

> <r_epik_State_Penalty>
0.00399586

> <r_epik_Charging_Adjusted_Penalty>
0.00399586

> <i_epik_Tot_Q>
0

> <i_epik_Tot_abs_Q>
0

> <r_epik_Metal_State_Penalty>
-0

> <b_epik_Metal_Only>
0

> <s_lp_Force_Field>
OPLS_2005

> <r_lp_Energy>
55.7735

> <b_lp_Chiralities_Consistent>
1

> <s_lp_Variant>
AV-unprocessed.smi:281-14

> <Gold.Version>
5.8.1

> <Gold.Id.Protein>
6NUR|6NUR_protein|mol2

> <Gold.PLP.Fitness>
40.2079

> <Gold.PLP.PLP>
-37.9507

> <Gold.PLP.part.hbond>
-1.8963

> <Gold.PLP.part.metal>
0.0000

> <Gold.PLP.part.buried>
-4.0182

> <Gold.PLP.part.nonpolar>
-30.2441

> <Gold.PLP.part.repulsive>
0.0189

> <Gold.PLP.ligand.clash>
0.0000

> <Gold.PLP.ligand.torsion>
0.4346

> <Gold.PLP.Chemscore.Hbond>
1.0000

> <Gold.PLP.Chemscore.CHOScore>
0.0000

> <Gold.PLP.Chemscore.Metal>
0.0000

> <Gold.Chemscore.Hbonds>
donor molecule, donor type, donor heavy atom, donor atom, acceptor molecule, acceptor atom, score
      P1  H  7997  8010       L1    28  1.00

> <Gold.PLP.Chemscore.Internal.Correction>
0.1264

> <Gold.Rescore>
     Score         DG    S(hbond)    S(metal)    S(lipo)     H(rot)  DE(clash)    DE(int)     intcor
     12.88     -14.82       0.95        0.00      98.45       2.09       0.15       1.79       ----

> <Gold.Chemscore.Fitness>
12.8757

> <Gold.Chemscore.DG>
-14.8198

> <Gold.Chemscore.ZeroCoef>
-5.4800

> <Gold.Chemscore.Hbond>
0.9518

> <Gold.Chemscore.Metal>
0.0000

> <Gold.Chemscore.Lipo>
98.4469

> <Gold.Chemscore.Internal_Hbond>
0.0000

> <Gold.Chemscore.DEClash>
0.1505

> <Gold.Chemscore.DEInternal>
1.7936

> <Gold.Chemscore.Rot>
2.0927

> <Gold.Chemscore.Internal.Correction>
   9.000000E+99

> <Gold.Chemscore.Hbonds>
donor molecule, donor type, donor heavy atom, donor atom, acceptor molecule, acceptor atom, score
      P1  H  7997  8010       L1    28  0.50

> <Gold.Chemscore.Hbond.Weighted>
-3.1789

> <Gold.Chemscore.Metal.Weighted>
-0.0000

> <Gold.Chemscore.Lipo.Weighted>
-11.5183

> <Gold.Chemscore.Internal_Hbond.Weighted>
0.0000

> <Gold.Chemscore.DEClash.Weighted>
0.1505

> <Gold.Chemscore.DEInternal.Weighted>
1.7936

> <Gold.Chemscore.Rot.Weighted>
5.3573

> <Gold.Chemscore.Internal.Correction.Weighted>
   9.000000E+99

> <Gold.Protein.RotatedTorsions>
[ 6907 6896 6895 6894 ] final -136.87 input  -60.11 | X-H torsion
[ 7974 7965 7964 7962 ] final -173.56 input  175.53 | X-H torsion
[ 8008 7997 7996 7995 ] final   63.88 input   59.86 | X-H torsion
[ 10167 10162 10161 10158 ] final  117.53 input  -65.29 | X-H torsion
[ 10718 10713 10712 10709 ] final  144.40 input   66.30 | X-H torsion
[ 10763 10752 10751 10750 ] final   75.34 input  -60.55 | X-H torsion
[ 11005 11000 10999 10996 ] final  -52.35 input  -57.11 | X-H torsion

> <Gold.Protein.ActiveResidues>
 VAL166  LYS551  ARG553  GLY616  TRP617  ASP618  TYR619  PRO620  LYS621  CYS622 
 ASP623  PHE694  ASN695  SER759  ASP760  ASP761  ALA762  ILE779  LEU786  VAL792 
 PHE793  MET794  SER795  GLU796  ALA797  LYS798  CYS799  TRP800  GLU811  SER814 

> <Gold.Protein.RotatedAtoms>
  151.0154  133.5926  159.2677 H   0  0  0  0  0  0  0  0  0  0  0  0  # atno 6907 bound_to 6896
  151.3062  135.0781  159.9266 H   0  0  0  0  0  0  0  0  0  0  0  0  # atno 6908 bound_to 6896
  152.5310  133.9827  159.7868 H   0  0  0  0  0  0  0  0  0  0  0  0  # atno 6909 bound_to 6896
  144.7137  140.1604  143.6376 H   0  0  0  0  0  0  0  0  0  0  0  0  # atno 7974 bound_to 7965
  155.6372  140.3496  155.4703 H   0  0  0  0  0  0  0  0  0  0  0  0  # atno 8008 bound_to 7997
  155.9955  140.1202  157.0621 H   0  0  0  0  0  0  0  0  0  0  0  0  # atno 8009 bound_to 7997
  154.4232  140.1111  156.5611 H   0  0  0  0  0  0  0  0  0  0  0  0  # atno 8010 bound_to 7997
  139.6172  144.7094  151.2712 H   0  0  0  0  0  0  0  0  0  0  0  0  # atno 10167 bound_to 10162
  157.3576  131.0960  151.0945 H   0  0  0  0  0  0  0  0  0  0  0  0  # atno 10718 bound_to 10713
  153.0648  135.4992  154.8175 H   0  0  0  0  0  0  0  0  0  0  0  0  # atno 10763 bound_to 10752
  154.6937  135.2989  154.9444 H   0  0  0  0  0  0  0  0  0  0  0  0  # atno 10764 bound_to 10752
  154.0191  135.6744  153.4824 H   0  0  0  0  0  0  0  0  0  0  0  0  # atno 10765 bound_to 10752
  141.0920  133.6631  156.4012 H   0  0  0  0  0  0  0  0  0  0  0  0  # atno 11005 bound_to 11000
  145.9036  139.2445  143.1479 LP  0  0  0  0  0  0  0  0  0  0  0  0  # atno 17320 bound_to 7965
  145.9786  140.8701  143.0126 LP  0  0  0  0  0  0  0  0  0  0  0  0  # atno 17321 bound_to 7965
  140.7359  143.6724  150.8071 LP  0  0  0  0  0  0  0  0  0  0  0  0  # atno 17342 bound_to 10162
  140.0328  143.5425  152.2752 LP  0  0  0  0  0  0  0  0  0  0  0  0  # atno 17343 bound_to 10162
  157.2097  130.6432  149.5769 LP  0  0  0  0  0  0  0  0  0  0  0  0  # atno 17370 bound_to 10713
  155.9732  130.4664  150.6288 LP  0  0  0  0  0  0  0  0  0  0  0  0  # atno 17371 bound_to 10713
  140.5230  134.6286  157.5324 LP  0  0  0  0  0  0  0  0  0  0  0  0  # atno 17394 bound_to 11000
  139.9748  134.7234  155.9972 LP  0  0  0  0  0  0  0  0  0  0  0  0  # atno 17395 bound_to 11000

$$$$
