AV-unprocessed.smi:2228|AV-procd|sdf|9025|dock4
  -GOLD-   2272012233D 1   1.00000     0.00000
 Structure written by MMmdl.
 40 41  0  0  0  0  0  0  0  0  1 V2000
  153.3504  138.6101  154.5549 C   0  0  0  0  0  0  0  0  0  0  0  0
  152.3065  139.5545  154.7339 O   0  0  0  0  0  0  0  0  0  0  0  0
  151.0344  138.9581  154.9547 C   0  0  2  0  0  0  0  0  0  0  0  0
  149.9261  140.0084  154.9329 C   0  0  0  0  0  0  0  0  0  0  0  0
  148.7482  139.3133  155.6148 C   0  0  0  0  0  0  0  0  0  0  0  0
  149.3694  138.3658  156.6518 C   0  0  0  0  0  0  0  0  0  0  0  0
  150.8729  138.2697  156.3240 C   0  0  2  0  0  0  0  0  0  0  0  0
  151.6559  138.9531  157.3550 N   0  0  0  0  0  0  0  0  0  0  0  0
  151.3920  140.1618  157.8717 C   0  0  0  0  0  0  0  0  0  0  0  0
  150.4426  140.8624  157.5193 O   0  0  0  0  0  0  0  0  0  0  0  0
  152.2947  140.4921  158.8118 N   0  0  0  0  0  0  0  0  0  0  0  0
  152.3383  141.6626  159.6149 C   0  0  0  0  0  0  0  0  0  0  0  0
  151.9013  142.8442  158.9752 C   0  0  0  0  0  0  0  0  0  0  0  0
  151.9098  144.0620  159.6846 C   0  0  0  0  0  0  0  0  0  0  0  0
  151.4437  145.3393  159.0179 C   0  0  0  0  0  0  0  0  0  0  0  0
  152.3580  144.0644  161.0194 C   0  0  0  0  0  0  0  0  0  0  0  0
  152.7787  142.8432  161.5812 C   0  0  0  0  0  0  0  0  0  0  0  0
  153.2734  142.7728  163.0105 C   0  0  0  0  0  0  0  0  0  0  0  0
  152.7685  141.6769  160.9010 N   0  0  0  0  0  0  0  0  0  0  0  0
  154.2936  139.1346  154.4039 H   0  0  0  0  0  0  0  0  0  0  0  0
  153.1703  137.9855  153.6790 H   0  0  0  0  0  0  0  0  0  0  0  0
  153.4638  137.9634  155.4251 H   0  0  0  0  0  0  0  0  0  0  0  0
  150.8207  138.2378  154.1620 H   0  0  0  0  0  0  0  0  0  0  0  0
  150.2271  140.8795  155.5167 H   0  0  0  0  0  0  0  0  0  0  0  0
  149.6886  140.3480  153.9244 H   0  0  0  0  0  0  0  0  0  0  0  0
  148.0546  140.0243  156.0642 H   0  0  0  0  0  0  0  0  0  0  0  0
  148.1919  138.7328  154.8778 H   0  0  0  0  0  0  0  0  0  0  0  0
  149.2015  138.7368  157.6642 H   0  0  0  0  0  0  0  0  0  0  0  0
  148.8965  137.3848  156.5946 H   0  0  0  0  0  0  0  0  0  0  0  0
  151.1725  137.2234  156.2445 H   0  0  0  0  0  0  0  0  0  0  0  0
  152.4556  138.4523  157.7136 H   0  0  0  0  0  0  0  0  0  0  0  0
  153.0303  139.8225  158.9814 H   0  0  0  0  0  0  0  0  0  0  0  0
  151.5619  142.8198  157.9496 H   0  0  0  0  0  0  0  0  0  0  0  0
  151.6007  146.2038  159.6636 H   0  0  0  0  0  0  0  0  0  0  0  0
  150.3809  145.2757  158.7833 H   0  0  0  0  0  0  0  0  0  0  0  0
  151.9923  145.5040  158.0901 H   0  0  0  0  0  0  0  0  0  0  0  0
  152.3790  144.9770  161.5971 H   0  0  0  0  0  0  0  0  0  0  0  0
  153.4165  143.7697  163.4285 H   0  0  0  0  0  0  0  0  0  0  0  0
  154.2266  142.2453  163.0594 H   0  0  0  0  0  0  0  0  0  0  0  0
  152.5536  142.2407  163.6329 H   0  0  0  0  0  0  0  0  0  0  0  0
  1  2  1  0  0  0  0
  1 20  1  0  0  0  0
  1 21  1  0  0  0  0
  1 22  1  0  0  0  0
  2  3  1  0  0  0  0
  3  7  1  0  0  0  0
  3  4  1  0  0  0  0
  3 23  1  0  0  0  0
  4  5  1  0  0  0  0
  4 24  1  0  0  0  0
  4 25  1  0  0  0  0
  5  6  1  0  0  0  0
  5 26  1  0  0  0  0
  5 27  1  0  0  0  0
  6  7  1  0  0  0  0
  6 28  1  0  0  0  0
  6 29  1  0  0  0  0
  7  8  1  0  0  0  0
  7 30  1  0  0  0  0
  8  9  1  0  0  0  0
  8 31  1  0  0  0  0
  9 10  2  0  0  0  0
  9 11  1  0  0  0  0
 11 12  1  0  0  0  0
 11 32  1  0  0  0  0
 12 19  1  0  0  0  0
 12 13  2  0  0  0  0
 13 14  1  0  0  0  0
 13 33  1  0  0  0  0
 14 15  1  0  0  0  0
 14 16  2  0  0  0  0
 15 34  1  0  0  0  0
 15 35  1  0  0  0  0
 15 36  1  0  0  0  0
 16 17  1  0  0  0  0
 16 37  1  0  0  0  0
 17 18  1  0  0  0  0
 17 19  2  0  0  0  0
 18 38  1  0  0  0  0
 18 39  1  0  0  0  0
 18 40  1  0  0  0  0
M  END
> <s_m_source_file>
AV-unprocessed.smi

> <i_m_source_file_index>
2228

> <i_lp_mmshare_version>
43012

> <i_f3d_flags>
0

> <s_epik_input>
W0NIM11PW0NAQEhdMVtDSDJdW0NIMl1bQ0gyXVtDQEhdMVtOSF1DKD1PKVtOSF1jMltjSF1jKFtDSDNdKVtjSF1jKG4yKVtDSDNd

> <s_epik_cmdline>
J2VwaWtfcHl0aG9uJywgJy1waCcsICc3LjAnLCAnLXRuJywgJzgnLCAnLW1hJywgJzIwMCcsICctbWV0YWxfYmluZGluZycsICctaW1hZScsICc8aW5maWxlLm1hZT4nLCAnLW9tYWUnLCAnPG91dGZpbGUubWFlPic=

> <r_lp_tautomer_probability>
1

> <r_epik_Ionization_Penalty>
0.000275391

> <r_epik_Ionization_Penalty_Charging>
0

> <r_epik_Ionization_Penalty_Neutral>
0.000275391

> <r_epik_State_Penalty>
-0

> <r_epik_Charging_Adjusted_Penalty>
0

> <i_epik_Tot_Q>
0

> <i_epik_Tot_abs_Q>
0

> <r_epik_Metal_State_Penalty>
-0

> <b_epik_Metal_Only>
0

> <s_lp_Force_Field>
OPLS_2005

> <r_lp_Energy>
22.5383

> <b_lp_Chiralities_Consistent>
1

> <s_lp_Variant>
AV-unprocessed.smi:2228-3

> <Gold.Version>
5.8.1

> <Gold.Id.Protein>
6NUR|6NUR_protein|mol2

> <Gold.PLP.Fitness>
39.3653

> <Gold.PLP.PLP>
-37.8740

> <Gold.PLP.part.hbond>
-1.0000

> <Gold.PLP.part.metal>
0.0000

> <Gold.PLP.part.buried>
-6.2928

> <Gold.PLP.part.nonpolar>
-29.9590

> <Gold.PLP.part.repulsive>
0.2492

> <Gold.PLP.ligand.clash>
0.0000

> <Gold.PLP.ligand.torsion>
0.4362

> <Gold.PLP.Chemscore.Hbond>
0.7840

> <Gold.PLP.Chemscore.CHOScore>
0.0000

> <Gold.PLP.Chemscore.Metal>
0.0000

> <Gold.Chemscore.Hbonds>
donor molecule, donor type, donor heavy atom, donor atom, acceptor molecule, acceptor atom, score
      P1  H  7989  7998       L1     2  0.59

> <Gold.PLP.Chemscore.Internal.Correction>
0.0116

> <Gold.Rescore>
     Score         DG    S(hbond)    S(metal)    S(lipo)     H(rot)  DE(clash)    DE(int)     intcor
     11.37     -16.89       0.90        0.00      98.32       1.21       0.06       5.46       ----

> <Gold.Chemscore.Fitness>
11.3680

> <Gold.Chemscore.DG>
-16.8887

> <Gold.Chemscore.ZeroCoef>
-5.4800

> <Gold.Chemscore.Hbond>
0.9005

> <Gold.Chemscore.Metal>
0.0000

> <Gold.Chemscore.Lipo>
98.3211

> <Gold.Chemscore.Internal_Hbond>
0.0000

> <Gold.Chemscore.DEClash>
0.0605

> <Gold.Chemscore.DEInternal>
5.4602

> <Gold.Chemscore.Rot>
1.2119

> <Gold.Chemscore.Internal.Correction>
   9.000000E+99

> <Gold.Chemscore.Hbonds>
donor molecule, donor type, donor heavy atom, donor atom, acceptor molecule, acceptor atom, score
      P1  H  7989  7998       L1     2  0.09

> <Gold.Chemscore.Hbond.Weighted>
-3.0077

> <Gold.Chemscore.Metal.Weighted>
-0.0000

> <Gold.Chemscore.Lipo.Weighted>
-11.5036

> <Gold.Chemscore.Internal_Hbond.Weighted>
0.0000

> <Gold.Chemscore.DEClash.Weighted>
0.0605

> <Gold.Chemscore.DEInternal.Weighted>
5.4602

> <Gold.Chemscore.Rot.Weighted>
3.1026

> <Gold.Chemscore.Internal.Correction.Weighted>
   9.000000E+99

> <Gold.Protein.RotatedTorsions>
[ 6907 6896 6895 6894 ] final   -3.43 input  -60.11 | X-H torsion
[ 7974 7965 7964 7962 ] final -136.07 input  175.53 | X-H torsion
[ 8008 7997 7996 7995 ] final -101.95 input   59.86 | X-H torsion
[ 10167 10162 10161 10158 ] final  -79.26 input  -65.29 | X-H torsion
[ 10718 10713 10712 10709 ] final   24.08 input   66.30 | X-H torsion
[ 10763 10752 10751 10750 ] final  -37.37 input  -60.55 | X-H torsion
[ 11005 11000 10999 10996 ] final  146.44 input  -57.11 | X-H torsion

> <Gold.Protein.ActiveResidues>
 VAL166  LYS551  ARG553  GLY616  TRP617  ASP618  TYR619  PRO620  LYS621  CYS622 
 ASP623  PHE694  ASN695  SER759  ASP760  ASP761  ALA762  ILE779  LEU786  VAL792 
 PHE793  MET794  SER795  GLU796  ALA797  LYS798  CYS799  TRP800  GLU811  SER814 

> <Gold.Protein.RotatedAtoms>
  151.5139  135.1065  159.9860 H   0  0  0  0  0  0  0  0  0  0  0  0  # atno 6907 bound_to 6896
  152.4650  133.7898  159.6906 H   0  0  0  0  0  0  0  0  0  0  0  0  # atno 6908 bound_to 6896
  150.8629  133.7553  159.3012 H   0  0  0  0  0  0  0  0  0  0  0  0  # atno 6909 bound_to 6896
  144.8959  140.6706  143.5116 H   0  0  0  0  0  0  0  0  0  0  0  0  # atno 7974 bound_to 7965
  154.8498  140.0431  157.1596 H   0  0  0  0  0  0  0  0  0  0  0  0  # atno 8008 bound_to 7997
  154.8956  140.2992  155.5326 H   0  0  0  0  0  0  0  0  0  0  0  0  # atno 8009 bound_to 7997
  156.2995  140.2385  156.3977 H   0  0  0  0  0  0  0  0  0  0  0  0  # atno 8010 bound_to 7997
  140.4609  143.2454  151.8350 H   0  0  0  0  0  0  0  0  0  0  0  0  # atno 10167 bound_to 10162
  157.1749  130.6776  149.6091 H   0  0  0  0  0  0  0  0  0  0  0  0  # atno 10718 bound_to 10713
  153.8952  135.6808  153.4758 H   0  0  0  0  0  0  0  0  0  0  0  0  # atno 10763 bound_to 10752
  153.1159  135.4761  154.9112 H   0  0  0  0  0  0  0  0  0  0  0  0  # atno 10764 bound_to 10752
  154.7603  135.3209  154.8345 H   0  0  0  0  0  0  0  0  0  0  0  0  # atno 10765 bound_to 10752
  140.0793  134.9106  157.1475 H   0  0  0  0  0  0  0  0  0  0  0  0  # atno 11005 bound_to 11000
  145.3701  139.1661  143.4337 LP  0  0  0  0  0  0  0  0  0  0  0  0  # atno 17320 bound_to 7965
  146.3081  140.3772  142.8680 LP  0  0  0  0  0  0  0  0  0  0  0  0  # atno 17321 bound_to 7965
  139.4806  144.5008  151.9062 LP  0  0  0  0  0  0  0  0  0  0  0  0  # atno 17342 bound_to 10162
  140.4094  144.2389  150.5889 LP  0  0  0  0  0  0  0  0  0  0  0  0  # atno 17343 bound_to 10162
  155.9733  130.4666  150.6296 LP  0  0  0  0  0  0  0  0  0  0  0  0  # atno 17370 bound_to 10713
  157.4008  131.0809  151.1310 LP  0  0  0  0  0  0  0  0  0  0  0  0  # atno 17371 bound_to 10713
  140.3511  134.2598  155.7198 LP  0  0  0  0  0  0  0  0  0  0  0  0  # atno 17394 bound_to 11000
  141.2041  133.7895  157.0305 LP  0  0  0  0  0  0  0  0  0  0  0  0  # atno 17395 bound_to 11000

$$$$
