AV-unprocessed.smi:1766|AV-procd|sdf|7136|dock9
  -GOLD-   22720 8373D 1   1.00000     0.00000
 Structure written by MMmdl.
 39 41  0  0  0  0  0  0  0  0  1 V2000
  151.6719  138.1067  153.6477 N   0  0  0  0  0  0  0  0  0  0  0  0
  152.0062  138.2403  154.9340 C   0  0  0  0  0  0  0  0  0  0  0  0
  152.3229  137.2783  155.6304 O   0  0  0  0  0  0  0  0  0  0  0  0
  151.9861  139.6570  155.5197 C   0  0  0  0  0  0  0  0  0  0  0  0
  150.6250  140.2616  155.2919 C   0  0  0  0  0  0  0  0  0  0  0  0
  150.0544  140.2642  154.0842 N   0  0  0  0  0  0  0  0  0  0  0  0
  148.8458  140.8895  154.3139 C   0  0  0  0  0  0  0  0  0  0  0  0
  147.7811  141.1805  153.4315 C   0  0  0  0  0  0  0  0  0  0  0  0
  146.6235  141.8348  153.9010 C   0  0  0  0  0  0  0  0  0  0  0  0
  146.5154  142.2080  155.2561 C   0  0  0  0  0  0  0  0  0  0  0  0
  147.5667  141.9303  156.1505 C   0  0  0  0  0  0  0  0  0  0  0  0
  148.7198  141.2743  155.6776 C   0  0  0  0  0  0  0  0  0  0  0  0
  149.9037  140.8555  156.2801 N   0  0  0  0  0  0  0  0  0  0  0  0
  150.2507  141.0356  157.6850 C   0  0  0  0  0  0  0  0  0  0  0  0
  151.0621  142.3219  157.9378 C   0  0  1  0  0  0  0  0  0  0  0  0
  150.2780  143.4256  157.5339 O   0  0  0  0  0  0  0  0  0  0  0  0
  151.5223  142.4387  159.3847 C   0  0  0  0  0  0  0  0  0  0  0  0
  152.3784  141.4584  159.9316 C   0  0  0  0  0  0  0  0  0  0  0  0
  152.7828  141.5396  161.2779 C   0  0  0  0  0  0  0  0  0  0  0  0
  152.3349  142.6023  162.0855 C   0  0  0  0  0  0  0  0  0  0  0  0
  152.7223  142.6793  163.3806 F   0  0  0  0  0  0  0  0  0  0  0  0
  151.4820  143.5840  161.5461 C   0  0  0  0  0  0  0  0  0  0  0  0
  151.0757  143.5023  160.2000 C   0  0  0  0  0  0  0  0  0  0  0  0
  151.6639  137.1898  153.2248 H   0  0  0  0  0  0  0  0  0  0  0  0
  151.4201  138.9196  153.1041 H   0  0  0  0  0  0  0  0  0  0  0  0
  152.2396  139.6098  156.5770 H   0  0  0  0  0  0  0  0  0  0  0  0
  152.7398  140.2827  155.0397 H   0  0  0  0  0  0  0  0  0  0  0  0
  147.8541  140.8972  152.3920 H   0  0  0  0  0  0  0  0  0  0  0  0
  145.8147  142.0508  153.2185 H   0  0  0  0  0  0  0  0  0  0  0  0
  145.6246  142.7067  155.6090 H   0  0  0  0  0  0  0  0  0  0  0  0
  147.4831  142.2129  157.1892 H   0  0  0  0  0  0  0  0  0  0  0  0
  149.3350  141.0308  158.2759 H   0  0  0  0  0  0  0  0  0  0  0  0
  150.8161  140.1648  158.0191 H   0  0  0  0  0  0  0  0  0  0  0  0
  151.9398  142.3257  157.2934 H   0  0  0  0  0  0  0  0  0  0  0  0
  149.6735  143.1339  156.8685 H   0  0  0  0  0  0  0  0  0  0  0  0
  152.7189  140.6333  159.3233 H   0  0  0  0  0  0  0  0  0  0  0  0
  153.4344  140.7841  161.6916 H   0  0  0  0  0  0  0  0  0  0  0  0
  151.1358  144.3978  162.1659 H   0  0  0  0  0  0  0  0  0  0  0  0
  150.4120  144.2540  159.7983 H   0  0  0  0  0  0  0  0  0  0  0  0
  1  2  1  0  0  0  0
  1 24  1  0  0  0  0
  1 25  1  0  0  0  0
  2  3  2  0  0  0  0
  2  4  1  0  0  0  0
  4  5  1  0  0  0  0
  4 26  1  0  0  0  0
  4 27  1  0  0  0  0
  5 13  1  0  0  0  0
  5  6  2  0  0  0  0
  6  7  1  0  0  0  0
  7 12  2  0  0  0  0
  7  8  1  0  0  0  0
  8  9  2  0  0  0  0
  8 28  1  0  0  0  0
  9 10  1  0  0  0  0
  9 29  1  0  0  0  0
 10 11  2  0  0  0  0
 10 30  1  0  0  0  0
 11 12  1  0  0  0  0
 11 31  1  0  0  0  0
 12 13  1  0  0  0  0
 13 14  1  0  0  0  0
 14 15  1  0  0  0  0
 14 32  1  0  0  0  0
 14 33  1  0  0  0  0
 15 16  1  0  0  0  0
 15 17  1  0  0  0  0
 15 34  1  0  0  0  0
 16 35  1  0  0  0  0
 17 23  1  0  0  0  0
 17 18  2  0  0  0  0
 18 19  1  0  0  0  0
 18 36  1  0  0  0  0
 19 20  2  0  0  0  0
 19 37  1  0  0  0  0
 20 21  1  0  0  0  0
 20 22  1  0  0  0  0
 22 23  2  0  0  0  0
 22 38  1  0  0  0  0
 23 39  1  0  0  0  0
M  END
> <s_m_source_file>
AV-unprocessed.smi

> <i_m_source_file_index>
1766

> <i_lp_mmshare_version>
43012

> <i_f3d_flags>
0

> <s_epik_input>
W2NIXTFbY0hdW2NIXVtjSF1jKGMxMiluKGMobjIpW0NIMl1DKD1PKVtOSDJdKVtDSDJdW0NASF0oW09IXSljM1tjSF1bY0hdYyhGKVtjSF1bY0hdMw==

> <s_epik_cmdline>
J2VwaWtfcHl0aG9uJywgJy1waCcsICc3LjAnLCAnLXRuJywgJzgnLCAnLW1hJywgJzIwMCcsICctbWV0YWxfYmluZGluZycsICctaW1hZScsICc8aW5maWxlLm1hZT4nLCAnLW9tYWUnLCAnPG91dGZpbGUubWFlPic=

> <r_epik_Ionization_Penalty>
0.0366901

> <r_epik_Ionization_Penalty_Charging>
0

> <r_epik_Ionization_Penalty_Neutral>
0.0366901

> <r_epik_State_Penalty>
0.0306642

> <r_epik_Charging_Adjusted_Penalty>
0.0306642

> <i_epik_Tot_Q>
0

> <i_epik_Tot_abs_Q>
0

> <r_epik_Metal_State_Penalty>
0.028853

> <b_epik_Metal_Only>
0

> <s_lp_Force_Field>
OPLS_2005

> <r_lp_Energy>
12.7053

> <b_lp_Chiralities_Consistent>
1

> <s_lp_Variant>
AV-unprocessed.smi:1766-2

> <Gold.Version>
5.8.1

> <Gold.Id.Protein>
6NUR|6NUR_protein|mol2

> <Gold.PLP.Fitness>
59.3854

> <Gold.PLP.PLP>
-54.7020

> <Gold.PLP.part.hbond>
-4.0000

> <Gold.PLP.part.metal>
0.0000

> <Gold.PLP.part.buried>
-3.2674

> <Gold.PLP.part.nonpolar>
-47.5422

> <Gold.PLP.part.repulsive>
1.0111

> <Gold.PLP.ligand.clash>
0.0000

> <Gold.PLP.ligand.torsion>
0.5068

> <Gold.PLP.Chemscore.Hbond>
1.8887

> <Gold.PLP.Chemscore.CHOScore>
0.0000

> <Gold.PLP.Chemscore.Metal>
0.0000

> <Gold.Chemscore.Hbonds>
donor molecule, donor type, donor heavy atom, donor atom, acceptor molecule, acceptor atom, score
      L1  H     1    24       P1  7949  0.63
      L1  H    16    35       P1  8028  0.20
      P1  H  7989  7998       L1     6  0.30
      P1  H 10752 10763       L1     3  0.78

> <Gold.PLP.Chemscore.Internal.Correction>
0.0309

> <Gold.Rescore>
     Score         DG    S(hbond)    S(metal)    S(lipo)     H(rot)  DE(clash)    DE(int)     intcor
     13.93     -18.30       1.92        0.00     119.97       2.99       2.35       2.02       ----

> <Gold.Chemscore.Fitness>
13.9299

> <Gold.Chemscore.DG>
-18.2960

> <Gold.Chemscore.ZeroCoef>
-5.4800

> <Gold.Chemscore.Hbond>
1.9235

> <Gold.Chemscore.Metal>
0.0000

> <Gold.Chemscore.Lipo>
119.9714

> <Gold.Chemscore.Internal_Hbond>
0.0000

> <Gold.Chemscore.DEClash>
2.3490

> <Gold.Chemscore.DEInternal>
2.0172

> <Gold.Chemscore.Rot>
2.9864

> <Gold.Chemscore.Internal.Correction>
   9.000000E+99

> <Gold.Chemscore.Hbonds>
donor molecule, donor type, donor heavy atom, donor atom, acceptor molecule, acceptor atom, score
      L1  H     1    24       P1  7949  0.58
      L1  H    16    35       P1  8028  0.19
      P1  H  7989  7998       L1     6  0.01
      P1  H 10752 10763       L1     3  0.73

> <Gold.Chemscore.Hbond.Weighted>
-6.4245

> <Gold.Chemscore.Metal.Weighted>
-0.0000

> <Gold.Chemscore.Lipo.Weighted>
-14.0367

> <Gold.Chemscore.Internal_Hbond.Weighted>
0.0000

> <Gold.Chemscore.DEClash.Weighted>
2.3490

> <Gold.Chemscore.DEInternal.Weighted>
2.0172

> <Gold.Chemscore.Rot.Weighted>
7.6451

> <Gold.Chemscore.Internal.Correction.Weighted>
   9.000000E+99

> <Gold.Protein.RotatedTorsions>
[ 6907 6896 6895 6894 ] final  100.89 input  -60.11 | X-H torsion
[ 7974 7965 7964 7962 ] final  -36.93 input  175.53 | X-H torsion
[ 8008 7997 7996 7995 ] final  -80.66 input   59.86 | X-H torsion
[ 10167 10162 10161 10158 ] final   -2.34 input  -65.29 | X-H torsion
[ 10718 10713 10712 10709 ] final  -91.88 input   66.30 | X-H torsion
[ 10763 10752 10751 10750 ] final   75.43 input  -60.55 | X-H torsion
[ 11005 11000 10999 10996 ] final    5.32 input  -57.11 | X-H torsion

> <Gold.Protein.ActiveResidues>
 VAL166  LYS551  ARG553  GLY616  TRP617  ASP618  TYR619  PRO620  LYS621  CYS622 
 ASP623  PHE694  ASN695  SER759  ASP760  ASP761  ALA762  ILE779  LEU786  VAL792 
 PHE793  MET794  SER795  GLU796  ALA797  LYS798  CYS799  TRP800  GLU811  SER814 

> <Gold.Protein.RotatedAtoms>
  152.5362  134.0208  159.7980 H   0  0  0  0  0  0  0  0  0  0  0  0  # atno 6907 bound_to 6896
  151.0394  133.5711  159.2660 H   0  0  0  0  0  0  0  0  0  0  0  0  # atno 6908 bound_to 6896
  151.2686  135.0685  159.9179 H   0  0  0  0  0  0  0  0  0  0  0  0  # atno 6909 bound_to 6896
  146.0619  140.6337  142.8993 H   0  0  0  0  0  0  0  0  0  0  0  0  # atno 7974 bound_to 7965
  154.5905  140.0659  156.9232 H   0  0  0  0  0  0  0  0  0  0  0  0  # atno 8008 bound_to 7997
  155.2303  140.3337  155.4286 H   0  0  0  0  0  0  0  0  0  0  0  0  # atno 8009 bound_to 7997
  156.2252  140.1816  156.7364 H   0  0  0  0  0  0  0  0  0  0  0  0  # atno 8010 bound_to 7997
  140.6847  143.6669  150.8219 H   0  0  0  0  0  0  0  0  0  0  0  0  # atno 10167 bound_to 10162
  155.9997  130.4965  150.5541 H   0  0  0  0  0  0  0  0  0  0  0  0  # atno 10718 bound_to 10713
  153.0654  135.4989  154.8188 H   0  0  0  0  0  0  0  0  0  0  0  0  # atno 10763 bound_to 10752
  154.6945  135.2990  154.9433 H   0  0  0  0  0  0  0  0  0  0  0  0  # atno 10764 bound_to 10752
  154.0177  135.6746  153.4823 H   0  0  0  0  0  0  0  0  0  0  0  0  # atno 10765 bound_to 10752
  140.5720  134.0093  155.8012 H   0  0  0  0  0  0  0  0  0  0  0  0  # atno 11005 bound_to 11000
  144.7179  140.4275  143.7030 LP  0  0  0  0  0  0  0  0  0  0  0  0  # atno 17320 bound_to 7965
  145.6546  139.1571  143.2843 LP  0  0  0  0  0  0  0  0  0  0  0  0  # atno 17321 bound_to 7965
  140.0374  143.5381  152.2733 LP  0  0  0  0  0  0  0  0  0  0  0  0  # atno 17342 bound_to 10162
  139.6196  144.7626  151.2770 LP  0  0  0  0  0  0  0  0  0  0  0  0  # atno 17343 bound_to 10162
  157.3460  131.0725  151.1751 LP  0  0  0  0  0  0  0  0  0  0  0  0  # atno 17370 bound_to 10713
  157.2583  130.6647  149.5963 LP  0  0  0  0  0  0  0  0  0  0  0  0  # atno 17371 bound_to 10713
  141.1050  133.9708  157.3013 LP  0  0  0  0  0  0  0  0  0  0  0  0  # atno 17394 bound_to 11000
  139.9357  135.0196  156.8548 LP  0  0  0  0  0  0  0  0  0  0  0  0  # atno 17395 bound_to 11000

$$$$
