AV-unprocessed.smi:237|AV-procd|sdf|1818|dock6
  -GOLD-   2262020413D 1   1.00000     0.00000
 Structure written by MMmdl.
 53 56  0  0  0  0  0  0  0  0  1 V2000
  153.6336  138.6755  154.3967 C   0  0  0  0  0  0  0  0  0  0  0  0
  152.3058  138.8901  155.1258 C   0  0  0  0  0  0  0  0  0  0  0  0
  151.3957  139.5008  154.2250 O   0  0  0  0  0  0  0  0  0  0  0  0
  150.1472  138.8325  154.0864 C   0  0  0  0  0  0  0  0  0  0  0  0
  148.9210  139.6436  154.5872 C   0  0  1  0  0  0  0  0  0  0  0  0
  149.1625  141.1388  154.2769 C   0  0  0  0  0  0  0  0  0  0  0  0
  147.9666  142.0141  154.6738 C   0  0  0  0  0  0  0  0  0  0  0  0
  146.6961  141.4942  153.9934 C   0  0  0  0  0  0  0  0  0  0  0  0
  146.4793  140.0161  154.3404 C   0  0  0  0  0  0  0  0  0  0  0  0
  147.6480  139.2074  153.9864 N   0  0  0  0  0  0  0  0  0  0  0  0
  147.3851  137.8870  154.1208 C   0  0  0  0  0  0  0  0  0  0  0  0
  148.1673  137.1160  154.9226 N   0  0  0  0  0  0  0  0  0  0  0  0
  147.9240  135.8065  155.0304 C   0  0  0  0  0  0  0  0  0  0  0  0
  146.9729  135.0820  154.4366 N   0  0  0  0  0  0  0  0  0  0  0  0
  146.1854  135.8567  153.6358 C   0  0  0  0  0  0  0  0  0  0  0  0
  146.3238  137.2559  153.4212 C   0  0  0  0  0  0  0  0  0  0  0  0
  145.3581  137.7016  152.5292 N   0  0  0  0  0  0  0  0  0  0  0  0
  144.6838  136.6241  152.2331 C   0  0  0  0  0  0  0  0  0  0  0  0
  145.1003  135.4732  152.8663 N   0  0  0  0  0  0  0  0  0  0  0  0
  144.5363  134.1383  152.7208 C   0  0  0  0  0  0  0  0  0  0  0  0
  144.8324  133.4486  151.3664 C   0  0  0  0  0  0  0  0  0  0  0  0
  144.3875  134.3954  150.2433 C   0  0  0  0  0  0  0  0  0  0  0  0
  144.1756  133.6955  149.0339 O   0  0  0  0  0  0  0  0  0  0  0  0
  146.2078  132.7822  151.1863 C   0  0  0  0  0  0  0  0  0  0  0  0
  145.6655  131.4693  151.4412 O   0  0  0  0  0  0  0  0  0  0  0  0
  144.3401  131.9978  151.2275 C   0  0  0  0  0  0  0  0  0  0  0  0
  154.3649  138.1983  155.0492 H   0  0  0  0  0  0  0  0  0  0  0  0
  154.0526  139.6244  154.0608 H   0  0  0  0  0  0  0  0  0  0  0  0
  153.5007  138.0396  153.5212 H   0  0  0  0  0  0  0  0  0  0  0  0
  151.9247  137.9312  155.4755 H   0  0  0  0  0  0  0  0  0  0  0  0
  152.4595  139.5256  155.9989 H   0  0  0  0  0  0  0  0  0  0  0  0
  150.0192  138.5551  153.0389 H   0  0  0  0  0  0  0  0  0  0  0  0
  150.2065  137.8929  154.6369 H   0  0  0  0  0  0  0  0  0  0  0  0
  148.8332  139.5493  155.6693 H   0  0  0  0  0  0  0  0  0  0  0  0
  150.0554  141.4890  154.7959 H   0  0  0  0  0  0  0  0  0  0  0  0
  149.3577  141.2643  153.2106 H   0  0  0  0  0  0  0  0  0  0  0  0
  147.8396  141.9994  155.7569 H   0  0  0  0  0  0  0  0  0  0  0  0
  148.1480  143.0516  154.3922 H   0  0  0  0  0  0  0  0  0  0  0  0
  145.8333  142.0830  154.3054 H   0  0  0  0  0  0  0  0  0  0  0  0
  146.7804  141.6100  152.9119 H   0  0  0  0  0  0  0  0  0  0  0  0
  146.2755  139.9221  155.4084 H   0  0  0  0  0  0  0  0  0  0  0  0
  145.5993  139.6428  153.8140 H   0  0  0  0  0  0  0  0  0  0  0  0
  148.5895  135.2602  155.6821 H   0  0  0  0  0  0  0  0  0  0  0  0
  143.8570  136.6421  151.5384 H   0  0  0  0  0  0  0  0  0  0  0  0
  144.9150  133.5296  153.5427 H   0  0  0  0  0  0  0  0  0  0  0  0
  143.4620  134.2209  152.8880 H   0  0  0  0  0  0  0  0  0  0  0  0
  143.4556  134.8988  150.5035 H   0  0  0  0  0  0  0  0  0  0  0  0
  145.1262  135.1794  150.0747 H   0  0  0  0  0  0  0  0  0  0  0  0
  144.9179  133.8409  148.4674 H   0  0  0  0  0  0  0  0  0  0  0  0
  146.6051  132.8621  150.1731 H   0  0  0  0  0  0  0  0  0  0  0  0
  146.9623  133.0785  151.9129 H   0  0  0  0  0  0  0  0  0  0  0  0
  143.6280  131.6823  151.9887 H   0  0  0  0  0  0  0  0  0  0  0  0
  143.9661  131.7488  150.2330 H   0  0  0  0  0  0  0  0  0  0  0  0
  1  2  1  0  0  0  0
  1 27  1  0  0  0  0
  1 28  1  0  0  0  0
  1 29  1  0  0  0  0
  2  3  1  0  0  0  0
  2 30  1  0  0  0  0
  2 31  1  0  0  0  0
  3  4  1  0  0  0  0
  4  5  1  0  0  0  0
  4 32  1  0  0  0  0
  4 33  1  0  0  0  0
  5 10  1  0  0  0  0
  5  6  1  0  0  0  0
  5 34  1  0  0  0  0
  6  7  1  0  0  0  0
  6 35  1  0  0  0  0
  6 36  1  0  0  0  0
  7  8  1  0  0  0  0
  7 37  1  0  0  0  0
  7 38  1  0  0  0  0
  8  9  1  0  0  0  0
  8 39  1  0  0  0  0
  8 40  1  0  0  0  0
  9 10  1  0  0  0  0
  9 41  1  0  0  0  0
  9 42  1  0  0  0  0
 10 11  1  0  0  0  0
 11 16  1  0  0  0  0
 11 12  2  0  0  0  0
 12 13  1  0  0  0  0
 13 14  2  0  0  0  0
 13 43  1  0  0  0  0
 14 15  1  0  0  0  0
 15 19  1  0  0  0  0
 15 16  2  0  0  0  0
 16 17  1  0  0  0  0
 17 18  2  0  0  0  0
 18 19  1  0  0  0  0
 18 44  1  0  0  0  0
 19 20  1  0  0  0  0
 20 21  1  0  0  0  0
 20 45  1  0  0  0  0
 20 46  1  0  0  0  0
 21 26  1  0  0  0  0
 21 22  1  0  0  0  0
 21 24  1  0  0  0  0
 22 23  1  0  0  0  0
 22 47  1  0  0  0  0
 22 48  1  0  0  0  0
 23 49  1  0  0  0  0
 24 25  1  0  0  0  0
 24 50  1  0  0  0  0
 24 51  1  0  0  0  0
 25 26  1  0  0  0  0
 26 52  1  0  0  0  0
 26 53  1  0  0  0  0
M  END
> <s_m_source_file>
AV-unprocessed.smi

> <i_m_source_file_index>
237

> <i_lp_mmshare_version>
43012

> <i_f3d_flags>
0

> <s_epik_input>
W0NIM11bQ0gyXU9bQ0gyXVtDQEBIXTFbQ0gyXVtDSDJdW0NIMl1bQ0gyXU4xYyhuW2NIXW4yKWMoYzIzKW5bY0hdbjNbQ0gyXUM0KFtDSDJdW09IXSlbQ0gyXU9bQ0gyXTQ=

> <s_epik_cmdline>
J2VwaWtfcHl0aG9uJywgJy1waCcsICc3LjAnLCAnLXRuJywgJzgnLCAnLW1hJywgJzIwMCcsICctbWV0YWxfYmluZGluZycsICctaW1hZScsICc8aW5maWxlLm1hZT4nLCAnLW9tYWUnLCAnPG91dGZpbGUubWFlPic=

> <r_lp_tautomer_probability>
1

> <r_epik_Ionization_Penalty>
0.00358373

> <r_epik_Ionization_Penalty_Charging>
0

> <r_epik_Ionization_Penalty_Neutral>
0.00358373

> <r_epik_State_Penalty>
0.00240903

> <r_epik_Charging_Adjusted_Penalty>
0.00240903

> <i_epik_Tot_Q>
0

> <i_epik_Tot_abs_Q>
0

> <r_epik_Metal_State_Penalty>
-0

> <b_epik_Metal_Only>
0

> <s_lp_Force_Field>
OPLS_2005

> <r_lp_Energy>
39.3208

> <b_lp_Chiralities_Consistent>
1

> <s_lp_Variant>
AV-unprocessed.smi:237-2

> <Gold.Version>
5.8.1

> <Gold.Id.Protein>
6NUR|6NUR_protein|mol2

> <Gold.PLP.Fitness>
41.6746

> <Gold.PLP.PLP>
-36.0546

> <Gold.PLP.part.hbond>
-2.4755

> <Gold.PLP.part.metal>
0.0000

> <Gold.PLP.part.buried>
-1.5712

> <Gold.PLP.part.nonpolar>
-33.2126

> <Gold.PLP.part.repulsive>
0.8452

> <Gold.PLP.ligand.clash>
0.0000

> <Gold.PLP.ligand.torsion>
1.6542

> <Gold.PLP.Chemscore.Hbond>
2.0000

> <Gold.PLP.Chemscore.CHOScore>
0.7760

> <Gold.PLP.Chemscore.Metal>
0.0000

> <Gold.Chemscore.Hbonds>
donor molecule, donor type, donor heavy atom, donor atom, acceptor molecule, acceptor atom, score
      L1  H    23    49       P1  7921  1.00
      P1  H  7989  7998       L1     3  1.00
      L1  C    18    44       P1 10171  0.62

> <Gold.PLP.Chemscore.Internal.Correction>
0.6003

> <Gold.Rescore>
     Score         DG    S(hbond)    S(metal)    S(lipo)     H(rot)  DE(clash)    DE(int)     intcor
     10.61     -14.42       1.95        0.00      87.72       3.06       0.61       3.20       ----

> <Gold.Chemscore.Fitness>
10.6140

> <Gold.Chemscore.DG>
-14.4245

> <Gold.Chemscore.ZeroCoef>
-5.4800

> <Gold.Chemscore.Hbond>
1.9521

> <Gold.Chemscore.Metal>
0.0000

> <Gold.Chemscore.Lipo>
87.7210

> <Gold.Chemscore.Internal_Hbond>
0.0000

> <Gold.Chemscore.DEClash>
0.6091

> <Gold.Chemscore.DEInternal>
3.2014

> <Gold.Chemscore.Rot>
3.0620

> <Gold.Chemscore.Internal.Correction>
   9.000000E+99

> <Gold.Chemscore.Hbonds>
donor molecule, donor type, donor heavy atom, donor atom, acceptor molecule, acceptor atom, score
      L1  H    23    49       P1  7921  0.96
      P1  H  7989  7998       L1     3  0.93

> <Gold.Chemscore.Hbond.Weighted>
-6.5199

> <Gold.Chemscore.Metal.Weighted>
-0.0000

> <Gold.Chemscore.Lipo.Weighted>
-10.2634

> <Gold.Chemscore.Internal_Hbond.Weighted>
0.0000

> <Gold.Chemscore.DEClash.Weighted>
0.6091

> <Gold.Chemscore.DEInternal.Weighted>
3.2014

> <Gold.Chemscore.Rot.Weighted>
7.8388

> <Gold.Chemscore.Internal.Correction.Weighted>
   9.000000E+99

> <Gold.Protein.RotatedTorsions>
[ 6907 6896 6895 6894 ] final  -31.47 input  -60.11 | X-H torsion
[ 7974 7965 7964 7962 ] final   87.94 input  175.53 | X-H torsion
[ 8008 7997 7996 7995 ] final   25.01 input   59.86 | X-H torsion
[ 10167 10162 10161 10158 ] final  131.37 input  -65.29 | X-H torsion
[ 10718 10713 10712 10709 ] final -167.42 input   66.30 | X-H torsion
[ 10763 10752 10751 10750 ] final   17.46 input  -60.55 | X-H torsion
[ 11005 11000 10999 10996 ] final  120.90 input  -57.11 | X-H torsion

> <Gold.Protein.ActiveResidues>
 VAL166  LYS551  ARG553  GLY616  TRP617  ASP618  TYR619  PRO620  LYS621  CYS622 
 ASP623  PHE694  ASN695  SER759  ASP760  ASP761  ALA762  ILE779  LEU786  VAL792 
 PHE793  MET794  SER795  GLU796  ALA797  LYS798  CYS799  TRP800  GLU811  SER814 

> <Gold.Protein.RotatedAtoms>
  151.0916  134.9919  159.8405 H   0  0  0  0  0  0  0  0  0  0  0  0  # atno 6907 bound_to 6896
  152.5429  134.2058  159.8740 H   0  0  0  0  0  0  0  0  0  0  0  0  # atno 6908 bound_to 6896
  151.2095  133.4520  159.2631 H   0  0  0  0  0  0  0  0  0  0  0  0  # atno 6909 bound_to 6896
  145.5523  139.2296  143.2506 H   0  0  0  0  0  0  0  0  0  0  0  0  # atno 7974 bound_to 7965
  155.0052  140.3130  155.4851 H   0  0  0  0  0  0  0  0  0  0  0  0  # atno 8008 bound_to 7997
  156.2918  140.2224  156.5105 H   0  0  0  0  0  0  0  0  0  0  0  0  # atno 8009 bound_to 7997
  154.7583  140.0461  157.0940 H   0  0  0  0  0  0  0  0  0  0  0  0  # atno 8010 bound_to 7997
  139.5387  144.6709  151.4698 H   0  0  0  0  0  0  0  0  0  0  0  0  # atno 10167 bound_to 10162
  156.6821  130.9126  151.3058 H   0  0  0  0  0  0  0  0  0  0  0  0  # atno 10718 bound_to 10713
  153.1336  135.6745  153.9138 H   0  0  0  0  0  0  0  0  0  0  0  0  # atno 10763 bound_to 10752
  153.8617  135.3080  155.3439 H   0  0  0  0  0  0  0  0  0  0  0  0  # atno 10764 bound_to 10752
  154.7729  135.4930  153.9767 H   0  0  0  0  0  0  0  0  0  0  0  0  # atno 10765 bound_to 10752
  139.9204  134.9637  156.7876 H   0  0  0  0  0  0  0  0  0  0  0  0  # atno 11005 bound_to 11000
  146.1908  140.6346  142.9146 LP  0  0  0  0  0  0  0  0  0  0  0  0  # atno 17320 bound_to 7965
  144.7523  140.5222  143.6793 LP  0  0  0  0  0  0  0  0  0  0  0  0  # atno 17321 bound_to 7965
  140.6606  143.8505  150.6884 LP  0  0  0  0  0  0  0  0  0  0  0  0  # atno 17342 bound_to 10162
  140.1899  143.4045  152.1871 LP  0  0  0  0  0  0  0  0  0  0  0  0  # atno 17343 bound_to 10162
  157.7040  130.9364  150.0872 LP  0  0  0  0  0  0  0  0  0  0  0  0  # atno 17370 bound_to 10713
  156.1860  130.3652  149.8973 LP  0  0  0  0  0  0  0  0  0  0  0  0  # atno 17371 bound_to 10713
  140.6493  133.9746  155.7747 LP  0  0  0  0  0  0  0  0  0  0  0  0  # atno 17394 bound_to 11000
  141.0719  134.0193  157.3514 LP  0  0  0  0  0  0  0  0  0  0  0  0  # atno 17395 bound_to 11000

$$$$
