#       Name:                AV-unprocessed.smi:3258
#       Creating user name   scv26
#       Creation time:       Fri Mar 27 18:37:06 2020


#       File generated by GOLD software.
#

@<TRIPOS>MOLECULE
AV-unprocessed.smi:3258
    43    44     1
SMALL
NO_CHARGES


@<TRIPOS>ATOM
      1 ****        -3.1975  -0.0057  -2.4729 C.3            1 S1                 0.0000
      2 ****        -2.5573   0.5661  -1.1978 C.3            1 S1                 0.0000
      3 ****        -2.8960  -0.2534   0.0719 C.3            1 S1                 0.0000
      4 ****        -2.4904  -1.6479  -0.0040 N.pl3          1 S1                 0.0000
      5 ****        -3.2415  -2.7412  -0.3820 C.2            1 S1                 0.0000
      6 ****        -2.4355  -3.8397  -0.2913 C.2            1 S1                 0.0000
      7 ****        -1.1944  -3.3118   0.1622 C.2            1 S1                 0.0000
      8 ****        -1.2308  -2.0008   0.3348 N.2            1 S1                 0.0000
      9 ****        -1.1136   0.6810  -1.3942 N.am           1 S1                 0.0000
     10 ****        -0.2885   1.4466  -0.6671 C.2            1 S1                 0.0000
     11 ****        -0.6587   2.1937   0.2389 O.2            1 S1                 0.0000
     12 ****         0.9904   1.2789  -1.0310 N.am           1 S1                 0.0000
     13 ****         2.1397   1.9042  -0.3854 C.3            1 S1                 0.0000
     14 ****         2.8026   0.9566   0.6318 C.3            1 S1                 0.0000
     15 ****         4.0227   1.5429   1.3118 C.3            1 S1                 0.0000
     16 ****         4.1768   0.6320   2.5263 C.3            1 S1                 0.0000
     17 ****         2.8607   0.1996   2.8606 O.3            1 S1                 0.0000
     18 ****         1.9435   0.5944   1.8450 C.3            1 S1                 0.0000
     19 ****        -4.2773  -0.1027  -2.3583 H              1 S1                 0.0000
     20 ****        -2.7987  -0.9898  -2.7209 H              1 S1                 0.0000
     21 ****        -3.0156   0.6473  -3.3272 H              1 S1                 0.0000
     22 ****        -2.9557   1.5727  -1.0593 H              1 S1                 0.0000
     23 ****        -2.4422   0.1949   0.9571 H              1 S1                 0.0000
     24 ****        -3.9725  -0.2269   0.2439 H              1 S1                 0.0000
     25 ****        -4.2745  -2.6466  -0.6831 H              1 S1                 0.0000
     26 ****        -2.6934  -4.8645  -0.5128 H              1 S1                 0.0000
     27 ****        -0.2749  -3.8385   0.3706 H              1 S1                 0.0000
     28 ****        -0.7077   0.0993  -2.1125 H              1 S1                 0.0000
     29 ****         1.1874   0.6403  -1.7878 H              1 S1                 0.0000
     30 ****         2.8581   2.1616  -1.1639 H              1 S1                 0.0000
     31 ****         1.8568   2.8447   0.0909 H              1 S1                 0.0000
     32 ****         3.0996   0.0352   0.1275 H              1 S1                 0.0000
     33 ****         4.9073   1.5527   0.6744 H              1 S1                 0.0000
     34 ****         3.8236   2.5655   1.6359 H              1 S1                 0.0000
     35 ****         4.7742  -0.2442   2.2714 H              1 S1                 0.0000
     36 ****         4.6566   1.1361   3.3655 H              1 S1                 0.0000
     37 ****         1.3913   1.4654   2.2010 H              1 S1                 0.0000
     38 ****         1.2245  -0.1966   1.6299 H              1 S1                 0.0000
     39 ****        -0.4913  -1.4042   0.6464 LP             1 S1                 0.0000
     40 ****        -1.6294   2.2554   0.4709 LP             1 S1                 0.0000
     41 ****         0.0114   2.7387   0.7427 LP             1 S1                 0.0000
     42 ****         2.5883   0.6109   3.7304 LP             1 S1                 0.0000
     43 ****         2.8514  -0.7968   2.9456 LP             1 S1                 0.0000
@<TRIPOS>BOND
    1    1    2 1     
    2    1   19 1     
    3    1   20 1     
    4    1   21 1     
    5    2    3 1     
    6    2    9 1     
    7    2   22 1     
    8    3    4 1     
    9    3   23 1     
   10    3   24 1     
   11    4    8 1     
   12    4    5 1     
   13    5    6 2     
   14    5   25 1     
   15    6    7 1     
   16    6   26 1     
   17    7    8 2     
   18    7   27 1     
   19    9   10 am    
   20    9   28 1     
   21   10   11 2     
   22   10   12 am    
   23   12   13 1     
   24   12   29 1     
   25   13   14 1     
   26   13   30 1     
   27   13   31 1     
   28   14   18 1     
   29   14   15 1     
   30   14   32 1     
   31   15   16 1     
   32   15   33 1     
   33   15   34 1     
   34   16   17 1     
   35   16   35 1     
   36   16   36 1     
   37   17   18 1     
   38   18   37 1     
   39   18   38 1     
   40    8   39 1     
   41   11   40 1     
   42   11   41 1     
   43   17   42 1     
   44   17   43 1     
@<TRIPOS>SUBSTRUCTURE
      1 S1             1
@<TRIPOS>SET
LONE_PAIRS      STATIC     ATOMS    <user>   **** ""
5 39 40 41 42 43
DONOR_HYDROGENS      STATIC     ATOMS    <user>   **** ""
2 28 29
ATOM$BLUE        STATIC     ATOMS    COLORGROUP SYSTEM
5 39 40 41 42 43
ATOM$RED        STATIC     ATOMS    COLORGROUP SYSTEM
2 28 29
