AV-unprocessed.smi:2787|AV-procd|sdf|10757|dock7
  -GOLD-   2272015193D 1   1.00000     0.00000
 Structure written by MMmdl.
 35 36  0  0  0  0  0  0  0  0  1 V2000
  151.9616  137.4542  154.0591 O   0  0  0  0  0  0  0  0  0  0  0  0
  151.5957  137.5368  155.4206 C   0  0  0  0  0  0  0  0  0  0  0  0
  151.7467  138.9765  155.9331 C   0  0  0  0  0  0  0  0  0  0  0  0
  151.4916  139.1125  157.4445 C   0  0  0  0  0  0  0  0  0  0  0  0
  151.6416  140.5243  157.9364 C   0  0  0  0  0  0  0  0  0  0  0  0
  152.2634  140.7801  159.0889 N   0  0  0  0  0  0  0  0  0  0  0  0
  152.1998  142.1557  159.1771 C   0  0  0  0  0  0  0  0  0  0  0  0
  152.6891  143.0368  160.1681 C   0  0  0  0  0  0  0  0  0  0  0  0
  152.5012  144.4288  160.0409 C   0  0  0  0  0  0  0  0  0  0  0  0
  151.8223  144.9579  158.9243 C   0  0  0  0  0  0  0  0  0  0  0  0
  151.3271  144.0968  157.9261 C   0  0  0  0  0  0  0  0  0  0  0  0
  151.5181  142.7079  158.0572 C   0  0  0  0  0  0  0  0  0  0  0  0
  151.1635  141.6130  157.2738 N   0  0  0  0  0  0  0  0  0  0  0  0
  150.4249  141.6926  156.0175 C   0  0  0  0  0  0  0  0  0  0  0  0
  148.9627  141.2225  156.1545 C   0  0  1  0  0  0  0  0  0  0  0  0
  148.1597  142.2862  156.6254 O   0  0  0  0  0  0  0  0  0  0  0  0
  148.3769  140.6929  154.8315 C   0  0  0  0  0  0  0  0  0  0  0  0
  148.2546  141.6878  153.9524 F   0  0  0  0  0  0  0  0  0  0  0  0
  149.1472  139.7338  154.3170 F   0  0  0  0  0  0  0  0  0  0  0  0
  147.1625  140.1901  155.0540 F   0  0  0  0  0  0  0  0  0  0  0  0
  152.2102  138.3158  153.7609 H   0  0  0  0  0  0  0  0  0  0  0  0
  150.5713  137.1840  155.5454 H   0  0  0  0  0  0  0  0  0  0  0  0
  152.2394  136.8672  155.9917 H   0  0  0  0  0  0  0  0  0  0  0  0
  152.7588  139.3189  155.7138 H   0  0  0  0  0  0  0  0  0  0  0  0
  151.0804  139.6339  155.3747 H   0  0  0  0  0  0  0  0  0  0  0  0
  150.5081  138.7176  157.6852 H   0  0  0  0  0  0  0  0  0  0  0  0
  152.2003  138.4881  157.9899 H   0  0  0  0  0  0  0  0  0  0  0  0
  153.2100  142.6407  161.0271 H   0  0  0  0  0  0  0  0  0  0  0  0
  152.8792  145.0937  160.8036 H   0  0  0  0  0  0  0  0  0  0  0  0
  151.6816  146.0251  158.8347 H   0  0  0  0  0  0  0  0  0  0  0  0
  150.8070  144.4999  157.0700 H   0  0  0  0  0  0  0  0  0  0  0  0
  150.4785  142.6984  155.6063 H   0  0  0  0  0  0  0  0  0  0  0  0
  150.9407  141.0627  155.2920 H   0  0  0  0  0  0  0  0  0  0  0  0
  148.9157  140.4264  156.8986 H   0  0  0  0  0  0  0  0  0  0  0  0
  148.3635  143.0600  156.1228 H   0  0  0  0  0  0  0  0  0  0  0  0
  1  2  1  0  0  0  0
  1 21  1  0  0  0  0
  2  3  1  0  0  0  0
  2 22  1  0  0  0  0
  2 23  1  0  0  0  0
  3  4  1  0  0  0  0
  3 24  1  0  0  0  0
  3 25  1  0  0  0  0
  4  5  1  0  0  0  0
  4 26  1  0  0  0  0
  4 27  1  0  0  0  0
  5 13  1  0  0  0  0
  5  6  2  0  0  0  0
  6  7  1  0  0  0  0
  7 12  2  0  0  0  0
  7  8  1  0  0  0  0
  8  9  2  0  0  0  0
  8 28  1  0  0  0  0
  9 10  1  0  0  0  0
  9 29  1  0  0  0  0
 10 11  2  0  0  0  0
 10 30  1  0  0  0  0
 11 12  1  0  0  0  0
 11 31  1  0  0  0  0
 12 13  1  0  0  0  0
 13 14  1  0  0  0  0
 14 15  1  0  0  0  0
 14 32  1  0  0  0  0
 14 33  1  0  0  0  0
 15 16  1  0  0  0  0
 15 17  1  0  0  0  0
 15 34  1  0  0  0  0
 16 35  1  0  0  0  0
 17 18  1  0  0  0  0
 17 19  1  0  0  0  0
 17 20  1  0  0  0  0
M  END
> <s_m_source_file>
AV-unprocessed.smi

> <i_m_source_file_index>
2787

> <i_lp_mmshare_version>
43012

> <i_f3d_flags>
0

> <s_epik_input>
W09IXVtDSDJdW0NIMl1bQ0gyXWMobjEpbihbQ0gyXVtDQEhdKFtPSF0pQyhGKShGKUYpYyhjMTIpW2NIXVtjSF1bY0hdW2NIXTI=

> <s_epik_cmdline>
J2VwaWtfcHl0aG9uJywgJy1waCcsICc3LjAnLCAnLXRuJywgJzgnLCAnLW1hJywgJzIwMCcsICctbWV0YWxfYmluZGluZycsICctaW1hZScsICc8aW5maWxlLm1hZT4nLCAnLW9tYWUnLCAnPG91dGZpbGUubWFlPic=

> <r_epik_Ionization_Penalty>
0.137914

> <r_epik_Ionization_Penalty_Charging>
0

> <r_epik_Ionization_Penalty_Neutral>
0.137914

> <r_epik_State_Penalty>
0.107668

> <r_epik_Charging_Adjusted_Penalty>
0.107668

> <i_epik_Tot_Q>
0

> <i_epik_Tot_abs_Q>
0

> <r_epik_Metal_State_Penalty>
0.000111872

> <b_epik_Metal_Only>
0

> <s_lp_Force_Field>
OPLS_2005

> <r_lp_Energy>
11.7706

> <b_lp_Chiralities_Consistent>
1

> <s_lp_Variant>
AV-unprocessed.smi:2787-2

> <Gold.Version>
5.8.1

> <Gold.Id.Protein>
6NUR|6NUR_protein|mol2

> <Gold.PLP.Fitness>
48.2769

> <Gold.PLP.PLP>
-43.8120

> <Gold.PLP.part.hbond>
-2.9056

> <Gold.PLP.part.metal>
0.0000

> <Gold.PLP.part.buried>
-5.1153

> <Gold.PLP.part.nonpolar>
-36.7185

> <Gold.PLP.part.repulsive>
0.0000

> <Gold.PLP.ligand.clash>
0.0000

> <Gold.PLP.ligand.torsion>
0.7325

> <Gold.PLP.Chemscore.Hbond>
1.9600

> <Gold.PLP.Chemscore.CHOScore>
0.0000

> <Gold.PLP.Chemscore.Metal>
0.0000

> <Gold.Chemscore.Hbonds>
donor molecule, donor type, donor heavy atom, donor atom, acceptor molecule, acceptor atom, score
      L1  H    16    35       P1  8028  1.00
      P1  H 10752 10764       L1     1  0.95

> <Gold.PLP.Chemscore.Internal.Correction>
0.0499

> <Gold.Rescore>
     Score         DG    S(hbond)    S(metal)    S(lipo)     H(rot)  DE(clash)    DE(int)     intcor
     13.58     -14.40       1.73        0.00     102.07       3.44       0.28       0.54       ----

> <Gold.Chemscore.Fitness>
13.5824

> <Gold.Chemscore.DG>
-14.3981

> <Gold.Chemscore.ZeroCoef>
-5.4800

> <Gold.Chemscore.Hbond>
1.7290

> <Gold.Chemscore.Metal>
0.0000

> <Gold.Chemscore.Lipo>
102.0653

> <Gold.Chemscore.Internal_Hbond>
0.0000

> <Gold.Chemscore.DEClash>
0.2804

> <Gold.Chemscore.DEInternal>
0.5352

> <Gold.Chemscore.Rot>
3.4369

> <Gold.Chemscore.Internal.Correction>
   9.000000E+99

> <Gold.Chemscore.Hbonds>
donor molecule, donor type, donor heavy atom, donor atom, acceptor molecule, acceptor atom, score
      L1  H    16    35       P1  8028  0.85
      P1  H 10752 10764       L1     1  0.22

> <Gold.Chemscore.Hbond.Weighted>
-5.7748

> <Gold.Chemscore.Metal.Weighted>
-0.0000

> <Gold.Chemscore.Lipo.Weighted>
-11.9416

> <Gold.Chemscore.Internal_Hbond.Weighted>
0.0000

> <Gold.Chemscore.DEClash.Weighted>
0.2804

> <Gold.Chemscore.DEInternal.Weighted>
0.5352

> <Gold.Chemscore.Rot.Weighted>
8.7984

> <Gold.Chemscore.Internal.Correction.Weighted>
   9.000000E+99

> <Gold.Protein.RotatedTorsions>
[ 6907 6896 6895 6894 ] final  -36.26 input  -60.11 | X-H torsion
[ 7974 7965 7964 7962 ] final  111.07 input  175.53 | X-H torsion
[ 8008 7997 7996 7995 ] final   57.47 input   59.86 | X-H torsion
[ 10167 10162 10161 10158 ] final  144.21 input  -65.29 | X-H torsion
[ 10718 10713 10712 10709 ] final  -83.28 input   66.30 | X-H torsion
[ 10763 10752 10751 10750 ] final  -90.21 input  -60.55 | X-H torsion
[ 11005 11000 10999 10996 ] final  -24.68 input  -57.11 | X-H torsion

> <Gold.Protein.ActiveResidues>
 VAL166  LYS551  ARG553  GLY616  TRP617  ASP618  TYR619  PRO620  LYS621  CYS622 
 ASP623  PHE694  ASN695  SER759  ASP760  ASP761  ALA762  ILE779  LEU786  VAL792 
 PHE793  MET794  SER795  GLU796  ALA797  LYS798  CYS799  TRP800  GLU811  SER814 

> <Gold.Protein.RotatedAtoms>
  151.0294  134.9528  159.8102 H   0  0  0  0  0  0  0  0  0  0  0  0  # atno 6907 bound_to 6896
  152.5342  134.2800  159.9014 H   0  0  0  0  0  0  0  0  0  0  0  0  # atno 6908 bound_to 6896
  151.2809  133.4168  159.2661 H   0  0  0  0  0  0  0  0  0  0  0  0  # atno 6909 bound_to 6896
  145.2469  139.2755  143.4088 H   0  0  0  0  0  0  0  0  0  0  0  0  # atno 7974 bound_to 7965
  155.5344  140.3483  155.4433 H   0  0  0  0  0  0  0  0  0  0  0  0  # atno 8008 bound_to 7997
  156.0696  140.1360  156.9871 H   0  0  0  0  0  0  0  0  0  0  0  0  # atno 8009 bound_to 7997
  154.4521  140.0968  156.6623 H   0  0  0  0  0  0  0  0  0  0  0  0  # atno 8010 bound_to 7997
  139.4952  144.5988  151.6526 H   0  0  0  0  0  0  0  0  0  0  0  0  # atno 10167 bound_to 10162
  156.0020  130.4661  150.4233 H   0  0  0  0  0  0  0  0  0  0  0  0  # atno 10718 bound_to 10713
  154.6634  135.5312  153.8047 H   0  0  0  0  0  0  0  0  0  0  0  0  # atno 10763 bound_to 10752
  153.0456  135.6511  154.0836 H   0  0  0  0  0  0  0  0  0  0  0  0  # atno 10764 bound_to 10752
  154.0743  135.2952  155.3282 H   0  0  0  0  0  0  0  0  0  0  0  0  # atno 10765 bound_to 10752
  140.8867  133.7616  156.0370 H   0  0  0  0  0  0  0  0  0  0  0  0  # atno 11005 bound_to 11000
  146.3313  140.2848  142.8612 LP  0  0  0  0  0  0  0  0  0  0  0  0  # atno 17320 bound_to 7965
  144.9538  140.8206  143.5555 LP  0  0  0  0  0  0  0  0  0  0  0  0  # atno 17321 bound_to 7965
  140.5632  144.0234  150.6180 LP  0  0  0  0  0  0  0  0  0  0  0  0  # atno 17342 bound_to 10162
  140.3326  143.3068  152.0671 LP  0  0  0  0  0  0  0  0  0  0  0  0  # atno 17343 bound_to 10162
  157.2288  131.0499  151.2504 LP  0  0  0  0  0  0  0  0  0  0  0  0  # atno 17370 bound_to 10713
  157.3731  130.7191  149.6578 LP  0  0  0  0  0  0  0  0  0  0  0  0  # atno 17371 bound_to 10713
  140.8396  134.3082  157.5318 LP  0  0  0  0  0  0  0  0  0  0  0  0  # atno 17394 bound_to 11000
  139.8725  134.9409  156.3781 LP  0  0  0  0  0  0  0  0  0  0  0  0  # atno 17395 bound_to 11000

$$$$
