AV-unprocessed.smi:65|AV-procd|sdf|613|dock2
  -GOLD-   2262016503D 1   1.00000     0.00000
 Structure written by MMmdl.
 25 26  0  0  0  0  0  0  0  0  1 V2000
  149.1005  145.0044  159.4826 N   0  0  0  0  0  0  0  0  0  0  0  0
  150.3539  144.4793  159.2838 C   0  0  0  0  0  0  0  0  0  0  0  0
  150.8992  144.6742  158.0826 N   0  0  0  0  0  0  0  0  0  0  0  0
  152.1305  144.1558  157.8883 C   0  0  0  0  0  0  0  0  0  0  0  0
  152.8082  143.4468  158.9008 C   0  0  0  0  0  0  0  0  0  0  0  0
  152.1364  143.3044  160.1385 C   0  0  0  0  0  0  0  0  0  0  0  0
  152.7181  142.6087  161.2158 N   0  0  0  0  0  0  0  0  0  0  0  0
  153.7071  141.5606  160.9985 C   0  0  0  0  0  0  0  0  0  0  0  0
  154.5825  141.5505  162.2579 C   0  0  0  0  0  0  0  0  0  0  0  0
  153.6994  142.2103  163.3179 C   0  0  1  0  0  0  0  0  0  0  0  0
  154.4500  142.8005  164.3576 O   0  0  0  0  0  0  0  0  0  0  0  0
  152.9146  143.2426  162.5101 C   0  0  0  0  0  0  0  0  0  0  0  0
  150.8980  143.8272  160.3129 N   0  0  0  0  0  0  0  0  0  0  0  0
  148.6337  144.8903  160.3706 H   0  0  0  0  0  0  0  0  0  0  0  0
  148.6253  145.4889  158.7351 H   0  0  0  0  0  0  0  0  0  0  0  0
  152.5785  144.3053  156.9172 H   0  0  0  0  0  0  0  0  0  0  0  0
  153.7892  143.0334  158.7204 H   0  0  0  0  0  0  0  0  0  0  0  0
  153.1897  140.6082  160.8791 H   0  0  0  0  0  0  0  0  0  0  0  0
  154.3105  141.7383  160.1077 H   0  0  0  0  0  0  0  0  0  0  0  0
  154.9133  140.5501  162.5385 H   0  0  0  0  0  0  0  0  0  0  0  0
  155.4705  142.1597  162.0816 H   0  0  0  0  0  0  0  0  0  0  0  0
  153.0148  141.4711  163.7366 H   0  0  0  0  0  0  0  0  0  0  0  0
  154.4268  143.7391  164.2490 H   0  0  0  0  0  0  0  0  0  0  0  0
  153.4933  144.1580  162.3769 H   0  0  0  0  0  0  0  0  0  0  0  0
  151.9674  143.4967  162.9872 H   0  0  0  0  0  0  0  0  0  0  0  0
  1  2  1  0  0  0  0
  1 14  1  0  0  0  0
  1 15  1  0  0  0  0
  2 13  1  0  0  0  0
  2  3  2  0  0  0  0
  3  4  1  0  0  0  0
  4  5  2  0  0  0  0
  4 16  1  0  0  0  0
  5  6  1  0  0  0  0
  5 17  1  0  0  0  0
  6  7  1  0  0  0  0
  6 13  2  0  0  0  0
  7 12  1  0  0  0  0
  7  8  1  0  0  0  0
  8  9  1  0  0  0  0
  8 18  1  0  0  0  0
  8 19  1  0  0  0  0
  9 10  1  0  0  0  0
  9 20  1  0  0  0  0
  9 21  1  0  0  0  0
 10 11  1  0  0  0  0
 10 12  1  0  0  0  0
 10 22  1  0  0  0  0
 11 23  1  0  0  0  0
 12 24  1  0  0  0  0
 12 25  1  0  0  0  0
M  END
> <s_m_source_file>
AV-unprocessed.smi

> <i_m_source_file_index>
65

> <i_lp_mmshare_version>
43012

> <i_f3d_flags>
0

> <s_epik_input>
W05IMl1jMW5bY0hdW2NIXWMobjEpTjJbQ0gyXVtDSDJdW0NAQEhdKFtPSF0pW0NIMl0y

> <s_epik_cmdline>
J2VwaWtfcHl0aG9uJywgJy1waCcsICc3LjAnLCAnLXRuJywgJzgnLCAnLW1hJywgJzIwMCcsICctbWV0YWxfYmluZGluZycsICctaW1hZScsICc8aW5maWxlLm1hZT4nLCAnLW9tYWUnLCAnPG91dGZpbGUubWFlPic=

> <r_lp_tautomer_probability>
1

> <r_epik_Ionization_Penalty>
0.99295

> <r_epik_Ionization_Penalty_Charging>
0

> <r_epik_Ionization_Penalty_Neutral>
0.99295

> <r_epik_State_Penalty>
0.750885

> <r_epik_Charging_Adjusted_Penalty>
0.750885

> <i_epik_Tot_Q>
0

> <i_epik_Tot_abs_Q>
0

> <r_epik_Metal_State_Penalty>
0.338511

> <b_epik_Metal_Only>
0

> <s_lp_Force_Field>
OPLS_2005

> <r_lp_Energy>
17.7727

> <b_lp_Chiralities_Consistent>
1

> <s_lp_Variant>
AV-unprocessed.smi:65-3

> <Gold.Version>
5.8.1

> <Gold.Id.Protein>
6NUR|6NUR_protein|mol2

> <Gold.PLP.Fitness>
34.9923

> <Gold.PLP.PLP>
-33.1404

> <Gold.PLP.part.hbond>
-1.2907

> <Gold.PLP.part.metal>
0.0000

> <Gold.PLP.part.buried>
-1.5363

> <Gold.PLP.part.nonpolar>
-29.8325

> <Gold.PLP.part.repulsive>
0.6867

> <Gold.PLP.ligand.clash>
0.0000

> <Gold.PLP.ligand.torsion>
0.6791

> <Gold.PLP.Chemscore.Hbond>
1.0000

> <Gold.PLP.Chemscore.CHOScore>
0.0000

> <Gold.PLP.Chemscore.Metal>
0.0000

> <Gold.Chemscore.Hbonds>
donor molecule, donor type, donor heavy atom, donor atom, acceptor molecule, acceptor atom, score
      L1  H     1    15       P1  8029  1.00

> <Gold.PLP.Chemscore.Internal.Correction>
0.2100

> <Gold.Rescore>
     Score         DG    S(hbond)    S(metal)    S(lipo)     H(rot)  DE(clash)    DE(int)     intcor
     12.68     -14.49       1.00        0.00      70.51       1.00       0.85       0.96       ----

> <Gold.Chemscore.Fitness>
12.6809

> <Gold.Chemscore.DG>
-14.4943

> <Gold.Chemscore.ZeroCoef>
-5.4800

> <Gold.Chemscore.Hbond>
0.9955

> <Gold.Chemscore.Metal>
0.0000

> <Gold.Chemscore.Lipo>
70.5069

> <Gold.Chemscore.Internal_Hbond>
0.0000

> <Gold.Chemscore.DEClash>
0.8546

> <Gold.Chemscore.DEInternal>
0.9588

> <Gold.Chemscore.Rot>
1.0000

> <Gold.Chemscore.Internal.Correction>
   9.000000E+99

> <Gold.Chemscore.Hbonds>
donor molecule, donor type, donor heavy atom, donor atom, acceptor molecule, acceptor atom, score
      L1  H     1    15       P1  8029  1.00

> <Gold.Chemscore.Hbond.Weighted>
-3.3250

> <Gold.Chemscore.Metal.Weighted>
-0.0000

> <Gold.Chemscore.Lipo.Weighted>
-8.2493

> <Gold.Chemscore.Internal_Hbond.Weighted>
0.0000

> <Gold.Chemscore.DEClash.Weighted>
0.8546

> <Gold.Chemscore.DEInternal.Weighted>
0.9588

> <Gold.Chemscore.Rot.Weighted>
2.5600

> <Gold.Chemscore.Internal.Correction.Weighted>
   9.000000E+99

> <Gold.Protein.RotatedTorsions>
[ 6907 6896 6895 6894 ] final  160.64 input  -60.11 | X-H torsion
[ 7974 7965 7964 7962 ] final  113.28 input  175.53 | X-H torsion
[ 8008 7997 7996 7995 ] final  -40.19 input   59.86 | X-H torsion
[ 10167 10162 10161 10158 ] final  156.13 input  -65.29 | X-H torsion
[ 10718 10713 10712 10709 ] final  -90.13 input   66.30 | X-H torsion
[ 10763 10752 10751 10750 ] final  154.07 input  -60.55 | X-H torsion
[ 11005 11000 10999 10996 ] final  -34.65 input  -57.11 | X-H torsion

> <Gold.Protein.ActiveResidues>
 VAL166  LYS551  ARG553  GLY616  TRP617  ASP618  TYR619  PRO620  LYS621  CYS622 
 ASP623  PHE694  ASN695  SER759  ASP760  ASP761  ALA762  ILE779  LEU786  VAL792 
 PHE793  MET794  SER795  GLU796  ALA797  LYS798  CYS799  TRP800  GLU811  SER814 

> <Gold.Protein.RotatedAtoms>
  151.9676  133.3715  159.4058 H   0  0  0  0  0  0  0  0  0  0  0  0  # atno 6907 bound_to 6896
  150.6954  134.4174  159.5198 H   0  0  0  0  0  0  0  0  0  0  0  0  # atno 6908 bound_to 6896
  152.1873  134.8702  160.0571 H   0  0  0  0  0  0  0  0  0  0  0  0  # atno 6909 bound_to 6896
  145.2189  139.2871  143.4229 H   0  0  0  0  0  0  0  0  0  0  0  0  # atno 7974 bound_to 7965
  154.4014  140.1532  156.2987 H   0  0  0  0  0  0  0  0  0  0  0  0  # atno 8008 bound_to 7997
  155.8720  140.3448  155.5806 H   0  0  0  0  0  0  0  0  0  0  0  0  # atno 8009 bound_to 7997
  155.7764  140.0837  157.2072 H   0  0  0  0  0  0  0  0  0  0  0  0  # atno 8010 bound_to 7997
  139.4821  144.5036  151.8131 H   0  0  0  0  0  0  0  0  0  0  0  0  # atno 10167 bound_to 10162
  155.9986  130.4898  150.5276 H   0  0  0  0  0  0  0  0  0  0  0  0  # atno 10718 bound_to 10713
  154.1463  135.2818  155.3147 H   0  0  0  0  0  0  0  0  0  0  0  0  # atno 10763 bound_to 10752
  154.6250  135.5454  153.7620 H   0  0  0  0  0  0  0  0  0  0  0  0  # atno 10764 bound_to 10752
  153.0235  135.6448  154.1609 H   0  0  0  0  0  0  0  0  0  0  0  0  # atno 10765 bound_to 10752
  140.9733  133.7097  156.1560 H   0  0  0  0  0  0  0  0  0  0  0  0  # atno 11005 bound_to 11000
  146.3380  140.2488  142.8598 LP  0  0  0  0  0  0  0  0  0  0  0  0  # atno 17320 bound_to 7965
  144.9785  140.8436  143.5412 LP  0  0  0  0  0  0  0  0  0  0  0  0  # atno 17321 bound_to 7965
  140.4532  144.1826  150.5899 LP  0  0  0  0  0  0  0  0  0  0  0  0  # atno 17342 bound_to 10162
  140.4563  143.2466  151.9280 LP  0  0  0  0  0  0  0  0  0  0  0  0  # atno 17343 bound_to 10162
  157.3229  131.0685  151.1918 LP  0  0  0  0  0  0  0  0  0  0  0  0  # atno 17370 bound_to 10713
  157.2825  130.6757  149.6073 LP  0  0  0  0  0  0  0  0  0  0  0  0  # atno 17371 bound_to 10713
  140.7297  134.4268  157.5567 LP  0  0  0  0  0  0  0  0  0  0  0  0  # atno 17394 bound_to 11000
  139.8920  134.8764  156.2289 LP  0  0  0  0  0  0  0  0  0  0  0  0  # atno 17395 bound_to 11000

$$$$
