AV-unprocessed.smi:3331|AV-procd|sdf|12820|dock3
  -GOLD-   2272019193D 1   1.00000     0.00000
 Structure written by MMmdl.
 47 48  0  0  0  0  0  0  0  0  2 V2000
  149.3276  137.5410  157.5463 C   0  0  0  0  0  0  0  0  0  0  0  0
  149.7236  136.9405  156.1857 C   0  0  2  0  0  0  0  0  0  0  0  0
  151.2025  137.2167  155.8329 C   0  0  0  0  0  0  0  0  0  0  0  0
  151.4454  138.6625  155.3442 C   0  0  1  0  0  0  0  0  0  0  0  0
  152.8937  138.8601  154.8750 C   0  0  0  0  0  0  0  0  0  0  0  0
  150.4354  139.0295  154.2374 C   0  0  0  0  0  0  0  0  0  0  0  0
  149.0701  138.8339  154.7451 N   0  0  0  0  0  0  0  0  0  0  0  0
  148.2220  139.8698  154.9728 C   0  0  0  0  0  0  0  0  0  0  0  0
  147.1025  139.6984  155.4577 O   0  0  0  0  0  0  0  0  0  0  0  0
  148.6642  141.3097  154.6422 C   0  0  1  0  0  0  0  0  0  0  0  0
  147.5397  142.1184  153.9617 C   0  0  0  0  0  0  0  0  0  0  0  0
  149.1221  141.9824  155.8785 N   0  3  0  0  0  0  0  0  0  0  0  0
  150.2651  141.3404  156.5584 C   0  0  0  0  0  0  0  0  0  0  0  0
  150.3046  141.7256  158.0439 C   0  0  0  0  0  0  0  0  0  0  0  0
  151.3007  142.7455  158.3076 N   0  0  0  0  0  0  0  0  0  0  0  0
  151.2928  144.0720  157.9304 C   0  0  0  0  0  0  0  0  0  0  0  0
  152.4406  144.6361  158.4088 C   0  0  0  0  0  0  0  0  0  0  0  0
  153.0931  143.5623  159.0769 C   0  0  0  0  0  0  0  0  0  0  0  0
  152.4070  142.4321  159.0160 N   0  0  0  0  0  0  0  0  0  0  0  0
  148.8098  137.4154  155.0349 C   0  0  0  0  0  0  0  0  0  0  0  0
  149.4152  138.6272  157.5561 H   0  0  0  0  0  0  0  0  0  0  0  0
  149.9623  137.1529  158.3435 H   0  0  0  0  0  0  0  0  0  0  0  0
  148.2973  137.2894  157.7990 H   0  0  0  0  0  0  0  0  0  0  0  0
  149.6057  135.8601  156.2773 H   0  0  0  0  0  0  0  0  0  0  0  0
  151.8443  136.9915  156.6855 H   0  0  0  0  0  0  0  0  0  0  0  0
  151.5016  136.5266  155.0427 H   0  0  0  0  0  0  0  0  0  0  0  0
  151.2828  139.3387  156.1848 H   0  0  0  0  0  0  0  0  0  0  0  0
  153.1299  138.2105  154.0316 H   0  0  0  0  0  0  0  0  0  0  0  0
  153.5991  138.6367  155.6759 H   0  0  0  0  0  0  0  0  0  0  0  0
  153.0681  139.8897  154.5611 H   0  0  0  0  0  0  0  0  0  0  0  0
  150.6171  140.0495  153.8964 H   0  0  0  0  0  0  0  0  0  0  0  0
  150.5883  138.3977  153.3609 H   0  0  0  0  0  0  0  0  0  0  0  0
  149.4867  141.2562  153.9295 H   0  0  0  0  0  0  0  0  0  0  0  0
  147.1519  141.5954  153.0863 H   0  0  0  0  0  0  0  0  0  0  0  0
  147.8972  143.0878  153.6155 H   0  0  0  0  0  0  0  0  0  0  0  0
  146.7040  142.2984  154.6394 H   0  0  0  0  0  0  0  0  0  0  0  0
  149.3531  142.9415  155.6611 H   0  0  0  0  0  0  0  0  0  0  0  0
  150.1785  140.2577  156.4559 H   0  0  0  0  0  0  0  0  0  0  0  0
  151.1971  141.6378  156.0774 H   0  0  0  0  0  0  0  0  0  0  0  0
  149.3316  142.1001  158.3651 H   0  0  0  0  0  0  0  0  0  0  0  0
  150.5293  140.8545  158.6615 H   0  0  0  0  0  0  0  0  0  0  0  0
  150.4820  144.4998  157.3591 H   0  0  0  0  0  0  0  0  0  0  0  0
  152.7645  145.6607  158.3000 H   0  0  0  0  0  0  0  0  0  0  0  0
  154.0376  143.5703  159.6007 H   0  0  0  0  0  0  0  0  0  0  0  0
  149.0269  136.8342  154.1373 H   0  0  0  0  0  0  0  0  0  0  0  0
  147.7703  137.1893  155.2631 H   0  0  0  0  0  0  0  0  0  0  0  0
  148.3484  141.9807  156.5277 H   0  0  0  0  0  0  0  0  0  0  0  0
  1  2  1  0  0  0  0
  1 21  1  0  0  0  0
  1 22  1  0  0  0  0
  1 23  1  0  0  0  0
  2 20  1  0  0  0  0
  2  3  1  0  0  0  0
  2 24  1  0  0  0  0
  3  4  1  0  0  0  0
  3 25  1  0  0  0  0
  3 26  1  0  0  0  0
  4  5  1  0  0  0  0
  4  6  1  0  0  0  0
  4 27  1  0  0  0  0
  5 28  1  0  0  0  0
  5 29  1  0  0  0  0
  5 30  1  0  0  0  0
  6  7  1  0  0  0  0
  6 31  1  0  0  0  0
  6 32  1  0  0  0  0
  7  8  1  0  0  0  0
  7 20  1  0  0  0  0
  8  9  2  0  0  0  0
  8 10  1  0  0  0  0
 10 11  1  0  0  0  0
 10 12  1  0  0  0  0
 10 33  1  0  0  0  0
 11 34  1  0  0  0  0
 11 35  1  0  0  0  0
 11 36  1  0  0  0  0
 12 13  1  0  0  0  0
 12 37  1  0  0  0  0
 12 47  1  0  0  0  0
 13 14  1  0  0  0  0
 13 38  1  0  0  0  0
 13 39  1  0  0  0  0
 14 15  1  0  0  0  0
 14 40  1  0  0  0  0
 14 41  1  0  0  0  0
 15 19  1  0  0  0  0
 15 16  1  0  0  0  0
 16 17  2  0  0  0  0
 16 42  1  0  0  0  0
 17 18  1  0  0  0  0
 17 43  1  0  0  0  0
 18 19  2  0  0  0  0
 18 44  1  0  0  0  0
 20 45  1  0  0  0  0
 20 46  1  0  0  0  0
M  CHG  1  12   1
M  END
> <s_m_source_file>
AV-unprocessed.smi

> <i_m_source_file_index>
3331

> <i_lp_mmshare_version>
43012

> <i_f3d_flags>
0

> <s_epik_input>
W0NIM11bQ0BASF0xW0NIMl1bQ0BASF0oW0NIM10pW0NIMl1OKFtDSDJdMSlDKD1PKVtDQEhdKFtDSDNdKVtOSF1bQ0gyXVtDSDJdbjJbY0hdW2NIXVtjSF1uMg==

> <s_epik_cmdline>
J2VwaWtfcHl0aG9uJywgJy1waCcsICc3LjAnLCAnLXRuJywgJzgnLCAnLW1hJywgJzIwMCcsICctbWV0YWxfYmluZGluZycsICctaW1hZScsICc8aW5maWxlLm1hZT4nLCAnLW9tYWUnLCAnPG91dGZpbGUubWFlPic=

> <r_lp_tautomer_probability>
1

> <r_epik_Ionization_Penalty>
0.189706

> <r_epik_Ionization_Penalty_Charging>
0.189703

> <r_epik_Ionization_Penalty_Neutral>
2.45875e-06

> <r_epik_State_Penalty>
0.179341

> <r_epik_Charging_Adjusted_Penalty>
0.369044

> <i_epik_Tot_Q>
1

> <i_epik_Tot_abs_Q>
1

> <r_epik_Metal_State_Penalty>
0.179578

> <b_epik_Metal_Only>
0

> <s_lp_Force_Field>
OPLS_2005

> <r_lp_Energy>
29.8241

> <b_lp_Chiralities_Consistent>
1

> <s_lp_Variant>
AV-unprocessed.smi:3331-4

> <Gold.Version>
5.8.1

> <Gold.Id.Protein>
6NUR|6NUR_protein|mol2

> <Gold.PLP.Fitness>
46.5838

> <Gold.PLP.PLP>
-39.5536

> <Gold.PLP.part.hbond>
-1.0000

> <Gold.PLP.part.metal>
0.0000

> <Gold.PLP.part.buried>
-5.2000

> <Gold.PLP.part.nonpolar>
-34.3693

> <Gold.PLP.part.repulsive>
0.1169

> <Gold.PLP.ligand.clash>
0.0000

> <Gold.PLP.ligand.torsion>
1.0236

> <Gold.PLP.Chemscore.Hbond>
2.0000

> <Gold.PLP.Chemscore.CHOScore>
1.0000

> <Gold.PLP.Chemscore.Metal>
0.0000

> <Gold.Chemscore.Hbonds>
donor molecule, donor type, donor heavy atom, donor atom, acceptor molecule, acceptor atom, score
      L1  H    12    37       P1  8028  1.98
      L1  C    16    42       P1  8028  1.00

> <Gold.PLP.Chemscore.Internal.Correction>
0.0774

> <Gold.Rescore>
     Score         DG    S(hbond)    S(metal)    S(lipo)     H(rot)  DE(clash)    DE(int)     intcor
     15.68     -16.80       1.00        0.00     105.95       1.73       0.13       0.99       ----

> <Gold.Chemscore.Fitness>
15.6817

> <Gold.Chemscore.DG>
-16.7950

> <Gold.Chemscore.ZeroCoef>
-5.4800

> <Gold.Chemscore.Hbond>
0.9989

> <Gold.Chemscore.Metal>
0.0000

> <Gold.Chemscore.Lipo>
105.9452

> <Gold.Chemscore.Internal_Hbond>
0.0000

> <Gold.Chemscore.DEClash>
0.1263

> <Gold.Chemscore.DEInternal>
0.9870

> <Gold.Chemscore.Rot>
1.7254

> <Gold.Chemscore.Internal.Correction>
   9.000000E+99

> <Gold.Chemscore.Hbonds>
donor molecule, donor type, donor heavy atom, donor atom, acceptor molecule, acceptor atom, score
      L1  H    12    37       P1  8028  0.93

> <Gold.Chemscore.Hbond.Weighted>
-3.3365

> <Gold.Chemscore.Metal.Weighted>
-0.0000

> <Gold.Chemscore.Lipo.Weighted>
-12.3956

> <Gold.Chemscore.Internal_Hbond.Weighted>
0.0000

> <Gold.Chemscore.DEClash.Weighted>
0.1263

> <Gold.Chemscore.DEInternal.Weighted>
0.9870

> <Gold.Chemscore.Rot.Weighted>
4.4170

> <Gold.Chemscore.Internal.Correction.Weighted>
   9.000000E+99

> <Gold.Protein.RotatedTorsions>
[ 6907 6896 6895 6894 ] final  -41.62 input  -60.11 | X-H torsion
[ 7974 7965 7964 7962 ] final  161.71 input  175.53 | X-H torsion
[ 8008 7997 7996 7995 ] final  144.35 input   59.86 | X-H torsion
[ 10167 10162 10161 10158 ] final  135.71 input  -65.29 | X-H torsion
[ 10718 10713 10712 10709 ] final  169.57 input   66.30 | X-H torsion
[ 10763 10752 10751 10750 ] final  -44.61 input  -60.55 | X-H torsion
[ 11005 11000 10999 10996 ] final -127.55 input  -57.11 | X-H torsion

> <Gold.Protein.ActiveResidues>
 VAL166  LYS551  ARG553  GLY616  TRP617  ASP618  TYR619  PRO620  LYS621  CYS622 
 ASP623  PHE694  ASN695  SER759  ASP760  ASP761  ALA762  ILE779  LEU786  VAL792 
 PHE793  MET794  SER795  GLU796  ALA797  LYS798  CYS799  TRP800  GLU811  SER814 

> <Gold.Protein.RotatedAtoms>
  150.9647  134.9029  159.7751 H   0  0  0  0  0  0  0  0  0  0  0  0  # atno 6907 bound_to 6896
  152.5169  134.3624  159.9299 H   0  0  0  0  0  0  0  0  0  0  0  0  # atno 6908 bound_to 6896
  151.3635  133.3840  159.2727 H   0  0  0  0  0  0  0  0  0  0  0  0  # atno 6909 bound_to 6896
  144.7672  139.7936  143.6310 H   0  0  0  0  0  0  0  0  0  0  0  0  # atno 7974 bound_to 7965
  156.2910  140.2238  156.5039 H   0  0  0  0  0  0  0  0  0  0  0  0  # atno 8008 bound_to 7997
  154.7666  140.0469  157.1039 H   0  0  0  0  0  0  0  0  0  0  0  0  # atno 8009 bound_to 7997
  154.9925  140.3092  155.4903 H   0  0  0  0  0  0  0  0  0  0  0  0  # atno 8010 bound_to 7997
  139.5207  144.6502  151.5323 H   0  0  0  0  0  0  0  0  0  0  0  0  # atno 10167 bound_to 10162
  157.0206  131.0231  151.2775 H   0  0  0  0  0  0  0  0  0  0  0  0  # atno 10718 bound_to 10713
  154.0149  135.6676  153.4768 H   0  0  0  0  0  0  0  0  0  0  0  0  # atno 10763 bound_to 10752
  153.0605  135.5031  154.8078 H   0  0  0  0  0  0  0  0  0  0  0  0  # atno 10764 bound_to 10752
  154.6973  135.3072  154.9357 H   0  0  0  0  0  0  0  0  0  0  0  0  # atno 10765 bound_to 10752
  140.9590  134.0962  157.3988 H   0  0  0  0  0  0  0  0  0  0  0  0  # atno 11005 bound_to 11000
  146.1790  139.4973  142.9879 LP  0  0  0  0  0  0  0  0  0  0  0  0  # atno 17320 bound_to 7965
  145.6433  141.0279  143.1800 LP  0  0  0  0  0  0  0  0  0  0  0  0  # atno 17321 bound_to 7965
  140.6304  143.9086  150.6601 LP  0  0  0  0  0  0  0  0  0  0  0  0  # atno 17342 bound_to 10162
  140.2389  143.3679  152.1503 LP  0  0  0  0  0  0  0  0  0  0  0  0  # atno 17343 bound_to 10162
  157.5252  130.8023  149.7854 LP  0  0  0  0  0  0  0  0  0  0  0  0  # atno 17370 bound_to 10713
  156.0103  130.3836  150.2286 LP  0  0  0  0  0  0  0  0  0  0  0  0  # atno 17371 bound_to 10713
  139.8871  135.0087  156.6543 LP  0  0  0  0  0  0  0  0  0  0  0  0  # atno 17394 bound_to 11000
  140.7495  133.8909  155.8336 LP  0  0  0  0  0  0  0  0  0  0  0  0  # atno 17395 bound_to 11000

$$$$
