#       Name:                AV-unprocessed.smi:1376
#       Creating user name   scv26
#       Creation time:       Fri Mar 27 05:19:35 2020


#       File generated by GOLD software.
#

@<TRIPOS>MOLECULE
AV-unprocessed.smi:1376
    48    49     1
SMALL
NO_CHARGES


@<TRIPOS>ATOM
      1 ****        -1.0296   1.9698  -0.9047 O.2            1 S1                 0.0000
      2 ****        -1.4400   0.8218  -0.7279 C.2            1 S1                 0.0000
      3 ****        -2.9417   0.5044  -0.7730 C.3            1 S1                 0.0000
      4 ****        -3.7947   1.6960  -0.6305 N.am           1 S1                 0.0000
      5 ****        -4.2648   2.2923  -1.8175 C.2            1 S1                 0.0000
      6 ****        -5.0435   3.3855  -1.8027 C.2            1 S1                 0.0000
      7 ****        -5.4000   3.9522  -0.5237 C.2            1 S1                 0.0000
      8 ****        -4.9520   3.3924   0.6177 C.2            1 S1                 0.0000
      9 ****        -4.0970   2.1996   0.6059 C.2            1 S1                 0.0000
     10 ****        -3.6783   1.6854   1.6435 O.2            1 S1                 0.0000
     11 ****        -0.6266  -0.2221  -0.5070 N.am           1 S1                 0.0000
     12 ****         0.8298  -0.1539  -0.4337 C.3            1 S1                 0.0000
     13 ****         1.4481  -0.2267  -1.8442 C.3            1 S1                 0.0000
     14 ****         2.9832  -0.2279  -1.7813 C.3            1 S1                 0.0000
     15 ****         3.5028  -1.3635  -0.8864 C.3            1 S1                 0.0000
     16 ****         2.9006  -1.2849   0.5268 C.3            1 S1                 0.0000
     17 ****         3.3889  -2.4027   1.2571 O.3            1 S1                 0.0000
     18 ****         3.3039  -2.2715   2.6699 C.3            1 S1                 0.0000
     19 ****         3.9421  -3.4988   3.3317 C.3            1 S1                 0.0000
     20 ****         3.8819  -3.3653   4.6562 F              1 S1                 0.0000
     21 ****         3.2855  -4.6049   2.9829 F              1 S1                 0.0000
     22 ****         5.2206  -3.6041   2.9702 F              1 S1                 0.0000
     23 ****         1.3590  -1.2935   0.4571 C.3            1 S1                 0.0000
     24 ****        -3.1533  -0.0034  -1.7150 H              1 S1                 0.0000
     25 ****        -3.1800  -0.2253   0.0032 H              1 S1                 0.0000
     26 ****        -3.9461   1.8120  -2.7313 H              1 S1                 0.0000
     27 ****        -5.3895   3.8321  -2.7233 H              1 S1                 0.0000
     28 ****        -6.0275   4.8302  -0.4819 H              1 S1                 0.0000
     29 ****        -5.2280   3.8310   1.5656 H              1 S1                 0.0000
     30 ****        -1.0470  -1.1313  -0.3797 H              1 S1                 0.0000
     31 ****         1.1184   0.7923   0.0283 H              1 S1                 0.0000
     32 ****         1.1060  -1.1297  -2.3519 H              1 S1                 0.0000
     33 ****         1.1087   0.6149  -2.4494 H              1 S1                 0.0000
     34 ****         3.3959  -0.3276  -2.7853 H              1 S1                 0.0000
     35 ****         3.3340   0.7305  -1.3964 H              1 S1                 0.0000
     36 ****         3.2559  -2.3250  -1.3386 H              1 S1                 0.0000
     37 ****         4.5910  -1.3197  -0.8297 H              1 S1                 0.0000
     38 ****         3.2440  -0.3592   0.9927 H              1 S1                 0.0000
     39 ****         3.8226  -1.3683   2.9952 H              1 S1                 0.0000
     40 ****         2.2649  -2.1837   2.9878 H              1 S1                 0.0000
     41 ****         0.9319  -1.1948   1.4548 H              1 S1                 0.0000
     42 ****         1.0196  -2.2550   0.0686 H              1 S1                 0.0000
     43 ****        -1.6775   2.7109  -1.0806 LP             1 S1                 0.0000
     44 ****        -0.0485   2.1606  -0.8723 LP             1 S1                 0.0000
     45 ****        -3.0971   0.8728   1.5997 LP             1 S1                 0.0000
     46 ****        -3.9194   2.0805   2.5300 LP             1 S1                 0.0000
     47 ****         4.3494  -2.5383   1.0140 LP             1 S1                 0.0000
     48 ****         2.8598  -3.2070   0.9865 LP             1 S1                 0.0000
@<TRIPOS>BOND
    1    1    2 2     
    2    2    3 1     
    3    2   11 am    
    4    3    4 1     
    5    3   24 1     
    6    3   25 1     
    7    4    9 am    
    8    4    5 1     
    9    5    6 2     
   10    5   26 1     
   11    6    7 1     
   12    6   27 1     
   13    7    8 2     
   14    7   28 1     
   15    8    9 1     
   16    8   29 1     
   17    9   10 2     
   18   11   12 1     
   19   11   30 1     
   20   12   23 1     
   21   12   13 1     
   22   12   31 1     
   23   13   14 1     
   24   13   32 1     
   25   13   33 1     
   26   14   15 1     
   27   14   34 1     
   28   14   35 1     
   29   15   16 1     
   30   15   36 1     
   31   15   37 1     
   32   16   17 1     
   33   16   23 1     
   34   16   38 1     
   35   17   18 1     
   36   18   19 1     
   37   18   39 1     
   38   18   40 1     
   39   19   20 1     
   40   19   21 1     
   41   19   22 1     
   42   23   41 1     
   43   23   42 1     
   44    1   43 1     
   45    1   44 1     
   46   10   45 1     
   47   10   46 1     
   48   17   47 1     
   49   17   48 1     
@<TRIPOS>SUBSTRUCTURE
      1 S1             1
@<TRIPOS>SET
LONE_PAIRS      STATIC     ATOMS    <user>   **** ""
6 43 44 45 46 47 48
DONOR_HYDROGENS      STATIC     ATOMS    <user>   **** ""
1 30
ATOM$BLUE        STATIC     ATOMS    COLORGROUP SYSTEM
6 43 44 45 46 47 48
ATOM$RED        STATIC     ATOMS    COLORGROUP SYSTEM
1 30
