#       Name:                AV-unprocessed.smi:626
#       Creating user name   scv26
#       Creation time:       Fri Mar 27 00:03:21 2020


#       File generated by GOLD software.
#

@<TRIPOS>MOLECULE
AV-unprocessed.smi:626
    40    42     1
SMALL
NO_CHARGES


@<TRIPOS>ATOM
      1 ****        -4.1835  -4.4284  -1.2131 C.3            1 S1                 0.0000
      2 ****        -2.8609  -3.9596  -1.5976 N.am           1 S1                 0.0000
      3 ****        -2.3573  -2.7631  -1.2616 C.2            1 S1                 0.0000
      4 ****        -2.9792  -1.9416  -0.5856 O.2            1 S1                 0.0000
      5 ****        -0.9374  -2.4708  -1.7656 C.3            1 S1                 0.0000
      6 ****        -0.5626  -1.0281  -1.6223 C.2            1 S1                 0.0000
      7 ****        -0.8009  -0.1526  -2.5916 N.2            1 S1                 0.0000
      8 ****        -0.2959   1.0484  -2.0733 O.3            1 S1                 0.0000
      9 ****         0.1581   0.7574  -0.8299 C.2            1 S1                 0.0000
     10 ****         0.8454   1.8355  -0.0483 C.3            1 S1                 0.0000
     11 ****         2.3849   1.8113  -0.1504 C.3            1 S1                 0.0000
     12 ****         2.8196   1.8756   1.3265 C.3            1 S1                 0.0000
     13 ****         2.4597   3.2520   1.9198 C.3            1 S1                 0.0000
     14 ****         0.9265   3.1730   2.0663 C.3            1 S1                 0.0000
     15 ****         0.6041   1.7859   1.4782 C.3            1 S1                 0.0000
     16 ****         1.7894   0.9698   1.9890 C.3            1 S1                 0.0000
     17 ****         0.0611  -0.5337  -0.5175 N.2            1 S1                 0.0000
     18 ****        -4.3451  -5.4372  -1.5927 H              1 S1                 0.0000
     19 ****        -4.9596  -3.7810  -1.6236 H              1 S1                 0.0000
     20 ****        -4.2875  -4.4519  -0.1275 H              1 S1                 0.0000
     21 ****        -2.2917  -4.5841  -2.1509 H              1 S1                 0.0000
     22 ****        -0.2292  -3.0848  -1.2077 H              1 S1                 0.0000
     23 ****        -0.8547  -2.7634  -2.8135 H              1 S1                 0.0000
     24 ****         0.4732   2.7849  -0.4369 H              1 S1                 0.0000
     25 ****         2.7363   0.8809  -0.5995 H              1 S1                 0.0000
     26 ****         2.7780   2.6365  -0.7451 H              1 S1                 0.0000
     27 ****         3.8583   1.5863   1.4884 H              1 S1                 0.0000
     28 ****         2.9307   3.3928   2.8934 H              1 S1                 0.0000
     29 ****         2.7740   4.0722   1.2733 H              1 S1                 0.0000
     30 ****         0.6401   3.2215   3.1177 H              1 S1                 0.0000
     31 ****         0.4132   3.9824   1.5458 H              1 S1                 0.0000
     32 ****        -0.3821   1.4182   1.7645 H              1 S1                 0.0000
     33 ****         1.8111  -0.0545   1.6144 H              1 S1                 0.0000
     34 ****         1.8651   0.9506   3.0777 H              1 S1                 0.0000
     35 ****        -3.9012  -2.1553  -0.2627 LP             1 S1                 0.0000
     36 ****        -2.5619  -1.0613  -0.3600 LP             1 S1                 0.0000
     37 ****        -1.2359  -0.3115  -3.4780 LP             1 S1                 0.0000
     38 ****        -1.0188   1.7378  -2.0267 LP             1 S1                 0.0000
     39 ****         0.4511   1.3868  -2.6455 LP             1 S1                 0.0000
     40 ****         0.3647  -1.0115   0.3068 LP             1 S1                 0.0000
@<TRIPOS>BOND
    1    1    2 1     
    2    1   18 1     
    3    1   19 1     
    4    1   20 1     
    5    2    3 am    
    6    2   21 1     
    7    3    4 2     
    8    3    5 1     
    9    5    6 1     
   10    5   22 1     
   11    5   23 1     
   12    6   17 1     
   13    6    7 2     
   14    7    8 1     
   15    8    9 1     
   16    9   10 1     
   17    9   17 2     
   18   10   15 1     
   19   10   11 1     
   20   10   24 1     
   21   11   12 1     
   22   11   25 1     
   23   11   26 1     
   24   12   16 1     
   25   12   13 1     
   26   12   27 1     
   27   13   14 1     
   28   13   28 1     
   29   13   29 1     
   30   14   15 1     
   31   14   30 1     
   32   14   31 1     
   33   15   16 1     
   34   15   32 1     
   35   16   33 1     
   36   16   34 1     
   37    4   35 1     
   38    4   36 1     
   39    7   37 1     
   40    8   38 1     
   41    8   39 1     
   42   17   40 1     
@<TRIPOS>SUBSTRUCTURE
      1 S1             1
@<TRIPOS>SET
LONE_PAIRS      STATIC     ATOMS    <user>   **** ""
6 35 36 37 38 39 40
DONOR_HYDROGENS      STATIC     ATOMS    <user>   **** ""
1 21
ATOM$BLUE        STATIC     ATOMS    COLORGROUP SYSTEM
6 35 36 37 38 39 40
ATOM$RED        STATIC     ATOMS    COLORGROUP SYSTEM
1 21
