AV-unprocessed.smi:3010|AV-procd|sdf|11455|dock6
  -GOLD-   2272016393D 1   1.00000     0.00000
 Structure written by MMmdl.
 38 40  0  0  0  0  0  0  0  0  1 V2000
  154.3292  136.6823  158.5832 C   0  0  0  0  0  0  0  0  0  0  0  0
  153.4509  137.2026  157.5185 N   0  0  0  0  0  0  0  0  0  0  0  0
  153.1325  138.5353  157.5351 C   0  0  0  0  0  0  0  0  0  0  0  0
  153.5254  139.3456  158.3757 O   0  0  0  0  0  0  0  0  0  0  0  0
  152.2525  138.9470  156.4383 C   0  0  0  0  0  0  0  0  0  0  0  0
  151.7985  138.0892  155.4935 C   0  0  0  0  0  0  0  0  0  0  0  0
  150.9821  138.7357  154.5722 N   0  0  0  0  0  0  0  0  0  0  0  0
  150.9876  139.9892  155.0286 C   0  0  0  0  0  0  0  0  0  0  0  0
  151.7212  140.2000  156.1408 N   0  0  0  0  0  0  0  0  0  0  0  0
  151.8924  141.4652  156.8379 C   0  0  0  0  0  0  0  0  0  0  0  0
  150.5605  142.0501  157.3485 C   0  0  2  0  0  0  0  0  0  0  0  0
  149.7641  142.4640  156.2544 O   0  0  0  0  0  0  0  0  0  0  0  0
  150.8003  143.1728  158.3456 C   0  0  0  0  0  0  0  0  0  0  0  0
  149.7566  143.5897  159.1994 C   0  0  0  0  0  0  0  0  0  0  0  0
  149.9722  144.6226  160.1326 C   0  0  0  0  0  0  0  0  0  0  0  0
  151.2337  145.2423  160.2194 C   0  0  0  0  0  0  0  0  0  0  0  0
  152.2803  144.8275  159.3737 C   0  0  0  0  0  0  0  0  0  0  0  0
  152.0651  143.7948  158.4404 C   0  0  0  0  0  0  0  0  0  0  0  0
  152.1897  136.7294  155.5667 N   0  0  0  0  0  0  0  0  0  0  0  0
  151.6797  135.8305  154.5274 C   0  0  0  0  0  0  0  0  0  0  0  0
  153.0101  136.2871  156.5768 C   0  0  0  0  0  0  0  0  0  0  0  0
  153.3449  135.1012  156.6423 O   0  0  0  0  0  0  0  0  0  0  0  0
  154.6815  137.4300  159.2944 H   0  0  0  0  0  0  0  0  0  0  0  0
  155.2206  136.2234  158.1524 H   0  0  0  0  0  0  0  0  0  0  0  0
  153.8080  135.9202  159.1650 H   0  0  0  0  0  0  0  0  0  0  0  0
  150.4368  140.7800  154.5406 H   0  0  0  0  0  0  0  0  0  0  0  0
  152.5865  141.3131  157.6648 H   0  0  0  0  0  0  0  0  0  0  0  0
  152.3774  142.1699  156.1606 H   0  0  0  0  0  0  0  0  0  0  0  0
  149.9985  141.2643  157.8543 H   0  0  0  0  0  0  0  0  0  0  0  0
  149.5524  143.3781  156.3681 H   0  0  0  0  0  0  0  0  0  0  0  0
  148.7866  143.1171  159.1432 H   0  0  0  0  0  0  0  0  0  0  0  0
  149.1698  144.9387  160.7828 H   0  0  0  0  0  0  0  0  0  0  0  0
  151.3992  146.0337  160.9356 H   0  0  0  0  0  0  0  0  0  0  0  0
  153.2491  145.3003  159.4415 H   0  0  0  0  0  0  0  0  0  0  0  0
  152.8757  143.4804  157.7992 H   0  0  0  0  0  0  0  0  0  0  0  0
  152.0036  134.7944  154.6279 H   0  0  0  0  0  0  0  0  0  0  0  0
  152.0035  136.1772  153.5455 H   0  0  0  0  0  0  0  0  0  0  0  0
  150.5892  135.8312  154.5383 H   0  0  0  0  0  0  0  0  0  0  0  0
  1  2  1  0  0  0  0
  1 23  1  0  0  0  0
  1 24  1  0  0  0  0
  1 25  1  0  0  0  0
  2 21  1  0  0  0  0
  2  3  1  0  0  0  0
  3  4  2  0  0  0  0
  3  5  1  0  0  0  0
  5  9  1  0  0  0  0
  5  6  2  0  0  0  0
  6  7  1  0  0  0  0
  6 19  1  0  0  0  0
  7  8  2  0  0  0  0
  8  9  1  0  0  0  0
  8 26  1  0  0  0  0
  9 10  1  0  0  0  0
 10 11  1  0  0  0  0
 10 27  1  0  0  0  0
 10 28  1  0  0  0  0
 11 12  1  0  0  0  0
 11 13  1  0  0  0  0
 11 29  1  0  0  0  0
 12 30  1  0  0  0  0
 13 18  1  0  0  0  0
 13 14  2  0  0  0  0
 14 15  1  0  0  0  0
 14 31  1  0  0  0  0
 15 16  2  0  0  0  0
 15 32  1  0  0  0  0
 16 17  1  0  0  0  0
 16 33  1  0  0  0  0
 17 18  2  0  0  0  0
 17 34  1  0  0  0  0
 18 35  1  0  0  0  0
 19 20  1  0  0  0  0
 19 21  1  0  0  0  0
 20 36  1  0  0  0  0
 20 37  1  0  0  0  0
 20 38  1  0  0  0  0
 21 22  2  0  0  0  0
M  END
> <s_m_source_file>
AV-unprocessed.smi

> <i_m_source_file_index>
3010

> <i_lp_mmshare_version>
43012

> <i_f3d_flags>
0

> <s_epik_input>
Tz1jMW4oW0NIM10pYyg9TyluKFtDSDNdKWMoYzEyKW5bY0hdbjJbQ0gyXVtDQEhdKFtPSF0pYzNbY0hdW2NIXVtjSF1bY0hdW2NIXTM=

> <s_epik_cmdline>
J2VwaWtfcHl0aG9uJywgJy1waCcsICc3LjAnLCAnLXRuJywgJzgnLCAnLW1hJywgJzIwMCcsICctbWV0YWxfYmluZGluZycsICctaW1hZScsICc8aW5maWxlLm1hZT4nLCAnLW9tYWUnLCAnPG91dGZpbGUubWFlPic=

> <r_lp_tautomer_probability>
1

> <r_epik_Ionization_Penalty>
1.43747e-06

> <r_epik_Ionization_Penalty_Charging>
3.74189e-09

> <r_epik_Ionization_Penalty_Neutral>
1.43373e-06

> <r_epik_State_Penalty>
-0

> <r_epik_Charging_Adjusted_Penalty>
3.74189e-09

> <i_epik_Tot_Q>
0

> <i_epik_Tot_abs_Q>
0

> <r_epik_Metal_State_Penalty>
-0

> <b_epik_Metal_Only>
0

> <s_lp_Force_Field>
OPLS_2005

> <r_lp_Energy>
35.6617

> <b_lp_Chiralities_Consistent>
1

> <s_lp_Variant>
AV-unprocessed.smi:3010-1

> <Gold.Version>
5.8.1

> <Gold.Id.Protein>
6NUR|6NUR_protein|mol2

> <Gold.PLP.Fitness>
42.6643

> <Gold.PLP.PLP>
-37.5567

> <Gold.PLP.part.hbond>
-3.7414

> <Gold.PLP.part.metal>
0.0000

> <Gold.PLP.part.buried>
-5.4172

> <Gold.PLP.part.nonpolar>
-28.7476

> <Gold.PLP.part.repulsive>
0.1110

> <Gold.PLP.ligand.clash>
0.0000

> <Gold.PLP.ligand.torsion>
0.4475

> <Gold.PLP.Chemscore.Hbond>
1.9920

> <Gold.PLP.Chemscore.CHOScore>
0.0000

> <Gold.PLP.Chemscore.Metal>
0.0000

> <Gold.Chemscore.Hbonds>
donor molecule, donor type, donor heavy atom, donor atom, acceptor molecule, acceptor atom, score
      L1  H    12    30       P1  8028  0.91
      P1  H  7997  8008       L1     4  0.65

> <Gold.PLP.Chemscore.Internal.Correction>
0.0266

> <Gold.Rescore>
     Score         DG    S(hbond)    S(metal)    S(lipo)     H(rot)  DE(clash)    DE(int)     intcor
     16.00     -16.66       1.94        0.00      87.16       2.15       0.07       0.60       ----

> <Gold.Chemscore.Fitness>
15.9951

> <Gold.Chemscore.DG>
-16.6645

> <Gold.Chemscore.ZeroCoef>
-5.4800

> <Gold.Chemscore.Hbond>
1.9415

> <Gold.Chemscore.Metal>
0.0000

> <Gold.Chemscore.Lipo>
87.1557

> <Gold.Chemscore.Internal_Hbond>
0.0000

> <Gold.Chemscore.DEClash>
0.0704

> <Gold.Chemscore.DEInternal>
0.5990

> <Gold.Chemscore.Rot>
2.1474

> <Gold.Chemscore.Internal.Correction>
   9.000000E+99

> <Gold.Chemscore.Hbonds>
donor molecule, donor type, donor heavy atom, donor atom, acceptor molecule, acceptor atom, score
      L1  H    12    30       P1  8028  0.89
      P1  H  7997  8008       L1     4  0.06

> <Gold.Chemscore.Hbond.Weighted>
-6.4847

> <Gold.Chemscore.Metal.Weighted>
-0.0000

> <Gold.Chemscore.Lipo.Weighted>
-10.1972

> <Gold.Chemscore.Internal_Hbond.Weighted>
0.0000

> <Gold.Chemscore.DEClash.Weighted>
0.0704

> <Gold.Chemscore.DEInternal.Weighted>
0.5990

> <Gold.Chemscore.Rot.Weighted>
5.4974

> <Gold.Chemscore.Internal.Correction.Weighted>
   9.000000E+99

> <Gold.Protein.RotatedTorsions>
[ 6907 6896 6895 6894 ] final  -53.80 input  -60.11 | X-H torsion
[ 7974 7965 7964 7962 ] final  135.20 input  175.53 | X-H torsion
[ 8008 7997 7996 7995 ] final -106.67 input   59.86 | X-H torsion
[ 10167 10162 10161 10158 ] final -136.15 input  -65.29 | X-H torsion
[ 10718 10713 10712 10709 ] final  -59.72 input   66.30 | X-H torsion
[ 10763 10752 10751 10750 ] final -143.16 input  -60.55 | X-H torsion
[ 11005 11000 10999 10996 ] final   15.56 input  -57.11 | X-H torsion

> <Gold.Protein.ActiveResidues>
 VAL166  LYS551  ARG553  GLY616  TRP617  ASP618  TYR619  PRO620  LYS621  CYS622 
 ASP623  PHE694  ASN695  SER759  ASP760  ASP761  ALA762  ILE779  LEU786  VAL792 
 PHE793  MET794  SER795  GLU796  ALA797  LYS798  CYS799  TRP800  GLU811  SER814 

> <Gold.Protein.RotatedAtoms>
  150.8394  134.7680  159.6919 H   0  0  0  0  0  0  0  0  0  0  0  0  # atno 6907 bound_to 6896
  152.4485  134.5441  159.9857 H   0  0  0  0  0  0  0  0  0  0  0  0  # atno 6908 bound_to 6896
  151.5585  133.3369  159.3002 H   0  0  0  0  0  0  0  0  0  0  0  0  # atno 6909 bound_to 6896
  144.9687  139.4629  143.5444 H   0  0  0  0  0  0  0  0  0  0  0  0  # atno 7974 bound_to 7965
  154.9180  140.0408  157.1982 H   0  0  0  0  0  0  0  0  0  0  0  0  # atno 8008 bound_to 7997
  154.8282  140.2895  155.5718 H   0  0  0  0  0  0  0  0  0  0  0  0  # atno 8009 bound_to 7997
  156.2985  140.2506  156.3203 H   0  0  0  0  0  0  0  0  0  0  0  0  # atno 8010 bound_to 7997
  139.8707  143.6961  152.2640 H   0  0  0  0  0  0  0  0  0  0  0  0  # atno 10167 bound_to 10162
  156.1042  130.4182  150.0754 H   0  0  0  0  0  0  0  0  0  0  0  0  # atno 10718 bound_to 10713
  154.8481  135.3475  154.6143 H   0  0  0  0  0  0  0  0  0  0  0  0  # atno 10763 bound_to 10752
  153.6752  135.6983  153.5139 H   0  0  0  0  0  0  0  0  0  0  0  0  # atno 10764 bound_to 10752
  153.2711  135.4292  155.0945 H   0  0  0  0  0  0  0  0  0  0  0  0  # atno 10765 bound_to 10752
  140.4570  134.1166  155.7710 H   0  0  0  0  0  0  0  0  0  0  0  0  # atno 11005 bound_to 11000
  146.3375  139.8885  142.8813 LP  0  0  0  0  0  0  0  0  0  0  0  0  # atno 17320 bound_to 7965
  145.2591  141.0071  143.3837 LP  0  0  0  0  0  0  0  0  0  0  0  0  # atno 17321 bound_to 7965
  139.7287  144.7587  151.0837 LP  0  0  0  0  0  0  0  0  0  0  0  0  # atno 17342 bound_to 10162
  140.7761  143.5116  150.9646 LP  0  0  0  0  0  0  0  0  0  0  0  0  # atno 17343 bound_to 10162
  156.8733  130.9532  151.3607 LP  0  0  0  0  0  0  0  0  0  0  0  0  # atno 17370 bound_to 10713
  157.6216  130.8659  149.9119 LP  0  0  0  0  0  0  0  0  0  0  0  0  # atno 17371 bound_to 10713
  141.1639  133.8741  157.1771 LP  0  0  0  0  0  0  0  0  0  0  0  0  # atno 17394 bound_to 11000
  139.9970  135.0043  157.0105 LP  0  0  0  0  0  0  0  0  0  0  0  0  # atno 17395 bound_to 11000

$$$$
