AV-unprocessed.smi:3056|AV-procd|sdf|11654|dock7
  -GOLD-   2272017 53D 1   1.00000     0.00000
 Structure written by MMmdl.
 47 48  0  0  0  0  0  0  0  0  1 V2000
  149.0790  133.3804  154.6574 C   0  0  0  0  0  0  0  0  0  0  0  0
  149.9179  134.5219  155.1552 C   0  0  0  0  0  0  0  0  0  0  0  0
  150.9091  134.4953  156.1761 C   0  0  0  0  0  0  0  0  0  0  0  0
  151.4748  135.6741  156.3746 N   0  0  0  0  0  0  0  0  0  0  0  0
  150.8630  136.4986  155.4943 N   0  0  0  0  0  0  0  0  0  0  0  0
  151.2512  137.9034  155.4031 C   0  0  1  0  0  0  0  0  0  0  0  0
  150.5350  138.5712  154.2130 C   0  0  0  0  0  0  0  0  0  0  0  0
  151.0157  138.6386  156.7506 C   0  0  2  0  0  0  0  0  0  0  0  0
  149.5268  138.9069  157.0428 C   0  0  0  0  0  0  0  0  0  0  0  0
  151.7065  139.9252  156.7027 N   0  0  0  0  0  0  0  0  0  0  0  0
  151.3623  140.8017  157.8307 C   0  0  0  0  0  0  0  0  0  0  0  0
  152.3667  140.7088  158.9917 C   0  0  0  0  0  0  0  0  0  0  0  0
  152.6622  139.5995  159.4414 O   0  0  0  0  0  0  0  0  0  0  0  0
  152.8977  141.8512  159.4895 N   0  0  0  0  0  0  0  0  0  0  0  0
  153.7872  141.8840  160.6530 C   0  0  0  0  0  0  0  0  0  0  0  0
  153.0546  142.6164  161.7911 C   0  0  0  0  0  0  0  0  0  0  0  0
  152.6822  143.9247  161.3611 O   0  0  0  0  0  0  0  0  0  0  0  0
  151.8454  143.9278  160.2045 C   0  0  1  0  0  0  0  0  0  0  0  0
  151.5039  145.3821  159.8629 C   0  0  0  0  0  0  0  0  0  0  0  0
  152.5814  143.2141  159.0526 C   0  0  0  0  0  0  0  0  0  0  0  0
  149.9224  135.8246  154.7434 C   0  0  0  0  0  0  0  0  0  0  0  0
  148.4035  133.0122  155.4296 H   0  0  0  0  0  0  0  0  0  0  0  0
  149.6940  132.5387  154.3389 H   0  0  0  0  0  0  0  0  0  0  0  0
  148.4646  133.6693  153.8043 H   0  0  0  0  0  0  0  0  0  0  0  0
  151.2342  133.6568  156.7741 H   0  0  0  0  0  0  0  0  0  0  0  0
  152.3203  137.9224  155.1845 H   0  0  0  0  0  0  0  0  0  0  0  0
  150.9420  139.5597  154.0028 H   0  0  0  0  0  0  0  0  0  0  0  0
  149.4666  138.6834  154.3995 H   0  0  0  0  0  0  0  0  0  0  0  0
  150.6540  137.9795  153.3046 H   0  0  0  0  0  0  0  0  0  0  0  0
  151.4284  138.0225  157.5516 H   0  0  0  0  0  0  0  0  0  0  0  0
  148.9710  137.9781  157.1683 H   0  0  0  0  0  0  0  0  0  0  0  0
  149.0577  139.4691  156.2347 H   0  0  0  0  0  0  0  0  0  0  0  0
  149.3919  139.4756  157.9628 H   0  0  0  0  0  0  0  0  0  0  0  0
  151.5392  140.3715  155.8122 H   0  0  0  0  0  0  0  0  0  0  0  0
  151.3107  141.8366  157.4919 H   0  0  0  0  0  0  0  0  0  0  0  0
  150.3762  140.5185  158.2021 H   0  0  0  0  0  0  0  0  0  0  0  0
  154.0907  140.8911  160.9869 H   0  0  0  0  0  0  0  0  0  0  0  0
  154.7069  142.4109  160.3945 H   0  0  0  0  0  0  0  0  0  0  0  0
  152.1682  142.0613  162.1020 H   0  0  0  0  0  0  0  0  0  0  0  0
  153.7008  142.7020  162.6648 H   0  0  0  0  0  0  0  0  0  0  0  0
  150.9198  143.3967  160.4339 H   0  0  0  0  0  0  0  0  0  0  0  0
  150.8524  145.4373  158.9904 H   0  0  0  0  0  0  0  0  0  0  0  0
  152.4035  145.9589  159.6471 H   0  0  0  0  0  0  0  0  0  0  0  0
  150.9885  145.8661  160.6928 H   0  0  0  0  0  0  0  0  0  0  0  0
  153.5092  143.7382  158.8181 H   0  0  0  0  0  0  0  0  0  0  0  0
  151.9849  143.2558  158.1425 H   0  0  0  0  0  0  0  0  0  0  0  0
  149.3418  136.3225  153.9810 H   0  0  0  0  0  0  0  0  0  0  0  0
  1  2  1  0  0  0  0
  1 22  1  0  0  0  0
  1 23  1  0  0  0  0
  1 24  1  0  0  0  0
  2 21  2  0  0  0  0
  2  3  1  0  0  0  0
  3  4  2  0  0  0  0
  3 25  1  0  0  0  0
  4  5  1  0  0  0  0
  5  6  1  0  0  0  0
  5 21  1  0  0  0  0
  6  7  1  0  0  0  0
  6  8  1  0  0  0  0
  6 26  1  0  0  0  0
  7 27  1  0  0  0  0
  7 28  1  0  0  0  0
  7 29  1  0  0  0  0
  8  9  1  0  0  0  0
  8 10  1  0  0  0  0
  8 30  1  0  0  0  0
  9 31  1  0  0  0  0
  9 32  1  0  0  0  0
  9 33  1  0  0  0  0
 10 11  1  0  0  0  0
 10 34  1  0  0  0  0
 11 12  1  0  0  0  0
 11 35  1  0  0  0  0
 11 36  1  0  0  0  0
 12 13  2  0  0  0  0
 12 14  1  0  0  0  0
 14 20  1  0  0  0  0
 14 15  1  0  0  0  0
 15 16  1  0  0  0  0
 15 37  1  0  0  0  0
 15 38  1  0  0  0  0
 16 17  1  0  0  0  0
 16 39  1  0  0  0  0
 16 40  1  0  0  0  0
 17 18  1  0  0  0  0
 18 19  1  0  0  0  0
 18 20  1  0  0  0  0
 18 41  1  0  0  0  0
 19 42  1  0  0  0  0
 19 43  1  0  0  0  0
 19 44  1  0  0  0  0
 20 45  1  0  0  0  0
 20 46  1  0  0  0  0
 21 47  1  0  0  0  0
M  END
> <s_m_source_file>
AV-unprocessed.smi

> <i_m_source_file_index>
3056

> <i_lp_mmshare_version>
43012

> <i_f3d_flags>
0

> <s_epik_input>
W0NIM11jMVtjSF1ubihbY0hdMSlbQ0BIXShbQ0gzXSlbQ0BIXShbQ0gzXSlbTkhdW0NIMl1DKD1PKU4yW0NIMl1bQ0gyXU9bQ0BASF0oW0NIM10pW0NIMl0y

> <s_epik_cmdline>
J2VwaWtfcHl0aG9uJywgJy1waCcsICc3LjAnLCAnLXRuJywgJzgnLCAnLW1hJywgJzIwMCcsICctbWV0YWxfYmluZGluZycsICctaW1hZScsICc8aW5maWxlLm1hZT4nLCAnLW9tYWUnLCAnPG91dGZpbGUubWFlPic=

> <r_lp_tautomer_probability>
1

> <r_epik_Ionization_Penalty>
0.667689

> <r_epik_Ionization_Penalty_Charging>
0

> <r_epik_Ionization_Penalty_Neutral>
0.667689

> <r_epik_State_Penalty>
0.684601

> <r_epik_Charging_Adjusted_Penalty>
0.684601

> <i_epik_Tot_Q>
0

> <i_epik_Tot_abs_Q>
0

> <r_epik_Metal_State_Penalty>
0.681448

> <b_epik_Metal_Only>
0

> <s_lp_Force_Field>
OPLS_2005

> <r_lp_Energy>
29.4013

> <b_lp_Chiralities_Consistent>
1

> <s_lp_Variant>
AV-unprocessed.smi:3056-10

> <Gold.Version>
5.8.1

> <Gold.Id.Protein>
6NUR|6NUR_protein|mol2

> <Gold.PLP.Fitness>
46.7656

> <Gold.PLP.PLP>
-42.2542

> <Gold.PLP.part.hbond>
-1.0000

> <Gold.PLP.part.metal>
0.0000

> <Gold.PLP.part.buried>
-4.4809

> <Gold.PLP.part.nonpolar>
-36.3991

> <Gold.PLP.part.repulsive>
0.1355

> <Gold.PLP.ligand.clash>
0.0000

> <Gold.PLP.ligand.torsion>
0.5493

> <Gold.PLP.Chemscore.Hbond>
0.8358

> <Gold.PLP.Chemscore.CHOScore>
1.0000

> <Gold.PLP.Chemscore.Metal>
0.0000

> <Gold.Chemscore.Hbonds>
donor molecule, donor type, donor heavy atom, donor atom, acceptor molecule, acceptor atom, score
      P1  H 10752 10765       L1     4  0.46
      L1  C    21    47       P1  7948  1.00

> <Gold.PLP.Chemscore.Internal.Correction>
0.1026

> <Gold.Rescore>
     Score         DG    S(hbond)    S(metal)    S(lipo)     H(rot)  DE(clash)    DE(int)     intcor
     13.02     -13.53       0.00        0.00     105.55       1.68       0.01       0.50       ----

> <Gold.Chemscore.Fitness>
13.0217

> <Gold.Chemscore.DG>
-13.5298

> <Gold.Chemscore.ZeroCoef>
-5.4800

> <Gold.Chemscore.Hbond>
0.0000

> <Gold.Chemscore.Metal>
0.0000

> <Gold.Chemscore.Lipo>
105.5460

> <Gold.Chemscore.Internal_Hbond>
0.0000

> <Gold.Chemscore.DEClash>
0.0127

> <Gold.Chemscore.DEInternal>
0.4954

> <Gold.Chemscore.Rot>
1.6793

> <Gold.Chemscore.Internal.Correction>
   9.000000E+99

> <Gold.Chemscore.Hbonds>
donor molecule, donor type, donor heavy atom, donor atom, acceptor molecule, acceptor atom, score
      P1  H 10752 10765       L1     4  0.02

> <Gold.Chemscore.Hbond.Weighted>
-0.0000

> <Gold.Chemscore.Metal.Weighted>
-0.0000

> <Gold.Chemscore.Lipo.Weighted>
-12.3489

> <Gold.Chemscore.Internal_Hbond.Weighted>
0.0000

> <Gold.Chemscore.DEClash.Weighted>
0.0127

> <Gold.Chemscore.DEInternal.Weighted>
0.4954

> <Gold.Chemscore.Rot.Weighted>
4.2990

> <Gold.Chemscore.Internal.Correction.Weighted>
   9.000000E+99

> <Gold.Protein.RotatedTorsions>
[ 6907 6896 6895 6894 ] final   41.12 input  -60.11 | X-H torsion
[ 7974 7965 7964 7962 ] final -178.55 input  175.53 | X-H torsion
[ 8008 7997 7996 7995 ] final   50.02 input   59.86 | X-H torsion
[ 10167 10162 10161 10158 ] final   43.18 input  -65.29 | X-H torsion
[ 10718 10713 10712 10709 ] final  142.08 input   66.30 | X-H torsion
[ 10763 10752 10751 10750 ] final -130.77 input  -60.55 | X-H torsion
[ 11005 11000 10999 10996 ] final -118.15 input  -57.11 | X-H torsion

> <Gold.Protein.ActiveResidues>
 VAL166  LYS551  ARG553  GLY616  TRP617  ASP618  TYR619  PRO620  LYS621  CYS622 
 ASP623  PHE694  ASN695  SER759  ASP760  ASP761  ALA762  ILE779  LEU786  VAL792 
 PHE793  MET794  SER795  GLU796  ALA797  LYS798  CYS799  TRP800  GLU811  SER814 

> <Gold.Protein.RotatedAtoms>
  152.1913  134.8670  160.0517 H   0  0  0  0  0  0  0  0  0  0  0  0  # atno 6907 bound_to 6896
  151.9558  133.3675  159.4025 H   0  0  0  0  0  0  0  0  0  0  0  0  # atno 6908 bound_to 6896
  150.6935  134.4216  159.5251 H   0  0  0  0  0  0  0  0  0  0  0  0  # atno 6909 bound_to 6896
  144.7131  140.0852  143.6424 H   0  0  0  0  0  0  0  0  0  0  0  0  # atno 7974 bound_to 7965
  155.4119  140.3442  155.4264 H   0  0  0  0  0  0  0  0  0  0  0  0  # atno 8008 bound_to 7997
  156.1444  140.1551  156.8902 H   0  0  0  0  0  0  0  0  0  0  0  0  # atno 8009 bound_to 7997
  154.4998  140.0818  156.7754 H   0  0  0  0  0  0  0  0  0  0  0  0  # atno 8010 bound_to 7997
  140.3470  144.2398  150.6149 H   0  0  0  0  0  0  0  0  0  0  0  0  # atno 10167 bound_to 10162
  157.3846  131.0997  151.0705 H   0  0  0  0  0  0  0  0  0  0  0  0  # atno 10718 bound_to 10713
  154.8754  135.3852  154.4137 H   0  0  0  0  0  0  0  0  0  0  0  0  # atno 10763 bound_to 10752
  153.4848  135.7030  153.5923 H   0  0  0  0  0  0  0  0  0  0  0  0  # atno 10764 bound_to 10752
  153.4322  135.3876  155.2145 H   0  0  0  0  0  0  0  0  0  0  0  0  # atno 10765 bound_to 10752
  141.0306  133.9987  157.3149 H   0  0  0  0  0  0  0  0  0  0  0  0  # atno 11005 bound_to 11000
  145.9668  139.2840  143.1123 LP  0  0  0  0  0  0  0  0  0  0  0  0  # atno 17320 bound_to 7965
  145.9160  140.9147  143.0429 LP  0  0  0  0  0  0  0  0  0  0  0  0  # atno 17321 bound_to 7965
  140.5255  143.2255  151.8321 LP  0  0  0  0  0  0  0  0  0  0  0  0  # atno 17342 bound_to 10162
  139.4832  144.4784  151.9337 LP  0  0  0  0  0  0  0  0  0  0  0  0  # atno 17343 bound_to 10162
  157.1761  130.6289  149.5656 LP  0  0  0  0  0  0  0  0  0  0  0  0  # atno 17370 bound_to 10713
  155.9784  130.4769  150.6651 LP  0  0  0  0  0  0  0  0  0  0  0  0  # atno 17371 bound_to 10713
  139.9205  135.0200  156.8047 LP  0  0  0  0  0  0  0  0  0  0  0  0  # atno 17394 bound_to 11000
  140.6413  133.9815  155.7709 LP  0  0  0  0  0  0  0  0  0  0  0  0  # atno 17395 bound_to 11000

$$$$
