AV-unprocessed.smi:1536|AV-procd|sdf|6188|dock4
  -GOLD-   22720 6353D 1   1.00000     0.00000
 Structure written by MMmdl.
 48 49  0  0  0  0  0  0  0  0  2 V2000
  143.9150  133.4213  150.7781 C   0  0  0  0  0  0  0  0  0  0  0  0
  145.2160  134.2063  150.5345 C   0  0  2  0  0  0  0  0  0  0  0  0
  146.4708  133.3158  150.6115 C   0  0  0  0  0  0  0  0  0  0  0  0
  146.8108  132.9128  152.0572 C   0  0  0  0  0  0  0  0  0  0  0  0
  146.9516  134.1150  152.9207 N   0  3  2  0  0  0  0  0  0  0  0  0
  147.5761  133.8662  154.2592 C   0  0  2  0  0  0  0  0  0  0  0  0
  147.8416  135.1601  155.0872 C   0  0  0  0  0  0  0  0  0  0  0  0
  148.7814  136.0928  154.4711 N   0  0  0  0  0  0  0  0  0  0  0  0
  149.5522  136.9641  155.1397 C   0  0  0  0  0  0  0  0  0  0  0  0
  149.5135  137.0902  156.3643 O   0  0  0  0  0  0  0  0  0  0  0  0
  150.4831  137.8271  154.2798 C   0  0  0  0  0  0  0  0  0  0  0  0
  151.3126  138.7182  155.0717 N   0  0  0  0  0  0  0  0  0  0  0  0
  152.3069  138.4650  155.9252 C   0  0  0  0  0  0  0  0  0  0  0  0
  152.8091  139.5790  156.4351 N   0  0  0  0  0  0  0  0  0  0  0  0
  152.0499  140.5697  155.8349 N   0  0  0  0  0  0  0  0  0  0  0  0
  151.1603  140.0649  155.0246 N   0  0  0  0  0  0  0  0  0  0  0  0
  148.8543  132.9936  154.0905 C   0  0  0  0  0  0  0  0  0  0  0  0
  148.5258  131.4870  154.0679 C   0  0  0  0  0  0  0  0  0  0  0  0
  149.9082  133.2547  155.1838 C   0  0  0  0  0  0  0  0  0  0  0  0
  145.7306  134.9643  152.9198 C   0  0  0  0  0  0  0  0  0  0  0  0
  145.3757  135.4047  151.4891 C   0  0  0  0  0  0  0  0  0  0  0  0
  143.8814  132.9748  151.7716 H   0  0  0  0  0  0  0  0  0  0  0  0
  143.8048  132.6157  150.0517 H   0  0  0  0  0  0  0  0  0  0  0  0
  143.0439  134.0697  150.6789 H   0  0  0  0  0  0  0  0  0  0  0  0
  145.1533  134.6005  149.5194 H   0  0  0  0  0  0  0  0  0  0  0  0
  146.3409  132.4255  149.9952 H   0  0  0  0  0  0  0  0  0  0  0  0
  147.3183  133.8553  150.1865 H   0  0  0  0  0  0  0  0  0  0  0  0
  146.0396  132.2496  152.4437 H   0  0  0  0  0  0  0  0  0  0  0  0
  147.7422  132.3455  152.0549 H   0  0  0  0  0  0  0  0  0  0  0  0
  146.8774  133.2556  154.8329 H   0  0  0  0  0  0  0  0  0  0  0  0
  146.9124  135.7032  155.2597 H   0  0  0  0  0  0  0  0  0  0  0  0
  148.2204  134.9052  156.0771 H   0  0  0  0  0  0  0  0  0  0  0  0
  148.8759  136.0506  153.4665 H   0  0  0  0  0  0  0  0  0  0  0  0
  151.1278  137.1879  153.6744 H   0  0  0  0  0  0  0  0  0  0  0  0
  149.8849  138.4275  153.5934 H   0  0  0  0  0  0  0  0  0  0  0  0
  152.6614  137.4741  156.1680 H   0  0  0  0  0  0  0  0  0  0  0  0
  149.3189  133.2388  153.1351 H   0  0  0  0  0  0  0  0  0  0  0  0
  148.0177  131.1782  154.9820 H   0  0  0  0  0  0  0  0  0  0  0  0
  149.4330  130.8886  153.9784 H   0  0  0  0  0  0  0  0  0  0  0  0
  147.8903  131.2182  153.2240 H   0  0  0  0  0  0  0  0  0  0  0  0
  149.4847  133.1337  156.1814 H   0  0  0  0  0  0  0  0  0  0  0  0
  150.3304  134.2565  155.1141 H   0  0  0  0  0  0  0  0  0  0  0  0
  150.7455  132.5616  155.0960 H   0  0  0  0  0  0  0  0  0  0  0  0
  144.8914  134.4259  153.3597 H   0  0  0  0  0  0  0  0  0  0  0  0
  145.8935  135.8496  153.5344 H   0  0  0  0  0  0  0  0  0  0  0  0
  146.1659  136.0570  151.1142 H   0  0  0  0  0  0  0  0  0  0  0  0
  144.4662  136.0065  151.4966 H   0  0  0  0  0  0  0  0  0  0  0  0
  147.6473  134.6679  152.4404 H   0  0  0  0  0  0  0  0  0  0  0  0
  1  2  1  0  0  0  0
  1 22  1  0  0  0  0
  1 23  1  0  0  0  0
  1 24  1  0  0  0  0
  2 21  1  0  0  0  0
  2  3  1  0  0  0  0
  2 25  1  0  0  0  0
  3  4  1  0  0  0  0
  3 26  1  0  0  0  0
  3 27  1  0  0  0  0
  4  5  1  0  0  0  0
  4 28  1  0  0  0  0
  4 29  1  0  0  0  0
  5  6  1  0  0  0  0
  5 20  1  0  0  0  0
  5 48  1  0  0  0  0
  6  7  1  0  0  0  0
  6 17  1  0  0  0  0
  6 30  1  0  0  0  0
  7  8  1  0  0  0  0
  7 31  1  0  0  0  0
  7 32  1  0  0  0  0
  8  9  1  0  0  0  0
  8 33  1  0  0  0  0
  9 10  2  0  0  0  0
  9 11  1  0  0  0  0
 11 12  1  0  0  0  0
 11 34  1  0  0  0  0
 11 35  1  0  0  0  0
 12 16  1  0  0  0  0
 12 13  1  0  0  0  0
 13 14  2  0  0  0  0
 13 36  1  0  0  0  0
 14 15  1  0  0  0  0
 15 16  2  0  0  0  0
 17 18  1  0  0  0  0
 17 19  1  0  0  0  0
 17 37  1  0  0  0  0
 18 38  1  0  0  0  0
 18 39  1  0  0  0  0
 18 40  1  0  0  0  0
 19 41  1  0  0  0  0
 19 42  1  0  0  0  0
 19 43  1  0  0  0  0
 20 21  1  0  0  0  0
 20 44  1  0  0  0  0
 20 45  1  0  0  0  0
 21 46  1  0  0  0  0
 21 47  1  0  0  0  0
M  CHG  1   5   1
M  END
> <s_m_source_file>
AV-unprocessed.smi

> <i_m_source_file_index>
1536

> <i_lp_mmshare_version>
43012

> <i_f3d_flags>
0

> <s_epik_input>
W0NIM11bQ0hdMVtDSDJdW0NIMl1OKFtDSDJdW0NIMl0xKVtDQEBIXShbQ0hdKFtDSDNdKVtDSDNdKVtDSDJdW05IXUMoPU8pW0NIMl1uMltjSF1ubm4y

> <s_epik_cmdline>
J2VwaWtfcHl0aG9uJywgJy1waCcsICc3LjAnLCAnLXRuJywgJzgnLCAnLW1hJywgJzIwMCcsICctbWV0YWxfYmluZGluZycsICctaW1hZScsICc8aW5maWxlLm1hZT4nLCAnLW9tYWUnLCAnPG91dGZpbGUubWFlPic=

> <r_lp_tautomer_probability>
1

> <r_epik_Ionization_Penalty>
0.00109671

> <r_epik_Ionization_Penalty_Charging>
0.00109273

> <r_epik_Ionization_Penalty_Neutral>
3.97951e-06

> <r_epik_State_Penalty>
0.000716588

> <r_epik_Charging_Adjusted_Penalty>
0.00180932

> <i_epik_Tot_Q>
1

> <i_epik_Tot_abs_Q>
1

> <r_epik_Metal_State_Penalty>
-0

> <b_epik_Metal_Only>
0

> <s_lp_Force_Field>
OPLS_2005

> <r_lp_Energy>
37.5817

> <b_lp_Chiralities_Consistent>
1

> <s_lp_Variant>
AV-unprocessed.smi:1536-3

> <Gold.Version>
5.8.1

> <Gold.Id.Protein>
6NUR|6NUR_protein|mol2

> <Gold.PLP.Fitness>
47.2190

> <Gold.PLP.PLP>
-34.0983

> <Gold.PLP.part.hbond>
-5.2684

> <Gold.PLP.part.metal>
0.0000

> <Gold.PLP.part.buried>
-1.8670

> <Gold.PLP.part.nonpolar>
-28.4861

> <Gold.PLP.part.repulsive>
0.0695

> <Gold.PLP.ligand.clash>
0.0000

> <Gold.PLP.ligand.torsion>
1.1121

> <Gold.PLP.Chemscore.Hbond>
4.9913

> <Gold.PLP.Chemscore.CHOScore>
0.0000

> <Gold.PLP.Chemscore.Metal>
0.0000

> <Gold.Chemscore.Hbonds>
donor molecule, donor type, donor heavy atom, donor atom, acceptor molecule, acceptor atom, score
      L1  H     5    48       P1  7948  1.76
      L1  H     8    33       P1  7948  1.00
      P1  H  7989  7998       L1    16  1.00
      P1  H  7997  8008       L1    14  1.00

> <Gold.PLP.Chemscore.Internal.Correction>
0.3712

> <Gold.Rescore>
     Score         DG    S(hbond)    S(metal)    S(lipo)     H(rot)  DE(clash)    DE(int)     intcor
     13.25     -15.43       2.84        0.00      64.66       2.77       0.03       2.15       ----

> <Gold.Chemscore.Fitness>
13.2547

> <Gold.Chemscore.DG>
-15.4339

> <Gold.Chemscore.ZeroCoef>
-5.4800

> <Gold.Chemscore.Hbond>
2.8390

> <Gold.Chemscore.Metal>
0.0000

> <Gold.Chemscore.Lipo>
64.6586

> <Gold.Chemscore.Internal_Hbond>
0.0000

> <Gold.Chemscore.DEClash>
0.0335

> <Gold.Chemscore.DEInternal>
2.1458

> <Gold.Chemscore.Rot>
2.7709

> <Gold.Chemscore.Internal.Correction>
   9.000000E+99

> <Gold.Chemscore.Hbonds>
donor molecule, donor type, donor heavy atom, donor atom, acceptor molecule, acceptor atom, score
      L1  H     5    48       P1  7948  0.70
      L1  H     8    33       P1  7948  0.98
      P1  H  7989  7998       L1    16  0.24
      P1  H  7997  8008       L1    14  0.65

> <Gold.Chemscore.Hbond.Weighted>
-9.4824

> <Gold.Chemscore.Metal.Weighted>
-0.0000

> <Gold.Chemscore.Lipo.Weighted>
-7.5651

> <Gold.Chemscore.Internal_Hbond.Weighted>
0.0000

> <Gold.Chemscore.DEClash.Weighted>
0.0335

> <Gold.Chemscore.DEInternal.Weighted>
2.1458

> <Gold.Chemscore.Rot.Weighted>
7.0935

> <Gold.Chemscore.Internal.Correction.Weighted>
   9.000000E+99

> <Gold.Protein.RotatedTorsions>
[ 6907 6896 6895 6894 ] final  120.60 input  -60.11 | X-H torsion
[ 7974 7965 7964 7962 ] final  -20.55 input  175.53 | X-H torsion
[ 8008 7997 7996 7995 ] final  -54.50 input   59.86 | X-H torsion
[ 10167 10162 10161 10158 ] final  126.42 input  -65.29 | X-H torsion
[ 10718 10713 10712 10709 ] final  -89.82 input   66.30 | X-H torsion
[ 10763 10752 10751 10750 ] final -168.66 input  -60.55 | X-H torsion
[ 11005 11000 10999 10996 ] final -168.81 input  -57.11 | X-H torsion

> <Gold.Protein.ActiveResidues>
 VAL166  LYS551  ARG553  GLY616  TRP617  ASP618  TYR619  PRO620  LYS621  CYS622 
 ASP623  PHE694  ASN695  SER759  ASP760  ASP761  ALA762  ILE779  LEU786  VAL792 
 PHE793  MET794  SER795  GLU796  ALA797  LYS798  CYS799  TRP800  GLU811  SER814 

> <Gold.Protein.RotatedAtoms>
  152.4385  133.7405  159.6638 H   0  0  0  0  0  0  0  0  0  0  0  0  # atno 6907 bound_to 6896
  150.8273  133.8140  159.3119 H   0  0  0  0  0  0  0  0  0  0  0  0  # atno 6908 bound_to 6896
  151.5805  135.1061  160.0068 H   0  0  0  0  0  0  0  0  0  0  0  0  # atno 6909 bound_to 6896
  146.1782  140.4217  142.8505 H   0  0  0  0  0  0  0  0  0  0  0  0  # atno 7974 bound_to 7965
  154.4164  140.1175  156.5325 H   0  0  0  0  0  0  0  0  0  0  0  0  # atno 8008 bound_to 7997
  155.6591  140.3496  155.4757 H   0  0  0  0  0  0  0  0  0  0  0  0  # atno 8009 bound_to 7997
  155.9729  140.1145  157.0786 H   0  0  0  0  0  0  0  0  0  0  0  0  # atno 8010 bound_to 7997
  139.5632  144.6895  151.3983 H   0  0  0  0  0  0  0  0  0  0  0  0  # atno 10167 bound_to 10162
  155.9985  130.4886  150.5229 H   0  0  0  0  0  0  0  0  0  0  0  0  # atno 10718 bound_to 10713
  154.6605  135.2924  154.9872 H   0  0  0  0  0  0  0  0  0  0  0  0  # atno 10763 bound_to 10752
  154.0934  135.6587  153.4860 H   0  0  0  0  0  0  0  0  0  0  0  0  # atno 10764 bound_to 10752
  153.0427  135.5225  154.7554 H   0  0  0  0  0  0  0  0  0  0  0  0  # atno 10765 bound_to 10752
  140.5378  134.5553  157.5092 H   0  0  0  0  0  0  0  0  0  0  0  0  # atno 11005 bound_to 11000
  144.8271  140.6646  143.6315 LP  0  0  0  0  0  0  0  0  0  0  0  0  # atno 17320 bound_to 7965
  145.4151  139.1573  143.4104 LP  0  0  0  0  0  0  0  0  0  0  0  0  # atno 17321 bound_to 7965
  140.6914  143.7853  150.7261 LP  0  0  0  0  0  0  0  0  0  0  0  0  # atno 17342 bound_to 10162
  140.1336  143.4504  152.2238 LP  0  0  0  0  0  0  0  0  0  0  0  0  # atno 17343 bound_to 10162
  157.3188  131.0678  151.1947 LP  0  0  0  0  0  0  0  0  0  0  0  0  # atno 17370 bound_to 10713
  157.2867  130.6776  149.6093 LP  0  0  0  0  0  0  0  0  0  0  0  0  # atno 17371 bound_to 10713
  139.9520  134.7600  156.0427 LP  0  0  0  0  0  0  0  0  0  0  0  0  # atno 17394 bound_to 11000
  141.1245  133.6603  156.3300 LP  0  0  0  0  0  0  0  0  0  0  0  0  # atno 17395 bound_to 11000

$$$$
