AV-unprocessed.smi:72|AV-procd|sdf|703|dock2
  -GOLD-   2262017 23D 1   1.00000     0.00000
 Structure written by MMmdl.
 30 31  0  0  0  0  0  0  0  0  2 V2000
  145.9640  138.5213  151.7176 N   0  0  0  0  0  0  0  0  0  0  0  0
  146.8163  139.2917  152.4814 C   0  0  0  0  0  0  0  0  0  0  0  0
  147.9935  138.7106  152.9155 N   0  3  0  0  0  0  0  0  0  0  0  0
  148.9119  139.3155  153.6804 C   0  0  0  0  0  0  0  0  0  0  0  0
  148.6891  140.5420  154.1057 N   0  0  0  0  0  0  0  0  0  0  0  0
  149.7332  141.2438  154.9391 C   0  0  2  0  0  0  0  0  0  0  0  0
  150.8593  140.4271  154.9442 O   0  0  0  0  0  0  0  0  0  0  0  0
  151.4578  140.4668  156.2321 C   0  0  2  0  0  0  0  0  0  0  0  0
  152.3086  139.2067  156.4556 C   0  0  0  0  0  0  0  0  0  0  0  0
  153.0469  139.3299  157.6521 O   0  0  0  0  0  0  0  0  0  0  0  0
  150.2497  140.5673  157.1704 C   0  0  1  0  0  0  0  0  0  0  0  0
  150.6263  141.1613  158.3963 O   0  0  0  0  0  0  0  0  0  0  0  0
  149.2957  141.4738  156.4013 C   0  0  2  0  0  0  0  0  0  0  0  0
  147.9412  141.1585  156.6709 O   0  0  0  0  0  0  0  0  0  0  0  0
  147.5524  141.2513  153.6366 C   0  0  0  0  0  0  0  0  0  0  0  0
  147.3754  142.4315  153.9341 O   0  0  0  0  0  0  0  0  0  0  0  0
  146.6464  140.5337  152.8414 N   0  0  0  0  0  0  0  0  0  0  0  0
  149.9694  142.1911  154.4552 H   0  0  0  0  0  0  0  0  0  0  0  0
  152.0635  141.3725  156.3125 H   0  0  0  0  0  0  0  0  0  0  0  0
  149.8114  139.5819  157.3376 H   0  0  0  0  0  0  0  0  0  0  0  0
  149.4799  142.5227  156.6403 H   0  0  0  0  0  0  0  0  0  0  0  0
  145.0880  138.8654  151.3495 H   0  0  0  0  0  0  0  0  0  0  0  0
  146.1427  137.5592  151.4683 H   0  0  0  0  0  0  0  0  0  0  0  0
  149.8315  138.7981  153.9231 H   0  0  0  0  0  0  0  0  0  0  0  0
  151.6653  138.3324  156.5584 H   0  0  0  0  0  0  0  0  0  0  0  0
  152.9753  139.0217  155.6129 H   0  0  0  0  0  0  0  0  0  0  0  0
  152.9531  138.5309  158.1483 H   0  0  0  0  0  0  0  0  0  0  0  0
  150.3251  142.0570  158.4034 H   0  0  0  0  0  0  0  0  0  0  0  0
  147.4505  141.2216  155.8652 H   0  0  0  0  0  0  0  0  0  0  0  0
  148.1744  137.7599  152.6264 H   0  0  0  0  0  0  0  0  0  0  0  0
  1  2  1  0  0  0  0
  1 22  1  0  0  0  0
  1 23  1  0  0  0  0
  2 17  2  0  0  0  0
  2  3  1  0  0  0  0
  3  4  2  0  0  0  0
  3 30  1  0  0  0  0
  4  5  1  0  0  0  0
  4 24  1  0  0  0  0
  5  6  1  0  0  0  0
  5 15  1  0  0  0  0
  6 18  1  0  0  0  0
  6 13  1  0  0  0  0
  6  7  1  0  0  0  0
  7  8  1  0  0  0  0
  8 19  1  0  0  0  0
  8  9  1  0  0  0  0
  8 11  1  0  0  0  0
  9 10  1  0  0  0  0
  9 25  1  0  0  0  0
  9 26  1  0  0  0  0
 10 27  1  0  0  0  0
 11 20  1  0  0  0  0
 11 12  1  0  0  0  0
 11 13  1  0  0  0  0
 12 28  1  0  0  0  0
 13 21  1  0  0  0  0
 13 14  1  0  0  0  0
 14 29  1  0  0  0  0
 15 16  2  0  0  0  0
 15 17  1  0  0  0  0
M  CHG  1   3   1
M  END
> <s_m_source_file>
AV-unprocessed.smi

> <i_m_source_file_index>
72

> <i_lp_mmshare_version>
43012

> <i_f3d_flags>
0

> <s_epik_input>
W05IMl1jMW5bY0hdbihjKD1PKW4xKVtDQEBIXTJPW0NASF0oW0NIMl1bT0hdKVtDQEBIXShbT0hdKVtDQEhdMltPSF0=

> <s_epik_cmdline>
J2VwaWtfcHl0aG9uJywgJy1waCcsICc3LjAnLCAnLXRuJywgJzgnLCAnLW1hJywgJzIwMCcsICctbWV0YWxfYmluZGluZycsICctaW1hZScsICc8aW5maWxlLm1hZT4nLCAnLW9tYWUnLCAnPG91dGZpbGUubWFlPic=

> <r_lp_tautomer_probability>
4.77166e-05

> <r_epik_Ionization_Penalty>
0.104979

> <r_epik_Ionization_Penalty_Charging>
0.0999619

> <r_epik_Ionization_Penalty_Neutral>
0.00501745

> <r_epik_State_Penalty>
2.51541

> <r_epik_Charging_Adjusted_Penalty>
2.61537

> <i_epik_Tot_Q>
1

> <i_epik_Tot_abs_Q>
1

> <r_epik_Metal_State_Penalty>
3.53763

> <b_epik_Metal_Only>
0

> <s_epik_Chemistry_Notes>
This compound contains an acetal/aminal-like group ( X-CH(R)-Y where X, Y are N, S, or O) that may be acid/base labile, releasing an aldehyde.

> <s_lp_Force_Field>
OPLS_2005

> <r_lp_Energy>
34.5598

> <b_lp_Chiralities_Consistent>
1

> <s_lp_Variant>
AV-unprocessed.smi:72-41

> <Gold.Version>
5.8.1

> <Gold.Id.Protein>
6NUR|6NUR_protein|mol2

> <Gold.PLP.Fitness>
39.4286

> <Gold.PLP.PLP>
-25.4988

> <Gold.PLP.part.hbond>
-5.7435

> <Gold.PLP.part.metal>
0.0000

> <Gold.PLP.part.buried>
0.5448

> <Gold.PLP.part.nonpolar>
-20.7129

> <Gold.PLP.part.repulsive>
1.3209

> <Gold.PLP.ligand.clash>
0.0000

> <Gold.PLP.ligand.torsion>
0.3228

> <Gold.PLP.Chemscore.Hbond>
4.8160

> <Gold.PLP.Chemscore.CHOScore>
0.0000

> <Gold.PLP.Chemscore.Metal>
0.0000

> <Gold.Chemscore.Hbonds>
donor molecule, donor type, donor heavy atom, donor atom, acceptor molecule, acceptor atom, score
      L1  H     1    22       P1 10171  0.82
      L1  H     3    30       P1  7948  2.00
      P1  H  7989  7998       L1     7  1.00
      P1  H  7997  8010       L1    10  1.00

> <Gold.PLP.Chemscore.Internal.Correction>
0.1273

> <Gold.Rescore>
     Score         DG    S(hbond)    S(metal)    S(lipo)     H(rot)  DE(clash)    DE(int)     intcor
      5.45      -7.74       3.09        0.00      20.26       4.08       1.69       0.60       ----

> <Gold.Chemscore.Fitness>
5.4508

> <Gold.Chemscore.DG>
-7.7437

> <Gold.Chemscore.ZeroCoef>
-5.4800

> <Gold.Chemscore.Hbond>
3.0938

> <Gold.Chemscore.Metal>
0.0000

> <Gold.Chemscore.Lipo>
20.2633

> <Gold.Chemscore.Internal_Hbond>
0.0000

> <Gold.Chemscore.DEClash>
1.6940

> <Gold.Chemscore.DEInternal>
0.5988

> <Gold.Chemscore.Rot>
4.0783

> <Gold.Chemscore.Internal.Correction>
   9.000000E+99

> <Gold.Chemscore.Hbonds>
donor molecule, donor type, donor heavy atom, donor atom, acceptor molecule, acceptor atom, score
      L1  H     1    22       P1 10171  0.80
      L1  H     3    30       P1  7948  1.00
      P1  H  7989  7998       L1     7  0.34
      P1  H  7997  8010       L1    10  0.34

> <Gold.Chemscore.Hbond.Weighted>
-10.3333

> <Gold.Chemscore.Metal.Weighted>
-0.0000

> <Gold.Chemscore.Lipo.Weighted>
-2.3708

> <Gold.Chemscore.Internal_Hbond.Weighted>
0.0000

> <Gold.Chemscore.DEClash.Weighted>
1.6940

> <Gold.Chemscore.DEInternal.Weighted>
0.5988

> <Gold.Chemscore.Rot.Weighted>
10.4404

> <Gold.Chemscore.Internal.Correction.Weighted>
   9.000000E+99

> <Gold.Protein.RotatedTorsions>
[ 6907 6896 6895 6894 ] final   73.72 input  -60.11 | X-H torsion
[ 7974 7965 7964 7962 ] final -111.83 input  175.53 | X-H torsion
[ 8008 7997 7996 7995 ] final   31.84 input   59.86 | X-H torsion
[ 10167 10162 10161 10158 ] final  161.31 input  -65.29 | X-H torsion
[ 10718 10713 10712 10709 ] final   51.59 input   66.30 | X-H torsion
[ 10763 10752 10751 10750 ] final    5.42 input  -60.55 | X-H torsion
[ 11005 11000 10999 10996 ] final  133.68 input  -57.11 | X-H torsion

> <Gold.Protein.ActiveResidues>
 VAL166  LYS551  ARG553  GLY616  TRP617  ASP618  TYR619  PRO620  LYS621  CYS622 
 ASP623  PHE694  ASN695  SER759  ASP760  ASP761  ALA762  ILE779  LEU786  VAL792 
 PHE793  MET794  SER795  GLU796  ALA797  LYS798  CYS799  TRP800  GLU811  SER814 

> <Gold.Protein.RotatedAtoms>
  152.4938  134.4380  159.9533 H   0  0  0  0  0  0  0  0  0  0  0  0  # atno 6907 bound_to 6896
  151.4362  133.3650  159.2783 H   0  0  0  0  0  0  0  0  0  0  0  0  # atno 6908 bound_to 6896
  150.9120  134.8560  159.7491 H   0  0  0  0  0  0  0  0  0  0  0  0  # atno 6909 bound_to 6896
  145.1513  140.8830  143.3644 H   0  0  0  0  0  0  0  0  0  0  0  0  # atno 7974 bound_to 7965
  155.1128  140.3240  155.4517 H   0  0  0  0  0  0  0  0  0  0  0  0  # atno 8008 bound_to 7997
  156.2685  140.2041  156.6200 H   0  0  0  0  0  0  0  0  0  0  0  0  # atno 8009 bound_to 7997
  154.6743  140.0533  157.0185 H   0  0  0  0  0  0  0  0  0  0  0  0  # atno 8010 bound_to 7997
  139.4848  144.4549  151.8782 H   0  0  0  0  0  0  0  0  0  0  0  0  # atno 10167 bound_to 10162
  157.4995  130.8428  149.8299 H   0  0  0  0  0  0  0  0  0  0  0  0  # atno 10718 bound_to 10713
  153.2596  135.6922  153.7592 H   0  0  0  0  0  0  0  0  0  0  0  0  # atno 10763 bound_to 10752
  153.6656  135.3353  155.3140 H   0  0  0  0  0  0  0  0  0  0  0  0  # atno 10764 bound_to 10752
  154.8425  135.4487  154.1582 H   0  0  0  0  0  0  0  0  0  0  0  0  # atno 10765 bound_to 10752
  139.9867  134.9529  156.9759 H   0  0  0  0  0  0  0  0  0  0  0  0  # atno 11005 bound_to 11000
  145.0428  139.3246  143.5968 LP  0  0  0  0  0  0  0  0  0  0  0  0  # atno 17320 bound_to 7965
  146.3494  139.9807  142.8696 LP  0  0  0  0  0  0  0  0  0  0  0  0  # atno 17321 bound_to 7965
  140.4008  144.2496  150.5893 LP  0  0  0  0  0  0  0  0  0  0  0  0  # atno 17342 bound_to 10162
  140.5059  143.2304  151.8608 LP  0  0  0  0  0  0  0  0  0  0  0  0  # atno 17343 bound_to 10162
  156.0220  130.3792  150.1933 LP  0  0  0  0  0  0  0  0  0  0  0  0  # atno 17370 bound_to 10713
  157.0123  130.9954  151.3362 LP  0  0  0  0  0  0  0  0  0  0  0  0  # atno 17371 bound_to 10713
  140.4988  134.1118  155.7246 LP  0  0  0  0  0  0  0  0  0  0  0  0  # atno 17394 bound_to 11000
  141.1531  133.8933  157.2048 LP  0  0  0  0  0  0  0  0  0  0  0  0  # atno 17395 bound_to 11000

$$$$
