AV-unprocessed.smi:47|AV-procd|sdf|446|dock5
  -GOLD-   2262016313D 1   1.00000     0.00000
 Structure written by MMmdl.
 30 32  0  0  0  0  0  0  0  0  2 V2000
  151.3852  136.3168  154.1667 O   0  0  0  0  0  0  0  0  0  0  0  0
  151.1036  137.4180  155.0044 C   0  0  2  0  0  0  0  0  0  0  0  0
  149.7548  138.0545  154.6966 C   0  0  0  0  0  0  0  0  0  0  0  0
  149.8431  139.3878  155.2749 N   0  0  0  0  0  0  0  0  0  0  0  0
  151.2405  139.8254  155.1792 C   0  0  1  0  0  0  0  0  0  0  0  0
  151.7431  140.4644  156.4613 C   0  0  0  0  0  0  0  0  0  0  0  0
  152.7339  139.9769  157.2360 N   0  0  0  0  0  0  0  0  0  0  0  0
  152.8895  140.8409  158.2214 N   0  5  0  0  0  0  0  0  0  0  0  0
  152.0114  141.8375  158.0317 C   0  0  0  0  0  0  0  0  0  0  0  0
  151.9134  142.9890  158.9526 C   0  0  0  0  0  0  0  0  0  0  0  0
  151.3111  144.1960  158.5279 C   0  0  0  0  0  0  0  0  0  0  0  0
  151.2107  145.3025  159.3938 C   0  0  0  0  0  0  0  0  0  0  0  0
  151.7134  145.2184  160.7047 C   0  0  0  0  0  0  0  0  0  0  0  0
  152.3159  144.0259  161.1446 C   0  0  0  0  0  0  0  0  0  0  0  0
  152.4138  142.9223  160.2748 C   0  0  0  0  0  0  0  0  0  0  0  0
  151.2889  141.6335  156.9391 N   0  0  0  0  0  0  0  0  0  0  0  0
  152.0666  138.5830  154.7985 C   0  0  0  0  0  0  0  0  0  0  0  0
  151.1300  137.0971  156.0470 H   0  0  0  0  0  0  0  0  0  0  0  0
  151.3346  140.5647  154.3828 H   0  0  0  0  0  0  0  0  0  0  0  0
  151.1153  136.5350  153.2878 H   0  0  0  0  0  0  0  0  0  0  0  0
  149.6163  138.1316  153.6173 H   0  0  0  0  0  0  0  0  0  0  0  0
  148.9175  137.4870  155.1033 H   0  0  0  0  0  0  0  0  0  0  0  0
  149.2476  140.0180  154.7480 H   0  0  0  0  0  0  0  0  0  0  0  0
  150.9186  144.2801  157.5251 H   0  0  0  0  0  0  0  0  0  0  0  0
  150.7475  146.2154  159.0502 H   0  0  0  0  0  0  0  0  0  0  0  0
  151.6373  146.0654  161.3704 H   0  0  0  0  0  0  0  0  0  0  0  0
  152.7040  143.9558  162.1500 H   0  0  0  0  0  0  0  0  0  0  0  0
  152.8802  142.0170  160.6346 H   0  0  0  0  0  0  0  0  0  0  0  0
  152.9872  138.4763  155.3739 H   0  0  0  0  0  0  0  0  0  0  0  0
  152.3453  138.6538  153.7460 H   0  0  0  0  0  0  0  0  0  0  0  0
  1  2  1  0  0  0  0
  1 20  1  0  0  0  0
  2 18  1  0  0  0  0
  2 17  1  0  0  0  0
  2  3  1  0  0  0  0
  3  4  1  0  0  0  0
  3 21  1  0  0  0  0
  3 22  1  0  0  0  0
  4  5  1  0  0  0  0
  4 23  1  0  0  0  0
  5 19  1  0  0  0  0
  5  6  1  0  0  0  0
  5 17  1  0  0  0  0
  6 16  1  0  0  0  0
  6  7  2  0  0  0  0
  7  8  1  0  0  0  0
  8  9  1  0  0  0  0
  9 10  1  0  0  0  0
  9 16  2  0  0  0  0
 10 15  1  0  0  0  0
 10 11  2  0  0  0  0
 11 12  1  0  0  0  0
 11 24  1  0  0  0  0
 12 13  2  0  0  0  0
 12 25  1  0  0  0  0
 13 14  1  0  0  0  0
 13 26  1  0  0  0  0
 14 15  2  0  0  0  0
 14 27  1  0  0  0  0
 15 28  1  0  0  0  0
 17 29  1  0  0  0  0
 17 30  1  0  0  0  0
M  CHG  1   8  -1
M  END
> <s_m_source_file>
AV-unprocessed.smi

> <i_m_source_file_index>
47

> <i_lp_mmshare_version>
43012

> <i_f3d_flags>
0

> <s_epik_input>
W09IXVtDQEhdMVtDSDJdW05IXVtDQEBIXShbQ0gyXTEpYzJuW25IXWMobjIpLWMzW2NIXVtjSF1bY0hdW2NIXVtjSF0z

> <s_epik_cmdline>
J2VwaWtfcHl0aG9uJywgJy1waCcsICc3LjAnLCAnLXRuJywgJzgnLCAnLW1hJywgJzIwMCcsICctbWV0YWxfYmluZGluZycsICctaW1hZScsICc8aW5maWxlLm1hZT4nLCAnLW9tYWUnLCAnPG91dGZpbGUubWFlPic=

> <r_epik_Ionization_Penalty>
16.1968

> <r_epik_Ionization_Penalty_Charging>
13.1522

> <r_epik_Ionization_Penalty_Neutral>
3.04463

> <r_epik_State_Penalty>
6.32428

> <r_epik_Charging_Adjusted_Penalty>
19.4764

> <i_epik_Tot_Q>
-1

> <i_epik_Tot_abs_Q>
1

> <r_epik_Metal_State_Penalty>
2.82187

> <b_epik_Metal_Only>
1

> <s_lp_Force_Field>
OPLS_2005

> <r_lp_Energy>
30.4729

> <b_lp_Chiralities_Consistent>
1

> <s_lp_Variant>
AV-unprocessed.smi:47-24

> <Gold.Version>
5.8.1

> <Gold.Id.Protein>
6NUR|6NUR_protein|mol2

> <Gold.PLP.Fitness>
46.3993

> <Gold.PLP.PLP>
-38.0321

> <Gold.PLP.part.hbond>
-3.8743

> <Gold.PLP.part.metal>
0.0000

> <Gold.PLP.part.buried>
-1.2168

> <Gold.PLP.part.nonpolar>
-33.1089

> <Gold.PLP.part.repulsive>
0.0440

> <Gold.PLP.ligand.clash>
0.0000

> <Gold.PLP.ligand.torsion>
0.2375

> <Gold.PLP.Chemscore.Hbond>
2.9440

> <Gold.PLP.Chemscore.CHOScore>
0.0000

> <Gold.PLP.Chemscore.Metal>
0.0000

> <Gold.Chemscore.Hbonds>
donor molecule, donor type, donor heavy atom, donor atom, acceptor molecule, acceptor atom, score
      L1  H     1    20       P1  7949  0.88
      P1  H  7997  8009       L1     7  0.95
      P1  H 10752 10765       L1     1  1.00

> <Gold.PLP.Chemscore.Internal.Correction>
0.0103

> <Gold.Rescore>
     Score         DG    S(hbond)    S(metal)    S(lipo)     H(rot)  DE(clash)    DE(int)     intcor
     17.99     -19.12       1.82        0.00      96.46       1.46       0.89       0.23       ----

> <Gold.Chemscore.Fitness>
17.9904

> <Gold.Chemscore.DG>
-19.1170

> <Gold.Chemscore.ZeroCoef>
-5.4800

> <Gold.Chemscore.Hbond>
1.8245

> <Gold.Chemscore.Metal>
0.0000

> <Gold.Chemscore.Lipo>
96.4627

> <Gold.Chemscore.Internal_Hbond>
0.0000

> <Gold.Chemscore.DEClash>
0.8936

> <Gold.Chemscore.DEInternal>
0.2330

> <Gold.Chemscore.Rot>
1.4621

> <Gold.Chemscore.Internal.Correction>
   9.000000E+99

> <Gold.Chemscore.Hbonds>
donor molecule, donor type, donor heavy atom, donor atom, acceptor molecule, acceptor atom, score
      L1  H     1    20       P1  7949  0.34
      P1  H  7997  8009       L1     7  0.18
      P1  H 10752 10765       L1     1  0.87

> <Gold.Chemscore.Hbond.Weighted>
-6.0937

> <Gold.Chemscore.Metal.Weighted>
-0.0000

> <Gold.Chemscore.Lipo.Weighted>
-11.2861

> <Gold.Chemscore.Internal_Hbond.Weighted>
0.0000

> <Gold.Chemscore.DEClash.Weighted>
0.8936

> <Gold.Chemscore.DEInternal.Weighted>
0.2330

> <Gold.Chemscore.Rot.Weighted>
3.7429

> <Gold.Chemscore.Internal.Correction.Weighted>
   9.000000E+99

> <Gold.Protein.RotatedTorsions>
[ 6907 6896 6895 6894 ] final   48.77 input  -60.11 | X-H torsion
[ 7974 7965 7964 7962 ] final   18.85 input  175.53 | X-H torsion
[ 8008 7997 7996 7995 ] final -170.10 input   59.86 | X-H torsion
[ 10167 10162 10161 10158 ] final   -9.00 input  -65.29 | X-H torsion
[ 10718 10713 10712 10709 ] final   39.91 input   66.30 | X-H torsion
[ 10763 10752 10751 10750 ] final  169.01 input  -60.55 | X-H torsion
[ 11005 11000 10999 10996 ] final   -1.07 input  -57.11 | X-H torsion

> <Gold.Protein.ActiveResidues>
 VAL166  LYS551  ARG553  GLY616  TRP617  ASP618  TYR619  PRO620  LYS621  CYS622 
 ASP623  PHE694  ASN695  SER759  ASP760  ASP761  ALA762  ILE779  LEU786  VAL792 
 PHE793  MET794  SER795  GLU796  ALA797  LYS798  CYS799  TRP800  GLU811  SER814 

> <Gold.Protein.RotatedAtoms>
  152.2833  134.7804  160.0392 H   0  0  0  0  0  0  0  0  0  0  0  0  # atno 6907 bound_to 6896
  151.8376  133.3413  159.3641 H   0  0  0  0  0  0  0  0  0  0  0  0  # atno 6908 bound_to 6896
  150.7199  134.5351  159.5764 H   0  0  0  0  0  0  0  0  0  0  0  0  # atno 6909 bound_to 6896
  146.2170  139.8398  142.8643 H   0  0  0  0  0  0  0  0  0  0  0  0  # atno 7974 bound_to 7965
  155.9138  140.1062  157.1259 H   0  0  0  0  0  0  0  0  0  0  0  0  # atno 8008 bound_to 7997
  154.4043  140.1269  156.4656 H   0  0  0  0  0  0  0  0  0  0  0  0  # atno 8009 bound_to 7997
  155.7278  140.3469  155.5048 H   0  0  0  0  0  0  0  0  0  0  0  0  # atno 8010 bound_to 7997
  140.7075  143.5907  150.8897 H   0  0  0  0  0  0  0  0  0  0  0  0  # atno 10167 bound_to 10162
  157.3760  130.7727  149.7156 H   0  0  0  0  0  0  0  0  0  0  0  0  # atno 10718 bound_to 10713
  154.3769  135.2753  155.2234 H   0  0  0  0  0  0  0  0  0  0  0  0  # atno 10763 bound_to 10752
  154.4357  135.5966  153.6101 H   0  0  0  0  0  0  0  0  0  0  0  0  # atno 10764 bound_to 10752
  152.9836  135.6006  154.4007 H   0  0  0  0  0  0  0  0  0  0  0  0  # atno 10765 bound_to 10752
  140.6433  133.9470  155.8338 H   0  0  0  0  0  0  0  0  0  0  0  0  # atno 11005 bound_to 11000
  145.2910  141.0167  143.3663 LP  0  0  0  0  0  0  0  0  0  0  0  0  # atno 17320 bound_to 7965
  144.9077  139.4568  143.6602 LP  0  0  0  0  0  0  0  0  0  0  0  0  # atno 17321 bound_to 7965
  139.9632  143.6140  152.2996 LP  0  0  0  0  0  0  0  0  0  0  0  0  # atno 17342 bound_to 10162
  139.6700  144.7661  151.1801 LP  0  0  0  0  0  0  0  0  0  0  0  0  # atno 17343 bound_to 10162
  155.9765  130.4074  150.3772 LP  0  0  0  0  0  0  0  0  0  0  0  0  # atno 17370 bound_to 10713
  157.1870  131.0406  151.2720 LP  0  0  0  0  0  0  0  0  0  0  0  0  # atno 17371 bound_to 10713
  141.0591  134.0373  157.3683 LP  0  0  0  0  0  0  0  0  0  0  0  0  # atno 17394 bound_to 11000
  139.9072  135.0182  156.7538 LP  0  0  0  0  0  0  0  0  0  0  0  0  # atno 17395 bound_to 11000

$$$$
