AV-unprocessed.smi:145|AV-procd|sdf|1198|dock6
  -GOLD-   2262018353D 1   1.00000     0.00000
 Structure written by MMmdl.
 40 42  0  0  0  0  0  0  0  0  1 V2000
  153.2937  138.9753  157.2497 O   0  0  0  0  0  0  0  0  0  0  0  0
  152.1106  139.2948  157.1244 C   0  0  0  0  0  0  0  0  0  0  0  0
  151.2177  138.5937  156.0878 C   0  0  0  0  0  0  0  0  0  0  0  0
  150.4738  137.4366  156.6326 N   0  0  0  0  0  0  0  0  0  0  0  0
  150.7235  136.1498  156.0947 C   0  0  0  0  0  0  0  0  0  0  0  0
  151.5485  135.9825  155.1955 O   0  0  0  0  0  0  0  0  0  0  0  0
  149.9406  135.0630  156.6722 C   0  0  0  0  0  0  0  0  0  0  0  0
  150.1225  133.8060  156.2333 F   0  0  0  0  0  0  0  0  0  0  0  0
  149.0350  135.2982  157.6440 C   0  0  0  0  0  0  0  0  0  0  0  0
  148.7881  136.5634  158.1471 N   0  0  0  0  0  0  0  0  0  0  0  0
  147.7633  136.8128  159.2338 C   0  0  1  0  0  0  0  0  0  0  0  0
  146.7754  135.6344  159.3291 C   0  0  0  0  0  0  0  0  0  0  0  0
  146.8079  135.2878  160.8042 C   0  0  0  0  0  0  0  0  0  0  0  0
  148.2198  135.6993  161.1930 C   0  0  0  0  0  0  0  0  0  0  0  0
  148.4007  136.9132  160.4758 O   0  0  0  0  0  0  0  0  0  0  0  0
  149.5156  137.6657  157.6485 C   0  0  0  0  0  0  0  0  0  0  0  0
  149.3125  138.8009  158.0854 O   0  0  0  0  0  0  0  0  0  0  0  0
  151.5044  140.2612  157.8376 N   0  0  0  0  0  0  0  0  0  0  0  0
  152.0527  141.0802  158.8612 C   0  0  0  0  0  0  0  0  0  0  0  0
  152.9916  140.6138  159.8133 C   0  0  0  0  0  0  0  0  0  0  0  0
  153.4764  141.4792  160.8137 C   0  0  0  0  0  0  0  0  0  0  0  0
  153.0228  142.8101  160.8777 C   0  0  0  0  0  0  0  0  0  0  0  0
  152.0768  143.2746  159.9446 C   0  0  0  0  0  0  0  0  0  0  0  0
  151.3909  145.2474  160.0436 I   0  0  0  0  0  0  0  0  0  0  0  0
  151.5902  142.4103  158.9446 C   0  0  0  0  0  0  0  0  0  0  0  0
  150.5388  139.3351  155.6640 H   0  0  0  0  0  0  0  0  0  0  0  0
  151.8356  138.2896  155.2411 H   0  0  0  0  0  0  0  0  0  0  0  0
  148.4921  134.4495  158.0304 H   0  0  0  0  0  0  0  0  0  0  0  0
  147.2980  137.7687  158.9869 H   0  0  0  0  0  0  0  0  0  0  0  0
  145.7851  135.9242  158.9765 H   0  0  0  0  0  0  0  0  0  0  0  0
  147.1316  134.7923  158.7332 H   0  0  0  0  0  0  0  0  0  0  0  0
  146.0797  135.8909  161.3481 H   0  0  0  0  0  0  0  0  0  0  0  0
  146.5992  134.2361  161.0014 H   0  0  0  0  0  0  0  0  0  0  0  0
  148.3369  135.8460  162.2669 H   0  0  0  0  0  0  0  0  0  0  0  0
  148.9462  134.9547  160.8644 H   0  0  0  0  0  0  0  0  0  0  0  0
  150.5585  140.4843  157.5637 H   0  0  0  0  0  0  0  0  0  0  0  0
  153.3422  139.5931  159.8041 H   0  0  0  0  0  0  0  0  0  0  0  0
  154.1936  141.1188  161.5362 H   0  0  0  0  0  0  0  0  0  0  0  0
  153.3958  143.4712  161.6461 H   0  0  0  0  0  0  0  0  0  0  0  0
  150.8628  142.7762  158.2346 H   0  0  0  0  0  0  0  0  0  0  0  0
  1  2  2  0  0  0  0
  2  3  1  0  0  0  0
  2 18  1  0  0  0  0
  3  4  1  0  0  0  0
  3 26  1  0  0  0  0
  3 27  1  0  0  0  0
  4 16  1  0  0  0  0
  4  5  1  0  0  0  0
  5  6  2  0  0  0  0
  5  7  1  0  0  0  0
  7  8  1  0  0  0  0
  7  9  2  0  0  0  0
  9 10  1  0  0  0  0
  9 28  1  0  0  0  0
 10 11  1  0  0  0  0
 10 16  1  0  0  0  0
 11 15  1  0  0  0  0
 11 12  1  0  0  0  0
 11 29  1  0  0  0  0
 12 13  1  0  0  0  0
 12 30  1  0  0  0  0
 12 31  1  0  0  0  0
 13 14  1  0  0  0  0
 13 32  1  0  0  0  0
 13 33  1  0  0  0  0
 14 15  1  0  0  0  0
 14 34  1  0  0  0  0
 14 35  1  0  0  0  0
 16 17  2  0  0  0  0
 18 19  1  0  0  0  0
 18 36  1  0  0  0  0
 19 25  1  0  0  0  0
 19 20  2  0  0  0  0
 20 21  1  0  0  0  0
 20 37  1  0  0  0  0
 21 22  2  0  0  0  0
 21 38  1  0  0  0  0
 22 23  1  0  0  0  0
 22 39  1  0  0  0  0
 23 24  1  0  0  0  0
 23 25  2  0  0  0  0
 25 40  1  0  0  0  0
M  END
> <s_m_source_file>
AV-unprocessed.smi

> <i_m_source_file_index>
145

> <i_lp_mmshare_version>
43012

> <i_f3d_flags>
0

> <s_epik_input>
SWMoW2NIXTEpW2NIXVtjSF1bY0hdYzFbTkhdQyg9TylbQ0gyXW4yYyg9TyljKEYpW2NIXW4oYzI9TylbQ0BASF0zW0NIMl1bQ0gyXVtDSDJdTzM=

> <s_epik_cmdline>
J2VwaWtfcHl0aG9uJywgJy1waCcsICc3LjAnLCAnLXRuJywgJzgnLCAnLW1hJywgJzIwMCcsICctbWV0YWxfYmluZGluZycsICctaW1hZScsICc8aW5maWxlLm1hZT4nLCAnLW9tYWUnLCAnPG91dGZpbGUubWFlPic=

> <r_lp_tautomer_probability>
1

> <r_epik_Ionization_Penalty>
9.72367e-07

> <r_epik_Ionization_Penalty_Charging>
3.88729e-08

> <r_epik_Ionization_Penalty_Neutral>
9.33494e-07

> <r_epik_State_Penalty>
-0

> <r_epik_Charging_Adjusted_Penalty>
3.88729e-08

> <i_epik_Tot_Q>
0

> <i_epik_Tot_abs_Q>
0

> <r_epik_Metal_State_Penalty>
-0

> <b_epik_Metal_Only>
0

> <s_epik_Chemistry_Notes>
This compound contains an acetal/aminal-like group ( X-CH(R)-Y where X, Y are N, S, or O) that may be acid/base labile, releasing an aldehyde.

> <s_lp_Force_Field>
OPLS_2005

> <r_lp_Energy>
33.5039

> <b_lp_Chiralities_Consistent>
1

> <s_lp_Variant>
AV-unprocessed.smi:145-2

> <Gold.Version>
5.8.1

> <Gold.Id.Protein>
6NUR|6NUR_protein|mol2

> <Gold.PLP.Fitness>
45.7366

> <Gold.PLP.PLP>
-39.2135

> <Gold.PLP.part.hbond>
-4.0000

> <Gold.PLP.part.metal>
0.0000

> <Gold.PLP.part.buried>
-6.2113

> <Gold.PLP.part.nonpolar>
-29.4534

> <Gold.PLP.part.repulsive>
0.1674

> <Gold.PLP.ligand.clash>
0.0000

> <Gold.PLP.ligand.torsion>
1.1855

> <Gold.PLP.Chemscore.Hbond>
2.9609

> <Gold.PLP.Chemscore.CHOScore>
0.0000

> <Gold.PLP.Chemscore.Metal>
0.0000

> <Gold.Chemscore.Hbonds>
donor molecule, donor type, donor heavy atom, donor atom, acceptor molecule, acceptor atom, score
      P1  H  6931  6943       L1    15  0.81
      P1  H  7997  8010       L1     1  1.00
      P1  H 10752 10764       L1     6  1.00

> <Gold.PLP.Chemscore.Internal.Correction>
0.0114

> <Gold.Rescore>
     Score         DG    S(hbond)    S(metal)    S(lipo)     H(rot)  DE(clash)    DE(int)     intcor
     19.51     -22.44       2.93        0.00      97.80       1.66       0.40       2.54       ----

> <Gold.Chemscore.Fitness>
19.5058

> <Gold.Chemscore.DG>
-22.4447

> <Gold.Chemscore.ZeroCoef>
-5.4800

> <Gold.Chemscore.Hbond>
2.9274

> <Gold.Chemscore.Metal>
0.0000

> <Gold.Chemscore.Lipo>
97.7976

> <Gold.Chemscore.Internal_Hbond>
0.0000

> <Gold.Chemscore.DEClash>
0.3991

> <Gold.Chemscore.DEInternal>
2.5399

> <Gold.Chemscore.Rot>
1.6621

> <Gold.Chemscore.Internal.Correction>
   9.000000E+99

> <Gold.Chemscore.Hbonds>
donor molecule, donor type, donor heavy atom, donor atom, acceptor molecule, acceptor atom, score
      P1  H  6931  6943       L1    15  0.37
      P1  H  7997  8010       L1     1  0.86
      P1  H 10752 10764       L1     6  0.95

> <Gold.Chemscore.Hbond.Weighted>
-9.7774

> <Gold.Chemscore.Metal.Weighted>
-0.0000

> <Gold.Chemscore.Lipo.Weighted>
-11.4423

> <Gold.Chemscore.Internal_Hbond.Weighted>
0.0000

> <Gold.Chemscore.DEClash.Weighted>
0.3991

> <Gold.Chemscore.DEInternal.Weighted>
2.5399

> <Gold.Chemscore.Rot.Weighted>
4.2550

> <Gold.Chemscore.Internal.Correction.Weighted>
   9.000000E+99

> <Gold.Protein.RotatedTorsions>
[ 6907 6896 6895 6894 ] final  123.49 input  -60.11 | X-H torsion
[ 7974 7965 7964 7962 ] final   62.06 input  175.53 | X-H torsion
[ 8008 7997 7996 7995 ] final   63.99 input   59.86 | X-H torsion
[ 10167 10162 10161 10158 ] final   53.34 input  -65.29 | X-H torsion
[ 10718 10713 10712 10709 ] final  -82.15 input   66.30 | X-H torsion
[ 10763 10752 10751 10750 ] final  -51.41 input  -60.55 | X-H torsion
[ 11005 11000 10999 10996 ] final   44.08 input  -57.11 | X-H torsion

> <Gold.Protein.ActiveResidues>
 VAL166  LYS551  ARG553  GLY616  TRP617  ASP618  TYR619  PRO620  LYS621  CYS622 
 ASP623  PHE694  ASN695  SER759  ASP760  ASP761  ALA762  ILE779  LEU786  VAL792 
 PHE793  MET794  SER795  GLU796  ALA797  LYS798  CYS799  TRP800  GLU811  SER814 

> <Gold.Protein.RotatedAtoms>
  152.4157  133.7034  159.6436 H   0  0  0  0  0  0  0  0  0  0  0  0  # atno 6907 bound_to 6896
  150.8034  133.8544  159.3223 H   0  0  0  0  0  0  0  0  0  0  0  0  # atno 6908 bound_to 6896
  151.6274  135.1028  160.0166 H   0  0  0  0  0  0  0  0  0  0  0  0  # atno 6909 bound_to 6896
  145.8776  139.3421  143.0725 H   0  0  0  0  0  0  0  0  0  0  0  0  # atno 7974 bound_to 7965
  155.6389  140.3496  155.4708 H   0  0  0  0  0  0  0  0  0  0  0  0  # atno 8008 bound_to 7997
  155.9942  140.1200  157.0633 H   0  0  0  0  0  0  0  0  0  0  0  0  # atno 8009 bound_to 7997
  154.4228  140.1113  156.5594 H   0  0  0  0  0  0  0  0  0  0  0  0  # atno 8010 bound_to 7997
  140.2418  144.3575  150.6377 H   0  0  0  0  0  0  0  0  0  0  0  0  # atno 10167 bound_to 10162
  156.0038  130.4625  150.4062 H   0  0  0  0  0  0  0  0  0  0  0  0  # atno 10718 bound_to 10713
  154.1262  135.6527  153.4912 H   0  0  0  0  0  0  0  0  0  0  0  0  # atno 10763 bound_to 10752
  153.0210  135.5282  154.7047 H   0  0  0  0  0  0  0  0  0  0  0  0  # atno 10764 bound_to 10752
  154.6269  135.2971  155.0232 H   0  0  0  0  0  0  0  0  0  0  0  0  # atno 10765 bound_to 10752
  140.1585  134.4372  155.8334 H   0  0  0  0  0  0  0  0  0  0  0  0  # atno 11005 bound_to 11000
  145.9062  140.9210  143.0477 LP  0  0  0  0  0  0  0  0  0  0  0  0  # atno 17320 bound_to 7965
  144.6726  140.1098  143.7456 LP  0  0  0  0  0  0  0  0  0  0  0  0  # atno 17321 bound_to 7965
  140.6107  143.2169  151.6891 LP  0  0  0  0  0  0  0  0  0  0  0  0  # atno 17342 bound_to 10162
  139.5075  144.3645  152.0530 LP  0  0  0  0  0  0  0  0  0  0  0  0  # atno 17343 bound_to 10162
  157.2127  131.0464  151.2590 LP  0  0  0  0  0  0  0  0  0  0  0  0  # atno 17370 bound_to 10713
  157.3873  130.7263  149.6672 LP  0  0  0  0  0  0  0  0  0  0  0  0  # atno 17371 bound_to 10713
  141.2207  133.6903  156.7550 LP  0  0  0  0  0  0  0  0  0  0  0  0  # atno 17394 bound_to 11000
  140.2519  134.8534  157.3675 LP  0  0  0  0  0  0  0  0  0  0  0  0  # atno 17395 bound_to 11000

$$$$
