AV-unprocessed.smi:2894|AV-procd|sdf|11126|dock2
  -GOLD-   2272016 03D 1   1.00000     0.00000
 Structure written by MMmdl.
 35 36  0  0  0  0  0  0  0  0  1 V2000
  146.8411  142.5757  154.2450 C   0  0  0  0  0  0  0  0  0  0  0  0
  147.2854  141.1593  154.0284 C   0  0  0  0  0  0  0  0  0  0  0  0
  146.5722  140.1042  153.3887 C   0  0  0  0  0  0  0  0  0  0  0  0
  147.4446  139.0539  153.4777 C   0  0  0  0  0  0  0  0  0  0  0  0
  147.2973  137.7790  153.0292 N   0  0  0  0  0  0  0  0  0  0  0  0
  146.2190  136.9798  153.1076 C   0  0  0  0  0  0  0  0  0  0  0  0
  145.1410  137.2820  153.6203 O   0  0  0  0  0  0  0  0  0  0  0  0
  146.4630  135.7848  152.5506 N   0  0  0  0  0  0  0  0  0  0  0  0
  145.5028  134.6886  152.4386 C   0  0  2  0  0  0  0  0  0  0  0  0
  146.1840  133.4096  151.9156 C   0  0  0  0  0  0  0  0  0  0  0  0
  145.1363  132.3344  151.6137 C   0  0  0  0  0  0  0  0  0  0  0  0
  144.1154  132.8524  150.5874 C   0  0  0  0  0  0  0  0  0  0  0  0
  143.6344  134.2029  150.8821 N   0  0  0  0  0  0  0  0  0  0  0  0
  144.2502  135.1167  151.6530 C   0  0  0  0  0  0  0  0  0  0  0  0
  143.8095  136.2596  151.7659 O   0  0  0  0  0  0  0  0  0  0  0  0
  148.5847  139.4761  154.1248 N   0  0  0  0  0  0  0  0  0  0  0  0
  149.7864  138.7338  154.4522 C   0  0  0  0  0  0  0  0  0  0  0  0
  148.4815  140.7793  154.4638 N   0  0  0  0  0  0  0  0  0  0  0  0
  145.8859  142.7679  153.7562 H   0  0  0  0  0  0  0  0  0  0  0  0
  147.5672  143.2822  153.8422 H   0  0  0  0  0  0  0  0  0  0  0  0
  146.7193  142.7899  155.3070 H   0  0  0  0  0  0  0  0  0  0  0  0
  145.5884  140.1355  152.9453 H   0  0  0  0  0  0  0  0  0  0  0  0
  148.1115  137.3841  152.5820 H   0  0  0  0  0  0  0  0  0  0  0  0
  147.3751  135.6252  152.1477 H   0  0  0  0  0  0  0  0  0  0  0  0
  145.1273  134.4694  153.4401 H   0  0  0  0  0  0  0  0  0  0  0  0
  146.7505  133.6302  151.0095 H   0  0  0  0  0  0  0  0  0  0  0  0
  146.9005  133.0348  152.6475 H   0  0  0  0  0  0  0  0  0  0  0  0
  145.6154  131.4276  151.2435 H   0  0  0  0  0  0  0  0  0  0  0  0
  144.6226  132.0603  152.5362 H   0  0  0  0  0  0  0  0  0  0  0  0
  144.5704  132.8719  149.5963 H   0  0  0  0  0  0  0  0  0  0  0  0
  143.2639  132.1743  150.5270 H   0  0  0  0  0  0  0  0  0  0  0  0
  142.7919  134.4923  150.4063 H   0  0  0  0  0  0  0  0  0  0  0  0
  149.5199  137.8212  154.9861 H   0  0  0  0  0  0  0  0  0  0  0  0
  150.4467  139.3303  155.0834 H   0  0  0  0  0  0  0  0  0  0  0  0
  150.3143  138.4705  153.5352 H   0  0  0  0  0  0  0  0  0  0  0  0
  1  2  1  0  0  0  0
  1 19  1  0  0  0  0
  1 20  1  0  0  0  0
  1 21  1  0  0  0  0
  2 18  2  0  0  0  0
  2  3  1  0  0  0  0
  3  4  2  0  0  0  0
  3 22  1  0  0  0  0
  4  5  1  0  0  0  0
  4 16  1  0  0  0  0
  5  6  1  0  0  0  0
  5 23  1  0  0  0  0
  6  7  2  0  0  0  0
  6  8  1  0  0  0  0
  8  9  1  0  0  0  0
  8 24  1  0  0  0  0
  9 14  1  0  0  0  0
  9 10  1  0  0  0  0
  9 25  1  0  0  0  0
 10 11  1  0  0  0  0
 10 26  1  0  0  0  0
 10 27  1  0  0  0  0
 11 12  1  0  0  0  0
 11 28  1  0  0  0  0
 11 29  1  0  0  0  0
 12 13  1  0  0  0  0
 12 30  1  0  0  0  0
 12 31  1  0  0  0  0
 13 14  1  0  0  0  0
 13 32  1  0  0  0  0
 14 15  2  0  0  0  0
 16 17  1  0  0  0  0
 16 18  1  0  0  0  0
 17 33  1  0  0  0  0
 17 34  1  0  0  0  0
 17 35  1  0  0  0  0
M  END
> <s_m_source_file>
AV-unprocessed.smi

> <i_m_source_file_index>
2894

> <i_lp_mmshare_version>
43012

> <i_f3d_flags>
0

> <s_epik_input>
W0NIM11jMVtjSF1jKG4objEpW0NIM10pW05IXUMoPU8pW05IXVtDQEBIXTJbQ0gyXVtDSDJdW0NIMl1bTkhdQzI9Tw==

> <s_epik_cmdline>
J2VwaWtfcHl0aG9uJywgJy1waCcsICc3LjAnLCAnLXRuJywgJzgnLCAnLW1hJywgJzIwMCcsICctbWV0YWxfYmluZGluZycsICctaW1hZScsICc8aW5maWxlLm1hZT4nLCAnLW9tYWUnLCAnPG91dGZpbGUubWFlPic=

> <r_lp_tautomer_probability>
1

> <r_epik_Ionization_Penalty>
8.17286e-05

> <r_epik_Ionization_Penalty_Charging>
0

> <r_epik_Ionization_Penalty_Neutral>
8.17286e-05

> <r_epik_State_Penalty>
-0

> <r_epik_Charging_Adjusted_Penalty>
0

> <i_epik_Tot_Q>
0

> <i_epik_Tot_abs_Q>
0

> <r_epik_Metal_State_Penalty>
-0

> <b_epik_Metal_Only>
0

> <s_lp_Force_Field>
OPLS_2005

> <r_lp_Energy>
10.3718

> <b_lp_Chiralities_Consistent>
1

> <s_lp_Variant>
AV-unprocessed.smi:2894-1

> <Gold.Version>
5.8.1

> <Gold.Id.Protein>
6NUR|6NUR_protein|mol2

> <Gold.PLP.Fitness>
35.0862

> <Gold.PLP.PLP>
-26.8632

> <Gold.PLP.part.hbond>
-2.9826

> <Gold.PLP.part.metal>
0.0000

> <Gold.PLP.part.buried>
-2.2768

> <Gold.PLP.part.nonpolar>
-22.8590

> <Gold.PLP.part.repulsive>
1.5769

> <Gold.PLP.ligand.clash>
0.0000

> <Gold.PLP.ligand.torsion>
0.3738

> <Gold.PLP.Chemscore.Hbond>
2.9760

> <Gold.PLP.Chemscore.CHOScore>
0.0000

> <Gold.PLP.Chemscore.Metal>
0.0000

> <Gold.Chemscore.Hbonds>
donor molecule, donor type, donor heavy atom, donor atom, acceptor molecule, acceptor atom, score
      L1  H     5    23       P1  7948  1.00
      L1  H     8    24       P1  7948  0.98
      L1  H    13    32       P1 10186  1.00

> <Gold.PLP.Chemscore.Internal.Correction>
0.0425

> <Gold.Rescore>
     Score         DG    S(hbond)    S(metal)    S(lipo)     H(rot)  DE(clash)    DE(int)     intcor
     13.33     -17.56       2.69        0.00      48.39       1.00       0.96       3.26       ----

> <Gold.Chemscore.Fitness>
13.3328

> <Gold.Chemscore.DG>
-17.5576

> <Gold.Chemscore.ZeroCoef>
-5.4800

> <Gold.Chemscore.Hbond>
2.6874

> <Gold.Chemscore.Metal>
0.0000

> <Gold.Chemscore.Lipo>
48.3912

> <Gold.Chemscore.Internal_Hbond>
0.0000

> <Gold.Chemscore.DEClash>
0.9643

> <Gold.Chemscore.DEInternal>
3.2606

> <Gold.Chemscore.Rot>
1.0000

> <Gold.Chemscore.Internal.Correction>
   9.000000E+99

> <Gold.Chemscore.Hbonds>
donor molecule, donor type, donor heavy atom, donor atom, acceptor molecule, acceptor atom, score
      L1  H     5    23       P1  7948  0.96
      L1  H     8    24       P1  7948  0.93
      L1  H    13    32       P1 10186  0.54

> <Gold.Chemscore.Hbond.Weighted>
-8.9759

> <Gold.Chemscore.Metal.Weighted>
-0.0000

> <Gold.Chemscore.Lipo.Weighted>
-5.6618

> <Gold.Chemscore.Internal_Hbond.Weighted>
0.0000

> <Gold.Chemscore.DEClash.Weighted>
0.9643

> <Gold.Chemscore.DEInternal.Weighted>
3.2606

> <Gold.Chemscore.Rot.Weighted>
2.5600

> <Gold.Chemscore.Internal.Correction.Weighted>
   9.000000E+99

> <Gold.Protein.RotatedTorsions>
[ 6907 6896 6895 6894 ] final  111.88 input  -60.11 | X-H torsion
[ 7974 7965 7964 7962 ] final   27.38 input  175.53 | X-H torsion
[ 8008 7997 7996 7995 ] final   16.09 input   59.86 | X-H torsion
[ 10167 10162 10161 10158 ] final   70.86 input  -65.29 | X-H torsion
[ 10718 10713 10712 10709 ] final  -39.51 input   66.30 | X-H torsion
[ 10763 10752 10751 10750 ] final   98.67 input  -60.55 | X-H torsion
[ 11005 11000 10999 10996 ] final  124.21 input  -57.11 | X-H torsion

> <Gold.Protein.ActiveResidues>
 VAL166  LYS551  ARG553  GLY616  TRP617  ASP618  TYR619  PRO620  LYS621  CYS622 
 ASP623  PHE694  ASN695  SER759  ASP760  ASP761  ALA762  ILE779  LEU786  VAL792 
 PHE793  MET794  SER795  GLU796  ALA797  LYS798  CYS799  TRP800  GLU811  SER814 

> <Gold.Protein.RotatedAtoms>
  152.4946  133.8596  159.7242 H   0  0  0  0  0  0  0  0  0  0  0  0  # atno 6907 bound_to 6896
  150.9111  133.6988  159.2861 H   0  0  0  0  0  0  0  0  0  0  0  0  # atno 6908 bound_to 6896
  151.4397  135.1023  159.9719 H   0  0  0  0  0  0  0  0  0  0  0  0  # atno 6909 bound_to 6896
  146.1787  139.7199  142.8916 H   0  0  0  0  0  0  0  0  0  0  0  0  # atno 7974 bound_to 7965
  154.8720  140.2960  155.5476 H   0  0  0  0  0  0  0  0  0  0  0  0  # atno 8008 bound_to 7997
  156.3021  140.2458  156.3643 H   0  0  0  0  0  0  0  0  0  0  0  0  # atno 8009 bound_to 7997
  154.8807  140.0398  157.1770 H   0  0  0  0  0  0  0  0  0  0  0  0  # atno 8010 bound_to 7997
  140.0523  144.5301  150.7354 H   0  0  0  0  0  0  0  0  0  0  0  0  # atno 10167 bound_to 10162
  156.2916  130.4229  149.8232 H   0  0  0  0  0  0  0  0  0  0  0  0  # atno 10718 bound_to 10713
  153.2919  135.4140  155.1174 H   0  0  0  0  0  0  0  0  0  0  0  0  # atno 10763 bound_to 10752
  154.8523  135.3520  154.5969 H   0  0  0  0  0  0  0  0  0  0  0  0  # atno 10764 bound_to 10752
  153.6392  135.7057  153.5305 H   0  0  0  0  0  0  0  0  0  0  0  0  # atno 10765 bound_to 10752
  139.9348  134.9640  156.8375 H   0  0  0  0  0  0  0  0  0  0  0  0  # atno 11005 bound_to 11000
  145.4138  141.0399  143.3002 LP  0  0  0  0  0  0  0  0  0  0  0  0  # atno 17320 bound_to 7965
  144.8279  139.5679  143.6957 LP  0  0  0  0  0  0  0  0  0  0  0  0  # atno 17321 bound_to 7965
  140.7211  143.2589  151.4276 LP  0  0  0  0  0  0  0  0  0  0  0  0  # atno 17342 bound_to 10162
  139.5945  144.1427  152.2128 LP  0  0  0  0  0  0  0  0  0  0  0  0  # atno 17343 bound_to 10162
  156.5643  130.8397  151.3338 LP  0  0  0  0  0  0  0  0  0  0  0  0  # atno 17370 bound_to 10713
  157.7344  130.9745  150.2027 LP  0  0  0  0  0  0  0  0  0  0  0  0  # atno 17371 bound_to 10713
  140.6105  134.0087  155.7575 LP  0  0  0  0  0  0  0  0  0  0  0  0  # atno 17394 bound_to 11000
  141.0956  133.9849  157.3165 LP  0  0  0  0  0  0  0  0  0  0  0  0  # atno 17395 bound_to 11000

$$$$
