#       Name:                AV-unprocessed.smi:2474
#       Creating user name   scv26
#       Creation time:       Fri Mar 27 13:39:39 2020


#       File generated by GOLD software.
#

@<TRIPOS>MOLECULE
AV-unprocessed.smi:2474
    43    44     1
SMALL
NO_CHARGES


@<TRIPOS>ATOM
      1 ****        -2.8554  -0.8953   2.1424 C.3            1 S1                 0.0000
      2 ****        -2.4411   0.2976   1.3500 C.2            1 S1                 0.0000
      3 ****        -1.9760   1.4998   1.8222 C.2            1 S1                 0.0000
      4 ****        -1.6528   2.4139   0.8175 N.2            1 S1                 0.0000
      5 ****        -1.8666   1.9253  -0.4076 C.2            1 S1                 0.0000
      6 ****        -1.5307   2.6629  -1.6698 C.3            1 S1                 0.0000
      7 ****        -2.2857   3.9956  -1.7781 C.3            1 S1                 0.0000
      8 ****        -0.0097   2.8105  -1.9032 C.3            1 S1                 0.0000
      9 ****         0.6713   1.5171  -1.9027 N.am           1 S1                 0.0000
     10 ****         1.2797   0.9617  -0.8451 C.2            1 S1                 0.0000
     11 ****         1.4520   1.5307   0.2328 O.2            1 S1                 0.0000
     12 ****         1.6212  -0.3116  -1.0835 N.am           1 S1                 0.0000
     13 ****         2.1379  -1.2389  -0.0818 C.3            1 S1                 0.0000
     14 ****         0.9752  -1.7963   0.7683 C.3            1 S1                 0.0000
     15 ****         1.4527  -2.7470   1.8765 C.3            1 S1                 0.0000
     16 ****         2.1847  -3.9751   1.3179 C.3            1 S1                 0.0000
     17 ****         3.6800  -3.4927   0.4126 S.3            1 S1                 0.0000
     18 ****         2.9200  -2.3617  -0.7848 C.3            1 S1                 0.0000
     19 ****        -2.5035   0.2836  -0.3926 S.3            1 S1                 0.0000
     20 ****        -2.7245  -0.7218   3.2108 H              1 S1                 0.0000
     21 ****        -2.2599  -1.7665   1.8685 H              1 S1                 0.0000
     22 ****        -3.9047  -1.1318   1.9653 H              1 S1                 0.0000
     23 ****        -1.8351   1.7866   2.8538 H              1 S1                 0.0000
     24 ****        -1.9050   2.0430  -2.4857 H              1 S1                 0.0000
     25 ****        -3.3629   3.8434  -1.7060 H              1 S1                 0.0000
     26 ****        -2.0841   4.4841  -2.7316 H              1 S1                 0.0000
     27 ****        -1.9920   4.6834  -0.9846 H              1 S1                 0.0000
     28 ****         0.1722   3.2850  -2.8678 H              1 S1                 0.0000
     29 ****         0.4242   3.4735  -1.1526 H              1 S1                 0.0000
     30 ****         0.5907   0.9649  -2.7440 H              1 S1                 0.0000
     31 ****         1.4394  -0.6892  -2.0017 H              1 S1                 0.0000
     32 ****         2.8295  -0.7002   0.5691 H              1 S1                 0.0000
     33 ****         0.4274  -0.9735   1.2297 H              1 S1                 0.0000
     34 ****         0.2598  -2.3129   0.1270 H              1 S1                 0.0000
     35 ****         2.1040  -2.2108   2.5678 H              1 S1                 0.0000
     36 ****         0.5926  -3.0758   2.4604 H              1 S1                 0.0000
     37 ****         2.4689  -4.6461   2.1286 H              1 S1                 0.0000
     38 ****         1.5306  -4.5376   0.6509 H              1 S1                 0.0000
     39 ****         2.2639  -2.9335  -1.4423 H              1 S1                 0.0000
     40 ****         3.7111  -1.9428  -1.4075 H              1 S1                 0.0000
     41 ****        -1.3003   3.3326   0.9952 LP             1 S1                 0.0000
     42 ****         1.1290   2.4684   0.3604 LP             1 S1                 0.0000
     43 ****         1.9150   1.0551   0.9809 LP             1 S1                 0.0000
@<TRIPOS>BOND
    1    1    2 1     
    2    1   20 1     
    3    1   21 1     
    4    1   22 1     
    5    2   19 1     
    6    2    3 2     
    7    3    4 1     
    8    3   23 1     
    9    4    5 2     
   10    5    6 1     
   11    5   19 1     
   12    6    7 1     
   13    6    8 1     
   14    6   24 1     
   15    7   25 1     
   16    7   26 1     
   17    7   27 1     
   18    8    9 1     
   19    8   28 1     
   20    8   29 1     
   21    9   10 am    
   22    9   30 1     
   23   10   11 2     
   24   10   12 am    
   25   12   13 1     
   26   12   31 1     
   27   13   18 1     
   28   13   14 1     
   29   13   32 1     
   30   14   15 1     
   31   14   33 1     
   32   14   34 1     
   33   15   16 1     
   34   15   35 1     
   35   15   36 1     
   36   16   17 1     
   37   16   37 1     
   38   16   38 1     
   39   17   18 1     
   40   18   39 1     
   41   18   40 1     
   42    4   41 1     
   43   11   42 1     
   44   11   43 1     
@<TRIPOS>SUBSTRUCTURE
      1 S1             1
@<TRIPOS>SET
LONE_PAIRS      STATIC     ATOMS    <user>   **** ""
3 41 42 43
DONOR_HYDROGENS      STATIC     ATOMS    <user>   **** ""
2 30 31
ATOM$BLUE        STATIC     ATOMS    COLORGROUP SYSTEM
3 41 42 43
ATOM$RED        STATIC     ATOMS    COLORGROUP SYSTEM
2 30 31
