AV-unprocessed.smi:1567|AV-procd|sdf|6307|dock2
  -GOLD-   22720 6503D 1   1.00000     0.00000
 Structure written by MMmdl.
 42 44  0  0  0  0  0  0  0  0  1 V2000
  154.2141  139.4770  158.5650 O   0  0  0  0  0  0  0  0  0  0  0  0
  153.4362  138.4060  158.0770 C   0  0  0  0  0  0  0  0  0  0  0  0
  152.1019  138.9392  157.5340 C   0  0  0  0  0  0  0  0  0  0  0  0
  152.2533  139.9414  156.3747 C   0  0  0  0  0  0  0  0  0  0  0  0
  150.9435  140.3919  155.7877 C   0  0  0  0  0  0  0  0  0  0  0  0
  150.5144  139.9204  154.6158 N   0  0  0  0  0  0  0  0  0  0  0  0
  149.3009  140.5572  154.4518 C   0  0  0  0  0  0  0  0  0  0  0  0
  148.3637  140.4889  153.3962 C   0  0  0  0  0  0  0  0  0  0  0  0
  147.1716  141.2405  153.4506 C   0  0  0  0  0  0  0  0  0  0  0  0
  146.9000  142.0677  154.5594 C   0  0  0  0  0  0  0  0  0  0  0  0
  147.8203  142.1486  155.6221 C   0  0  0  0  0  0  0  0  0  0  0  0
  149.0099  141.3974  155.5625 C   0  0  0  0  0  0  0  0  0  0  0  0
  150.0981  141.2496  156.4186 N   0  0  0  0  0  0  0  0  0  0  0  0
  150.2505  141.8928  157.7178 C   0  0  0  0  0  0  0  0  0  0  0  0
  151.5194  142.7616  157.8146 C   0  0  1  0  0  0  0  0  0  0  0  0
  151.2824  144.0301  157.2331 O   0  0  0  0  0  0  0  0  0  0  0  0
  152.0079  142.8643  159.2526 C   0  0  0  0  0  0  0  0  0  0  0  0
  152.8419  141.8612  159.7953 C   0  0  0  0  0  0  0  0  0  0  0  0
  153.3018  141.9584  161.1226 C   0  0  0  0  0  0  0  0  0  0  0  0
  154.0996  140.9917  161.6344 F   0  0  0  0  0  0  0  0  0  0  0  0
  152.9332  143.0608  161.9168 C   0  0  0  0  0  0  0  0  0  0  0  0
  152.1077  144.0673  161.3807 C   0  0  0  0  0  0  0  0  0  0  0  0
  151.6480  143.9731  160.0524 C   0  0  0  0  0  0  0  0  0  0  0  0
  150.8623  144.9561  159.5501 F   0  0  0  0  0  0  0  0  0  0  0  0
  153.6636  140.0315  159.0967 H   0  0  0  0  0  0  0  0  0  0  0  0
  153.9960  137.9009  157.2903 H   0  0  0  0  0  0  0  0  0  0  0  0
  153.2755  137.6901  158.8838 H   0  0  0  0  0  0  0  0  0  0  0  0
  151.4787  138.1042  157.2108 H   0  0  0  0  0  0  0  0  0  0  0  0
  151.5575  139.4231  158.3458 H   0  0  0  0  0  0  0  0  0  0  0  0
  152.7815  140.8264  156.7306 H   0  0  0  0  0  0  0  0  0  0  0  0
  152.8908  139.4994  155.6112 H   0  0  0  0  0  0  0  0  0  0  0  0
  148.5630  139.8578  152.5430 H   0  0  0  0  0  0  0  0  0  0  0  0
  146.4624  141.1819  152.6381 H   0  0  0  0  0  0  0  0  0  0  0  0
  145.9850  142.6409  154.5937 H   0  0  0  0  0  0  0  0  0  0  0  0
  147.6152  142.7838  156.4709 H   0  0  0  0  0  0  0  0  0  0  0  0
  149.3669  142.5033  157.9069 H   0  0  0  0  0  0  0  0  0  0  0  0
  150.2458  141.1268  158.4933 H   0  0  0  0  0  0  0  0  0  0  0  0
  152.3054  142.3025  157.2193 H   0  0  0  0  0  0  0  0  0  0  0  0
  150.5659  143.9516  156.6219 H   0  0  0  0  0  0  0  0  0  0  0  0
  153.1355  141.0134  159.1934 H   0  0  0  0  0  0  0  0  0  0  0  0
  153.2857  143.1357  162.9349 H   0  0  0  0  0  0  0  0  0  0  0  0
  151.8284  144.9149  161.9890 H   0  0  0  0  0  0  0  0  0  0  0  0
  1  2  1  0  0  0  0
  1 25  1  0  0  0  0
  2  3  1  0  0  0  0
  2 26  1  0  0  0  0
  2 27  1  0  0  0  0
  3  4  1  0  0  0  0
  3 28  1  0  0  0  0
  3 29  1  0  0  0  0
  4  5  1  0  0  0  0
  4 30  1  0  0  0  0
  4 31  1  0  0  0  0
  5 13  1  0  0  0  0
  5  6  2  0  0  0  0
  6  7  1  0  0  0  0
  7 12  2  0  0  0  0
  7  8  1  0  0  0  0
  8  9  2  0  0  0  0
  8 32  1  0  0  0  0
  9 10  1  0  0  0  0
  9 33  1  0  0  0  0
 10 11  2  0  0  0  0
 10 34  1  0  0  0  0
 11 12  1  0  0  0  0
 11 35  1  0  0  0  0
 12 13  1  0  0  0  0
 13 14  1  0  0  0  0
 14 15  1  0  0  0  0
 14 36  1  0  0  0  0
 14 37  1  0  0  0  0
 15 16  1  0  0  0  0
 15 17  1  0  0  0  0
 15 38  1  0  0  0  0
 16 39  1  0  0  0  0
 17 23  1  0  0  0  0
 17 18  2  0  0  0  0
 18 19  1  0  0  0  0
 18 40  1  0  0  0  0
 19 20  1  0  0  0  0
 19 21  2  0  0  0  0
 21 22  1  0  0  0  0
 21 41  1  0  0  0  0
 22 23  2  0  0  0  0
 22 42  1  0  0  0  0
 23 24  1  0  0  0  0
M  END
> <s_m_source_file>
AV-unprocessed.smi

> <i_m_source_file_index>
1567

> <i_lp_mmshare_version>
43012

> <i_f3d_flags>
0

> <s_epik_input>
W09IXVtDSDJdW0NIMl1bQ0gyXWMobjEpbihjKGMxMilbY0hdW2NIXVtjSF1bY0hdMilbQ0gyXVtDQEhdKFtPSF0pYzNbY0hdYyhGKVtjSF1bY0hdYzNG

> <s_epik_cmdline>
J2VwaWtfcHl0aG9uJywgJy1waCcsICc3LjAnLCAnLXRuJywgJzgnLCAnLW1hJywgJzIwMCcsICctbWV0YWxfYmluZGluZycsICctaW1hZScsICc8aW5maWxlLm1hZT4nLCAnLW9tYWUnLCAnPG91dGZpbGUubWFlPic=

> <r_epik_Ionization_Penalty>
0.182562

> <r_epik_Ionization_Penalty_Charging>
0

> <r_epik_Ionization_Penalty_Neutral>
0.182562

> <r_epik_State_Penalty>
0.172086

> <r_epik_Charging_Adjusted_Penalty>
0.172086

> <i_epik_Tot_Q>
0

> <i_epik_Tot_abs_Q>
0

> <r_epik_Metal_State_Penalty>
0.000199649

> <b_epik_Metal_Only>
0

> <s_lp_Force_Field>
OPLS_2005

> <r_lp_Energy>
10.1612

> <b_lp_Chiralities_Consistent>
1

> <s_lp_Variant>
AV-unprocessed.smi:1567-2

> <Gold.Version>
5.8.1

> <Gold.Id.Protein>
6NUR|6NUR_protein|mol2

> <Gold.PLP.Fitness>
61.2596

> <Gold.PLP.PLP>
-54.6603

> <Gold.PLP.part.hbond>
-3.0000

> <Gold.PLP.part.metal>
0.0000

> <Gold.PLP.part.buried>
0.1178

> <Gold.PLP.part.nonpolar>
-51.6700

> <Gold.PLP.part.repulsive>
0.0831

> <Gold.PLP.ligand.clash>
0.0000

> <Gold.PLP.ligand.torsion>
1.1668

> <Gold.PLP.Chemscore.Hbond>
2.9420

> <Gold.PLP.Chemscore.CHOScore>
0.0000

> <Gold.PLP.Chemscore.Metal>
0.0000

> <Gold.Chemscore.Hbonds>
donor molecule, donor type, donor heavy atom, donor atom, acceptor molecule, acceptor atom, score
      L1  H    16    39       P1  8028  0.91
      P1  H  7989  7998       L1     6  0.95
      P1  H  7997  8009       L1     1  1.00

> <Gold.PLP.Chemscore.Internal.Correction>
0.1070

> <Gold.Rescore>
     Score         DG    S(hbond)    S(metal)    S(lipo)     H(rot)  DE(clash)    DE(int)     intcor
     14.33     -19.37       1.93        0.00     134.29       3.23       2.19       2.84       ----

> <Gold.Chemscore.Fitness>
14.3340

> <Gold.Chemscore.DG>
-19.3716

> <Gold.Chemscore.ZeroCoef>
-5.4800

> <Gold.Chemscore.Hbond>
1.9290

> <Gold.Chemscore.Metal>
0.0000

> <Gold.Chemscore.Lipo>
134.2945

> <Gold.Chemscore.Internal_Hbond>
0.0000

> <Gold.Chemscore.DEClash>
2.1940

> <Gold.Chemscore.DEInternal>
2.8436

> <Gold.Chemscore.Rot>
3.2281

> <Gold.Chemscore.Internal.Correction>
   9.000000E+99

> <Gold.Chemscore.Hbonds>
donor molecule, donor type, donor heavy atom, donor atom, acceptor molecule, acceptor atom, score
      L1  H    16    39       P1  8028  0.84
      P1  H  7989  7998       L1     6  0.09
      P1  H  7997  8009       L1     1  0.62

> <Gold.Chemscore.Hbond.Weighted>
-6.4430

> <Gold.Chemscore.Metal.Weighted>
-0.0000

> <Gold.Chemscore.Lipo.Weighted>
-15.7125

> <Gold.Chemscore.Internal_Hbond.Weighted>
0.0000

> <Gold.Chemscore.DEClash.Weighted>
2.1940

> <Gold.Chemscore.DEInternal.Weighted>
2.8436

> <Gold.Chemscore.Rot.Weighted>
8.2639

> <Gold.Chemscore.Internal.Correction.Weighted>
   9.000000E+99

> <Gold.Protein.RotatedTorsions>
[ 6907 6896 6895 6894 ] final  -76.82 input  -60.11 | X-H torsion
[ 7974 7965 7964 7962 ] final  104.70 input  175.53 | X-H torsion
[ 8008 7997 7996 7995 ] final  115.93 input   59.86 | X-H torsion
[ 10167 10162 10161 10158 ] final  178.47 input  -65.29 | X-H torsion
[ 10718 10713 10712 10709 ] final   46.69 input   66.30 | X-H torsion
[ 10763 10752 10751 10750 ] final   22.32 input  -60.55 | X-H torsion
[ 11005 11000 10999 10996 ] final  164.46 input  -57.11 | X-H torsion

> <Gold.Protein.ActiveResidues>
 VAL166  LYS551  ARG553  GLY616  TRP617  ASP618  TYR619  PRO620  LYS621  CYS622 
 ASP623  PHE694  ASN695  SER759  ASP760  ASP761  ALA762  ILE779  LEU786  VAL792 
 PHE793  MET794  SER795  GLU796  ALA797  LYS798  CYS799  TRP800  GLU811  SER814 

> <Gold.Protein.RotatedAtoms>
  150.7016  134.4514  159.5337 H   0  0  0  0  0  0  0  0  0  0  0  0  # atno 6907 bound_to 6896
  152.2206  134.8413  160.0495 H   0  0  0  0  0  0  0  0  0  0  0  0  # atno 6908 bound_to 6896
  151.9265  133.3564  159.3952 H   0  0  0  0  0  0  0  0  0  0  0  0  # atno 6909 bound_to 6896
  145.3293  139.2491  143.3669 H   0  0  0  0  0  0  0  0  0  0  0  0  # atno 7974 bound_to 7965
  156.2410  140.2928  156.0444 H   0  0  0  0  0  0  0  0  0  0  0  0  # atno 8008 bound_to 7997
  155.1951  140.0408  157.2924 H   0  0  0  0  0  0  0  0  0  0  0  0  # atno 8009 bound_to 7997
  154.6168  140.2466  155.7606 H   0  0  0  0  0  0  0  0  0  0  0  0  # atno 8010 bound_to 7997
  139.5295  144.2677  152.0654 H   0  0  0  0  0  0  0  0  0  0  0  0  # atno 10167 bound_to 10162
  157.4507  130.8137  149.7786 H   0  0  0  0  0  0  0  0  0  0  0  0  # atno 10718 bound_to 10713
  153.0925  135.6650  153.9827 H   0  0  0  0  0  0  0  0  0  0  0  0  # atno 10763 bound_to 10752
  153.9420  135.2993  155.3443 H   0  0  0  0  0  0  0  0  0  0  0  0  # atno 10764 bound_to 10752
  154.7341  135.5110  153.9085 H   0  0  0  0  0  0  0  0  0  0  0  0  # atno 10765 bound_to 10752
  140.2461  134.8013  157.3457 H   0  0  0  0  0  0  0  0  0  0  0  0  # atno 11005 bound_to 11000
  146.3052  140.3867  142.8690 LP  0  0  0  0  0  0  0  0  0  0  0  0  # atno 17320 bound_to 7965
  144.8877  140.7483  143.5946 LP  0  0  0  0  0  0  0  0  0  0  0  0  # atno 17321 bound_to 7965
  140.2138  144.4536  150.6373 LP  0  0  0  0  0  0  0  0  0  0  0  0  # atno 17342 bound_to 10162
  140.6463  143.2214  151.6178 LP  0  0  0  0  0  0  0  0  0  0  0  0  # atno 17343 bound_to 10162
  155.9986  130.3893  150.2696 LP  0  0  0  0  0  0  0  0  0  0  0  0  # atno 17370 bound_to 10713
  157.0867  131.0158  151.3136 LP  0  0  0  0  0  0  0  0  0  0  0  0  # atno 17371 bound_to 10713
  140.1604  134.4735  155.7898 LP  0  0  0  0  0  0  0  0  0  0  0  0  # atno 17394 bound_to 11000
  141.2206  133.6899  156.7535 LP  0  0  0  0  0  0  0  0  0  0  0  0  # atno 17395 bound_to 11000

$$$$
