#       Name:                AV-unprocessed.smi:173
#       Creating user name   scv26
#       Creation time:       Thu Mar 26 19:19:35 2020


#       File generated by GOLD software.
#

@<TRIPOS>MOLECULE
AV-unprocessed.smi:173
    70    74     1
SMALL
NO_CHARGES


@<TRIPOS>ATOM
      1 ****        -5.6133  -2.4410  -0.7191 O.3            1 S1                 0.0000
      2 ****        -4.2560  -2.0469  -0.8115 C.3            1 S1                 0.0000
      3 ****        -3.9021  -1.4672   0.5819 C.3            1 S1                 0.0000
      4 ****        -2.5314  -0.9974   0.7075 N.pl3          1 S1                 0.0000
      5 ****        -1.4419  -1.7345   1.1135 C.2            1 S1                 0.0000
      6 ****        -0.3103  -1.0860   1.1419 N.2            1 S1                 0.0000
      7 ****        -0.6456   0.2006   0.7368 C.ar           1 S1                 0.0000
      8 ****         0.0867   1.4050   0.5343 C.ar           1 S1                 0.0000
      9 ****         1.4205   1.5393   0.7247 N.3            1 S1                 0.0000
     10 ****         1.8754   1.1003   2.0448 C.3            1 S1                 0.0000
     11 ****         3.1099   1.8687   2.5440 C.3            1 S1                 0.0000
     12 ****         3.3679   1.6898   4.0368 C.3            1 S1                 0.0000
     13 ****         4.8280   2.0776   4.1657 C.3            1 S1                 0.0000
     14 ****         5.4091   1.7410   2.7897 C.3            1 S1                 0.0000
     15 ****         4.3047   1.3424   1.9843 O.3            1 S1                 0.0000
     16 ****         2.2953   1.3054  -0.4346 C.3            1 S1                 0.0000
     17 ****         1.8380   1.8905  -1.7778 C.3            1 S1                 0.0000
     18 ****         2.7614   1.2156  -2.7954 C.3            1 S1                 0.0000
     19 ****         3.1368  -0.1477  -2.1892 C.3            1 S1                 0.0000
     20 ****         2.5568  -0.1676  -0.7684 C.3            1 S1                 0.0000
     21 ****        -0.6007   2.5059   0.1387 N.ar           1 S1                 0.0000
     22 ****        -1.9194   2.4351  -0.0646 C.ar           1 S1                 0.0000
     23 ****        -2.7296   1.3830   0.0698 N.ar           1 S1                 0.0000
     24 ****        -2.0423   0.2762   0.4743 C.ar           1 S1                 0.0000
     25 ****        -3.4144  -3.2892  -1.1773 C.3            1 S1                 0.0000
     26 ****        -3.7169  -3.7887  -2.6019 C.3            1 S1                 0.0000
     27 ****        -3.5155  -2.7378  -3.5396 O.3            1 S1                 0.0000
     28 ****        -4.3916  -1.6365  -3.3293 C.3            1 S1                 0.0000
     29 ****        -4.1263  -1.0102  -1.9486 C.3            1 S1                 0.0000
     30 ****        -6.1345  -1.6781  -0.5200 H              1 S1                 0.0000
     31 ****        -4.5666  -0.6363   0.8243 H              1 S1                 0.0000
     32 ****        -4.0681  -2.2211   1.3533 H              1 S1                 0.0000
     33 ****        -1.5124  -2.7789   1.3810 H              1 S1                 0.0000
     34 ****         1.0663   1.2588   2.7601 H              1 S1                 0.0000
     35 ****         2.0761   0.0286   2.0398 H              1 S1                 0.0000
     36 ****         3.0287   2.9324   2.3110 H              1 S1                 0.0000
     37 ****         2.7094   2.2959   4.6594 H              1 S1                 0.0000
     38 ****         3.2368   0.6443   4.3199 H              1 S1                 0.0000
     39 ****         4.9185   3.1475   4.3570 H              1 S1                 0.0000
     40 ****         5.3279   1.5467   4.9762 H              1 S1                 0.0000
     41 ****         5.8963   2.6120   2.3502 H              1 S1                 0.0000
     42 ****         6.1387   0.9326   2.8407 H              1 S1                 0.0000
     43 ****         3.2544   1.7723  -0.2117 H              1 S1                 0.0000
     44 ****         0.8107   1.6064  -2.0089 H              1 S1                 0.0000
     45 ****         1.9019   2.9785  -1.8085 H              1 S1                 0.0000
     46 ****         2.2866   1.1174  -3.7720 H              1 S1                 0.0000
     47 ****         3.6620   1.8163  -2.9293 H              1 S1                 0.0000
     48 ****         2.7409  -0.9736  -2.7813 H              1 S1                 0.0000
     49 ****         4.2216  -0.2575  -2.1625 H              1 S1                 0.0000
     50 ****         3.2255  -0.6474  -0.0531 H              1 S1                 0.0000
     51 ****         1.6232  -0.7292  -0.7777 H              1 S1                 0.0000
     52 ****        -2.3926   3.3525  -0.3822 H              1 S1                 0.0000
     53 ****        -2.3533  -3.0457  -1.1311 H              1 S1                 0.0000
     54 ****        -3.5782  -4.0903  -0.4554 H              1 S1                 0.0000
     55 ****        -3.0517  -4.6145  -2.8548 H              1 S1                 0.0000
     56 ****        -4.7359  -4.1706  -2.6796 H              1 S1                 0.0000
     57 ****        -4.2183  -0.8977  -4.1118 H              1 S1                 0.0000
     58 ****        -5.4296  -1.9584  -3.4248 H              1 S1                 0.0000
     59 ****        -4.7997  -0.1689  -1.7807 H              1 S1                 0.0000
     60 ****        -3.1173  -0.5986  -1.9618 H              1 S1                 0.0000
     61 ****        -5.7186  -3.1203   0.0072 LP             1 S1                 0.0000
     62 ****        -5.9102  -2.8346  -1.5891 LP             1 S1                 0.0000
     63 ****         0.5916  -1.4347   1.3968 LP             1 S1                 0.0000
     64 ****         1.5615   2.5281   0.7722 LP             1 S1                 0.0000
     65 ****         4.4230   1.6938   1.0556 LP             1 S1                 0.0000
     66 ****         4.2515   0.3441   1.9587 LP             1 S1                 0.0000
     67 ****        -0.1197   3.3714  -0.0009 LP             1 S1                 0.0000
     68 ****        -3.7142   1.4034  -0.1037 LP             1 S1                 0.0000
     69 ****        -3.6690  -3.0971  -4.4601 LP             1 S1                 0.0000
     70 ****        -2.5722  -2.4154  -3.4606 LP             1 S1                 0.0000
@<TRIPOS>BOND
    1    1    2 1     
    2    1   30 1     
    3    2   29 1     
    4    2    3 1     
    5    2   25 1     
    6    3    4 1     
    7    3   31 1     
    8    3   32 1     
    9    4   24 1     
   10    4    5 1     
   11    5    6 2     
   12    5   33 1     
   13    6    7 1     
   14    7   24 ar    
   15    7    8 ar    
   16    8    9 1     
   17    8   21 ar    
   18    9   10 1     
   19    9   16 1     
   20   10   11 1     
   21   10   34 1     
   22   10   35 1     
   23   11   15 1     
   24   11   12 1     
   25   11   36 1     
   26   12   13 1     
   27   12   37 1     
   28   12   38 1     
   29   13   14 1     
   30   13   39 1     
   31   13   40 1     
   32   14   15 1     
   33   14   41 1     
   34   14   42 1     
   35   16   20 1     
   36   16   17 1     
   37   16   43 1     
   38   17   18 1     
   39   17   44 1     
   40   17   45 1     
   41   18   19 1     
   42   18   46 1     
   43   18   47 1     
   44   19   20 1     
   45   19   48 1     
   46   19   49 1     
   47   20   50 1     
   48   20   51 1     
   49   21   22 ar    
   50   22   23 ar    
   51   22   52 1     
   52   23   24 ar    
   53   25   26 1     
   54   25   53 1     
   55   25   54 1     
   56   26   27 1     
   57   26   55 1     
   58   26   56 1     
   59   27   28 1     
   60   28   29 1     
   61   28   57 1     
   62   28   58 1     
   63   29   59 1     
   64   29   60 1     
   65    1   61 1     
   66    1   62 1     
   67    6   63 1     
   68    9   64 1     
   69   15   65 1     
   70   15   66 1     
   71   21   67 1     
   72   23   68 1     
   73   27   69 1     
   74   27   70 1     
@<TRIPOS>SUBSTRUCTURE
      1 S1             1
@<TRIPOS>SET
LONE_PAIRS      STATIC     ATOMS    <user>   **** ""
10 61 62 63 64 65 66 67 68 69 70
DONOR_HYDROGENS      STATIC     ATOMS    <user>   **** ""
1 30
ATOM$BLUE        STATIC     ATOMS    COLORGROUP SYSTEM
10 61 62 63 64 65 66 67 68 69 70
ATOM$RED        STATIC     ATOMS    COLORGROUP SYSTEM
1 30
