AV-unprocessed.smi:196|AV-procd|sdf|1533|dock4
  -GOLD-   2262019383D 1   1.00000     0.00000
 Structure written by MMmdl.
 47 50  0  0  0  0  0  0  0  0  1 V2000
  145.8236  130.3617  153.0588 C   0  0  0  0  0  0  0  0  0  0  0  0
  145.7993  131.6362  152.1991 C   0  0  1  0  0  0  0  0  0  0  0  0
  144.6180  131.6824  151.3996 O   0  0  0  0  0  0  0  0  0  0  0  0
  143.8961  132.8773  151.6621 C   0  0  0  0  0  0  0  0  0  0  0  0
  144.9578  133.8646  152.1289 C   0  0  0  0  0  0  0  0  0  0  0  0
  145.8861  132.9839  152.9536 C   0  0  1  0  0  0  0  0  0  0  0  0
  145.3455  132.8691  154.2607 O   0  0  0  0  0  0  0  0  0  0  0  0
  147.3314  133.5241  153.0655 C   0  0  0  0  0  0  0  0  0  0  0  0
  148.1910  132.7043  153.9050 N   0  0  0  0  0  0  0  0  0  0  0  0
  148.5734  131.4020  153.6709 C   0  0  0  0  0  0  0  0  0  0  0  0
  149.3567  130.8797  154.5752 N   0  0  0  0  0  0  0  0  0  0  0  0
  149.5206  131.8976  155.5057 C   0  0  0  0  0  0  0  0  0  0  0  0
  150.2389  132.0144  156.7240 C   0  0  0  0  0  0  0  0  0  0  0  0
  150.9832  130.9981  157.2188 N   0  0  0  0  0  0  0  0  0  0  0  0
  151.6458  131.2769  158.4912 C   0  0  0  0  0  0  0  0  0  0  0  0
  153.1411  131.1762  158.2099 C   0  0  1  0  0  0  0  0  0  0  0  0
  153.8482  130.8472  159.2906 F   0  0  0  0  0  0  0  0  0  0  0  0
  153.1954  130.1098  157.1268 C   0  0  0  0  0  0  0  0  0  0  0  0
  151.9524  130.4176  156.2752 C   0  0  1  0  0  0  0  0  0  0  0  0
  151.4472  129.1644  155.5372 C   0  0  0  0  0  0  0  0  0  0  0  0
  152.2840  128.5125  154.7238 N   0  0  0  0  0  0  0  0  0  0  0  0
  150.2924  128.7814  155.7107 O   0  0  0  0  0  0  0  0  0  0  0  0
  150.1624  133.1928  157.3978 N   0  0  0  0  0  0  0  0  0  0  0  0
  149.4314  134.1972  156.9041 C   0  0  0  0  0  0  0  0  0  0  0  0
  148.7148  134.2334  155.7783 N   0  0  0  0  0  0  0  0  0  0  0  0
  148.7889  133.0497  155.1044 C   0  0  0  0  0  0  0  0  0  0  0  0
  153.5256  132.1243  157.8312 H   0  0  0  0  0  0  0  0  0  0  0  0
  152.2290  131.1549  155.5184 H   0  0  0  0  0  0  0  0  0  0  0  0
  146.7214  130.3224  153.6761 H   0  0  0  0  0  0  0  0  0  0  0  0
  145.8153  129.4721  152.4289 H   0  0  0  0  0  0  0  0  0  0  0  0
  144.9564  130.3027  153.7170 H   0  0  0  0  0  0  0  0  0  0  0  0
  146.6251  131.5779  151.4888 H   0  0  0  0  0  0  0  0  0  0  0  0
  143.3579  133.2224  150.7792 H   0  0  0  0  0  0  0  0  0  0  0  0
  143.1695  132.6891  152.4538 H   0  0  0  0  0  0  0  0  0  0  0  0
  145.4861  134.2582  151.2593 H   0  0  0  0  0  0  0  0  0  0  0  0
  144.5442  134.7094  152.6814 H   0  0  0  0  0  0  0  0  0  0  0  0
  144.4736  132.5104  154.1955 H   0  0  0  0  0  0  0  0  0  0  0  0
  147.7841  133.6033  152.0762 H   0  0  0  0  0  0  0  0  0  0  0  0
  147.3260  134.5335  153.4790 H   0  0  0  0  0  0  0  0  0  0  0  0
  148.2545  130.8489  152.7993 H   0  0  0  0  0  0  0  0  0  0  0  0
  151.3819  132.2409  158.9302 H   0  0  0  0  0  0  0  0  0  0  0  0
  151.3392  130.5062  159.1995 H   0  0  0  0  0  0  0  0  0  0  0  0
  154.1207  130.1455  156.5512 H   0  0  0  0  0  0  0  0  0  0  0  0
  153.1207  129.1202  157.5822 H   0  0  0  0  0  0  0  0  0  0  0  0
  151.9665  127.6906  154.2299 H   0  0  0  0  0  0  0  0  0  0  0  0
  153.2293  128.8462  154.6035 H   0  0  0  0  0  0  0  0  0  0  0  0
  149.4194  135.1012  157.4951 H   0  0  0  0  0  0  0  0  0  0  0  0
  1  2  1  0  0  0  0
  1 29  1  0  0  0  0
  1 30  1  0  0  0  0
  1 31  1  0  0  0  0
  2  6  1  0  0  0  0
  2  3  1  0  0  0  0
  2 32  1  0  0  0  0
  3  4  1  0  0  0  0
  4  5  1  0  0  0  0
  4 33  1  0  0  0  0
  4 34  1  0  0  0  0
  5  6  1  0  0  0  0
  5 35  1  0  0  0  0
  5 36  1  0  0  0  0
  6  7  1  0  0  0  0
  6  8  1  0  0  0  0
  7 37  1  0  0  0  0
  8  9  1  0  0  0  0
  8 38  1  0  0  0  0
  8 39  1  0  0  0  0
  9 26  1  0  0  0  0
  9 10  1  0  0  0  0
 10 11  2  0  0  0  0
 10 40  1  0  0  0  0
 11 12  1  0  0  0  0
 12 26  2  0  0  0  0
 12 13  1  0  0  0  0
 13 14  1  0  0  0  0
 13 23  2  0  0  0  0
 14 19  1  0  0  0  0
 14 15  1  0  0  0  0
 15 16  1  0  0  0  0
 15 41  1  0  0  0  0
 15 42  1  0  0  0  0
 16 27  1  0  0  0  0
 16 17  1  0  0  0  0
 16 18  1  0  0  0  0
 18 19  1  0  0  0  0
 18 43  1  0  0  0  0
 18 44  1  0  0  0  0
 19 28  1  0  0  0  0
 19 20  1  0  0  0  0
 20 21  1  0  0  0  0
 20 22  2  0  0  0  0
 21 45  1  0  0  0  0
 21 46  1  0  0  0  0
 23 24  1  0  0  0  0
 24 25  2  0  0  0  0
 24 47  1  0  0  0  0
 25 26  1  0  0  0  0
M  END
> <s_m_source_file>
AV-unprocessed.smi

> <i_m_source_file_index>
196

> <i_lp_mmshare_version>
43012

> <i_f3d_flags>
0

> <s_epik_input>
W0NIMl0xW0NIMl1PW0NAQEhdKFtDSDNdKVtDQEBdMShbT0hdKVtDSDJdbihbY0hdbjIpYyhjMjMpbltjSF1uYzNONFtDSDJdW0NASF0oRilbQ0gyXVtDQEhdNEMoPU8pW05IMl0=

> <s_epik_cmdline>
J2VwaWtfcHl0aG9uJywgJy1waCcsICc3LjAnLCAnLXRuJywgJzgnLCAnLW1hJywgJzIwMCcsICctbWV0YWxfYmluZGluZycsICctaW1hZScsICc8aW5maWxlLm1hZT4nLCAnLW9tYWUnLCAnPG91dGZpbGUubWFlPic=

> <r_lp_tautomer_probability>
1

> <r_epik_Ionization_Penalty>
0.000857933

> <r_epik_Ionization_Penalty_Charging>
0

> <r_epik_Ionization_Penalty_Neutral>
0.000857933

> <r_epik_State_Penalty>
0.000462053

> <r_epik_Charging_Adjusted_Penalty>
0.000462053

> <i_epik_Tot_Q>
0

> <i_epik_Tot_abs_Q>
0

> <r_epik_Metal_State_Penalty>
-0

> <b_epik_Metal_Only>
0

> <s_lp_Force_Field>
OPLS_2005

> <r_lp_Energy>
45.9197

> <b_lp_Chiralities_Consistent>
1

> <s_lp_Variant>
AV-unprocessed.smi:196-6

> <Gold.Version>
5.8.1

> <Gold.Id.Protein>
6NUR|6NUR_protein|mol2

> <Gold.PLP.Fitness>
41.8118

> <Gold.PLP.PLP>
-30.6101

> <Gold.PLP.part.hbond>
-3.0000

> <Gold.PLP.part.metal>
0.0000

> <Gold.PLP.part.buried>
-3.4930

> <Gold.PLP.part.nonpolar>
-25.1915

> <Gold.PLP.part.repulsive>
0.3478

> <Gold.PLP.ligand.clash>
0.0000

> <Gold.PLP.ligand.torsion>
0.1273

> <Gold.PLP.Chemscore.Hbond>
2.7885

> <Gold.PLP.Chemscore.CHOScore>
1.0000

> <Gold.PLP.Chemscore.Metal>
0.0000

> <Gold.Chemscore.Hbonds>
donor molecule, donor type, donor heavy atom, donor atom, acceptor molecule, acceptor atom, score
      L1  H     7    37       P1 10957  1.00
      P1  H  6896  6908       L1    23  1.00
      L1  C    10    40       P1 10747  0.81

> <Gold.PLP.Chemscore.Internal.Correction>
0.0909

> <Gold.Rescore>
     Score         DG    S(hbond)    S(metal)    S(lipo)     H(rot)  DE(clash)    DE(int)     intcor
      8.07     -11.37       2.42        0.00      47.92       3.04       0.07       3.22       ----

> <Gold.Chemscore.Fitness>
8.0723

> <Gold.Chemscore.DG>
-11.3695

> <Gold.Chemscore.ZeroCoef>
-5.4800

> <Gold.Chemscore.Hbond>
2.4156

> <Gold.Chemscore.Metal>
0.0000

> <Gold.Chemscore.Lipo>
47.9232

> <Gold.Chemscore.Internal_Hbond>
0.0000

> <Gold.Chemscore.DEClash>
0.0750

> <Gold.Chemscore.DEInternal>
3.2223

> <Gold.Chemscore.Rot>
3.0413

> <Gold.Chemscore.Internal.Correction>
   9.000000E+99

> <Gold.Chemscore.Hbonds>
donor molecule, donor type, donor heavy atom, donor atom, acceptor molecule, acceptor atom, score
      L1  H     7    37       P1 10957  0.61
      L1  H    21    45       P1 10737  0.01
      P1  H  6896  6908       L1    23  0.80

> <Gold.Chemscore.Hbond.Weighted>
-8.0682

> <Gold.Chemscore.Metal.Weighted>
-0.0000

> <Gold.Chemscore.Lipo.Weighted>
-5.6070

> <Gold.Chemscore.Internal_Hbond.Weighted>
0.0000

> <Gold.Chemscore.DEClash.Weighted>
0.0750

> <Gold.Chemscore.DEInternal.Weighted>
3.2223

> <Gold.Chemscore.Rot.Weighted>
7.7856

> <Gold.Chemscore.Internal.Correction.Weighted>
   9.000000E+99

> <Gold.Protein.RotatedTorsions>
[ 6907 6896 6895 6894 ] final  105.43 input  -60.11 | X-H torsion
[ 7974 7965 7964 7962 ] final -146.20 input  175.53 | X-H torsion
[ 8008 7997 7996 7995 ] final  125.26 input   59.86 | X-H torsion
[ 10167 10162 10161 10158 ] final  130.72 input  -65.29 | X-H torsion
[ 10718 10713 10712 10709 ] final  -22.47 input   66.30 | X-H torsion
[ 10763 10752 10751 10750 ] final -161.44 input  -60.55 | X-H torsion
[ 11005 11000 10999 10996 ] final -178.62 input  -57.11 | X-H torsion

> <Gold.Protein.ActiveResidues>
 VAL166  LYS551  ARG553  GLY616  TRP617  ASP618  TYR619  PRO620  LYS621  CYS622 
 ASP623  PHE694  ASN695  SER759  ASP760  ASP761  ALA762  ILE779  LEU786  VAL792 
 PHE793  MET794  SER795  GLU796  ALA797  LYS798  CYS799  TRP800  GLU811  SER814 

> <Gold.Protein.RotatedAtoms>
  152.5230  133.9530  159.7680 H   0  0  0  0  0  0  0  0  0  0  0  0  # atno 6907 bound_to 6896
  150.9836  133.6212  159.2726 H   0  0  0  0  0  0  0  0  0  0  0  0  # atno 6908 bound_to 6896
  151.3381  135.0863  159.9414 H   0  0  0  0  0  0  0  0  0  0  0  0  # atno 6909 bound_to 6896
  144.8176  140.5487  143.5600 H   0  0  0  0  0  0  0  0  0  0  0  0  # atno 7974 bound_to 7965
  156.2828  140.2720  156.1921 H   0  0  0  0  0  0  0  0  0  0  0  0  # atno 8008 bound_to 7997
  155.0448  140.0386  157.2540 H   0  0  0  0  0  0  0  0  0  0  0  0  # atno 8009 bound_to 7997
  154.7244  140.2694  155.6517 H   0  0  0  0  0  0  0  0  0  0  0  0  # atno 8010 bound_to 7997
  139.5417  144.6736  151.4604 H   0  0  0  0  0  0  0  0  0  0  0  0  # atno 10167 bound_to 10162
  156.5040  130.4594  149.6685 H   0  0  0  0  0  0  0  0  0  0  0  0  # atno 10718 bound_to 10713
  154.7303  135.3045  154.8902 H   0  0  0  0  0  0  0  0  0  0  0  0  # atno 10763 bound_to 10752
  153.9747  135.6737  153.4752 H   0  0  0  0  0  0  0  0  0  0  0  0  # atno 10764 bound_to 10752
  153.0912  135.4958  154.8614 H   0  0  0  0  0  0  0  0  0  0  0  0  # atno 10765 bound_to 10752
  140.4278  134.6547  157.4696 H   0  0  0  0  0  0  0  0  0  0  0  0  # atno 11005 bound_to 11000
  145.5180  139.1477  143.3568 LP  0  0  0  0  0  0  0  0  0  0  0  0  # atno 17320 bound_to 7965
  146.2479  140.5320  142.8906 LP  0  0  0  0  0  0  0  0  0  0  0  0  # atno 17321 bound_to 7965
  140.6649  143.8419  150.6930 LP  0  0  0  0  0  0  0  0  0  0  0  0  # atno 17342 bound_to 10162
  140.1825  143.4103  152.1922 LP  0  0  0  0  0  0  0  0  0  0  0  0  # atno 17343 bound_to 10162
  156.3304  130.7328  151.2257 LP  0  0  0  0  0  0  0  0  0  0  0  0  # atno 17370 bound_to 10713
  157.7459  131.0431  150.4728 LP  0  0  0  0  0  0  0  0  0  0  0  0  # atno 17371 bound_to 10713
  140.0155  134.6625  155.9316 LP  0  0  0  0  0  0  0  0  0  0  0  0  # atno 17394 bound_to 11000
  141.1758  133.6540  156.4823 LP  0  0  0  0  0  0  0  0  0  0  0  0  # atno 17395 bound_to 11000

$$$$
