AV-unprocessed.smi:2976|AV-procd|sdf|11362|dock5
  -GOLD-   2272016283D 1   1.00000     0.00000
 Structure written by MMmdl.
 40 41  0  0  0  0  0  0  0  0  1 V2000
  154.6761  141.3418  159.8856 C   0  0  0  0  0  0  0  0  0  0  0  0
  153.2271  141.5137  160.3858 C   0  0  1  0  0  0  0  0  0  0  0  0
  152.8604  143.0010  160.5656 C   0  0  0  0  0  0  0  0  0  0  0  0
  152.6604  143.7168  159.2206 C   0  0  0  0  0  0  0  0  0  0  0  0
  151.6069  143.0012  158.3642 C   0  0  0  0  0  0  0  0  0  0  0  0
  151.9508  141.5141  158.1544 C   0  0  2  0  0  0  0  0  0  0  0  0
  150.8699  140.8871  157.3948 N   0  0  0  0  0  0  0  0  0  0  0  0
  150.9878  140.2991  156.1941 C   0  0  0  0  0  0  0  0  0  0  0  0
  152.0446  140.2449  155.5640 O   0  0  0  0  0  0  0  0  0  0  0  0
  149.7040  139.6863  155.6169 C   0  0  0  0  0  0  0  0  0  0  0  0
  148.6113  140.6606  155.4790 N   0  0  0  0  0  0  0  0  0  0  0  0
  148.2878  140.9654  154.1685 N   0  0  0  0  0  0  0  0  0  0  0  0
  147.3390  141.8033  153.9279 C   0  0  0  0  0  0  0  0  0  0  0  0
  146.5927  142.4472  154.9861 C   0  0  0  0  0  0  0  0  0  0  0  0
  145.3304  143.5635  154.6020 Cl  0  0  0  0  0  0  0  0  0  0  0  0
  146.9203  142.1443  156.2674 C   0  0  0  0  0  0  0  0  0  0  0  0
  146.0726  142.8745  157.5873 Cl  0  0  0  0  0  0  0  0  0  0  0  0
  147.9976  141.1951  156.5799 C   0  0  0  0  0  0  0  0  0  0  0  0
  148.3294  140.8992  157.7286 O   0  0  0  0  0  0  0  0  0  0  0  0
  152.1642  140.7934  159.5131 C   0  0  1  0  0  0  0  0  0  0  0  0
  152.4529  139.2857  159.3660 C   0  0  0  0  0  0  0  0  0  0  0  0
  154.8095  141.7163  158.8712 H   0  0  0  0  0  0  0  0  0  0  0  0
  154.9815  140.2958  159.8941 H   0  0  0  0  0  0  0  0  0  0  0  0
  155.3741  141.8800  160.5273 H   0  0  0  0  0  0  0  0  0  0  0  0
  153.1932  141.0612  161.3779 H   0  0  0  0  0  0  0  0  0  0  0  0
  151.9403  143.0752  161.1466 H   0  0  0  0  0  0  0  0  0  0  0  0
  153.6263  143.5121  161.1500 H   0  0  0  0  0  0  0  0  0  0  0  0
  152.3551  144.7490  159.3939 H   0  0  0  0  0  0  0  0  0  0  0  0
  153.6050  143.7659  158.6783 H   0  0  0  0  0  0  0  0  0  0  0  0
  150.6331  143.0902  158.8482 H   0  0  0  0  0  0  0  0  0  0  0  0
  151.5177  143.5036  157.4003 H   0  0  0  0  0  0  0  0  0  0  0  0
  152.8782  141.4650  157.5821 H   0  0  0  0  0  0  0  0  0  0  0  0
  149.9590  140.8825  157.8302 H   0  0  0  0  0  0  0  0  0  0  0  0
  149.9134  139.2296  154.6476 H   0  0  0  0  0  0  0  0  0  0  0  0
  149.4021  138.8645  156.2686 H   0  0  0  0  0  0  0  0  0  0  0  0
  147.0482  142.0724  152.9124 H   0  0  0  0  0  0  0  0  0  0  0  0
  151.2225  140.8656  160.0602 H   0  0  0  0  0  0  0  0  0  0  0  0
  153.3028  139.1020  158.7082 H   0  0  0  0  0  0  0  0  0  0  0  0
  151.5975  138.7538  158.9494 H   0  0  0  0  0  0  0  0  0  0  0  0
  152.6718  138.8308  160.3322 H   0  0  0  0  0  0  0  0  0  0  0  0
  1  2  1  0  0  0  0
  1 22  1  0  0  0  0
  1 23  1  0  0  0  0
  1 24  1  0  0  0  0
  2 20  1  0  0  0  0
  2  3  1  0  0  0  0
  2 25  1  0  0  0  0
  3  4  1  0  0  0  0
  3 26  1  0  0  0  0
  3 27  1  0  0  0  0
  4  5  1  0  0  0  0
  4 28  1  0  0  0  0
  4 29  1  0  0  0  0
  5  6  1  0  0  0  0
  5 30  1  0  0  0  0
  5 31  1  0  0  0  0
  6  7  1  0  0  0  0
  6 20  1  0  0  0  0
  6 32  1  0  0  0  0
  7  8  1  0  0  0  0
  7 33  1  0  0  0  0
  8  9  2  0  0  0  0
  8 10  1  0  0  0  0
 10 11  1  0  0  0  0
 10 34  1  0  0  0  0
 10 35  1  0  0  0  0
 11 18  1  0  0  0  0
 11 12  1  0  0  0  0
 12 13  2  0  0  0  0
 13 14  1  0  0  0  0
 13 36  1  0  0  0  0
 14 15  1  0  0  0  0
 14 16  2  0  0  0  0
 16 17  1  0  0  0  0
 16 18  1  0  0  0  0
 18 19  2  0  0  0  0
 20 21  1  0  0  0  0
 20 37  1  0  0  0  0
 21 38  1  0  0  0  0
 21 39  1  0  0  0  0
 21 40  1  0  0  0  0
M  END
> <s_m_source_file>
AV-unprocessed.smi

> <i_m_source_file_index>
2976

> <i_lp_mmshare_version>
43012

> <i_f3d_flags>
0

> <s_epik_input>
W0NIM11bQ0BASF0xW0NIMl1bQ0gyXVtDSDJdW0NASF0oW0NASF0xW0NIM10pW05IXUMoPU8pW0NIMl1uMm5bY0hdYyhDbCljKENsKWMyPU8=

> <s_epik_cmdline>
J2VwaWtfcHl0aG9uJywgJy1waCcsICc3LjAnLCAnLXRuJywgJzgnLCAnLW1hJywgJzIwMCcsICctbWV0YWxfYmluZGluZycsICctaW1hZScsICc8aW5maWxlLm1hZT4nLCAnLW9tYWUnLCAnPG91dGZpbGUubWFlPic=

> <r_lp_tautomer_probability>
1

> <r_epik_Ionization_Penalty>
1.90777e-08

> <r_epik_Ionization_Penalty_Charging>
3.07942e-11

> <r_epik_Ionization_Penalty_Neutral>
1.90469e-08

> <r_epik_State_Penalty>
-0

> <r_epik_Charging_Adjusted_Penalty>
3.07942e-11

> <i_epik_Tot_Q>
0

> <i_epik_Tot_abs_Q>
0

> <r_epik_Metal_State_Penalty>
-0

> <b_epik_Metal_Only>
0

> <s_lp_Force_Field>
OPLS_2005

> <r_lp_Energy>
28.0936

> <b_lp_Chiralities_Consistent>
1

> <s_lp_Variant>
AV-unprocessed.smi:2976-4

> <Gold.Version>
5.8.1

> <Gold.Id.Protein>
6NUR|6NUR_protein|mol2

> <Gold.PLP.Fitness>
44.2410

> <Gold.PLP.PLP>
-41.1280

> <Gold.PLP.part.hbond>
-1.4876

> <Gold.PLP.part.metal>
0.0000

> <Gold.PLP.part.buried>
-5.3462

> <Gold.PLP.part.nonpolar>
-34.6484

> <Gold.PLP.part.repulsive>
1.3868

> <Gold.PLP.ligand.clash>
0.0000

> <Gold.PLP.ligand.torsion>
0.0819

> <Gold.PLP.Chemscore.Hbond>
1.0906

> <Gold.PLP.Chemscore.CHOScore>
0.0000

> <Gold.PLP.Chemscore.Metal>
0.0000

> <Gold.Chemscore.Hbonds>
donor molecule, donor type, donor heavy atom, donor atom, acceptor molecule, acceptor atom, score
      P1  H  7989  7998       L1     9  0.46
      P1  H  7997  8010       L1     9  0.11

> <Gold.PLP.Chemscore.Internal.Correction>
0.0051

> <Gold.Rescore>
     Score         DG    S(hbond)    S(metal)    S(lipo)     H(rot)  DE(clash)    DE(int)     intcor
     15.88     -16.63       0.78        0.00     105.43       1.49       0.35       0.40       ----

> <Gold.Chemscore.Fitness>
15.8767

> <Gold.Chemscore.DG>
-16.6291

> <Gold.Chemscore.ZeroCoef>
-5.4800

> <Gold.Chemscore.Hbond>
0.7844

> <Gold.Chemscore.Metal>
0.0000

> <Gold.Chemscore.Lipo>
105.4266

> <Gold.Chemscore.Internal_Hbond>
0.0000

> <Gold.Chemscore.DEClash>
0.3485

> <Gold.Chemscore.DEInternal>
0.4039

> <Gold.Chemscore.Rot>
1.4866

> <Gold.Chemscore.Internal.Correction>
   9.000000E+99

> <Gold.Chemscore.Hbonds>
donor molecule, donor type, donor heavy atom, donor atom, acceptor molecule, acceptor atom, score
      P1  H  7989  7998       L1     9  0.31
      P1  H  7997  8010       L1     9  0.14

> <Gold.Chemscore.Hbond.Weighted>
-2.6198

> <Gold.Chemscore.Metal.Weighted>
-0.0000

> <Gold.Chemscore.Lipo.Weighted>
-12.3349

> <Gold.Chemscore.Internal_Hbond.Weighted>
0.0000

> <Gold.Chemscore.DEClash.Weighted>
0.3485

> <Gold.Chemscore.DEInternal.Weighted>
0.4039

> <Gold.Chemscore.Rot.Weighted>
3.8057

> <Gold.Chemscore.Internal.Correction.Weighted>
   9.000000E+99

> <Gold.Protein.RotatedTorsions>
[ 6907 6896 6895 6894 ] final  137.29 input  -60.11 | X-H torsion
[ 7974 7965 7964 7962 ] final  -25.49 input  175.53 | X-H torsion
[ 8008 7997 7996 7995 ] final   92.27 input   59.86 | X-H torsion
[ 10167 10162 10161 10158 ] final  -44.30 input  -65.29 | X-H torsion
[ 10718 10713 10712 10709 ] final  -92.03 input   66.30 | X-H torsion
[ 10763 10752 10751 10750 ] final   40.23 input  -60.55 | X-H torsion
[ 11005 11000 10999 10996 ] final -166.58 input  -57.11 | X-H torsion

> <Gold.Protein.ActiveResidues>
 VAL166  LYS551  ARG553  GLY616  TRP617  ASP618  TYR619  PRO620  LYS621  CYS622 
 ASP623  PHE694  ASN695  SER759  ASP760  ASP761  ALA762  ILE779  LEU786  VAL792 
 PHE793  MET794  SER795  GLU796  ALA797  LYS798  CYS799  TRP800  GLU811  SER814 

> <Gold.Protein.RotatedAtoms>
  152.2797  133.5459  159.5489 H   0  0  0  0  0  0  0  0  0  0  0  0  # atno 6907 bound_to 6896
  150.7191  134.0582  159.3831 H   0  0  0  0  0  0  0  0  0  0  0  0  # atno 6908 bound_to 6896
  151.8493  135.0563  160.0508 H   0  0  0  0  0  0  0  0  0  0  0  0  # atno 6909 bound_to 6896
  146.1487  140.4893  142.8620 H   0  0  0  0  0  0  0  0  0  0  0  0  # atno 7974 bound_to 7965
  156.0334  140.3327  155.7164 H   0  0  0  0  0  0  0  0  0  0  0  0  # atno 8008 bound_to 7997
  155.5851  140.0641  157.2791 H   0  0  0  0  0  0  0  0  0  0  0  0  # atno 8009 bound_to 7997
  154.4362  140.1837  156.1005 H   0  0  0  0  0  0  0  0  0  0  0  0  # atno 8010 bound_to 7997
  140.6902  143.2937  151.3476 H   0  0  0  0  0  0  0  0  0  0  0  0  # atno 10167 bound_to 10162
  155.9998  130.4971  150.5564 H   0  0  0  0  0  0  0  0  0  0  0  0  # atno 10718 bound_to 10713
  152.9942  135.6197  154.2593 H   0  0  0  0  0  0  0  0  0  0  0  0  # atno 10763 bound_to 10752
  154.2330  135.2791  155.2884 H   0  0  0  0  0  0  0  0  0  0  0  0  # atno 10764 bound_to 10752
  154.5434  135.5754  153.6916 H   0  0  0  0  0  0  0  0  0  0  0  0  # atno 10765 bound_to 10752
  140.5629  134.5315  157.5147 H   0  0  0  0  0  0  0  0  0  0  0  0  # atno 11005 bound_to 11000
  144.7878  140.5971  143.6562 LP  0  0  0  0  0  0  0  0  0  0  0  0  # atno 17320 bound_to 7965
  145.4874  139.1491  143.3728 LP  0  0  0  0  0  0  0  0  0  0  0  0  # atno 17321 bound_to 7965
  139.6297  144.0745  152.2465 LP  0  0  0  0  0  0  0  0  0  0  0  0  # atno 17342 bound_to 10162
  140.0216  144.6149  150.7562 LP  0  0  0  0  0  0  0  0  0  0  0  0  # atno 17343 bound_to 10162
  157.3479  131.0728  151.1736 LP  0  0  0  0  0  0  0  0  0  0  0  0  # atno 17370 bound_to 10713
  157.2562  130.6637  149.5954 LP  0  0  0  0  0  0  0  0  0  0  0  0  # atno 17371 bound_to 10713
  139.9399  134.7806  156.0706 LP  0  0  0  0  0  0  0  0  0  0  0  0  # atno 17394 bound_to 11000
  141.1103  133.6645  156.2963 LP  0  0  0  0  0  0  0  0  0  0  0  0  # atno 17395 bound_to 11000

$$$$
