AV-unprocessed.smi:955|AV-procd|sdf|4262|dock2
  -GOLD-   22720 2173D 1   1.00000     0.00000
 Structure written by MMmdl.
 29 29  0  0  0  0  0  0  0  0  1 V2000
  148.8212  141.3858  154.4220 C   0  0  0  0  0  0  0  0  0  0  0  0
  150.1341  140.6537  154.7454 C   0  0  1  0  0  0  0  0  0  0  0  0
  150.4722  140.9306  156.1403 N   0  0  0  0  0  0  0  0  0  0  0  0
  151.5902  140.5237  156.7638 C   0  0  0  0  0  0  0  0  0  0  0  0
  152.4688  139.8662  156.2042 O   0  0  0  0  0  0  0  0  0  0  0  0
  151.7278  140.9226  158.2415 C   0  0  1  0  0  0  0  0  0  0  0  0
  152.9574  140.2819  158.9177 C   0  0  0  0  0  0  0  0  0  0  0  0
  151.7158  142.3750  158.3765 N   0  0  0  0  0  0  0  0  0  0  0  0
  152.6979  143.1849  158.9107 C   0  0  0  0  0  0  0  0  0  0  0  0
  152.2407  144.4707  158.8662 C   0  0  0  0  0  0  0  0  0  0  0  0
  150.9447  144.3482  158.2926 C   0  0  0  0  0  0  0  0  0  0  0  0
  150.6296  143.0951  158.0098 N   0  0  0  0  0  0  0  0  0  0  0  0
  149.9042  139.1484  154.5316 C   0  0  0  0  0  0  0  0  0  0  0  0
  149.5529  138.7616  153.3028 N   0  0  0  0  0  0  0  0  0  0  0  0
  150.0241  138.3487  155.4592 O   0  0  0  0  0  0  0  0  0  0  0  0
  148.5169  141.2166  153.3883 H   0  0  0  0  0  0  0  0  0  0  0  0
  148.9352  142.4624  154.5529 H   0  0  0  0  0  0  0  0  0  0  0  0
  148.0035  141.0604  155.0674 H   0  0  0  0  0  0  0  0  0  0  0  0
  150.9274  141.0142  154.0872 H   0  0  0  0  0  0  0  0  0  0  0  0
  149.7972  141.4582  156.6742 H   0  0  0  0  0  0  0  0  0  0  0  0
  150.8457  140.5462  158.7627 H   0  0  0  0  0  0  0  0  0  0  0  0
  152.9094  139.1937  158.8673 H   0  0  0  0  0  0  0  0  0  0  0  0
  153.0087  140.5573  159.9714 H   0  0  0  0  0  0  0  0  0  0  0  0
  153.8928  140.5924  158.4503 H   0  0  0  0  0  0  0  0  0  0  0  0
  153.6321  142.7828  159.2743 H   0  0  0  0  0  0  0  0  0  0  0  0
  152.7518  145.3624  159.1975 H   0  0  0  0  0  0  0  0  0  0  0  0
  150.2268  145.1262  158.0789 H   0  0  0  0  0  0  0  0  0  0  0  0
  149.3819  137.7853  153.1109 H   0  0  0  0  0  0  0  0  0  0  0  0
  149.4515  139.4499  152.5710 H   0  0  0  0  0  0  0  0  0  0  0  0
  1  2  1  0  0  0  0
  1 16  1  0  0  0  0
  1 17  1  0  0  0  0
  1 18  1  0  0  0  0
  2  3  1  0  0  0  0
  2 13  1  0  0  0  0
  2 19  1  0  0  0  0
  3  4  1  0  0  0  0
  3 20  1  0  0  0  0
  4  5  2  0  0  0  0
  4  6  1  0  0  0  0
  6  7  1  0  0  0  0
  6  8  1  0  0  0  0
  6 21  1  0  0  0  0
  7 22  1  0  0  0  0
  7 23  1  0  0  0  0
  7 24  1  0  0  0  0
  8 12  1  0  0  0  0
  8  9  1  0  0  0  0
  9 10  2  0  0  0  0
  9 25  1  0  0  0  0
 10 11  1  0  0  0  0
 10 26  1  0  0  0  0
 11 12  2  0  0  0  0
 11 27  1  0  0  0  0
 13 14  1  0  0  0  0
 13 15  2  0  0  0  0
 14 28  1  0  0  0  0
 14 29  1  0  0  0  0
M  END
> <s_m_source_file>
AV-unprocessed.smi

> <i_m_source_file_index>
955

> <i_lp_mmshare_version>
43012

> <i_f3d_flags>
0

> <s_epik_input>
W05IMl1DKD1PKVtDQEhdKFtDSDNdKVtOSF1DKD1PKVtDQEhdKFtDSDNdKW4xW2NIXVtjSF1bY0hdbjE=

> <s_epik_cmdline>
J2VwaWtfcHl0aG9uJywgJy1waCcsICc3LjAnLCAnLXRuJywgJzgnLCAnLW1hJywgJzIwMCcsICctbWV0YWxfYmluZGluZycsICctaW1hZScsICc8aW5maWxlLm1hZT4nLCAnLW9tYWUnLCAnPG91dGZpbGUubWFlPic=

> <r_lp_tautomer_probability>
1

> <r_epik_Ionization_Penalty>
2.8146e-05

> <r_epik_Ionization_Penalty_Charging>
0

> <r_epik_Ionization_Penalty_Neutral>
2.8146e-05

> <r_epik_State_Penalty>
-0

> <r_epik_Charging_Adjusted_Penalty>
0

> <i_epik_Tot_Q>
0

> <i_epik_Tot_abs_Q>
0

> <r_epik_Metal_State_Penalty>
-0

> <b_epik_Metal_Only>
0

> <s_lp_Force_Field>
OPLS_2005

> <r_lp_Energy>
4.82195

> <b_lp_Chiralities_Consistent>
1

> <s_lp_Variant>
AV-unprocessed.smi:955-4

> <Gold.Version>
5.8.1

> <Gold.Id.Protein>
6NUR|6NUR_protein|mol2

> <Gold.PLP.Fitness>
42.2837

> <Gold.PLP.PLP>
-30.6171

> <Gold.PLP.part.hbond>
-2.9156

> <Gold.PLP.part.metal>
0.0000

> <Gold.PLP.part.buried>
-1.8392

> <Gold.PLP.part.nonpolar>
-25.9145

> <Gold.PLP.part.repulsive>
0.3897

> <Gold.PLP.ligand.clash>
0.0000

> <Gold.PLP.ligand.torsion>
0.1300

> <Gold.PLP.Chemscore.Hbond>
3.0000

> <Gold.PLP.Chemscore.CHOScore>
0.9223

> <Gold.PLP.Chemscore.Metal>
0.0000

> <Gold.Chemscore.Hbonds>
donor molecule, donor type, donor heavy atom, donor atom, acceptor molecule, acceptor atom, score
      L1  H    14    28       P1  7948  1.00
      L1  H    14    29       P1  7957  1.00
      P1  H  7997  8008       L1     5  1.00
      L1  C    11    27       P1  8028  0.12
      L1  C    11    27       P1  8029  0.67

> <Gold.PLP.Chemscore.Internal.Correction>
0.1597

> <Gold.Rescore>
     Score         DG    S(hbond)    S(metal)    S(lipo)     H(rot)  DE(clash)    DE(int)     intcor
     14.57     -17.09       2.85        0.00      68.14       2.30       0.89       1.62       ----

> <Gold.Chemscore.Fitness>
14.5724

> <Gold.Chemscore.DG>
-17.0901

> <Gold.Chemscore.ZeroCoef>
-5.4800

> <Gold.Chemscore.Hbond>
2.8500

> <Gold.Chemscore.Metal>
0.0000

> <Gold.Chemscore.Lipo>
68.1385

> <Gold.Chemscore.Internal_Hbond>
0.0000

> <Gold.Chemscore.DEClash>
0.8938

> <Gold.Chemscore.DEInternal>
1.6240

> <Gold.Chemscore.Rot>
2.2972

> <Gold.Chemscore.Internal.Correction>
   9.000000E+99

> <Gold.Chemscore.Hbonds>
donor molecule, donor type, donor heavy atom, donor atom, acceptor molecule, acceptor atom, score
      L1  H    14    28       P1  7948  0.87
      L1  H    14    29       P1  7957  0.92
      P1  H  7997  8008       L1     5  1.00

> <Gold.Chemscore.Hbond.Weighted>
-9.5188

> <Gold.Chemscore.Metal.Weighted>
-0.0000

> <Gold.Chemscore.Lipo.Weighted>
-7.9722

> <Gold.Chemscore.Internal_Hbond.Weighted>
0.0000

> <Gold.Chemscore.DEClash.Weighted>
0.8938

> <Gold.Chemscore.DEInternal.Weighted>
1.6240

> <Gold.Chemscore.Rot.Weighted>
5.8809

> <Gold.Chemscore.Internal.Correction.Weighted>
   9.000000E+99

> <Gold.Protein.RotatedTorsions>
[ 6907 6896 6895 6894 ] final -154.34 input  -60.11 | X-H torsion
[ 7974 7965 7964 7962 ] final  -93.76 input  175.53 | X-H torsion
[ 8008 7997 7996 7995 ] final  -45.10 input   59.86 | X-H torsion
[ 10167 10162 10161 10158 ] final  -89.80 input  -65.29 | X-H torsion
[ 10718 10713 10712 10709 ] final  109.76 input   66.30 | X-H torsion
[ 10763 10752 10751 10750 ] final -173.18 input  -60.55 | X-H torsion
[ 11005 11000 10999 10996 ] final -105.25 input  -57.11 | X-H torsion

> <Gold.Protein.ActiveResidues>
 VAL166  LYS551  ARG553  GLY616  TRP617  ASP618  TYR619  PRO620  LYS621  CYS622 
 ASP623  PHE694  ASN695  SER759  ASP760  ASP761  ALA762  ILE779  LEU786  VAL792 
 PHE793  MET794  SER795  GLU796  ALA797  LYS798  CYS799  TRP800  GLU811  SER814 

> <Gold.Protein.RotatedAtoms>
  151.2561  133.4325  159.2613 H   0  0  0  0  0  0  0  0  0  0  0  0  # atno 6907 bound_to 6896
  151.0573  134.9714  159.8253 H   0  0  0  0  0  0  0  0  0  0  0  0  # atno 6908 bound_to 6896
  152.5392  134.2512  159.8952 H   0  0  0  0  0  0  0  0  0  0  0  0  # atno 6909 bound_to 6896
  145.3822  140.9519  143.2387 H   0  0  0  0  0  0  0  0  0  0  0  0  # atno 7974 bound_to 7965
  154.3999  140.1405  156.3791 H   0  0  0  0  0  0  0  0  0  0  0  0  # atno 8008 bound_to 7997
  155.8020  140.3475  155.5388 H   0  0  0  0  0  0  0  0  0  0  0  0  # atno 8009 bound_to 7997
  155.8473  140.0936  157.1687 H   0  0  0  0  0  0  0  0  0  0  0  0  # atno 8010 bound_to 7997
  140.3612  143.2841  151.9612 H   0  0  0  0  0  0  0  0  0  0  0  0  # atno 10167 bound_to 10162
  157.6526  131.0920  150.6502 H   0  0  0  0  0  0  0  0  0  0  0  0  # atno 10718 bound_to 10713
  154.6109  135.2864  155.0434 H   0  0  0  0  0  0  0  0  0  0  0  0  # atno 10763 bound_to 10752
  154.1664  135.6480  153.5002 H   0  0  0  0  0  0  0  0  0  0  0  0  # atno 10764 bound_to 10752
  153.0194  135.5390  154.6862 H   0  0  0  0  0  0  0  0  0  0  0  0  # atno 10765 bound_to 10752
  141.1062  133.8792  157.1711 H   0  0  0  0  0  0  0  0  0  0  0  0  # atno 11005 bound_to 11000
  144.8499  139.5338  143.6861 LP  0  0  0  0  0  0  0  0  0  0  0  0  # atno 17320 bound_to 7965
  146.2836  139.6944  142.9211 LP  0  0  0  0  0  0  0  0  0  0  0  0  # atno 17321 bound_to 7965
  139.4814  144.5991  151.7638 LP  0  0  0  0  0  0  0  0  0  0  0  0  # atno 17342 bound_to 10162
  140.5125  144.1003  150.5999 LP  0  0  0  0  0  0  0  0  0  0  0  0  # atno 17343 bound_to 10162
  156.6811  130.4567  149.5627 LP  0  0  0  0  0  0  0  0  0  0  0  0  # atno 17370 bound_to 10713
  156.1928  130.6571  151.1080 LP  0  0  0  0  0  0  0  0  0  0  0  0  # atno 17371 bound_to 10713
  139.9934  135.0056  157.0026 LP  0  0  0  0  0  0  0  0  0  0  0  0  # atno 17394 bound_to 11000
  140.4895  134.1207  155.7230 LP  0  0  0  0  0  0  0  0  0  0  0  0  # atno 17395 bound_to 11000

$$$$
