AV-unprocessed.smi:826|AV-procd|sdf|3854|dock7
  -GOLD-   22720 1303D 1   1.00000     0.00000
 Structure written by MMmdl.
 38 39  0  0  0  0  0  0  0  0  2 V2000
  145.8214  134.4891  162.1264 C   0  0  0  0  0  0  0  0  0  0  0  0
  146.8911  135.3285  161.5166 C   0  0  0  0  0  0  0  0  0  0  0  0
  147.0042  136.6387  161.7485 N   0  0  0  0  0  0  0  0  0  0  0  0
  148.0743  137.1996  161.0664 N   0  0  0  0  0  0  0  0  0  0  0  0
  148.7463  136.3114  160.3204 C   0  0  0  0  0  0  0  0  0  0  0  0
  149.8161  136.6523  159.5829 N   0  5  0  0  0  0  0  0  0  0  0  0
  149.7851  137.7727  158.8261 C   0  0  0  0  0  0  0  0  0  0  0  0
  148.7748  138.3744  158.4532 O   0  0  0  0  0  0  0  0  0  0  0  0
  150.9995  138.2240  158.4766 N   0  0  0  0  0  0  0  0  0  0  0  0
  151.2749  139.4103  157.6667 C   0  0  2  0  0  0  0  0  0  0  0  0
  151.8440  138.9444  156.3160 C   0  0  0  0  0  0  0  0  0  0  0  0
  152.3246  140.2968  158.3550 C   0  0  0  0  0  0  0  0  0  0  0  0
  153.4565  139.8674  158.5851 O   0  0  0  0  0  0  0  0  0  0  0  0
  151.9334  141.5410  158.6688 N   0  0  0  0  0  0  0  0  0  0  0  0
  152.7639  142.5356  159.3408 C   0  0  0  0  0  0  0  0  0  0  0  0
  152.2258  142.8721  160.7475 C   0  0  0  0  0  0  0  0  0  0  0  0
  152.1849  144.3988  160.8305 C   0  0  0  0  0  0  0  0  0  0  0  0
  151.9450  144.8447  159.3919 C   0  0  0  0  0  0  0  0  0  0  0  0
  152.7648  143.8607  158.5564 C   0  0  0  0  0  0  0  0  0  0  0  0
  148.1022  134.6734  160.4279 S   0  0  0  0  0  0  0  0  0  0  0  0
  144.9469  134.4729  161.4761 H   0  0  0  0  0  0  0  0  0  0  0  0
  145.5301  134.8890  163.0981 H   0  0  0  0  0  0  0  0  0  0  0  0
  146.1769  133.4677  162.2628 H   0  0  0  0  0  0  0  0  0  0  0  0
  151.7987  137.7060  158.8105 H   0  0  0  0  0  0  0  0  0  0  0  0
  150.3522  139.9696  157.4983 H   0  0  0  0  0  0  0  0  0  0  0  0
  152.0736  139.7923  155.6694 H   0  0  0  0  0  0  0  0  0  0  0  0
  151.1242  138.3188  155.7870 H   0  0  0  0  0  0  0  0  0  0  0  0
  152.7578  138.3607  156.4383 H   0  0  0  0  0  0  0  0  0  0  0  0
  150.9855  141.8090  158.4474 H   0  0  0  0  0  0  0  0  0  0  0  0
  153.7884  142.1651  159.4070 H   0  0  0  0  0  0  0  0  0  0  0  0
  151.2133  142.4845  160.8746 H   0  0  0  0  0  0  0  0  0  0  0  0
  152.8373  142.4349  161.5375 H   0  0  0  0  0  0  0  0  0  0  0  0
  151.4198  144.7612  161.5176 H   0  0  0  0  0  0  0  0  0  0  0  0
  153.1490  144.7751  161.1752 H   0  0  0  0  0  0  0  0  0  0  0  0
  150.8866  144.7426  159.1479 H   0  0  0  0  0  0  0  0  0  0  0  0
  152.2300  145.8828  159.2189 H   0  0  0  0  0  0  0  0  0  0  0  0
  153.7887  144.2281  158.4754 H   0  0  0  0  0  0  0  0  0  0  0  0
  152.3792  143.7652  157.5405 H   0  0  0  0  0  0  0  0  0  0  0  0
  1  2  1  0  0  0  0
  1 21  1  0  0  0  0
  1 22  1  0  0  0  0
  1 23  1  0  0  0  0
  2 20  1  0  0  0  0
  2  3  2  0  0  0  0
  3  4  1  0  0  0  0
  4  5  2  0  0  0  0
  5  6  1  0  0  0  0
  5 20  1  0  0  0  0
  6  7  1  0  0  0  0
  7  8  2  0  0  0  0
  7  9  1  0  0  0  0
  9 10  1  0  0  0  0
  9 24  1  0  0  0  0
 10 11  1  0  0  0  0
 10 12  1  0  0  0  0
 10 25  1  0  0  0  0
 11 26  1  0  0  0  0
 11 27  1  0  0  0  0
 11 28  1  0  0  0  0
 12 13  2  0  0  0  0
 12 14  1  0  0  0  0
 14 15  1  0  0  0  0
 14 29  1  0  0  0  0
 15 19  1  0  0  0  0
 15 16  1  0  0  0  0
 15 30  1  0  0  0  0
 16 17  1  0  0  0  0
 16 31  1  0  0  0  0
 16 32  1  0  0  0  0
 17 18  1  0  0  0  0
 17 33  1  0  0  0  0
 17 34  1  0  0  0  0
 18 19  1  0  0  0  0
 18 35  1  0  0  0  0
 18 36  1  0  0  0  0
 19 37  1  0  0  0  0
 19 38  1  0  0  0  0
M  CHG  1   6  -1
M  END
> <s_m_source_file>
AV-unprocessed.smi

> <i_m_source_file_index>
826

> <i_lp_mmshare_version>
43012

> <i_f3d_flags>
0

> <s_epik_input>
W0NIM11jMW5uYyhzMSlbTkhdQyg9TylbTkhdW0NASF0oW0NIM10pQyg9TylbTkhdW0NIXTJbQ0gyXVtDSDJdW0NIMl1bQ0gyXTI=

> <s_epik_cmdline>
J2VwaWtfcHl0aG9uJywgJy1waCcsICc3LjAnLCAnLXRuJywgJzgnLCAnLW1hJywgJzIwMCcsICctbWV0YWxfYmluZGluZycsICctaW1hZScsICc8aW5maWxlLm1hZT4nLCAnLW9tYWUnLCAnPG91dGZpbGUubWFlPic=

> <r_lp_tautomer_probability>
1

> <r_epik_Ionization_Penalty>
3.15008

> <r_epik_Ionization_Penalty_Charging>
3.01509

> <r_epik_Ionization_Penalty_Neutral>
0.134987

> <r_epik_State_Penalty>
3.01143

> <r_epik_Charging_Adjusted_Penalty>
6.02652

> <i_epik_Tot_Q>
-1

> <i_epik_Tot_abs_Q>
1

> <r_epik_Metal_State_Penalty>
0.454645

> <b_epik_Metal_Only>
1

> <s_lp_Force_Field>
OPLS_2005

> <r_lp_Energy>
15.3268

> <b_lp_Chiralities_Consistent>
1

> <s_lp_Variant>
AV-unprocessed.smi:826-3

> <Gold.Version>
5.8.1

> <Gold.Id.Protein>
6NUR|6NUR_protein|mol2

> <Gold.PLP.Fitness>
51.8839

> <Gold.PLP.PLP>
-39.5259

> <Gold.PLP.part.hbond>
-4.2877

> <Gold.PLP.part.metal>
0.0000

> <Gold.PLP.part.buried>
-5.2616

> <Gold.PLP.part.nonpolar>
-30.3775

> <Gold.PLP.part.repulsive>
0.2104

> <Gold.PLP.ligand.clash>
0.0000

> <Gold.PLP.ligand.torsion>
0.5989

> <Gold.PLP.Chemscore.Hbond>
4.5031

> <Gold.PLP.Chemscore.CHOScore>
0.0000

> <Gold.PLP.Chemscore.Metal>
0.0000

> <Gold.Chemscore.Hbonds>
donor molecule, donor type, donor heavy atom, donor atom, acceptor molecule, acceptor atom, score
      P1  H  6896  6907       L1     6  2.00
      P1  H  6931  6943       L1     4  0.98
      P1  H  6934  6947       L1     4  0.48
      P1  H  7997  8009       L1    13  1.00

> <Gold.PLP.Chemscore.Internal.Correction>
0.0464

> <Gold.Rescore>
     Score         DG    S(hbond)    S(metal)    S(lipo)     H(rot)  DE(clash)    DE(int)     intcor
     19.61     -20.97       2.73        0.00      90.04       1.62       0.00       1.36       ----

> <Gold.Chemscore.Fitness>
19.6101

> <Gold.Chemscore.DG>
-20.9704

> <Gold.Chemscore.ZeroCoef>
-5.4800

> <Gold.Chemscore.Hbond>
2.7256

> <Gold.Chemscore.Metal>
0.0000

> <Gold.Chemscore.Lipo>
90.0381

> <Gold.Chemscore.Internal_Hbond>
0.0000

> <Gold.Chemscore.DEClash>
0.0015

> <Gold.Chemscore.DEInternal>
1.3589

> <Gold.Chemscore.Rot>
1.6201

> <Gold.Chemscore.Internal.Correction>
   9.000000E+99

> <Gold.Chemscore.Hbonds>
donor molecule, donor type, donor heavy atom, donor atom, acceptor molecule, acceptor atom, score
      P1  H  6896  6907       L1     6  0.24
      P1  H  6931  6943       L1     4  0.78
      P1  H  6934  6947       L1     4  0.05
      P1  H  7997  8009       L1    13  0.92

> <Gold.Chemscore.Hbond.Weighted>
-9.1034

> <Gold.Chemscore.Metal.Weighted>
-0.0000

> <Gold.Chemscore.Lipo.Weighted>
-10.5345

> <Gold.Chemscore.Internal_Hbond.Weighted>
0.0000

> <Gold.Chemscore.DEClash.Weighted>
0.0015

> <Gold.Chemscore.DEInternal.Weighted>
1.3589

> <Gold.Chemscore.Rot.Weighted>
4.1475

> <Gold.Chemscore.Internal.Correction.Weighted>
   9.000000E+99

> <Gold.Protein.RotatedTorsions>
[ 6907 6896 6895 6894 ] final  -40.20 input  -60.11 | X-H torsion
[ 7974 7965 7964 7962 ] final -178.89 input  175.53 | X-H torsion
[ 8008 7997 7996 7995 ] final  136.04 input   59.86 | X-H torsion
[ 10167 10162 10161 10158 ] final   66.89 input  -65.29 | X-H torsion
[ 10718 10713 10712 10709 ] final    4.99 input   66.30 | X-H torsion
[ 10763 10752 10751 10750 ] final  165.72 input  -60.55 | X-H torsion
[ 11005 11000 10999 10996 ] final   60.74 input  -57.11 | X-H torsion

> <Gold.Protein.ActiveResidues>
 VAL166  LYS551  ARG553  GLY616  TRP617  ASP618  TYR619  PRO620  LYS621  CYS622 
 ASP623  PHE694  ASN695  SER759  ASP760  ASP761  ALA762  ILE779  LEU786  VAL792 
 PHE793  MET794  SER795  GLU796  ALA797  LYS798  CYS799  TRP800  GLU811  SER814 

> <Gold.Protein.RotatedAtoms>
  150.9813  134.9167  159.7845 H   0  0  0  0  0  0  0  0  0  0  0  0  # atno 6907 bound_to 6896
  152.5222  134.3407  159.9226 H   0  0  0  0  0  0  0  0  0  0  0  0  # atno 6908 bound_to 6896
  151.3414  133.3920  159.2706 H   0  0  0  0  0  0  0  0  0  0  0  0  # atno 6909 bound_to 6896
  144.7133  140.0800  143.6426 H   0  0  0  0  0  0  0  0  0  0  0  0  # atno 7974 bound_to 7965
  156.3004  140.2455  156.3681 H   0  0  0  0  0  0  0  0  0  0  0  0  # atno 8008 bound_to 7997
  154.8814  140.0412  157.1804 H   0  0  0  0  0  0  0  0  0  0  0  0  # atno 8009 bound_to 7997
  154.8691  140.2932  155.5496 H   0  0  0  0  0  0  0  0  0  0  0  0  # atno 8010 bound_to 7997
  140.0955  144.4950  150.7071 H   0  0  0  0  0  0  0  0  0  0  0  0  # atno 10167 bound_to 10162
  156.9008  130.5721  149.5648 H   0  0  0  0  0  0  0  0  0  0  0  0  # atno 10718 bound_to 10713
  154.3283  135.2755  155.2485 H   0  0  0  0  0  0  0  0  0  0  0  0  # atno 10763 bound_to 10752
  154.4808  135.5859  153.6391 H   0  0  0  0  0  0  0  0  0  0  0  0  # atno 10764 bound_to 10752
  152.9869  135.6111  154.3473 H   0  0  0  0  0  0  0  0  0  0  0  0  # atno 10765 bound_to 10752
  140.0210  134.6153  155.9640 H   0  0  0  0  0  0  0  0  0  0  0  0  # atno 11005 bound_to 11000
  145.9710  139.2869  143.1099 LP  0  0  0  0  0  0  0  0  0  0  0  0  # atno 17320 bound_to 7965
  145.9117  140.9176  143.0451 LP  0  0  0  0  0  0  0  0  0  0  0  0  # atno 17321 bound_to 7965
  140.7006  143.2432  151.4875 LP  0  0  0  0  0  0  0  0  0  0  0  0  # atno 17342 bound_to 10162
  139.5701  144.1950  152.1823 LP  0  0  0  0  0  0  0  0  0  0  0  0  # atno 17343 bound_to 10162
  156.0583  130.5640  150.9139 LP  0  0  0  0  0  0  0  0  0  0  0  0  # atno 17370 bound_to 10713
  157.6027  131.0940  150.8932 LP  0  0  0  0  0  0  0  0  0  0  0  0  # atno 17371 bound_to 10713
  141.1773  133.6542  156.4881 LP  0  0  0  0  0  0  0  0  0  0  0  0  # atno 17394 bound_to 11000
  140.4387  134.7035  157.4980 LP  0  0  0  0  0  0  0  0  0  0  0  0  # atno 17395 bound_to 11000

$$$$
