AV-unprocessed.smi:1826|AV-procd|sdf|7417|dock3
  -GOLD-   22720 9 93D 1   1.00000     0.00000
 Structure written by MMmdl.
 40 42  0  0  0  0  0  0  0  0  2 V2000
  150.9141  140.9128  154.6173 O   0  0  0  0  0  0  0  0  0  0  0  0
  150.3382  140.5121  155.8408 C   0  0  0  0  0  0  0  0  0  0  0  0
  150.6612  141.4519  156.9550 C   0  0  0  0  0  0  0  0  0  0  0  0
  150.5338  142.8085  156.9175 N   0  3  0  0  0  0  0  0  0  0  0  0
  150.9241  143.3538  158.1415 C   0  0  0  0  0  0  0  0  0  0  0  0
  150.9702  144.6741  158.5787 C   0  0  0  0  0  0  0  0  0  0  0  0
  151.4216  144.8883  159.8977 C   0  0  0  0  0  0  0  0  0  0  0  0
  151.8044  143.8136  160.7268 C   0  0  0  0  0  0  0  0  0  0  0  0
  151.7528  142.4792  160.2727 C   0  0  0  0  0  0  0  0  0  0  0  0
  151.3063  142.2770  158.9672 C   0  0  0  0  0  0  0  0  0  0  0  0
  151.1285  141.1249  158.1945 N   0  0  0  0  0  0  0  0  0  0  0  0
  151.4436  139.8126  158.7799 C   0  0  0  0  0  0  0  0  0  0  0  0
  152.9550  139.5935  158.9917 C   0  0  2  0  0  0  0  0  0  0  0  0
  153.5233  139.0126  157.8335 O   0  0  0  0  0  0  0  0  0  0  0  0
  153.2213  138.7684  160.2406 C   0  0  0  0  0  0  0  0  0  0  0  0
  152.9456  137.3850  160.2442 C   0  0  0  0  0  0  0  0  0  0  0  0
  153.1985  136.6129  161.3946 C   0  0  0  0  0  0  0  0  0  0  0  0
  153.7356  137.2129  162.5540 C   0  0  0  0  0  0  0  0  0  0  0  0
  153.9982  136.3793  163.7997 C   0  0  0  0  0  0  0  0  0  0  0  0
  154.5139  137.1284  164.7751 F   0  0  0  0  0  0  0  0  0  0  0  0
  152.8502  135.8530  164.2244 F   0  0  0  0  0  0  0  0  0  0  0  0
  154.8532  135.3899  163.5385 F   0  0  0  0  0  0  0  0  0  0  0  0
  154.0084  138.5979  162.5500 C   0  0  0  0  0  0  0  0  0  0  0  0
  153.7565  139.3703  161.3998 C   0  0  0  0  0  0  0  0  0  0  0  0
  150.2681  141.3955  154.1242 H   0  0  0  0  0  0  0  0  0  0  0  0
  149.2566  140.4440  155.7230 H   0  0  0  0  0  0  0  0  0  0  0  0
  150.6960  139.5134  156.0924 H   0  0  0  0  0  0  0  0  0  0  0  0
  150.6771  145.4989  157.9456 H   0  0  0  0  0  0  0  0  0  0  0  0
  151.4752  145.8970  160.2813 H   0  0  0  0  0  0  0  0  0  0  0  0
  152.1447  144.0168  161.7319 H   0  0  0  0  0  0  0  0  0  0  0  0
  152.0482  141.6625  160.9148 H   0  0  0  0  0  0  0  0  0  0  0  0
  150.9007  139.7176  159.7213 H   0  0  0  0  0  0  0  0  0  0  0  0
  151.0377  139.0477  158.1168 H   0  0  0  0  0  0  0  0  0  0  0  0
  153.4390  140.5628  159.1168 H   0  0  0  0  0  0  0  0  0  0  0  0
  153.6501  138.0898  157.9935 H   0  0  0  0  0  0  0  0  0  0  0  0
  152.5382  136.9087  159.3645 H   0  0  0  0  0  0  0  0  0  0  0  0
  152.9762  135.5560  161.3829 H   0  0  0  0  0  0  0  0  0  0  0  0
  154.4122  139.0757  163.4305 H   0  0  0  0  0  0  0  0  0  0  0  0
  153.9771  140.4279  161.4106 H   0  0  0  0  0  0  0  0  0  0  0  0
  150.2008  143.3208  156.1110 H   0  0  0  0  0  0  0  0  0  0  0  0
  1  2  1  0  0  0  0
  1 25  1  0  0  0  0
  2  3  1  0  0  0  0
  2 26  1  0  0  0  0
  2 27  1  0  0  0  0
  3 11  1  0  0  0  0
  3  4  2  0  0  0  0
  4  5  1  0  0  0  0
  4 40  1  0  0  0  0
  5 10  2  0  0  0  0
  5  6  1  0  0  0  0
  6  7  2  0  0  0  0
  6 28  1  0  0  0  0
  7  8  1  0  0  0  0
  7 29  1  0  0  0  0
  8  9  2  0  0  0  0
  8 30  1  0  0  0  0
  9 10  1  0  0  0  0
  9 31  1  0  0  0  0
 10 11  1  0  0  0  0
 11 12  1  0  0  0  0
 12 13  1  0  0  0  0
 12 32  1  0  0  0  0
 12 33  1  0  0  0  0
 13 14  1  0  0  0  0
 13 15  1  0  0  0  0
 13 34  1  0  0  0  0
 14 35  1  0  0  0  0
 15 24  1  0  0  0  0
 15 16  2  0  0  0  0
 16 17  1  0  0  0  0
 16 36  1  0  0  0  0
 17 18  2  0  0  0  0
 17 37  1  0  0  0  0
 18 19  1  0  0  0  0
 18 23  1  0  0  0  0
 19 20  1  0  0  0  0
 19 21  1  0  0  0  0
 19 22  1  0  0  0  0
 23 24  2  0  0  0  0
 23 38  1  0  0  0  0
 24 39  1  0  0  0  0
M  CHG  1   4   1
M  END
> <s_m_source_file>
AV-unprocessed.smi

> <i_m_source_file_index>
1826

> <i_lp_mmshare_version>
43012

> <i_f3d_flags>
0

> <s_epik_input>
W2NIXTFbY0hdW2NIXVtjSF1jKGMxMiluKGMobjIpW0NIMl1bT0hdKVtDSDJdW0NASF0oW09IXSljM1tjSF1bY0hdYyhDKEYpKEYpRilbY0hdW2NIXTM=

> <s_epik_cmdline>
J2VwaWtfcHl0aG9uJywgJy1waCcsICc3LjAnLCAnLXRuJywgJzgnLCAnLW1hJywgJzIwMCcsICctbWV0YWxfYmluZGluZycsICctaW1hZScsICc8aW5maWxlLm1hZT4nLCAnLW9tYWUnLCAnPG91dGZpbGUubWFlPic=

> <r_epik_Ionization_Penalty>
1.35643

> <r_epik_Ionization_Penalty_Charging>
1.35557

> <r_epik_Ionization_Penalty_Neutral>
0.000856405

> <r_epik_State_Penalty>
1.43401

> <r_epik_Charging_Adjusted_Penalty>
2.78958

> <i_epik_Tot_Q>
1

> <i_epik_Tot_abs_Q>
1

> <r_epik_Metal_State_Penalty>
5.47166

> <b_epik_Metal_Only>
0

> <s_lp_Force_Field>
OPLS_2005

> <r_lp_Energy>
15.9337

> <b_lp_Chiralities_Consistent>
1

> <s_lp_Variant>
AV-unprocessed.smi:1826-3

> <Gold.Version>
5.8.1

> <Gold.Id.Protein>
6NUR|6NUR_protein|mol2

> <Gold.PLP.Fitness>
62.6556

> <Gold.PLP.PLP>
-53.4092

> <Gold.PLP.part.hbond>
-3.0000

> <Gold.PLP.part.metal>
0.0000

> <Gold.PLP.part.buried>
-6.4276

> <Gold.PLP.part.nonpolar>
-43.8690

> <Gold.PLP.part.repulsive>
0.0255

> <Gold.PLP.ligand.clash>
1.2989

> <Gold.PLP.ligand.torsion>
0.8517

> <Gold.PLP.Chemscore.Hbond>
3.6080

> <Gold.PLP.Chemscore.CHOScore>
0.0000

> <Gold.PLP.Chemscore.Metal>
0.0000

> <Gold.Chemscore.Hbonds>
donor molecule, donor type, donor heavy atom, donor atom, acceptor molecule, acceptor atom, score
      L1  H     4    40       P1  8028  1.60
      P1  H  7989  7998       L1     1  0.11
      P1  H  7997  8009       L1    14  1.00

> <Gold.PLP.Chemscore.Internal.Correction>
1.4247

> <Gold.Rescore>
     Score         DG    S(hbond)    S(metal)    S(lipo)     H(rot)  DE(clash)    DE(int)     intcor
     18.99     -19.83       1.97        0.00     131.69       2.98       0.01       0.83       ----

> <Gold.Chemscore.Fitness>
18.9944

> <Gold.Chemscore.DG>
-19.8329

> <Gold.Chemscore.ZeroCoef>
-5.4800

> <Gold.Chemscore.Hbond>
1.9699

> <Gold.Chemscore.Metal>
0.0000

> <Gold.Chemscore.Lipo>
131.6893

> <Gold.Chemscore.Internal_Hbond>
0.0000

> <Gold.Chemscore.DEClash>
0.0085

> <Gold.Chemscore.DEInternal>
0.8301

> <Gold.Chemscore.Rot>
2.9822

> <Gold.Chemscore.Internal.Correction>
   9.000000E+99

> <Gold.Chemscore.Hbonds>
donor molecule, donor type, donor heavy atom, donor atom, acceptor molecule, acceptor atom, score
      L1  H     4    40       P1  8028  0.78
      P1  H  7997  8009       L1    14  0.93

> <Gold.Chemscore.Hbond.Weighted>
-6.5796

> <Gold.Chemscore.Metal.Weighted>
-0.0000

> <Gold.Chemscore.Lipo.Weighted>
-15.4076

> <Gold.Chemscore.Internal_Hbond.Weighted>
0.0000

> <Gold.Chemscore.DEClash.Weighted>
0.0085

> <Gold.Chemscore.DEInternal.Weighted>
0.8301

> <Gold.Chemscore.Rot.Weighted>
7.6343

> <Gold.Chemscore.Internal.Correction.Weighted>
   9.000000E+99

> <Gold.Protein.RotatedTorsions>
[ 6907 6896 6895 6894 ] final -177.13 input  -60.11 | X-H torsion
[ 7974 7965 7964 7962 ] final -128.00 input  175.53 | X-H torsion
[ 8008 7997 7996 7995 ] final  163.63 input   59.86 | X-H torsion
[ 10167 10162 10161 10158 ] final -105.41 input  -65.29 | X-H torsion
[ 10718 10713 10712 10709 ] final -138.54 input   66.30 | X-H torsion
[ 10763 10752 10751 10750 ] final -122.92 input  -60.55 | X-H torsion
[ 11005 11000 10999 10996 ] final  171.14 input  -57.11 | X-H torsion

> <Gold.Protein.ActiveResidues>
 VAL166  LYS551  ARG553  GLY616  TRP617  ASP618  TYR619  PRO620  LYS621  CYS622 
 ASP623  PHE694  ASN695  SER759  ASP760  ASP761  ALA762  ILE779  LEU786  VAL792 
 PHE793  MET794  SER795  GLU796  ALA797  LYS798  CYS799  TRP800  GLU811  SER814 

> <Gold.Protein.RotatedAtoms>
  151.6160  133.3343  159.3077 H   0  0  0  0  0  0  0  0  0  0  0  0  # atno 6907 bound_to 6896
  150.8131  134.7301  159.6717 H   0  0  0  0  0  0  0  0  0  0  0  0  # atno 6908 bound_to 6896
  152.4227  134.5930  160.0031 H   0  0  0  0  0  0  0  0  0  0  0  0  # atno 6909 bound_to 6896
  144.9715  140.7549  143.4668 H   0  0  0  0  0  0  0  0  0  0  0  0  # atno 7974 bound_to 7965
  156.1942  140.1718  156.8031 H   0  0  0  0  0  0  0  0  0  0  0  0  # atno 8008 bound_to 7997
  154.5509  140.0718  156.8697 H   0  0  0  0  0  0  0  0  0  0  0  0  # atno 8009 bound_to 7997
  155.3031  140.3363  155.4249 H   0  0  0  0  0  0  0  0  0  0  0  0  # atno 8010 bound_to 7997
  140.1988  143.3835  152.1146 H   0  0  0  0  0  0  0  0  0  0  0  0  # atno 10167 bound_to 10162
  156.3005  130.7426  151.1476 H   0  0  0  0  0  0  0  0  0  0  0  0  # atno 10718 bound_to 10713
  154.8698  135.4116  154.2859 H   0  0  0  0  0  0  0  0  0  0  0  0  # atno 10763 bound_to 10752
  153.3743  135.7009  153.6619 H   0  0  0  0  0  0  0  0  0  0  0  0  # atno 10764 bound_to 10752
  153.5467  135.3637  155.2714 H   0  0  0  0  0  0  0  0  0  0  0  0  # atno 10765 bound_to 10752
  140.3158  134.7478  157.4027 H   0  0  0  0  0  0  0  0  0  0  0  0  # atno 11005 bound_to 11000
  145.2553  139.2015  143.4921 LP  0  0  0  0  0  0  0  0  0  0  0  0  # atno 17320 bound_to 7965
  146.3383  140.2473  142.8597 LP  0  0  0  0  0  0  0  0  0  0  0  0  # atno 17321 bound_to 7965
  139.5226  144.7060  151.5352 LP  0  0  0  0  0  0  0  0  0  0  0  0  # atno 17342 bound_to 10162
  140.6405  143.8899  150.6687 LP  0  0  0  0  0  0  0  0  0  0  0  0  # atno 17343 bound_to 10162
  157.7366  131.0560  150.5401 LP  0  0  0  0  0  0  0  0  0  0  0  0  # atno 17370 bound_to 10713
  156.5528  130.4236  149.6100 LP  0  0  0  0  0  0  0  0  0  0  0  0  # atno 17371 bound_to 10713
  140.0984  134.5505  155.8376 LP  0  0  0  0  0  0  0  0  0  0  0  0  # atno 17394 bound_to 11000
  141.2098  133.6687  156.6463 LP  0  0  0  0  0  0  0  0  0  0  0  0  # atno 17395 bound_to 11000

$$$$
