AV-unprocessed.smi:632|AV-procd|sdf|3129|dock9
  -GOLD-   22720 0 53D 1   1.00000     0.00000
 Structure written by MMmdl.
 41 42  0  0  0  0  0  0  0  0  2 V2000
  149.1904  124.3786  148.7485 C   0  0  0  0  0  0  0  0  0  0  0  0
  148.5396  124.0163  150.0975 C   0  0  0  0  0  0  0  0  0  0  0  0
  147.2049  123.3002  149.7937 C   0  0  0  0  0  0  0  0  0  0  0  0
  149.4259  123.0271  150.8799 C   0  0  0  0  0  0  0  0  0  0  0  0
  148.3217  125.2689  150.9144 C   0  0  0  0  0  0  0  0  0  0  0  0
  147.8075  125.2318  152.1497 N   0  0  0  0  0  0  0  0  0  0  0  0
  147.6951  126.4902  152.7212 N   0  0  0  0  0  0  0  0  0  0  0  0
  148.1377  127.4710  151.9237 C   0  0  0  0  0  0  0  0  0  0  0  0
  148.1177  128.7644  152.2862 N   0  5  0  0  0  0  0  0  0  0  0  0
  146.9461  129.4401  152.3139 C   0  0  0  0  0  0  0  0  0  0  0  0
  145.8609  129.0031  152.7043 O   0  0  0  0  0  0  0  0  0  0  0  0
  147.0396  130.7004  151.8648 N   0  0  0  0  0  0  0  0  0  0  0  0
  145.9513  131.6718  151.7851 C   0  0  2  0  0  0  0  0  0  0  0  0
  144.7662  131.0907  150.9890 C   0  0  0  0  0  0  0  0  0  0  0  0
  143.6315  132.1188  150.8329 C   0  0  0  0  0  0  0  0  0  0  0  0
  144.1215  133.4455  150.2216 C   0  0  2  0  0  0  0  0  0  0  0  0
  144.4472  133.2626  148.8577 O   0  0  0  0  0  0  0  0  0  0  0  0
  145.3372  134.0069  150.9835 C   0  0  0  0  0  0  0  0  0  0  0  0
  146.4628  132.9681  151.1314 C   0  0  0  0  0  0  0  0  0  0  0  0
  148.7174  126.8968  150.3629 S   0  0  0  0  0  0  0  0  0  0  0  0
  149.3463  123.4935  148.1311 H   0  0  0  0  0  0  0  0  0  0  0  0
  150.1630  124.8519  148.8883 H   0  0  0  0  0  0  0  0  0  0  0  0
  148.5668  125.0712  148.1817 H   0  0  0  0  0  0  0  0  0  0  0  0
  146.5283  123.9348  149.2195 H   0  0  0  0  0  0  0  0  0  0  0  0
  146.6899  123.0041  150.7084 H   0  0  0  0  0  0  0  0  0  0  0  0
  147.3663  122.3938  149.2090 H   0  0  0  0  0  0  0  0  0  0  0  0
  149.5844  122.1051  150.3197 H   0  0  0  0  0  0  0  0  0  0  0  0
  148.9727  122.7594  151.8352 H   0  0  0  0  0  0  0  0  0  0  0  0
  150.4087  123.4505  151.0901 H   0  0  0  0  0  0  0  0  0  0  0  0
  147.9481  131.0115  151.5536 H   0  0  0  0  0  0  0  0  0  0  0  0
  145.6124  131.9173  152.7935 H   0  0  0  0  0  0  0  0  0  0  0  0
  145.1059  130.7696  150.0032 H   0  0  0  0  0  0  0  0  0  0  0  0
  144.3826  130.1989  151.4859 H   0  0  0  0  0  0  0  0  0  0  0  0
  142.8252  131.6986  150.2307 H   0  0  0  0  0  0  0  0  0  0  0  0
  143.2027  132.3189  151.8156 H   0  0  0  0  0  0  0  0  0  0  0  0
  143.3114  134.1746  150.2581 H   0  0  0  0  0  0  0  0  0  0  0  0
  144.9619  134.0011  148.5702 H   0  0  0  0  0  0  0  0  0  0  0  0
  145.7151  134.9017  150.4876 H   0  0  0  0  0  0  0  0  0  0  0  0
  145.0175  134.3232  151.9772 H   0  0  0  0  0  0  0  0  0  0  0  0
  147.2730  133.3907  151.7268 H   0  0  0  0  0  0  0  0  0  0  0  0
  146.8864  132.7469  150.1506 H   0  0  0  0  0  0  0  0  0  0  0  0
  1  2  1  0  0  0  0
  1 21  1  0  0  0  0
  1 22  1  0  0  0  0
  1 23  1  0  0  0  0
  2  3  1  0  0  0  0
  2  4  1  0  0  0  0
  2  5  1  0  0  0  0
  3 24  1  0  0  0  0
  3 25  1  0  0  0  0
  3 26  1  0  0  0  0
  4 27  1  0  0  0  0
  4 28  1  0  0  0  0
  4 29  1  0  0  0  0
  5 20  1  0  0  0  0
  5  6  2  0  0  0  0
  6  7  1  0  0  0  0
  7  8  2  0  0  0  0
  8  9  1  0  0  0  0
  8 20  1  0  0  0  0
  9 10  1  0  0  0  0
 10 11  2  0  0  0  0
 10 12  1  0  0  0  0
 12 13  1  0  0  0  0
 12 30  1  0  0  0  0
 13 19  1  0  0  0  0
 13 14  1  0  0  0  0
 13 31  1  0  0  0  0
 14 15  1  0  0  0  0
 14 32  1  0  0  0  0
 14 33  1  0  0  0  0
 15 16  1  0  0  0  0
 15 34  1  0  0  0  0
 15 35  1  0  0  0  0
 16 17  1  0  0  0  0
 16 18  1  0  0  0  0
 16 36  1  0  0  0  0
 17 37  1  0  0  0  0
 18 19  1  0  0  0  0
 18 38  1  0  0  0  0
 18 39  1  0  0  0  0
 19 40  1  0  0  0  0
 19 41  1  0  0  0  0
M  CHG  1   9  -1
M  END
> <s_m_source_file>
AV-unprocessed.smi

> <i_m_source_file_index>
632

> <i_lp_mmshare_version>
43012

> <i_f3d_flags>
0

> <s_epik_input>
W0NIM11DKFtDSDNdKShbQ0gzXSljMW5uYyhzMSlbTkhdQyg9TylbTkhdW0NAQEhdMltDSDJdW0NIMl1bQ0BASF0oW09IXSlbQ0gyXVtDSDJdMg==

> <s_epik_cmdline>
J2VwaWtfcHl0aG9uJywgJy1waCcsICc3LjAnLCAnLXRuJywgJzgnLCAnLW1hJywgJzIwMCcsICctbWV0YWxfYmluZGluZycsICctaW1hZScsICc8aW5maWxlLm1hZT4nLCAnLW9tYWUnLCAnPG91dGZpbGUubWFlPic=

> <r_lp_tautomer_probability>
1

> <r_epik_Ionization_Penalty>
4.62389

> <r_epik_Ionization_Penalty_Charging>
4.45204

> <r_epik_Ionization_Penalty_Neutral>
0.171842

> <r_epik_State_Penalty>
4.45172

> <r_epik_Charging_Adjusted_Penalty>
8.90376

> <i_epik_Tot_Q>
-1

> <i_epik_Tot_abs_Q>
1

> <r_epik_Metal_State_Penalty>
0.795834

> <b_epik_Metal_Only>
1

> <s_lp_Force_Field>
OPLS_2005

> <r_lp_Energy>
3.40986

> <b_lp_Chiralities_Consistent>
1

> <s_lp_Variant>
AV-unprocessed.smi:632-4

> <Gold.Version>
5.8.1

> <Gold.Id.Protein>
6NUR|6NUR_protein|mol2

> <Gold.PLP.Fitness>
42.6745

> <Gold.PLP.PLP>
-39.2156

> <Gold.PLP.part.hbond>
-3.2988

> <Gold.PLP.part.metal>
0.0000

> <Gold.PLP.part.buried>
-7.4698

> <Gold.PLP.part.nonpolar>
-30.1478

> <Gold.PLP.part.repulsive>
1.2471

> <Gold.PLP.ligand.clash>
0.0000

> <Gold.PLP.ligand.torsion>
1.0500

> <Gold.PLP.Chemscore.Hbond>
1.8480

> <Gold.PLP.Chemscore.CHOScore>
0.0000

> <Gold.PLP.Chemscore.Metal>
0.0000

> <Gold.Chemscore.Hbonds>
donor molecule, donor type, donor heavy atom, donor atom, acceptor molecule, acceptor atom, score
      L1  H    12    30       P1 10747  0.82
      L1  H    17    37       P1  7921  1.00

> <Gold.PLP.Chemscore.Internal.Correction>
0.0148

> <Gold.Rescore>
     Score         DG    S(hbond)    S(metal)    S(lipo)     H(rot)  DE(clash)    DE(int)     intcor
     13.99     -17.79       1.86        0.00      88.84       1.67       1.47       2.33       ----

> <Gold.Chemscore.Fitness>
13.9867

> <Gold.Chemscore.DG>
-17.7874

> <Gold.Chemscore.ZeroCoef>
-5.4800

> <Gold.Chemscore.Hbond>
1.8557

> <Gold.Chemscore.Metal>
0.0000

> <Gold.Chemscore.Lipo>
88.8394

> <Gold.Chemscore.Internal_Hbond>
0.0000

> <Gold.Chemscore.DEClash>
1.4658

> <Gold.Chemscore.DEInternal>
2.3348

> <Gold.Chemscore.Rot>
1.6737

> <Gold.Chemscore.Internal.Correction>
   9.000000E+99

> <Gold.Chemscore.Hbonds>
donor molecule, donor type, donor heavy atom, donor atom, acceptor molecule, acceptor atom, score
      L1  H    12    30       P1 10747  0.81
      L1  H    17    37       P1  7921  0.97

> <Gold.Chemscore.Hbond.Weighted>
-6.1979

> <Gold.Chemscore.Metal.Weighted>
-0.0000

> <Gold.Chemscore.Lipo.Weighted>
-10.3942

> <Gold.Chemscore.Internal_Hbond.Weighted>
0.0000

> <Gold.Chemscore.DEClash.Weighted>
1.4658

> <Gold.Chemscore.DEInternal.Weighted>
2.3348

> <Gold.Chemscore.Rot.Weighted>
4.2848

> <Gold.Chemscore.Internal.Correction.Weighted>
   9.000000E+99

> <Gold.Protein.RotatedTorsions>
[ 6907 6896 6895 6894 ] final  -55.76 input  -60.11 | X-H torsion
[ 7974 7965 7964 7962 ] final   73.29 input  175.53 | X-H torsion
[ 8008 7997 7996 7995 ] final  123.06 input   59.86 | X-H torsion
[ 10167 10162 10161 10158 ] final -120.28 input  -65.29 | X-H torsion
[ 10718 10713 10712 10709 ] final   37.92 input   66.30 | X-H torsion
[ 10763 10752 10751 10750 ] final   18.71 input  -60.55 | X-H torsion
[ 11005 11000 10999 10996 ] final   33.02 input  -57.11 | X-H torsion

> <Gold.Protein.ActiveResidues>
 VAL166  LYS551  ARG553  GLY616  TRP617  ASP618  TYR619  PRO620  LYS621  CYS622 
 ASP623  PHE694  ASN695  SER759  ASP760  ASP761  ALA762  ILE779  LEU786  VAL792 
 PHE793  MET794  SER795  GLU796  ALA797  LYS798  CYS799  TRP800  GLU811  SER814 

> <Gold.Protein.RotatedAtoms>
  150.8225  134.7439  159.6783 H   0  0  0  0  0  0  0  0  0  0  0  0  # atno 6907 bound_to 6896
  152.4339  134.5721  159.9934 H   0  0  0  0  0  0  0  0  0  0  0  0  # atno 6908 bound_to 6896
  151.5902  133.3330  159.3062 H   0  0  0  0  0  0  0  0  0  0  0  0  # atno 6909 bound_to 6896
  145.7428  139.2728  143.1476 H   0  0  0  0  0  0  0  0  0  0  0  0  # atno 7974 bound_to 7965
  156.2752  140.2771  156.1568 H   0  0  0  0  0  0  0  0  0  0  0  0  # atno 8008 bound_to 7997
  155.0796  140.0387  157.2652 H   0  0  0  0  0  0  0  0  0  0  0  0  # atno 8009 bound_to 7997
  154.6975  140.2642  155.6758 H   0  0  0  0  0  0  0  0  0  0  0  0  # atno 8010 bound_to 7997
  140.0375  143.5186  152.2146 H   0  0  0  0  0  0  0  0  0  0  0  0  # atno 10167 bound_to 10162
  157.3526  130.7607  149.6990 H   0  0  0  0  0  0  0  0  0  0  0  0  # atno 10718 bound_to 10713
  153.1225  135.6722  153.9312 H   0  0  0  0  0  0  0  0  0  0  0  0  # atno 10763 bound_to 10752
  153.8823  135.3057  155.3447 H   0  0  0  0  0  0  0  0  0  0  0  0  # atno 10764 bound_to 10752
  154.7634  135.4976  153.9588 H   0  0  0  0  0  0  0  0  0  0  0  0  # atno 10765 bound_to 10752
  140.2675  134.3121  155.7838 H   0  0  0  0  0  0  0  0  0  0  0  0  # atno 11005 bound_to 11000
  146.0432  140.8144  142.9818 LP  0  0  0  0  0  0  0  0  0  0  0  0  # atno 17320 bound_to 7965
  144.6867  140.2941  143.7273 LP  0  0  0  0  0  0  0  0  0  0  0  0  # atno 17321 bound_to 7965
  139.6035  144.7589  151.3115 LP  0  0  0  0  0  0  0  0  0  0  0  0  # atno 17342 bound_to 10162
  140.7275  143.6961  150.7882 LP  0  0  0  0  0  0  0  0  0  0  0  0  # atno 17343 bound_to 10162
  155.9724  130.4136  150.4091 LP  0  0  0  0  0  0  0  0  0  0  0  0  # atno 17370 bound_to 10713
  157.2156  131.0470  151.2575 LP  0  0  0  0  0  0  0  0  0  0  0  0  # atno 17371 bound_to 10713
  141.2182  133.7446  156.9282 LP  0  0  0  0  0  0  0  0  0  0  0  0  # atno 17394 bound_to 11000
  140.1405  134.9296  157.2460 LP  0  0  0  0  0  0  0  0  0  0  0  0  # atno 17395 bound_to 11000

$$$$
