AV-unprocessed.smi:2734|AV-procd|sdf|10537|dock10
  -GOLD-   2272014583D 1   1.00000     0.00000
 Structure written by MMmdl.
 40 42  0  0  0  0  0  0  0  0  1 V2000
  152.6927  143.3791  162.2173 C   0  0  0  0  0  0  0  0  0  0  0  0
  152.4780  142.6855  160.8836 C   0  0  0  0  0  0  0  0  0  0  0  0
  152.9654  141.3708  160.7067 C   0  0  0  0  0  0  0  0  0  0  0  0
  152.7850  140.6901  159.4827 C   0  0  0  0  0  0  0  0  0  0  0  0
  153.1725  139.4188  159.0952 N   0  0  0  0  0  0  0  0  0  0  0  0
  152.7162  139.3687  157.8468 C   0  0  0  0  0  0  0  0  0  0  0  0
  152.0787  140.4593  157.3792 N   0  0  0  0  0  0  0  0  0  0  0  0
  151.4999  140.6407  156.0601 C   0  0  0  0  0  0  0  0  0  0  0  0
  151.2843  139.3052  155.3234 C   0  0  2  0  0  0  0  0  0  0  0  0
  150.6137  139.5432  154.1005 O   0  0  0  0  0  0  0  0  0  0  0  0
  150.4673  138.3115  156.1643 C   0  0  0  0  0  0  0  0  0  0  0  0
  150.0270  136.8185  155.2222 S   0  0  0  0  0  0  0  0  0  0  0  0
  150.9995  135.6210  156.0827 C   0  0  0  0  0  0  0  0  0  0  0  0
  152.2790  135.7336  156.4214 N   0  0  0  0  0  0  0  0  0  0  0  0
  152.5608  134.5439  157.0652 N   0  0  0  0  0  0  0  0  0  0  0  0
  151.5150  133.7708  157.1063 N   0  0  0  0  0  0  0  0  0  0  0  0
  150.5134  134.4407  156.4865 N   0  0  0  0  0  0  0  0  0  0  0  0
  149.1929  133.8582  156.3536 C   0  0  0  0  0  0  0  0  0  0  0  0
  152.0995  141.3668  158.4319 C   0  0  0  0  0  0  0  0  0  0  0  0
  151.6105  142.6747  158.5952 C   0  0  0  0  0  0  0  0  0  0  0  0
  151.7976  143.3397  159.8251 C   0  0  0  0  0  0  0  0  0  0  0  0
  151.2628  144.7509  159.9931 C   0  0  0  0  0  0  0  0  0  0  0  0
  153.2442  142.7451  162.9121 H   0  0  0  0  0  0  0  0  0  0  0  0
  151.7355  143.6258  162.6774 H   0  0  0  0  0  0  0  0  0  0  0  0
  153.2605  144.2998  162.0829 H   0  0  0  0  0  0  0  0  0  0  0  0
  153.4831  140.8719  161.5126 H   0  0  0  0  0  0  0  0  0  0  0  0
  152.8508  138.4874  157.2367 H   0  0  0  0  0  0  0  0  0  0  0  0
  150.5505  141.1644  156.1772 H   0  0  0  0  0  0  0  0  0  0  0  0
  152.1490  141.2978  155.4793 H   0  0  0  0  0  0  0  0  0  0  0  0
  152.2553  138.8634  155.0959 H   0  0  0  0  0  0  0  0  0  0  0  0
  150.8659  138.8711  153.4855 H   0  0  0  0  0  0  0  0  0  0  0  0
  151.0492  138.0066  157.0349 H   0  0  0  0  0  0  0  0  0  0  0  0
  149.5585  138.7878  156.5350 H   0  0  0  0  0  0  0  0  0  0  0  0
  148.9722  133.6893  155.2997 H   0  0  0  0  0  0  0  0  0  0  0  0
  148.4483  134.5367  156.7705 H   0  0  0  0  0  0  0  0  0  0  0  0
  149.1389  132.9064  156.8836 H   0  0  0  0  0  0  0  0  0  0  0  0
  151.0941  143.1602  157.7803 H   0  0  0  0  0  0  0  0  0  0  0  0
  150.7581  145.0953  159.0899 H   0  0  0  0  0  0  0  0  0  0  0  0
  152.0759  145.4446  160.2073 H   0  0  0  0  0  0  0  0  0  0  0  0
  150.5457  144.7925  160.8132 H   0  0  0  0  0  0  0  0  0  0  0  0
  1  2  1  0  0  0  0
  1 23  1  0  0  0  0
  1 24  1  0  0  0  0
  1 25  1  0  0  0  0
  2 21  1  0  0  0  0
  2  3  2  0  0  0  0
  3  4  1  0  0  0  0
  3 26  1  0  0  0  0
  4 19  2  0  0  0  0
  4  5  1  0  0  0  0
  5  6  2  0  0  0  0
  6  7  1  0  0  0  0
  6 27  1  0  0  0  0
  7  8  1  0  0  0  0
  7 19  1  0  0  0  0
  8  9  1  0  0  0  0
  8 28  1  0  0  0  0
  8 29  1  0  0  0  0
  9 10  1  0  0  0  0
  9 11  1  0  0  0  0
  9 30  1  0  0  0  0
 10 31  1  0  0  0  0
 11 12  1  0  0  0  0
 11 32  1  0  0  0  0
 11 33  1  0  0  0  0
 12 13  1  0  0  0  0
 13 17  1  0  0  0  0
 13 14  2  0  0  0  0
 14 15  1  0  0  0  0
 15 16  2  0  0  0  0
 16 17  1  0  0  0  0
 17 18  1  0  0  0  0
 18 34  1  0  0  0  0
 18 35  1  0  0  0  0
 18 36  1  0  0  0  0
 19 20  1  0  0  0  0
 20 21  2  0  0  0  0
 20 37  1  0  0  0  0
 21 22  1  0  0  0  0
 22 38  1  0  0  0  0
 22 39  1  0  0  0  0
 22 40  1  0  0  0  0
M  END
> <s_m_source_file>
AV-unprocessed.smi

> <i_m_source_file_index>
2734

> <i_lp_mmshare_version>
43012

> <i_f3d_flags>
0

> <s_epik_input>
W0NIM11jKFtjSF0xKWMoW0NIM10pW2NIXWMoYzEyKW4oW2NIXW4yKVtDSDJdW0NASF0oW09IXSlbQ0gyXVNjM25ubm4zW0NIM10=

> <s_epik_cmdline>
J2VwaWtfcHl0aG9uJywgJy1waCcsICc3LjAnLCAnLXRuJywgJzgnLCAnLW1hJywgJzIwMCcsICctbWV0YWxfYmluZGluZycsICctaW1hZScsICc8aW5maWxlLm1hZT4nLCAnLW9tYWUnLCAnPG91dGZpbGUubWFlPic=

> <r_lp_tautomer_probability>
1

> <r_epik_Ionization_Penalty>
0.105517

> <r_epik_Ionization_Penalty_Charging>
0

> <r_epik_Ionization_Penalty_Neutral>
0.105517

> <r_epik_State_Penalty>
0.0953887

> <r_epik_Charging_Adjusted_Penalty>
0.0953887

> <i_epik_Tot_Q>
0

> <i_epik_Tot_abs_Q>
0

> <r_epik_Metal_State_Penalty>
0.0808533

> <b_epik_Metal_Only>
0

> <s_lp_Force_Field>
OPLS_2005

> <r_lp_Energy>
9.5145

> <b_lp_Chiralities_Consistent>
1

> <s_lp_Variant>
AV-unprocessed.smi:2734-1

> <Gold.Version>
5.8.1

> <Gold.Id.Protein>
6NUR|6NUR_protein|mol2

> <Gold.PLP.Fitness>
47.9861

> <Gold.PLP.PLP>
-42.1245

> <Gold.PLP.part.hbond>
-5.2957

> <Gold.PLP.part.metal>
0.0000

> <Gold.PLP.part.buried>
-4.3473

> <Gold.PLP.part.nonpolar>
-32.4855

> <Gold.PLP.part.repulsive>
0.0000

> <Gold.PLP.ligand.clash>
0.0000

> <Gold.PLP.ligand.torsion>
0.7940

> <Gold.PLP.Chemscore.Hbond>
2.4755

> <Gold.PLP.Chemscore.CHOScore>
0.0000

> <Gold.PLP.Chemscore.Metal>
0.0000

> <Gold.Chemscore.Hbonds>
donor molecule, donor type, donor heavy atom, donor atom, acceptor molecule, acceptor atom, score
      P1  H  6896  6907       L1    16  0.35
      P1  H  7989  7998       L1    10  0.86
      P1  H 10752 10764       L1    14  0.99

> <Gold.PLP.Chemscore.Internal.Correction>
0.0231

> <Gold.Rescore>
     Score         DG    S(hbond)    S(metal)    S(lipo)     H(rot)  DE(clash)    DE(int)     intcor
     11.60     -13.53       0.84        0.00     107.00       2.85       0.42       1.51       ----

> <Gold.Chemscore.Fitness>
11.6003

> <Gold.Chemscore.DG>
-13.5341

> <Gold.Chemscore.ZeroCoef>
-5.4800

> <Gold.Chemscore.Hbond>
0.8438

> <Gold.Chemscore.Metal>
0.0000

> <Gold.Chemscore.Lipo>
107.0028

> <Gold.Chemscore.Internal_Hbond>
0.0000

> <Gold.Chemscore.DEClash>
0.4205

> <Gold.Chemscore.DEInternal>
1.5133

> <Gold.Chemscore.Rot>
2.8452

> <Gold.Chemscore.Internal.Correction>
   9.000000E+99

> <Gold.Chemscore.Hbonds>
donor molecule, donor type, donor heavy atom, donor atom, acceptor molecule, acceptor atom, score
      P1  H  6896  6907       L1    16  0.13
      P1  H  7989  7998       L1    10  0.04
      P1  H 10752 10764       L1    14  0.10

> <Gold.Chemscore.Hbond.Weighted>
-2.8184

> <Gold.Chemscore.Metal.Weighted>
-0.0000

> <Gold.Chemscore.Lipo.Weighted>
-12.5193

> <Gold.Chemscore.Internal_Hbond.Weighted>
0.0000

> <Gold.Chemscore.DEClash.Weighted>
0.4205

> <Gold.Chemscore.DEInternal.Weighted>
1.5133

> <Gold.Chemscore.Rot.Weighted>
7.2837

> <Gold.Chemscore.Internal.Correction.Weighted>
   9.000000E+99

> <Gold.Protein.RotatedTorsions>
[ 6907 6896 6895 6894 ] final -148.63 input  -60.11 | X-H torsion
[ 7974 7965 7964 7962 ] final  -47.56 input  175.53 | X-H torsion
[ 8008 7997 7996 7995 ] final   40.86 input   59.86 | X-H torsion
[ 10167 10162 10161 10158 ] final  -68.18 input  -65.29 | X-H torsion
[ 10718 10713 10712 10709 ] final  144.68 input   66.30 | X-H torsion
[ 10763 10752 10751 10750 ] final  -40.33 input  -60.55 | X-H torsion
[ 11005 11000 10999 10996 ] final   16.54 input  -57.11 | X-H torsion

> <Gold.Protein.ActiveResidues>
 VAL166  LYS551  ARG553  GLY616  TRP617  ASP618  TYR619  PRO620  LYS621  CYS622 
 ASP623  PHE694  ASN695  SER759  ASP760  ASP761  ALA762  ILE779  LEU786  VAL792 
 PHE793  MET794  SER795  GLU796  ALA797  LYS798  CYS799  TRP800  GLU811  SER814 

> <Gold.Protein.RotatedAtoms>
  151.1725  133.4775  159.2593 H   0  0  0  0  0  0  0  0  0  0  0  0  # atno 6907 bound_to 6896
  151.1341  135.0145  159.8606 H   0  0  0  0  0  0  0  0  0  0  0  0  # atno 6908 bound_to 6896
  152.5461  134.1625  159.8617 H   0  0  0  0  0  0  0  0  0  0  0  0  # atno 6909 bound_to 6896
  145.9603  140.7485  142.9460 H   0  0  0  0  0  0  0  0  0  0  0  0  # atno 7974 bound_to 7965
  155.2600  140.3358  155.4274 H   0  0  0  0  0  0  0  0  0  0  0  0  # atno 8008 bound_to 7997
  156.2178  140.1796  156.7590 H   0  0  0  0  0  0  0  0  0  0  0  0  # atno 8009 bound_to 7997
  154.5780  140.0658  156.9047 H   0  0  0  0  0  0  0  0  0  0  0  0  # atno 8010 bound_to 7997
  140.5526  143.2312  151.6881 H   0  0  0  0  0  0  0  0  0  0  0  0  # atno 10167 bound_to 10162
  157.3543  131.0955  151.0972 H   0  0  0  0  0  0  0  0  0  0  0  0  # atno 10718 bound_to 10713
  153.9441  135.6758  153.4744 H   0  0  0  0  0  0  0  0  0  0  0  0  # atno 10763 bound_to 10752
  153.0917  135.4871  154.8699 H   0  0  0  0  0  0  0  0  0  0  0  0  # atno 10764 bound_to 10752
  154.7361  135.3149  154.8767 H   0  0  0  0  0  0  0  0  0  0  0  0  # atno 10765 bound_to 10752
  140.4460  134.1273  155.7696 H   0  0  0  0  0  0  0  0  0  0  0  0  # atno 11005 bound_to 11000
  144.6813  140.2580  143.7323 LP  0  0  0  0  0  0  0  0  0  0  0  0  # atno 17320 bound_to 7965
  145.8049  139.1979  143.2027 LP  0  0  0  0  0  0  0  0  0  0  0  0  # atno 17321 bound_to 7965
  139.5034  144.3792  152.0393 LP  0  0  0  0  0  0  0  0  0  0  0  0  # atno 17342 bound_to 10162
  140.2911  144.3753  150.6088 LP  0  0  0  0  0  0  0  0  0  0  0  0  # atno 17343 bound_to 10162
  157.2135  130.6449  149.5783 LP  0  0  0  0  0  0  0  0  0  0  0  0  # atno 17370 bound_to 10713
  155.9726  130.4652  150.6245 LP  0  0  0  0  0  0  0  0  0  0  0  0  # atno 17371 bound_to 10713
  141.1685  133.8656  157.1643 LP  0  0  0  0  0  0  0  0  0  0  0  0  # atno 17394 bound_to 11000
  140.0038  135.0017  157.0248 LP  0  0  0  0  0  0  0  0  0  0  0  0  # atno 17395 bound_to 11000

$$$$
