AV-unprocessed.smi:1243|AV-procd|sdf|5220|dock4
  -GOLD-   22720 4313D 1   1.00000     0.00000
 Structure written by MMmdl.
 50 51  0  0  0  0  0  0  0  0  1 V2000
  151.8696  145.6458  159.6197 C   0  0  0  0  0  0  0  0  0  0  0  0
  151.5078  144.5554  158.7793 O   0  0  0  0  0  0  0  0  0  0  0  0
  152.0799  143.3199  159.0167 C   0  0  0  0  0  0  0  0  0  0  0  0
  152.9829  143.2097  160.0233 N   0  0  0  0  0  0  0  0  0  0  0  0
  153.5448  142.0053  160.2535 C   0  0  0  0  0  0  0  0  0  0  0  0
  153.2460  140.8583  159.4958 C   0  0  0  0  0  0  0  0  0  0  0  0
  152.3098  140.9699  158.4512 C   0  0  0  0  0  0  0  0  0  0  0  0
  151.6987  142.2241  158.2072 C   0  0  0  0  0  0  0  0  0  0  0  0
  150.7481  142.4565  157.1746 N   0  0  0  0  0  0  0  0  0  0  0  0
  150.4519  141.6907  156.1109 C   0  0  0  0  0  0  0  0  0  0  0  0
  151.0011  140.6282  155.8209 O   0  0  0  0  0  0  0  0  0  0  0  0
  149.4561  142.2322  155.3965 N   0  0  0  0  0  0  0  0  0  0  0  0
  148.8840  141.6843  154.1672 C   0  0  0  0  0  0  0  0  0  0  0  0
  147.9083  140.5045  154.4450 C   0  0  0  0  0  0  0  0  0  0  0  0
  146.8653  141.0332  155.4624 C   0  0  0  0  0  0  0  0  0  0  0  0
  147.1550  140.2135  153.1249 C   0  0  0  0  0  0  0  0  0  0  0  0
  148.6236  139.3133  154.9835 N   0  0  0  0  0  0  0  0  0  0  0  0
  147.7616  138.1600  155.2888 C   0  0  0  0  0  0  0  0  0  0  0  0
  148.5463  137.0253  155.9724 C   0  0  0  0  0  0  0  0  0  0  0  0
  149.6545  136.5647  155.1415 N   0  0  0  0  0  0  0  0  0  0  0  0
  150.3890  135.4844  155.7811 C   0  0  0  0  0  0  0  0  0  0  0  0
  150.5211  137.7011  154.8451 C   0  0  0  0  0  0  0  0  0  0  0  0
  149.7439  138.8369  154.1551 C   0  0  0  0  0  0  0  0  0  0  0  0
  151.3328  146.5391  159.3008 H   0  0  0  0  0  0  0  0  0  0  0  0
  152.9371  145.8612  159.5568 H   0  0  0  0  0  0  0  0  0  0  0  0
  151.6020  145.4540  160.6597 H   0  0  0  0  0  0  0  0  0  0  0  0
  154.2582  141.9549  161.0627 H   0  0  0  0  0  0  0  0  0  0  0  0
  153.7264  139.9147  159.7087 H   0  0  0  0  0  0  0  0  0  0  0  0
  152.0922  140.0973  157.8559 H   0  0  0  0  0  0  0  0  0  0  0  0
  150.1653  143.2703  157.3065 H   0  0  0  0  0  0  0  0  0  0  0  0
  149.0718  143.1100  155.7137 H   0  0  0  0  0  0  0  0  0  0  0  0
  148.3716  142.4615  153.5974 H   0  0  0  0  0  0  0  0  0  0  0  0
  149.7061  141.3739  153.5227 H   0  0  0  0  0  0  0  0  0  0  0  0
  146.4644  142.0012  155.1591 H   0  0  0  0  0  0  0  0  0  0  0  0
  147.2991  141.1591  156.4551 H   0  0  0  0  0  0  0  0  0  0  0  0
  146.0076  140.3677  155.5600 H   0  0  0  0  0  0  0  0  0  0  0  0
  146.6421  141.1056  152.7630 H   0  0  0  0  0  0  0  0  0  0  0  0
  146.3942  139.4427  153.2454 H   0  0  0  0  0  0  0  0  0  0  0  0
  147.8276  139.8945  152.3290 H   0  0  0  0  0  0  0  0  0  0  0  0
  146.9516  138.4469  155.9566 H   0  0  0  0  0  0  0  0  0  0  0  0
  147.3005  137.7768  154.3784 H   0  0  0  0  0  0  0  0  0  0  0  0
  148.9199  137.3690  156.9385 H   0  0  0  0  0  0  0  0  0  0  0  0
  147.8707  136.1942  156.1774 H   0  0  0  0  0  0  0  0  0  0  0  0
  151.2018  135.1386  155.1416 H   0  0  0  0  0  0  0  0  0  0  0  0
  149.7340  134.6343  155.9738 H   0  0  0  0  0  0  0  0  0  0  0  0
  150.8175  135.8064  156.7312 H   0  0  0  0  0  0  0  0  0  0  0  0
  150.9765  138.0751  155.7636 H   0  0  0  0  0  0  0  0  0  0  0  0
  151.3394  137.3803  154.1995 H   0  0  0  0  0  0  0  0  0  0  0  0
  149.3816  138.4861  153.1886 H   0  0  0  0  0  0  0  0  0  0  0  0
  150.4492  139.6413  153.9554 H   0  0  0  0  0  0  0  0  0  0  0  0
  1  2  1  0  0  0  0
  1 24  1  0  0  0  0
  1 25  1  0  0  0  0
  1 26  1  0  0  0  0
  2  3  1  0  0  0  0
  3  8  1  0  0  0  0
  3  4  2  0  0  0  0
  4  5  1  0  0  0  0
  5  6  2  0  0  0  0
  5 27  1  0  0  0  0
  6  7  1  0  0  0  0
  6 28  1  0  0  0  0
  7  8  2  0  0  0  0
  7 29  1  0  0  0  0
  8  9  1  0  0  0  0
  9 10  1  0  0  0  0
  9 30  1  0  0  0  0
 10 11  2  0  0  0  0
 10 12  1  0  0  0  0
 12 13  1  0  0  0  0
 12 31  1  0  0  0  0
 13 14  1  0  0  0  0
 13 32  1  0  0  0  0
 13 33  1  0  0  0  0
 14 15  1  0  0  0  0
 14 16  1  0  0  0  0
 14 17  1  0  0  0  0
 15 34  1  0  0  0  0
 15 35  1  0  0  0  0
 15 36  1  0  0  0  0
 16 37  1  0  0  0  0
 16 38  1  0  0  0  0
 16 39  1  0  0  0  0
 17 23  1  0  0  0  0
 17 18  1  0  0  0  0
 18 19  1  0  0  0  0
 18 40  1  0  0  0  0
 18 41  1  0  0  0  0
 19 20  1  0  0  0  0
 19 42  1  0  0  0  0
 19 43  1  0  0  0  0
 20 21  1  0  0  0  0
 20 22  1  0  0  0  0
 21 44  1  0  0  0  0
 21 45  1  0  0  0  0
 21 46  1  0  0  0  0
 22 23  1  0  0  0  0
 22 47  1  0  0  0  0
 22 48  1  0  0  0  0
 23 49  1  0  0  0  0
 23 50  1  0  0  0  0
M  END
> <s_m_source_file>
AV-unprocessed.smi

> <i_m_source_file_index>
1243

> <i_lp_mmshare_version>
43012

> <i_f3d_flags>
0

> <s_epik_input>
W0NIM11PYzFuW2NIXVtjSF1bY0hdYzFbTkhdQyg9TylbTkhdW0NIMl1DKFtDSDNdKShbQ0gzXSlOMltDSDJdW0NIMl1OKFtDSDNdKVtDSDJdW0NIMl0y

> <s_epik_cmdline>
J2VwaWtfcHl0aG9uJywgJy1waCcsICc3LjAnLCAnLXRuJywgJzgnLCAnLW1hJywgJzIwMCcsICctbWV0YWxfYmluZGluZycsICctaW1hZScsICc8aW5maWxlLm1hZT4nLCAnLW9tYWUnLCAnPG91dGZpbGUubWFlPic=

> <r_lp_tautomer_probability>
1

> <r_epik_Ionization_Penalty>
3.08543

> <r_epik_Ionization_Penalty_Charging>
0

> <r_epik_Ionization_Penalty_Neutral>
3.08543

> <r_epik_State_Penalty>
2.1584

> <r_epik_Charging_Adjusted_Penalty>
2.1584

> <i_epik_Tot_Q>
0

> <i_epik_Tot_abs_Q>
0

> <r_epik_Metal_State_Penalty>
2.1584

> <b_epik_Metal_Only>
0

> <s_lp_Force_Field>
OPLS_2005

> <r_lp_Energy>
53.3534

> <b_lp_Chiralities_Consistent>
1

> <s_lp_Variant>
AV-unprocessed.smi:1243-3

> <Gold.Version>
5.8.1

> <Gold.Id.Protein>
6NUR|6NUR_protein|mol2

> <Gold.PLP.Fitness>
42.6211

> <Gold.PLP.PLP>
-39.2831

> <Gold.PLP.part.hbond>
-1.6201

> <Gold.PLP.part.metal>
0.0000

> <Gold.PLP.part.buried>
-4.2146

> <Gold.PLP.part.nonpolar>
-32.8323

> <Gold.PLP.part.repulsive>
0.5716

> <Gold.PLP.ligand.clash>
0.0000

> <Gold.PLP.ligand.torsion>
0.2619

> <Gold.PLP.Chemscore.Hbond>
1.2652

> <Gold.PLP.Chemscore.CHOScore>
0.0000

> <Gold.PLP.Chemscore.Metal>
0.0000

> <Gold.Chemscore.Hbonds>
donor molecule, donor type, donor heavy atom, donor atom, acceptor molecule, acceptor atom, score
      L1  H    12    31       P1  8028  1.00
      P1  H  7989  7998       L1    11  0.04

> <Gold.PLP.Chemscore.Internal.Correction>
0.0662

> <Gold.Rescore>
     Score         DG    S(hbond)    S(metal)    S(lipo)     H(rot)  DE(clash)    DE(int)     intcor
     12.37     -16.49       1.25        0.00      95.00       1.67       1.16       2.97       ----

> <Gold.Chemscore.Fitness>
12.3736

> <Gold.Chemscore.DG>
-16.4948

> <Gold.Chemscore.ZeroCoef>
-5.4800

> <Gold.Chemscore.Hbond>
1.2530

> <Gold.Chemscore.Metal>
0.0000

> <Gold.Chemscore.Lipo>
94.9961

> <Gold.Chemscore.Internal_Hbond>
0.0000

> <Gold.Chemscore.DEClash>
1.1551

> <Gold.Chemscore.DEInternal>
2.9661

> <Gold.Chemscore.Rot>
1.6737

> <Gold.Chemscore.Internal.Correction>
   9.000000E+99

> <Gold.Chemscore.Hbonds>
donor molecule, donor type, donor heavy atom, donor atom, acceptor molecule, acceptor atom, score
      L1  H    12    31       P1  8028  0.97
      P1  H  7989  7998       L1    11  0.04

> <Gold.Chemscore.Hbond.Weighted>
-4.1851

> <Gold.Chemscore.Metal.Weighted>
-0.0000

> <Gold.Chemscore.Lipo.Weighted>
-11.1145

> <Gold.Chemscore.Internal_Hbond.Weighted>
0.0000

> <Gold.Chemscore.DEClash.Weighted>
1.1551

> <Gold.Chemscore.DEInternal.Weighted>
2.9661

> <Gold.Chemscore.Rot.Weighted>
4.2848

> <Gold.Chemscore.Internal.Correction.Weighted>
   9.000000E+99

> <Gold.Protein.RotatedTorsions>
[ 6907 6896 6895 6894 ] final   24.09 input  -60.11 | X-H torsion
[ 7974 7965 7964 7962 ] final -119.42 input  175.53 | X-H torsion
[ 8008 7997 7996 7995 ] final -168.55 input   59.86 | X-H torsion
[ 10167 10162 10161 10158 ] final -175.11 input  -65.29 | X-H torsion
[ 10718 10713 10712 10709 ] final  159.38 input   66.30 | X-H torsion
[ 10763 10752 10751 10750 ] final  -41.33 input  -60.55 | X-H torsion
[ 11005 11000 10999 10996 ] final  140.70 input  -57.11 | X-H torsion

> <Gold.Protein.ActiveResidues>
 VAL166  LYS551  ARG553  GLY616  TRP617  ASP618  TYR619  PRO620  LYS621  CYS622 
 ASP623  PHE694  ASN695  SER759  ASP760  ASP761  ALA762  ILE779  LEU786  VAL792 
 PHE793  MET794  SER795  GLU796  ALA797  LYS798  CYS799  TRP800  GLU811  SER814 

> <Gold.Protein.RotatedAtoms>
  151.9523  135.0163  160.0542 H   0  0  0  0  0  0  0  0  0  0  0  0  # atno 6907 bound_to 6896
  152.1942  133.4790  159.5032 H   0  0  0  0  0  0  0  0  0  0  0  0  # atno 6908 bound_to 6896
  150.6941  134.1591  159.4212 H   0  0  0  0  0  0  0  0  0  0  0  0  # atno 6909 bound_to 6896
  145.0627  140.8302  143.4142 H   0  0  0  0  0  0  0  0  0  0  0  0  # atno 7974 bound_to 7965
  155.8929  140.1028  157.1405 H   0  0  0  0  0  0  0  0  0  0  0  0  # atno 8008 bound_to 7997
  154.4017  140.1307  156.4403 H   0  0  0  0  0  0  0  0  0  0  0  0  # atno 8009 bound_to 7997
  155.7512  140.3465  155.5154 H   0  0  0  0  0  0  0  0  0  0  0  0  # atno 8010 bound_to 7997
  139.5598  144.1898  152.1220 H   0  0  0  0  0  0  0  0  0  0  0  0  # atno 10167 bound_to 10162
  157.1649  131.0596  151.2213 H   0  0  0  0  0  0  0  0  0  0  0  0  # atno 10718 bound_to 10713
  153.9607  135.6740  153.4745 H   0  0  0  0  0  0  0  0  0  0  0  0  # atno 10763 bound_to 10752
  153.0840  135.4909  154.8556 H   0  0  0  0  0  0  0  0  0  0  0  0  # atno 10764 bound_to 10752
  154.7274  135.3130  154.8908 H   0  0  0  0  0  0  0  0  0  0  0  0  # atno 10765 bound_to 10752
  140.0346  134.9335  157.0729 H   0  0  0  0  0  0  0  0  0  0  0  0  # atno 11005 bound_to 11000
  145.1389  139.2585  143.5501 LP  0  0  0  0  0  0  0  0  0  0  0  0  # atno 17320 bound_to 7965
  146.3525  140.1060  142.8606 LP  0  0  0  0  0  0  0  0  0  0  0  0  # atno 17321 bound_to 7965
  140.1409  144.5203  150.6745 LP  0  0  0  0  0  0  0  0  0  0  0  0  # atno 17342 bound_to 10162
  140.6876  143.2358  151.5217 LP  0  0  0  0  0  0  0  0  0  0  0  0  # atno 17343 bound_to 10162
  157.4098  130.7378  149.6830 LP  0  0  0  0  0  0  0  0  0  0  0  0  # atno 17370 bound_to 10713
  155.9747  130.4098  150.3899 LP  0  0  0  0  0  0  0  0  0  0  0  0  # atno 17371 bound_to 10713
  140.4168  134.1923  155.7163 LP  0  0  0  0  0  0  0  0  0  0  0  0  # atno 17394 bound_to 11000
  141.1850  133.8332  157.1119 LP  0  0  0  0  0  0  0  0  0  0  0  0  # atno 17395 bound_to 11000

$$$$
