#       Name:                AV-unprocessed.smi:889
#       Creating user name   scv26
#       Creation time:       Fri Mar 27 01:54:31 2020


#       File generated by GOLD software.
#

@<TRIPOS>MOLECULE
AV-unprocessed.smi:889
    48    49     1
SMALL
NO_CHARGES


@<TRIPOS>ATOM
      1 ****        -3.2755   3.5816   4.3810 C.3            1 S1                 0.0000
      2 ****        -2.6677   3.2540   3.0598 C.2            1 S1                 0.0000
      3 ****        -3.1745   2.7127   1.9130 C.2            1 S1                 0.0000
      4 ****        -2.0561   2.6755   1.0345 C.2            1 S1                 0.0000
      5 ****        -1.9997   2.1834  -0.3869 C.3            1 S1                 0.0000
      6 ****        -1.8499   0.6620  -0.4189 C.2            1 S1                 0.0000
      7 ****        -2.8053  -0.0458  -0.7375 O.2            1 S1                 0.0000
      8 ****        -0.6433   0.1735  -0.0975 N.am           1 S1                 0.0000
      9 ****        -0.2885  -1.2409  -0.0973 C.3            1 S1                 0.0000
     10 ****         1.2397  -1.4516  -0.0751 C.3            1 S1                 0.0000
     11 ****         1.8965  -0.7180  -1.2687 C.3            1 S1                 0.0000
     12 ****         1.3530  -1.0278  -2.6865 C.3            1 S1                 0.0000
     13 ****         1.4185  -2.5182  -3.0585 C.3            1 S1                 0.0000
     14 ****         2.0922  -0.1833  -3.7358 C.3            1 S1                 0.0000
     15 ****         1.9032  -1.1550   1.2902 C.3            1 S1                 0.0000
     16 ****         1.7792  -2.6299   1.6614 C.3            1 S1                 0.0000
     17 ****         1.6942  -2.9108   0.1636 C.3            1 S1                 0.0000
     18 ****        -0.9655   3.1577   1.6101 N.2            1 S1                 0.0000
     19 ****        -1.3461   3.5269   2.9049 O.3            1 S1                 0.0000
     20 ****        -4.2019   4.1413   4.2511 H              1 S1                 0.0000
     21 ****        -2.5997   4.1861   4.9865 H              1 S1                 0.0000
     22 ****        -3.5048   2.6720   4.9362 H              1 S1                 0.0000
     23 ****        -4.1892   2.3924   1.7292 H              1 S1                 0.0000
     24 ****        -2.9069   2.4686  -0.9208 H              1 S1                 0.0000
     25 ****        -1.1682   2.6386  -0.9275 H              1 S1                 0.0000
     26 ****         0.0828   0.8271   0.1585 H              1 S1                 0.0000
     27 ****        -0.7541  -1.6988   0.7763 H              1 S1                 0.0000
     28 ****        -0.7340  -1.7401  -0.9586 H              1 S1                 0.0000
     29 ****         1.8373   0.3588  -1.1048 H              1 S1                 0.0000
     30 ****         2.9665  -0.9307  -1.2686 H              1 S1                 0.0000
     31 ****         0.3075  -0.7229  -2.7332 H              1 S1                 0.0000
     32 ****         2.4315  -2.9087  -2.9575 H              1 S1                 0.0000
     33 ****         1.1023  -2.6788  -4.0895 H              1 S1                 0.0000
     34 ****         0.7607  -3.1175  -2.4309 H              1 S1                 0.0000
     35 ****         3.1539  -0.4295  -3.7678 H              1 S1                 0.0000
     36 ****         2.0032   0.8815  -3.5178 H              1 S1                 0.0000
     37 ****         1.6826  -0.3469  -4.7330 H              1 S1                 0.0000
     38 ****         2.9439  -0.8383   1.2012 H              1 S1                 0.0000
     39 ****         1.3437  -0.4793   1.9383 H              1 S1                 0.0000
     40 ****         2.6536  -3.0521   2.1575 H              1 S1                 0.0000
     41 ****         0.8557  -2.8619   2.1936 H              1 S1                 0.0000
     42 ****         0.9611  -3.6719  -0.1047 H              1 S1                 0.0000
     43 ****         2.6700  -3.1337  -0.2716 H              1 S1                 0.0000
     44 ****        -3.6811   0.3740  -0.9758 LP             1 S1                 0.0000
     45 ****        -2.7057  -1.0406  -0.7579 LP             1 S1                 0.0000
     46 ****        -0.0561   3.2409   1.2028 LP             1 S1                 0.0000
     47 ****        -0.8139   3.0080   3.5739 LP             1 S1                 0.0000
     48 ****        -1.1858   4.5050   3.0377 LP             1 S1                 0.0000
@<TRIPOS>BOND
    1    1    2 1     
    2    1   20 1     
    3    1   21 1     
    4    1   22 1     
    5    2   19 1     
    6    2    3 2     
    7    3    4 1     
    8    3   23 1     
    9    4    5 1     
   10    4   18 2     
   11    5    6 1     
   12    5   24 1     
   13    5   25 1     
   14    6    7 2     
   15    6    8 am    
   16    8    9 1     
   17    8   26 1     
   18    9   10 1     
   19    9   27 1     
   20    9   28 1     
   21   10   17 1     
   22   10   11 1     
   23   10   15 1     
   24   11   12 1     
   25   11   29 1     
   26   11   30 1     
   27   12   13 1     
   28   12   14 1     
   29   12   31 1     
   30   13   32 1     
   31   13   33 1     
   32   13   34 1     
   33   14   35 1     
   34   14   36 1     
   35   14   37 1     
   36   15   16 1     
   37   15   38 1     
   38   15   39 1     
   39   16   17 1     
   40   16   40 1     
   41   16   41 1     
   42   17   42 1     
   43   17   43 1     
   44   18   19 1     
   45    7   44 1     
   46    7   45 1     
   47   18   46 1     
   48   19   47 1     
   49   19   48 1     
@<TRIPOS>SUBSTRUCTURE
      1 S1             1
@<TRIPOS>SET
LONE_PAIRS      STATIC     ATOMS    <user>   **** ""
5 44 45 46 47 48
DONOR_HYDROGENS      STATIC     ATOMS    <user>   **** ""
1 26
ATOM$BLUE        STATIC     ATOMS    COLORGROUP SYSTEM
5 44 45 46 47 48
ATOM$RED        STATIC     ATOMS    COLORGROUP SYSTEM
1 26
