AV-unprocessed.smi:47|AV-procd|sdf|432|dock6
  -GOLD-   2262016303D 1   1.00000     0.00000
 Structure written by MMmdl.
 32 34  0  0  0  0  0  0  0  0  2 V2000
  145.5575  141.3910  154.2100 O   0  0  0  0  0  0  0  0  0  0  0  0
  146.9062  141.4218  153.7938 C   0  0  2  0  0  0  0  0  0  0  0  0
  147.4623  140.0180  153.5289 C   0  0  0  0  0  0  0  0  0  0  0  0
  148.9072  140.0861  153.8266 N   0  3  0  0  0  0  0  0  0  0  0  0
  149.1874  141.3892  154.4661 C   0  0  2  0  0  0  0  0  0  0  0  0
  150.1176  141.0845  155.6023 C   0  0  0  0  0  0  0  0  0  0  0  0
  150.6671  139.8753  155.7551 N   0  0  0  0  0  0  0  0  0  0  0  0
  151.4678  139.8774  156.8424 N   0  0  0  0  0  0  0  0  0  0  0  0
  151.3375  141.1323  157.2696 C   0  0  0  0  0  0  0  0  0  0  0  0
  152.0523  141.6269  158.4694 C   0  0  0  0  0  0  0  0  0  0  0  0
  152.0809  143.0076  158.7844 C   0  0  0  0  0  0  0  0  0  0  0  0
  152.7592  143.4822  159.9238 C   0  0  0  0  0  0  0  0  0  0  0  0
  153.4247  142.5811  160.7735 C   0  0  0  0  0  0  0  0  0  0  0  0
  153.4094  141.2065  160.4788 C   0  0  0  0  0  0  0  0  0  0  0  0
  152.7300  140.7368  159.3381 C   0  0  0  0  0  0  0  0  0  0  0  0
  150.5095  141.9425  156.5429 N   0  0  0  0  0  0  0  0  0  0  0  0
  147.8304  141.9638  154.8797 C   0  0  0  0  0  0  0  0  0  0  0  0
  146.9970  142.0325  152.8941 H   0  0  0  0  0  0  0  0  0  0  0  0
  149.6737  142.0389  153.7366 H   0  0  0  0  0  0  0  0  0  0  0  0
  145.0219  141.1007  153.4869 H   0  0  0  0  0  0  0  0  0  0  0  0
  147.0176  139.2916  154.2108 H   0  0  0  0  0  0  0  0  0  0  0  0
  147.2754  139.6801  152.5091 H   0  0  0  0  0  0  0  0  0  0  0  0
  149.1447  139.3420  154.4680 H   0  0  0  0  0  0  0  0  0  0  0  0
  151.5802  143.7241  158.1501 H   0  0  0  0  0  0  0  0  0  0  0  0
  152.7685  144.5395  160.1448 H   0  0  0  0  0  0  0  0  0  0  0  0
  153.9455  142.9430  161.6479 H   0  0  0  0  0  0  0  0  0  0  0  0
  153.9193  140.5102  161.1282 H   0  0  0  0  0  0  0  0  0  0  0  0
  152.7357  139.6755  159.1379 H   0  0  0  0  0  0  0  0  0  0  0  0
  147.8296  143.0515  154.9566 H   0  0  0  0  0  0  0  0  0  0  0  0
  147.5308  141.5575  155.8478 H   0  0  0  0  0  0  0  0  0  0  0  0
  149.4517  139.9952  152.9812 H   0  0  0  0  0  0  0  0  0  0  0  0
  150.5348  139.0606  155.1725 H   0  0  0  0  0  0  0  0  0  0  0  0
  1  2  1  0  0  0  0
  1 20  1  0  0  0  0
  2 18  1  0  0  0  0
  2 17  1  0  0  0  0
  2  3  1  0  0  0  0
  3  4  1  0  0  0  0
  3 21  1  0  0  0  0
  3 22  1  0  0  0  0
  4  5  1  0  0  0  0
  4 23  1  0  0  0  0
  4 31  1  0  0  0  0
  5 19  1  0  0  0  0
  5  6  1  0  0  0  0
  5 17  1  0  0  0  0
  6 16  2  0  0  0  0
  6  7  1  0  0  0  0
  7  8  1  0  0  0  0
  7 32  1  0  0  0  0
  8  9  2  0  0  0  0
  9 10  1  0  0  0  0
  9 16  1  0  0  0  0
 10 15  1  0  0  0  0
 10 11  2  0  0  0  0
 11 12  1  0  0  0  0
 11 24  1  0  0  0  0
 12 13  2  0  0  0  0
 12 25  1  0  0  0  0
 13 14  1  0  0  0  0
 13 26  1  0  0  0  0
 14 15  2  0  0  0  0
 14 27  1  0  0  0  0
 15 28  1  0  0  0  0
 17 29  1  0  0  0  0
 17 30  1  0  0  0  0
M  CHG  1   4   1
M  END
> <s_m_source_file>
AV-unprocessed.smi

> <i_m_source_file_index>
47

> <i_lp_mmshare_version>
43012

> <i_f3d_flags>
0

> <s_epik_input>
W09IXVtDQEhdMVtDSDJdW05IXVtDQEBIXShbQ0gyXTEpYzJuW25IXWMobjIpLWMzW2NIXVtjSF1bY0hdW2NIXVtjSF0z

> <s_epik_cmdline>
J2VwaWtfcHl0aG9uJywgJy1waCcsICc3LjAnLCAnLXRuJywgJzgnLCAnLW1hJywgJzIwMCcsICctbWV0YWxfYmluZGluZycsICctaW1hZScsICc8aW5maWxlLm1hZT4nLCAnLW9tYWUnLCAnPG91dGZpbGUubWFlPic=

> <r_epik_Ionization_Penalty>
1.14296

> <r_epik_Ionization_Penalty_Charging>
0.0688988

> <r_epik_Ionization_Penalty_Neutral>
1.07406

> <r_epik_State_Penalty>
1.72347

> <r_epik_Charging_Adjusted_Penalty>
1.79237

> <i_epik_Tot_Q>
1

> <i_epik_Tot_abs_Q>
1

> <r_epik_Metal_State_Penalty>
2.22085

> <b_epik_Metal_Only>
0

> <s_lp_Force_Field>
OPLS_2005

> <r_lp_Energy>
30.6831

> <b_lp_Chiralities_Consistent>
1

> <s_lp_Variant>
AV-unprocessed.smi:47-10

> <Gold.Version>
5.8.1

> <Gold.Id.Protein>
6NUR|6NUR_protein|mol2

> <Gold.PLP.Fitness>
41.7364

> <Gold.PLP.PLP>
-36.0284

> <Gold.PLP.part.hbond>
-2.0000

> <Gold.PLP.part.metal>
0.0000

> <Gold.PLP.part.buried>
-2.5563

> <Gold.PLP.part.nonpolar>
-30.8347

> <Gold.PLP.part.repulsive>
0.3284

> <Gold.PLP.ligand.clash>
0.0000

> <Gold.PLP.ligand.torsion>
0.1525

> <Gold.PLP.Chemscore.Hbond>
2.0000

> <Gold.PLP.Chemscore.CHOScore>
0.0000

> <Gold.PLP.Chemscore.Metal>
0.0000

> <Gold.Chemscore.Hbonds>
donor molecule, donor type, donor heavy atom, donor atom, acceptor molecule, acceptor atom, score
      L1  H     1    20       P1 10175  1.00
      L1  H     4    31       P1  7957  1.00

> <Gold.PLP.Chemscore.Internal.Correction>
0.0131

> <Gold.Rescore>
     Score         DG    S(hbond)    S(metal)    S(lipo)     H(rot)  DE(clash)    DE(int)     intcor
     18.57     -18.69       1.96        0.00      89.64       1.50       0.01       0.11       ----

> <Gold.Chemscore.Fitness>
18.5709

> <Gold.Chemscore.DG>
-18.6923

> <Gold.Chemscore.ZeroCoef>
-5.4800

> <Gold.Chemscore.Hbond>
1.9629

> <Gold.Chemscore.Metal>
0.0000

> <Gold.Chemscore.Lipo>
89.6358

> <Gold.Chemscore.Internal_Hbond>
0.0000

> <Gold.Chemscore.DEClash>
0.0073

> <Gold.Chemscore.DEInternal>
0.1140

> <Gold.Chemscore.Rot>
1.4966

> <Gold.Chemscore.Internal.Correction>
   9.000000E+99

> <Gold.Chemscore.Hbonds>
donor molecule, donor type, donor heavy atom, donor atom, acceptor molecule, acceptor atom, score
      L1  H     1    20       P1 10175  0.50
      L1  H     4    31       P1  7957  0.96

> <Gold.Chemscore.Hbond.Weighted>
-6.5561

> <Gold.Chemscore.Metal.Weighted>
-0.0000

> <Gold.Chemscore.Lipo.Weighted>
-10.4874

> <Gold.Chemscore.Internal_Hbond.Weighted>
0.0000

> <Gold.Chemscore.DEClash.Weighted>
0.0073

> <Gold.Chemscore.DEInternal.Weighted>
0.1140

> <Gold.Chemscore.Rot.Weighted>
3.8312

> <Gold.Chemscore.Internal.Correction.Weighted>
   9.000000E+99

> <Gold.Protein.RotatedTorsions>
[ 6907 6896 6895 6894 ] final  143.78 input  -60.11 | X-H torsion
[ 7974 7965 7964 7962 ] final   -4.67 input  175.53 | X-H torsion
[ 8008 7997 7996 7995 ] final  -32.18 input   59.86 | X-H torsion
[ 10167 10162 10161 10158 ] final   66.53 input  -65.29 | X-H torsion
[ 10718 10713 10712 10709 ] final -174.07 input   66.30 | X-H torsion
[ 10763 10752 10751 10750 ] final   48.80 input  -60.55 | X-H torsion
[ 11005 11000 10999 10996 ] final   46.11 input  -57.11 | X-H torsion

> <Gold.Protein.ActiveResidues>
 VAL166  LYS551  ARG553  GLY616  TRP617  ASP618  TYR619  PRO620  LYS621  CYS622 
 ASP623  PHE694  ASN695  SER759  ASP760  ASP761  ALA762  ILE779  LEU786  VAL792 
 PHE793  MET794  SER795  GLU796  ALA797  LYS798  CYS799  TRP800  GLU811  SER814 

> <Gold.Protein.RotatedAtoms>
  152.2020  133.4848  159.5063 H   0  0  0  0  0  0  0  0  0  0  0  0  # atno 6907 bound_to 6896
  150.6972  134.1578  159.4173 H   0  0  0  0  0  0  0  0  0  0  0  0  # atno 6908 bound_to 6896
  151.9495  135.0175  160.0592 H   0  0  0  0  0  0  0  0  0  0  0  0  # atno 6909 bound_to 6896
  146.2368  140.1906  142.8332 H   0  0  0  0  0  0  0  0  0  0  0  0  # atno 7974 bound_to 7965
  154.4188  140.1744  156.1686 H   0  0  0  0  0  0  0  0  0  0  0  0  # atno 8008 bound_to 7997
  155.9779  140.3380  155.6611 H   0  0  0  0  0  0  0  0  0  0  0  0  # atno 8009 bound_to 7997
  155.6539  140.0693  157.2568 H   0  0  0  0  0  0  0  0  0  0  0  0  # atno 8010 bound_to 7997
  140.0994  144.4917  150.7047 H   0  0  0  0  0  0  0  0  0  0  0  0  # atno 10167 bound_to 10162
  156.7796  130.9478  151.3120 H   0  0  0  0  0  0  0  0  0  0  0  0  # atno 10718 bound_to 10713
  152.9790  135.5932  154.3984 H   0  0  0  0  0  0  0  0  0  0  0  0  # atno 10763 bound_to 10752
  154.3632  135.2767  155.2310 H   0  0  0  0  0  0  0  0  0  0  0  0  # atno 10764 bound_to 10752
  154.4298  135.6039  153.6116 H   0  0  0  0  0  0  0  0  0  0  0  0  # atno 10765 bound_to 10752
  140.1398  134.4597  155.8458 H   0  0  0  0  0  0  0  0  0  0  0  0  # atno 11005 bound_to 11000
  144.9861  140.8504  143.5368 LP  0  0  0  0  0  0  0  0  0  0  0  0  # atno 17320 bound_to 7965
  145.1906  139.2303  143.5245 LP  0  0  0  0  0  0  0  0  0  0  0  0  # atno 17321 bound_to 7965
  140.6986  143.2420  151.4929 LP  0  0  0  0  0  0  0  0  0  0  0  0  # atno 17342 bound_to 10162
  139.5680  144.1996  152.1794 LP  0  0  0  0  0  0  0  0  0  0  0  0  # atno 17343 bound_to 10162
  157.6652  130.9002  149.9917 LP  0  0  0  0  0  0  0  0  0  0  0  0  # atno 17370 bound_to 10713
  156.1226  130.3645  149.9862 LP  0  0  0  0  0  0  0  0  0  0  0  0  # atno 17371 bound_to 10713
  141.2184  133.6829  156.7226 LP  0  0  0  0  0  0  0  0  0  0  0  0  # atno 17394 bound_to 11000
  140.2736  134.8372  157.3870 LP  0  0  0  0  0  0  0  0  0  0  0  0  # atno 17395 bound_to 11000

$$$$
