AV-unprocessed.smi:1562|AV-procd|sdf|6287|dock5
  -GOLD-   22720 6483D 1   1.00000     0.00000
 Structure written by MMmdl.
 40 41  0  0  0  0  0  0  0  0  1 V2000
  151.1430  140.9493  156.4819 N   0  0  0  0  0  0  0  0  0  0  0  0
  150.6637  140.3114  155.4111 C   0  0  0  0  0  0  0  0  0  0  0  0
  151.4021  139.8314  154.5529 O   0  0  0  0  0  0  0  0  0  0  0  0
  149.1381  140.1970  155.2889 C   0  0  0  0  0  0  0  0  0  0  0  0
  148.6912  138.7157  155.2540 C   0  0  0  0  0  0  0  0  0  0  0  0
  147.1787  138.5980  154.9919 C   0  0  0  0  0  0  0  0  0  0  0  0
  146.8640  139.2864  153.7285 N   0  0  0  0  0  0  0  0  0  0  0  0
  146.5906  138.6940  152.5381 C   0  0  0  0  0  0  0  0  0  0  0  0
  146.5540  139.3084  151.4709 O   0  0  0  0  0  0  0  0  0  0  0  0
  146.3271  137.3792  152.6106 N   0  0  0  0  0  0  0  0  0  0  0  0
  145.9937  136.5384  151.4690 C   0  0  0  0  0  0  0  0  0  0  0  0
  144.7088  135.7422  151.7372 C   0  0  0  0  0  0  0  0  0  0  0  0
  144.8492  134.2804  151.3545 C   0  0  0  0  0  0  0  0  0  0  0  0
  143.7641  133.3893  151.4983 C   0  0  0  0  0  0  0  0  0  0  0  0
  143.9511  132.0408  151.1369 C   0  0  0  0  0  0  0  0  0  0  0  0
  145.2091  131.6371  150.6490 C   0  0  0  0  0  0  0  0  0  0  0  0
  146.2284  132.6043  150.5435 C   0  0  0  0  0  0  0  0  0  0  0  0
  146.0594  133.8997  150.8864 N   0  0  0  0  0  0  0  0  0  0  0  0
  147.1149  140.7289  153.8370 C   0  0  0  0  0  0  0  0  0  0  0  0
  148.6235  140.9575  154.0439 C   0  0  0  0  0  0  0  0  0  0  0  0
  152.1410  141.0491  156.5992 H   0  0  0  0  0  0  0  0  0  0  0  0
  150.5089  141.3316  157.1683 H   0  0  0  0  0  0  0  0  0  0  0  0
  148.6853  140.6580  156.1687 H   0  0  0  0  0  0  0  0  0  0  0  0
  149.2306  138.1727  154.4759 H   0  0  0  0  0  0  0  0  0  0  0  0
  148.9381  138.2284  156.1981 H   0  0  0  0  0  0  0  0  0  0  0  0
  146.8810  137.5497  155.0114 H   0  0  0  0  0  0  0  0  0  0  0  0
  146.6234  139.0690  155.8042 H   0  0  0  0  0  0  0  0  0  0  0  0
  146.3631  136.9348  153.5165 H   0  0  0  0  0  0  0  0  0  0  0  0
  145.8679  137.1614  150.5817 H   0  0  0  0  0  0  0  0  0  0  0  0
  146.8233  135.8579  151.2718 H   0  0  0  0  0  0  0  0  0  0  0  0
  144.4390  135.8133  152.7918 H   0  0  0  0  0  0  0  0  0  0  0  0
  143.8775  136.1751  151.1785 H   0  0  0  0  0  0  0  0  0  0  0  0
  142.8116  133.7282  151.8784 H   0  0  0  0  0  0  0  0  0  0  0  0
  143.1444  131.3288  151.2332 H   0  0  0  0  0  0  0  0  0  0  0  0
  145.3892  130.6112  150.3631 H   0  0  0  0  0  0  0  0  0  0  0  0
  147.2056  132.3301  150.1746 H   0  0  0  0  0  0  0  0  0  0  0  0
  146.7694  141.2829  152.9630 H   0  0  0  0  0  0  0  0  0  0  0  0
  146.5539  141.1327  154.6810 H   0  0  0  0  0  0  0  0  0  0  0  0
  148.8209  142.0250  154.1495 H   0  0  0  0  0  0  0  0  0  0  0  0
  149.1593  140.6322  153.1503 H   0  0  0  0  0  0  0  0  0  0  0  0
  1  2  1  0  0  0  0
  1 21  1  0  0  0  0
  1 22  1  0  0  0  0
  2  3  2  0  0  0  0
  2  4  1  0  0  0  0
  4 20  1  0  0  0  0
  4  5  1  0  0  0  0
  4 23  1  0  0  0  0
  5  6  1  0  0  0  0
  5 24  1  0  0  0  0
  5 25  1  0  0  0  0
  6  7  1  0  0  0  0
  6 26  1  0  0  0  0
  6 27  1  0  0  0  0
  7  8  1  0  0  0  0
  7 19  1  0  0  0  0
  8  9  2  0  0  0  0
  8 10  1  0  0  0  0
 10 11  1  0  0  0  0
 10 28  1  0  0  0  0
 11 12  1  0  0  0  0
 11 29  1  0  0  0  0
 11 30  1  0  0  0  0
 12 13  1  0  0  0  0
 12 31  1  0  0  0  0
 12 32  1  0  0  0  0
 13 18  1  0  0  0  0
 13 14  2  0  0  0  0
 14 15  1  0  0  0  0
 14 33  1  0  0  0  0
 15 16  2  0  0  0  0
 15 34  1  0  0  0  0
 16 17  1  0  0  0  0
 16 35  1  0  0  0  0
 17 18  2  0  0  0  0
 17 36  1  0  0  0  0
 19 20  1  0  0  0  0
 19 37  1  0  0  0  0
 19 38  1  0  0  0  0
 20 39  1  0  0  0  0
 20 40  1  0  0  0  0
M  END
> <s_m_source_file>
AV-unprocessed.smi

> <i_m_source_file_index>
1562

> <i_lp_mmshare_version>
43012

> <i_f3d_flags>
0

> <s_epik_input>
W05IMl1DKD1PKVtDSF0xW0NIMl1bQ0gyXU4oW0NIMl1bQ0gyXTEpQyg9TylbTkhdW0NIMl1bQ0gyXWMyW2NIXVtjSF1bY0hdW2NIXW4y

> <s_epik_cmdline>
J2VwaWtfcHl0aG9uJywgJy1waCcsICc3LjAnLCAnLXRuJywgJzgnLCAnLW1hJywgJzIwMCcsICctbWV0YWxfYmluZGluZycsICctaW1hZScsICc8aW5maWxlLm1hZT4nLCAnLW9tYWUnLCAnPG91dGZpbGUubWFlPic=

> <r_epik_Ionization_Penalty>
0.0445602

> <r_epik_Ionization_Penalty_Charging>
0

> <r_epik_Ionization_Penalty_Neutral>
0.0445602

> <r_epik_State_Penalty>
0.0377204

> <r_epik_Charging_Adjusted_Penalty>
0.0377204

> <i_epik_Tot_Q>
0

> <i_epik_Tot_abs_Q>
0

> <r_epik_Metal_State_Penalty>
0.0350723

> <b_epik_Metal_Only>
0

> <s_lp_Force_Field>
OPLS_2005

> <r_lp_Energy>
26.805

> <b_lp_Chiralities_Consistent>
1

> <s_lp_Variant>
AV-unprocessed.smi:1562-1

> <Gold.Version>
5.8.1

> <Gold.Id.Protein>
6NUR|6NUR_protein|mol2

> <Gold.PLP.Fitness>
39.7942

> <Gold.PLP.PLP>
-34.5717

> <Gold.PLP.part.hbond>
-2.0000

> <Gold.PLP.part.metal>
0.0000

> <Gold.PLP.part.buried>
-5.4022

> <Gold.PLP.part.nonpolar>
-30.5298

> <Gold.PLP.part.repulsive>
1.9428

> <Gold.PLP.ligand.clash>
0.0000

> <Gold.PLP.ligand.torsion>
0.4220

> <Gold.PLP.Chemscore.Hbond>
1.0000

> <Gold.PLP.Chemscore.CHOScore>
1.0000

> <Gold.PLP.Chemscore.Metal>
0.0000

> <Gold.Chemscore.Hbonds>
donor molecule, donor type, donor heavy atom, donor atom, acceptor molecule, acceptor atom, score
      P1  H  7989  7998       L1     3  0.91
      L1  C    17    36       P1 10747  1.00

> <Gold.PLP.Chemscore.Internal.Correction>
0.0666

> <Gold.Rescore>
     Score         DG    S(hbond)    S(metal)    S(lipo)     H(rot)  DE(clash)    DE(int)     intcor
     11.67     -12.47       0.98        0.00      74.36       1.95       0.20       0.60       ----

> <Gold.Chemscore.Fitness>
11.6698

> <Gold.Chemscore.DG>
-12.4730

> <Gold.Chemscore.ZeroCoef>
-5.4800

> <Gold.Chemscore.Hbond>
0.9829

> <Gold.Chemscore.Metal>
0.0000

> <Gold.Chemscore.Lipo>
74.3584

> <Gold.Chemscore.Internal_Hbond>
0.0000

> <Gold.Chemscore.DEClash>
0.2022

> <Gold.Chemscore.DEInternal>
0.6010

> <Gold.Chemscore.Rot>
1.9492

> <Gold.Chemscore.Internal.Correction>
   9.000000E+99

> <Gold.Chemscore.Hbonds>
donor molecule, donor type, donor heavy atom, donor atom, acceptor molecule, acceptor atom, score
      P1  H  7989  7998       L1     3  0.61

> <Gold.Chemscore.Hbond.Weighted>
-3.2830

> <Gold.Chemscore.Metal.Weighted>
-0.0000

> <Gold.Chemscore.Lipo.Weighted>
-8.6999

> <Gold.Chemscore.Internal_Hbond.Weighted>
0.0000

> <Gold.Chemscore.DEClash.Weighted>
0.2022

> <Gold.Chemscore.DEInternal.Weighted>
0.6010

> <Gold.Chemscore.Rot.Weighted>
4.9900

> <Gold.Chemscore.Internal.Correction.Weighted>
   9.000000E+99

> <Gold.Protein.RotatedTorsions>
[ 6907 6896 6895 6894 ] final   24.67 input  -60.11 | X-H torsion
[ 7974 7965 7964 7962 ] final  -37.71 input  175.53 | X-H torsion
[ 8008 7997 7996 7995 ] final  113.35 input   59.86 | X-H torsion
[ 10167 10162 10161 10158 ] final    0.82 input  -65.29 | X-H torsion
[ 10718 10713 10712 10709 ] final    1.59 input   66.30 | X-H torsion
[ 10763 10752 10751 10750 ] final -169.38 input  -60.55 | X-H torsion
[ 11005 11000 10999 10996 ] final  -33.11 input  -57.11 | X-H torsion

> <Gold.Protein.ActiveResidues>
 VAL166  LYS551  ARG553  GLY616  TRP617  ASP618  TYR619  PRO620  LYS621  CYS622 
 ASP623  PHE694  ASN695  SER759  ASP760  ASP761  ALA762  ILE779  LEU786  VAL792 
 PHE793  MET794  SER795  GLU796  ALA797  LYS798  CYS799  TRP800  GLU811  SER814 

> <Gold.Protein.RotatedAtoms>
  151.9610  135.0123  160.0547 H   0  0  0  0  0  0  0  0  0  0  0  0  # atno 6907 bound_to 6896
  152.1869  133.4741  159.4995 H   0  0  0  0  0  0  0  0  0  0  0  0  # atno 6908 bound_to 6896
  150.6927  134.1680  159.4244 H   0  0  0  0  0  0  0  0  0  0  0  0  # atno 6909 bound_to 6896
  146.0551  140.6428  142.9023 H   0  0  0  0  0  0  0  0  0  0  0  0  # atno 7974 bound_to 7965
  156.2252  140.2981  156.0049 H   0  0  0  0  0  0  0  0  0  0  0  0  # atno 8008 bound_to 7997
  155.2376  140.0421  157.2988 H   0  0  0  0  0  0  0  0  0  0  0  0  # atno 8009 bound_to 7997
  154.5904  140.2400  155.7937 H   0  0  0  0  0  0  0  0  0  0  0  0  # atno 8010 bound_to 7997
  140.6711  143.7046  150.7925 H   0  0  0  0  0  0  0  0  0  0  0  0  # atno 10167 bound_to 10162
  156.8504  130.5552  149.5670 H   0  0  0  0  0  0  0  0  0  0  0  0  # atno 10718 bound_to 10713
  154.6529  135.2914  154.9964 H   0  0  0  0  0  0  0  0  0  0  0  0  # atno 10763 bound_to 10752
  154.1051  135.6571  153.4879 H   0  0  0  0  0  0  0  0  0  0  0  0  # atno 10764 bound_to 10752
  153.0386  135.5252  154.7445 H   0  0  0  0  0  0  0  0  0  0  0  0  # atno 10765 bound_to 10752
  140.9608  133.7165  156.1366 H   0  0  0  0  0  0  0  0  0  0  0  0  # atno 11005 bound_to 11000
  144.7143  140.4154  143.7056 LP  0  0  0  0  0  0  0  0  0  0  0  0  # atno 17320 bound_to 7965
  145.6658  139.1590  143.2782 LP  0  0  0  0  0  0  0  0  0  0  0  0  # atno 17321 bound_to 7965
  140.0731  143.5041  152.2569 LP  0  0  0  0  0  0  0  0  0  0  0  0  # atno 17342 bound_to 10162
  139.5980  144.7573  151.3240 LP  0  0  0  0  0  0  0  0  0  0  0  0  # atno 17343 bound_to 10162
  156.0831  130.5836  150.9599 LP  0  0  0  0  0  0  0  0  0  0  0  0  # atno 17370 bound_to 10713
  157.6306  131.0921  150.8448 LP  0  0  0  0  0  0  0  0  0  0  0  0  # atno 17371 bound_to 10713
  140.7470  134.4087  157.5547 LP  0  0  0  0  0  0  0  0  0  0  0  0  # atno 17394 bound_to 11000
  139.8877  134.8875  156.2512 LP  0  0  0  0  0  0  0  0  0  0  0  0  # atno 17395 bound_to 11000

$$$$
