AV-unprocessed.smi:1695|AV-procd|sdf|6790|dock7
  -GOLD-   22720 7553D 1   1.00000     0.00000
 Structure written by MMmdl.
 51 53  0  0  0  0  0  0  0  0  2 V2000
  152.7480  142.9714  161.4283 C   0  0  0  0  0  0  0  0  0  0  0  0
  152.3235  142.6657  160.0028 C   0  0  0  0  0  0  0  0  0  0  0  0
  152.6016  141.3902  159.4617 C   0  0  0  0  0  0  0  0  0  0  0  0
  152.2236  141.0661  158.1404 C   0  0  0  0  0  0  0  0  0  0  0  0
  152.3924  139.8977  157.4175 N   0  0  0  0  0  0  0  0  0  0  0  0
  151.8308  140.2171  156.2555 C   0  0  0  0  0  0  0  0  0  0  0  0
  151.3234  141.4595  156.1371 N   0  0  0  0  0  0  0  0  0  0  0  0
  150.6728  142.0355  154.9743 C   0  0  0  0  0  0  0  0  0  0  0  0
  149.3788  141.2895  154.5968 C   0  0  1  0  0  0  0  0  0  0  0  0
  149.7037  139.9859  154.1528 O   0  0  0  0  0  0  0  0  0  0  0  0
  148.4147  141.1779  155.7940 C   0  0  0  0  0  0  0  0  0  0  0  0
  147.3547  142.2188  155.7736 N   0  3  1  0  0  0  0  0  0  0  0  0
  146.5335  142.1600  154.5376 C   0  0  0  0  0  0  0  0  0  0  0  0
  145.5445  143.3395  154.4656 C   0  0  0  0  0  0  0  0  0  0  0  0
  144.6452  143.4595  155.7142 C   0  0  1  0  0  0  0  0  0  0  0  0
  143.5048  142.4243  155.7299 C   0  0  0  0  0  0  0  0  0  0  0  0
  142.7736  142.3131  154.6181 N   0  0  0  0  0  0  0  0  0  0  0  0
  143.2810  141.7342  156.7220 O   0  0  0  0  0  0  0  0  0  0  0  0
  145.5199  143.4054  156.9852 C   0  0  0  0  0  0  0  0  0  0  0  0
  146.5081  142.2232  156.9959 C   0  0  0  0  0  0  0  0  0  0  0  0
  151.5563  142.0617  157.3685 C   0  0  0  0  0  0  0  0  0  0  0  0
  151.2732  143.3340  157.8957 C   0  0  0  0  0  0  0  0  0  0  0  0
  151.6564  143.6406  159.2182 C   0  0  0  0  0  0  0  0  0  0  0  0
  151.3459  145.0168  159.7799 C   0  0  0  0  0  0  0  0  0  0  0  0
  153.2395  142.1147  161.8899 H   0  0  0  0  0  0  0  0  0  0  0  0
  151.8822  143.2280  162.0387 H   0  0  0  0  0  0  0  0  0  0  0  0
  153.4465  143.8083  161.4474 H   0  0  0  0  0  0  0  0  0  0  0  0
  153.1091  140.6470  160.0590 H   0  0  0  0  0  0  0  0  0  0  0  0
  151.7912  139.5088  155.4407 H   0  0  0  0  0  0  0  0  0  0  0  0
  150.4647  143.0877  155.1749 H   0  0  0  0  0  0  0  0  0  0  0  0
  151.3791  142.0101  154.1436 H   0  0  0  0  0  0  0  0  0  0  0  0
  148.9026  141.8194  153.7725 H   0  0  0  0  0  0  0  0  0  0  0  0
  149.7941  140.0035  153.2117 H   0  0  0  0  0  0  0  0  0  0  0  0
  147.9584  140.1867  155.7741 H   0  0  0  0  0  0  0  0  0  0  0  0
  148.9618  141.2396  156.7361 H   0  0  0  0  0  0  0  0  0  0  0  0
  147.1868  142.2000  153.6650 H   0  0  0  0  0  0  0  0  0  0  0  0
  146.0105  141.2045  154.4872 H   0  0  0  0  0  0  0  0  0  0  0  0
  146.1089  144.2658  154.3488 H   0  0  0  0  0  0  0  0  0  0  0  0
  144.9333  143.2506  153.5663 H   0  0  0  0  0  0  0  0  0  0  0  0
  144.1757  144.4445  155.6829 H   0  0  0  0  0  0  0  0  0  0  0  0
  142.0132  141.6499  154.5755 H   0  0  0  0  0  0  0  0  0  0  0  0
  142.9835  142.8955  153.8200 H   0  0  0  0  0  0  0  0  0  0  0  0
  146.0833  144.3362  157.0640 H   0  0  0  0  0  0  0  0  0  0  0  0
  144.8904  143.3649  157.8754 H   0  0  0  0  0  0  0  0  0  0  0  0
  145.9783  141.2739  157.0802 H   0  0  0  0  0  0  0  0  0  0  0  0
  147.1308  142.3041  157.8859 H   0  0  0  0  0  0  0  0  0  0  0  0
  150.7642  144.0672  157.2876 H   0  0  0  0  0  0  0  0  0  0  0  0
  150.8109  145.6315  159.0555 H   0  0  0  0  0  0  0  0  0  0  0  0
  152.2667  145.5365  160.0461 H   0  0  0  0  0  0  0  0  0  0  0  0
  150.7241  144.9346  160.6715 H   0  0  0  0  0  0  0  0  0  0  0  0
  147.8377  143.1059  155.7457 H   0  0  0  0  0  0  0  0  0  0  0  0
  1  2  1  0  0  0  0
  1 25  1  0  0  0  0
  1 26  1  0  0  0  0
  1 27  1  0  0  0  0
  2 23  1  0  0  0  0
  2  3  2  0  0  0  0
  3  4  1  0  0  0  0
  3 28  1  0  0  0  0
  4 21  2  0  0  0  0
  4  5  1  0  0  0  0
  5  6  2  0  0  0  0
  6  7  1  0  0  0  0
  6 29  1  0  0  0  0
  7  8  1  0  0  0  0
  7 21  1  0  0  0  0
  8  9  1  0  0  0  0
  8 30  1  0  0  0  0
  8 31  1  0  0  0  0
  9 10  1  0  0  0  0
  9 11  1  0  0  0  0
  9 32  1  0  0  0  0
 10 33  1  0  0  0  0
 11 12  1  0  0  0  0
 11 34  1  0  0  0  0
 11 35  1  0  0  0  0
 12 20  1  0  0  0  0
 12 13  1  0  0  0  0
 12 51  1  0  0  0  0
 13 14  1  0  0  0  0
 13 36  1  0  0  0  0
 13 37  1  0  0  0  0
 14 15  1  0  0  0  0
 14 38  1  0  0  0  0
 14 39  1  0  0  0  0
 15 16  1  0  0  0  0
 15 19  1  0  0  0  0
 15 40  1  0  0  0  0
 16 17  1  0  0  0  0
 16 18  2  0  0  0  0
 17 41  1  0  0  0  0
 17 42  1  0  0  0  0
 19 20  1  0  0  0  0
 19 43  1  0  0  0  0
 19 44  1  0  0  0  0
 20 45  1  0  0  0  0
 20 46  1  0  0  0  0
 21 22  1  0  0  0  0
 22 23  2  0  0  0  0
 22 47  1  0  0  0  0
 23 24  1  0  0  0  0
 24 48  1  0  0  0  0
 24 49  1  0  0  0  0
 24 50  1  0  0  0  0
M  CHG  1  12   1
M  END
> <s_m_source_file>
AV-unprocessed.smi

> <i_m_source_file_index>
1695

> <i_lp_mmshare_version>
43012

> <i_f3d_flags>
0

> <s_epik_input>
W0NIM11jKFtjSF0xKWMoW0NIM10pW2NIXWMoYzEyKW4oW2NIXW4yKVtDSDJdW0NASF0oW09IXSlbQ0gyXU4zW0NIMl1bQ0gyXVtDSF0oQyg9TylbTkgyXSlbQ0gyXVtDSDJdMw==

> <s_epik_cmdline>
J2VwaWtfcHl0aG9uJywgJy1waCcsICc3LjAnLCAnLXRuJywgJzgnLCAnLW1hJywgJzIwMCcsICctbWV0YWxfYmluZGluZycsICctaW1hZScsICc8aW5maWxlLm1hZT4nLCAnLW9tYWUnLCAnPG91dGZpbGUubWFlPic=

> <r_epik_Ionization_Penalty>
0.113899

> <r_epik_Ionization_Penalty_Charging>
0.0258844

> <r_epik_Ionization_Penalty_Neutral>
0.0880147

> <r_epik_State_Penalty>
0.0974403

> <r_epik_Charging_Adjusted_Penalty>
0.123325

> <i_epik_Tot_Q>
1

> <i_epik_Tot_abs_Q>
1

> <r_epik_Metal_State_Penalty>
0.0851148

> <b_epik_Metal_Only>
0

> <s_lp_Force_Field>
OPLS_2005

> <r_lp_Energy>
15.764

> <b_lp_Chiralities_Consistent>
1

> <s_lp_Variant>
AV-unprocessed.smi:1695-2

> <Gold.Version>
5.8.1

> <Gold.Id.Protein>
6NUR|6NUR_protein|mol2

> <Gold.PLP.Fitness>
51.7555

> <Gold.PLP.PLP>
-40.0680

> <Gold.PLP.part.hbond>
-4.8262

> <Gold.PLP.part.metal>
0.0000

> <Gold.PLP.part.buried>
-2.6010

> <Gold.PLP.part.nonpolar>
-31.4031

> <Gold.PLP.part.repulsive>
0.0376

> <Gold.PLP.ligand.clash>
0.0055

> <Gold.PLP.ligand.torsion>
0.7176

> <Gold.PLP.Chemscore.Hbond>
4.3463

> <Gold.PLP.Chemscore.CHOScore>
0.0000

> <Gold.PLP.Chemscore.Metal>
0.0000

> <Gold.Chemscore.Hbonds>
donor molecule, donor type, donor heavy atom, donor atom, acceptor molecule, acceptor atom, score
      L1  H    10    33       P1  7957  0.93
      L1  H    12    51       P1  8028  2.00
      L1  H    17    42       P1 10174  0.51
      P1  H  7997  8009       L1     5  0.56

> <Gold.PLP.Chemscore.Internal.Correction>
0.0895

> <Gold.Rescore>
     Score         DG    S(hbond)    S(metal)    S(lipo)     H(rot)  DE(clash)    DE(int)     intcor
     13.85     -17.65       1.74        0.00     116.69       2.85       3.04       0.77       ----

> <Gold.Chemscore.Fitness>
13.8527

> <Gold.Chemscore.DG>
-17.6547

> <Gold.Chemscore.ZeroCoef>
-5.4800

> <Gold.Chemscore.Hbond>
1.7392

> <Gold.Chemscore.Metal>
0.0000

> <Gold.Chemscore.Lipo>
116.6874

> <Gold.Chemscore.Internal_Hbond>
0.0000

> <Gold.Chemscore.DEClash>
3.0364

> <Gold.Chemscore.DEInternal>
0.7656

> <Gold.Chemscore.Rot>
2.8464

> <Gold.Chemscore.Internal.Correction>
   9.000000E+99

> <Gold.Chemscore.Hbonds>
donor molecule, donor type, donor heavy atom, donor atom, acceptor molecule, acceptor atom, score
      L1  H    10    33       P1  7957  0.89
      L1  H    12    51       P1  8028  0.45
      L1  H    17    42       P1 10174  0.41
      P1  H  7997  8009       L1     5  0.02

> <Gold.Chemscore.Hbond.Weighted>
-5.8090

> <Gold.Chemscore.Metal.Weighted>
-0.0000

> <Gold.Chemscore.Lipo.Weighted>
-13.6524

> <Gold.Chemscore.Internal_Hbond.Weighted>
0.0000

> <Gold.Chemscore.DEClash.Weighted>
3.0364

> <Gold.Chemscore.DEInternal.Weighted>
0.7656

> <Gold.Chemscore.Rot.Weighted>
7.2867

> <Gold.Chemscore.Internal.Correction.Weighted>
   9.000000E+99

> <Gold.Protein.RotatedTorsions>
[ 6907 6896 6895 6894 ] final  133.37 input  -60.11 | X-H torsion
[ 7974 7965 7964 7962 ] final  -21.22 input  175.53 | X-H torsion
[ 8008 7997 7996 7995 ] final  176.86 input   59.86 | X-H torsion
[ 10167 10162 10161 10158 ] final  -69.00 input  -65.29 | X-H torsion
[ 10718 10713 10712 10709 ] final  131.77 input   66.30 | X-H torsion
[ 10763 10752 10751 10750 ] final  155.83 input  -60.55 | X-H torsion
[ 11005 11000 10999 10996 ] final  -74.77 input  -57.11 | X-H torsion

> <Gold.Protein.ActiveResidues>
 VAL166  LYS551  ARG553  GLY616  TRP617  ASP618  TYR619  PRO620  LYS621  CYS622 
 ASP623  PHE694  ASN695  SER759  ASP760  ASP761  ALA762  ILE779  LEU786  VAL792 
 PHE793  MET794  SER795  GLU796  ALA797  LYS798  CYS799  TRP800  GLU811  SER814 

> <Gold.Protein.RotatedAtoms>
  152.3226  133.5870  159.5754 H   0  0  0  0  0  0  0  0  0  0  0  0  # atno 6907 bound_to 6896
  150.7379  133.9988  159.3640 H   0  0  0  0  0  0  0  0  0  0  0  0  # atno 6908 bound_to 6896
  151.7871  135.0746  160.0433 H   0  0  0  0  0  0  0  0  0  0  0  0  # atno 6909 bound_to 6896
  146.1745  140.4311  142.8519 H   0  0  0  0  0  0  0  0  0  0  0  0  # atno 7974 bound_to 7965
  156.0719  140.1373  156.9818 H   0  0  0  0  0  0  0  0  0  0  0  0  # atno 8008 bound_to 7997
  154.4537  140.0970  156.6744 H   0  0  0  0  0  0  0  0  0  0  0  0  # atno 8009 bound_to 7997
  155.5214  140.3456  155.4410 H   0  0  0  0  0  0  0  0  0  0  0  0  # atno 8010 bound_to 7997
  140.5465  143.2313  151.6993 H   0  0  0  0  0  0  0  0  0  0  0  0  # atno 10167 bound_to 10162
  157.4936  131.1091  150.9523 H   0  0  0  0  0  0  0  0  0  0  0  0  # atno 10718 bound_to 10713
  154.1746  135.2802  155.3070 H   0  0  0  0  0  0  0  0  0  0  0  0  # atno 10763 bound_to 10752
  154.6049  135.5518  153.7415 H   0  0  0  0  0  0  0  0  0  0  0  0  # atno 10764 bound_to 10752
  153.0155  135.6401  154.1886 H   0  0  0  0  0  0  0  0  0  0  0  0  # atno 10765 bound_to 10752
  141.1638  133.6923  156.7415 H   0  0  0  0  0  0  0  0  0  0  0  0  # atno 11005 bound_to 11000
  144.8214  140.6556  143.6350 LP  0  0  0  0  0  0  0  0  0  0  0  0  # atno 17320 bound_to 7965
  145.4250  139.1558  143.4053 LP  0  0  0  0  0  0  0  0  0  0  0  0  # atno 17321 bound_to 7965
  139.5009  144.3887  152.0302 LP  0  0  0  0  0  0  0  0  0  0  0  0  # atno 17342 bound_to 10162
  140.3000  144.3657  150.6063 LP  0  0  0  0  0  0  0  0  0  0  0  0  # atno 17343 bound_to 10162
  157.0217  130.5676  149.5332 LP  0  0  0  0  0  0  0  0  0  0  0  0  # atno 17370 bound_to 10713
  156.0187  130.5282  150.8213 LP  0  0  0  0  0  0  0  0  0  0  0  0  # atno 17371 bound_to 10713
  140.2671  134.8421  157.3813 LP  0  0  0  0  0  0  0  0  0  0  0  0  # atno 17394 bound_to 11000
  140.1556  134.4794  155.7930 LP  0  0  0  0  0  0  0  0  0  0  0  0  # atno 17395 bound_to 11000

$$$$
