AV-unprocessed.smi:79|AV-procd|sdf|779|dock4
  -GOLD-   2262017133D 1   1.00000     0.00000
 Structure written by MMmdl.
 56 59  0  0  0  0  0  0  0  0  2 V2000
  145.2495  131.2511  151.0577 C   0  0  0  0  0  0  0  0  0  0  0  0
  144.8642  132.7357  151.0984 C   0  0  2  0  0  0  0  0  0  0  0  0
  143.8111  132.9348  150.1766 O   0  0  0  0  0  0  0  0  0  0  0  0
  146.0531  133.6441  150.7245 C   0  0  0  0  0  0  0  0  0  0  0  0
  146.8007  134.1374  151.9096 N   0  3  1  0  0  0  0  0  0  0  0  0
  145.9225  134.6671  152.9836 C   0  0  0  0  0  0  0  0  0  0  0  0
  146.7562  135.2386  154.1395 C   0  0  0  0  0  0  0  0  0  0  0  0
  147.7175  134.2573  154.6323 N   0  0  0  0  0  0  0  0  0  0  0  0
  148.3353  134.6971  155.7513 C   0  0  0  0  0  0  0  0  0  0  0  0
  149.6512  135.0044  155.6500 N   0  0  0  0  0  0  0  0  0  0  0  0
  150.3168  135.4470  156.7214 C   0  0  0  0  0  0  0  0  0  0  0  0
  149.8648  135.6453  157.9619 N   0  0  0  0  0  0  0  0  0  0  0  0
  148.5415  135.3318  158.0658 C   0  0  0  0  0  0  0  0  0  0  0  0
  147.7059  134.8536  157.0183 C   0  0  0  0  0  0  0  0  0  0  0  0
  146.4194  134.6387  157.4974 N   0  0  0  0  0  0  0  0  0  0  0  0
  146.4909  134.9709  158.7577 C   0  0  0  0  0  0  0  0  0  0  0  0
  147.7264  135.4068  159.1821 N   0  0  0  0  0  0  0  0  0  0  0  0
  148.0878  135.8329  160.5256 C   0  0  0  0  0  0  0  0  0  0  0  0
  146.9524  135.6741  161.5564 C   0  0  0  0  0  0  0  0  0  0  0  0
  145.7647  136.5857  161.2007 C   0  0  0  0  0  0  0  0  0  0  0  0
  146.1012  137.9520  161.3311 O   0  0  0  0  0  0  0  0  0  0  0  0
  146.5598  134.2301  161.9012 C   0  0  0  0  0  0  0  0  0  0  0  0
  146.7003  134.4675  163.3173 O   0  0  0  0  0  0  0  0  0  0  0  0
  147.3761  135.7104  163.0310 C   0  0  0  0  0  0  0  0  0  0  0  0
  148.5935  133.6850  153.6034 C   0  0  1  0  0  0  0  0  0  0  0  0
  149.5251  132.5868  154.1554 C   0  0  0  0  0  0  0  0  0  0  0  0
  147.7486  133.1251  152.4393 C   0  0  0  0  0  0  0  0  0  0  0  0
  146.0463  131.0342  151.7696 H   0  0  0  0  0  0  0  0  0  0  0  0
  145.5997  130.9559  150.0679 H   0  0  0  0  0  0  0  0  0  0  0  0
  144.3997  130.6168  151.3129 H   0  0  0  0  0  0  0  0  0  0  0  0
  144.4951  132.9639  152.0976 H   0  0  0  0  0  0  0  0  0  0  0  0
  143.1840  132.2342  150.2684 H   0  0  0  0  0  0  0  0  0  0  0  0
  146.7429  133.1174  150.0631 H   0  0  0  0  0  0  0  0  0  0  0  0
  145.6719  134.4899  150.1498 H   0  0  0  0  0  0  0  0  0  0  0  0
  145.2694  135.4487  152.5978 H   0  0  0  0  0  0  0  0  0  0  0  0
  145.2769  133.8684  153.3524 H   0  0  0  0  0  0  0  0  0  0  0  0
  147.2857  136.1306  153.8010 H   0  0  0  0  0  0  0  0  0  0  0  0
  146.0945  135.5498  154.9496 H   0  0  0  0  0  0  0  0  0  0  0  0
  151.3607  135.6745  156.5624 H   0  0  0  0  0  0  0  0  0  0  0  0
  145.6374  134.9043  159.4165 H   0  0  0  0  0  0  0  0  0  0  0  0
  148.9606  135.2534  160.8296 H   0  0  0  0  0  0  0  0  0  0  0  0
  148.4302  136.8672  160.4822 H   0  0  0  0  0  0  0  0  0  0  0  0
  145.4020  136.4016  160.1895 H   0  0  0  0  0  0  0  0  0  0  0  0
  144.9210  136.3888  161.8633 H   0  0  0  0  0  0  0  0  0  0  0  0
  145.5739  138.3270  162.0203 H   0  0  0  0  0  0  0  0  0  0  0  0
  145.5402  133.9659  161.6179 H   0  0  0  0  0  0  0  0  0  0  0  0
  147.2680  133.4781  161.5506 H   0  0  0  0  0  0  0  0  0  0  0  0
  148.4533  135.6303  163.1853 H   0  0  0  0  0  0  0  0  0  0  0  0
  146.9647  136.5498  163.5926 H   0  0  0  0  0  0  0  0  0  0  0  0
  149.2151  134.4875  153.2044 H   0  0  0  0  0  0  0  0  0  0  0  0
  150.1278  132.1495  153.3588 H   0  0  0  0  0  0  0  0  0  0  0  0
  148.9552  131.7808  154.6191 H   0  0  0  0  0  0  0  0  0  0  0  0
  150.2196  132.9760  154.9006 H   0  0  0  0  0  0  0  0  0  0  0  0
  147.1868  132.2493  152.7697 H   0  0  0  0  0  0  0  0  0  0  0  0
  148.4120  132.7932  151.6394 H   0  0  0  0  0  0  0  0  0  0  0  0
  147.3699  134.9064  151.5871 H   0  0  0  0  0  0  0  0  0  0  0  0
  1  2  1  0  0  0  0
  1 28  1  0  0  0  0
  1 29  1  0  0  0  0
  1 30  1  0  0  0  0
  2  3  1  0  0  0  0
  2  4  1  0  0  0  0
  2 31  1  0  0  0  0
  3 32  1  0  0  0  0
  4  5  1  0  0  0  0
  4 33  1  0  0  0  0
  4 34  1  0  0  0  0
  5 27  1  0  0  0  0
  5  6  1  0  0  0  0
  5 56  1  0  0  0  0
  6  7  1  0  0  0  0
  6 35  1  0  0  0  0
  6 36  1  0  0  0  0
  7  8  1  0  0  0  0
  7 37  1  0  0  0  0
  7 38  1  0  0  0  0
  8  9  1  0  0  0  0
  8 25  1  0  0  0  0
  9 14  1  0  0  0  0
  9 10  2  0  0  0  0
 10 11  1  0  0  0  0
 11 12  2  0  0  0  0
 11 39  1  0  0  0  0
 12 13  1  0  0  0  0
 13 17  1  0  0  0  0
 13 14  2  0  0  0  0
 14 15  1  0  0  0  0
 15 16  2  0  0  0  0
 16 17  1  0  0  0  0
 16 40  1  0  0  0  0
 17 18  1  0  0  0  0
 18 19  1  0  0  0  0
 18 41  1  0  0  0  0
 18 42  1  0  0  0  0
 19 24  1  0  0  0  0
 19 20  1  0  0  0  0
 19 22  1  0  0  0  0
 20 21  1  0  0  0  0
 20 43  1  0  0  0  0
 20 44  1  0  0  0  0
 21 45  1  0  0  0  0
 22 23  1  0  0  0  0
 22 46  1  0  0  0  0
 22 47  1  0  0  0  0
 23 24  1  0  0  0  0
 24 48  1  0  0  0  0
 24 49  1  0  0  0  0
 25 26  1  0  0  0  0
 25 27  1  0  0  0  0
 25 50  1  0  0  0  0
 26 51  1  0  0  0  0
 26 52  1  0  0  0  0
 26 53  1  0  0  0  0
 27 54  1  0  0  0  0
 27 55  1  0  0  0  0
M  CHG  1   5   1
M  END
> <s_m_source_file>
AV-unprocessed.smi

> <i_m_source_file_index>
79

> <i_lp_mmshare_version>
43012

> <i_f3d_flags>
0

> <s_epik_input>
W0NIM11bQ0BIXShbT0hdKVtDSDJdTjFbQ0gyXVtDSDJdTihbQ0BASF0oW0NIM10pW0NIMl0xKWMobltjSF1uMiljKGMyMyluW2NIXW4zW0NIMl1DNChbQ0gyXVtPSF0pW0NIMl1PW0NIMl00

> <s_epik_cmdline>
J2VwaWtfcHl0aG9uJywgJy1waCcsICc3LjAnLCAnLXRuJywgJzgnLCAnLW1hJywgJzIwMCcsICctbWV0YWxfYmluZGluZycsICctaW1hZScsICc8aW5maWxlLm1hZT4nLCAnLW9tYWUnLCAnPG91dGZpbGUubWFlPic=

> <r_lp_tautomer_probability>
1

> <r_epik_Ionization_Penalty>
0.00515943

> <r_epik_Ionization_Penalty_Charging>
0.00509693

> <r_epik_Ionization_Penalty_Neutral>
6.25007e-05

> <r_epik_State_Penalty>
-0

> <r_epik_Charging_Adjusted_Penalty>
0.00509693

> <i_epik_Tot_Q>
1

> <i_epik_Tot_abs_Q>
1

> <r_epik_Metal_State_Penalty>
-0

> <b_epik_Metal_Only>
0

> <s_lp_Force_Field>
OPLS_2005

> <r_lp_Energy>
50.7064

> <b_lp_Chiralities_Consistent>
1

> <s_lp_Variant>
AV-unprocessed.smi:79-3

> <Gold.Version>
5.8.1

> <Gold.Id.Protein>
6NUR|6NUR_protein|mol2

> <Gold.PLP.Fitness>
49.4220

> <Gold.PLP.PLP>
-39.5448

> <Gold.PLP.part.hbond>
-4.2105

> <Gold.PLP.part.metal>
0.0000

> <Gold.PLP.part.buried>
-6.3503

> <Gold.PLP.part.nonpolar>
-30.4608

> <Gold.PLP.part.repulsive>
0.1854

> <Gold.PLP.ligand.clash>
0.0000

> <Gold.PLP.ligand.torsion>
1.2280

> <Gold.PLP.Chemscore.Hbond>
3.9360

> <Gold.PLP.Chemscore.CHOScore>
0.0000

> <Gold.PLP.Chemscore.Metal>
0.0000

> <Gold.Chemscore.Hbonds>
donor molecule, donor type, donor heavy atom, donor atom, acceptor molecule, acceptor atom, score
      L1  H     5    56       P1  7948  2.00
      P1  H  6896  6907       L1    12  0.86
      P1  H  6934  6947       L1    21  0.94

> <Gold.PLP.Chemscore.Internal.Correction>
0.5252

> <Gold.Rescore>
     Score         DG    S(hbond)    S(metal)    S(lipo)     H(rot)  DE(clash)    DE(int)     intcor
      8.79     -13.88       2.45        0.00      83.38       3.72       1.67       3.42       ----

> <Gold.Chemscore.Fitness>
8.7927

> <Gold.Chemscore.DG>
-13.8830

> <Gold.Chemscore.ZeroCoef>
-5.4800

> <Gold.Chemscore.Hbond>
2.4482

> <Gold.Chemscore.Metal>
0.0000

> <Gold.Chemscore.Lipo>
83.3841

> <Gold.Chemscore.Internal_Hbond>
0.0000

> <Gold.Chemscore.DEClash>
1.6722

> <Gold.Chemscore.DEInternal>
3.4181

> <Gold.Chemscore.Rot>
3.7226

> <Gold.Chemscore.Internal.Correction>
   9.000000E+99

> <Gold.Chemscore.Hbonds>
donor molecule, donor type, donor heavy atom, donor atom, acceptor molecule, acceptor atom, score
      L1  H     5    56       P1  7948  0.62
      P1  H  6896  6907       L1    12  0.27
      P1  H  6934  6947       L1    21  0.48

> <Gold.Chemscore.Hbond.Weighted>
-8.1768

> <Gold.Chemscore.Metal.Weighted>
-0.0000

> <Gold.Chemscore.Lipo.Weighted>
-9.7559

> <Gold.Chemscore.Internal_Hbond.Weighted>
0.0000

> <Gold.Chemscore.DEClash.Weighted>
1.6722

> <Gold.Chemscore.DEInternal.Weighted>
3.4181

> <Gold.Chemscore.Rot.Weighted>
9.5298

> <Gold.Chemscore.Internal.Correction.Weighted>
   9.000000E+99

> <Gold.Protein.RotatedTorsions>
[ 6907 6896 6895 6894 ] final  -73.02 input  -60.11 | X-H torsion
[ 7974 7965 7964 7962 ] final  -10.69 input  175.53 | X-H torsion
[ 8008 7997 7996 7995 ] final  -65.15 input   59.86 | X-H torsion
[ 10167 10162 10161 10158 ] final -149.16 input  -65.29 | X-H torsion
[ 10718 10713 10712 10709 ] final   70.06 input   66.30 | X-H torsion
[ 10763 10752 10751 10750 ] final   83.08 input  -60.55 | X-H torsion
[ 11005 11000 10999 10996 ] final -107.64 input  -57.11 | X-H torsion

> <Gold.Protein.ActiveResidues>
 VAL166  LYS551  ARG553  GLY616  TRP617  ASP618  TYR619  PRO620  LYS621  CYS622 
 ASP623  PHE694  ASN695  SER759  ASP760  ASP761  ALA762  ILE779  LEU786  VAL792 
 PHE793  MET794  SER795  GLU796  ALA797  LYS798  CYS799  TRP800  GLU811  SER814 

> <Gold.Protein.RotatedAtoms>
  150.7146  134.5077  159.5591 H   0  0  0  0  0  0  0  0  0  0  0  0  # atno 6907 bound_to 6896
  152.2660  134.7980  160.0431 H   0  0  0  0  0  0  0  0  0  0  0  0  # atno 6908 bound_to 6896
  151.8677  133.3434  159.3761 H   0  0  0  0  0  0  0  0  0  0  0  0  # atno 6909 bound_to 6896
  146.2212  140.2801  142.8362 H   0  0  0  0  0  0  0  0  0  0  0  0  # atno 7974 bound_to 7965
  154.4654  140.0939  156.7006 H   0  0  0  0  0  0  0  0  0  0  0  0  # atno 8008 bound_to 7997
  155.4873  140.3469  155.4331 H   0  0  0  0  0  0  0  0  0  0  0  0  # atno 8009 bound_to 7997
  156.0947  140.1406  156.9535 H   0  0  0  0  0  0  0  0  0  0  0  0  # atno 8010 bound_to 7997
  139.7467  143.8580  152.2576 H   0  0  0  0  0  0  0  0  0  0  0  0  # atno 10167 bound_to 10162
  157.6379  130.9458  150.0598 H   0  0  0  0  0  0  0  0  0  0  0  0  # atno 10718 bound_to 10713
  153.1259  135.4704  154.9271 H   0  0  0  0  0  0  0  0  0  0  0  0  # atno 10763 bound_to 10752
  154.7619  135.3134  154.8363 H   0  0  0  0  0  0  0  0  0  0  0  0  # atno 10764 bound_to 10752
  153.8917  135.6884  153.4814 H   0  0  0  0  0  0  0  0  0  0  0  0  # atno 10765 bound_to 10752
  141.0943  133.8999  157.2000 H   0  0  0  0  0  0  0  0  0  0  0  0  # atno 11005 bound_to 11000
  144.9203  140.7861  143.5752 LP  0  0  0  0  0  0  0  0  0  0  0  0  # atno 17320 bound_to 7965
  145.2737  139.1945  143.4828 LP  0  0  0  0  0  0  0  0  0  0  0  0  # atno 17321 bound_to 7965
  139.8546  144.7147  150.9172 LP  0  0  0  0  0  0  0  0  0  0  0  0  # atno 17342 bound_to 10162
  140.7793  143.3869  151.1377 LP  0  0  0  0  0  0  0  0  0  0  0  0  # atno 17343 bound_to 10162
  156.1634  130.3644  149.9266 LP  0  0  0  0  0  0  0  0  0  0  0  0  # atno 17370 bound_to 10713
  156.7259  130.9024  151.3622 LP  0  0  0  0  0  0  0  0  0  0  0  0  # atno 17371 bound_to 10713
  139.9776  135.0109  156.9670 LP  0  0  0  0  0  0  0  0  0  0  0  0  # atno 17394 bound_to 11000
  140.5177  134.0939  155.7284 LP  0  0  0  0  0  0  0  0  0  0  0  0  # atno 17395 bound_to 11000

$$$$
