AV-unprocessed.smi:1959|AV-procd|sdf|7915|dock10
  -GOLD-   2272010 83D 1   1.00000     0.00000
 Structure written by MMmdl.
 45 46  0  0  0  0  0  0  0  0  2 V2000
  152.8490  143.9659  163.3605 C   0  0  0  0  0  0  0  0  0  0  0  0
  152.6946  143.5787  161.9193 C   0  0  0  0  0  0  0  0  0  0  0  0
  152.1773  144.3579  160.8468 C   0  0  0  0  0  0  0  0  0  0  0  0
  152.2644  143.5355  159.7589 C   0  0  0  0  0  0  0  0  0  0  0  0
  151.8853  143.7775  158.3344 C   0  0  0  0  0  0  0  0  0  0  0  0
  152.8072  142.3418  160.2018 N   0  0  0  0  0  0  0  0  0  0  0  0
  153.1200  141.1370  159.4467 C   0  0  0  0  0  0  0  0  0  0  0  0
  154.2970  140.3550  160.0420 C   0  0  0  0  0  0  0  0  0  0  0  0
  155.2582  140.0251  159.3456 O   0  0  0  0  0  0  0  0  0  0  0  0
  154.1933  140.0412  161.3433 N   0  0  0  0  0  0  0  0  0  0  0  0
  155.1827  139.3036  162.1311 C   0  0  1  0  0  0  0  0  0  0  0  0
  155.6005  140.1564  163.3365 C   0  0  0  0  0  0  0  0  0  0  0  0
  154.6358  137.9273  162.5767 C   0  0  0  0  0  0  0  0  0  0  0  0
  154.8977  136.8507  161.5880 N   0  3  0  0  0  0  0  0  0  0  0  0
  154.6678  135.4859  162.1199 C   0  0  0  0  0  0  0  0  0  0  0  0
  155.0626  134.4386  161.0663 C   0  0  0  0  0  0  0  0  0  0  0  0
  154.3104  134.6563  159.8784 O   0  0  0  0  0  0  0  0  0  0  0  0
  154.5640  135.9363  159.3112 C   0  0  0  0  0  0  0  0  0  0  0  0
  154.1697  137.0369  160.3115 C   0  0  0  0  0  0  0  0  0  0  0  0
  153.0688  142.3722  161.5265 N   0  0  0  0  0  0  0  0  0  0  0  0
  152.5589  145.0042  163.5229 H   0  0  0  0  0  0  0  0  0  0  0  0
  153.8829  143.8555  163.6886 H   0  0  0  0  0  0  0  0  0  0  0  0
  152.2262  143.3428  164.0028 H   0  0  0  0  0  0  0  0  0  0  0  0
  151.8013  145.3699  160.8726 H   0  0  0  0  0  0  0  0  0  0  0  0
  151.5131  144.7931  158.1978 H   0  0  0  0  0  0  0  0  0  0  0  0
  151.1015  143.0890  158.0185 H   0  0  0  0  0  0  0  0  0  0  0  0
  152.7428  143.6444  157.6742 H   0  0  0  0  0  0  0  0  0  0  0  0
  152.2347  140.4995  159.4106 H   0  0  0  0  0  0  0  0  0  0  0  0
  153.3532  141.4143  158.4183 H   0  0  0  0  0  0  0  0  0  0  0  0
  153.3686  140.3550  161.8352 H   0  0  0  0  0  0  0  0  0  0  0  0
  156.0796  139.1525  161.5287 H   0  0  0  0  0  0  0  0  0  0  0  0
  156.3659  139.6516  163.9267 H   0  0  0  0  0  0  0  0  0  0  0  0
  154.7544  140.3604  163.9939 H   0  0  0  0  0  0  0  0  0  0  0  0
  156.0124  141.1143  163.0167 H   0  0  0  0  0  0  0  0  0  0  0  0
  155.0456  137.6425  163.5470 H   0  0  0  0  0  0  0  0  0  0  0  0
  153.5583  138.0236  162.7198 H   0  0  0  0  0  0  0  0  0  0  0  0
  155.2495  135.3260  163.0273 H   0  0  0  0  0  0  0  0  0  0  0  0
  153.6173  135.3674  162.3900 H   0  0  0  0  0  0  0  0  0  0  0  0
  156.1316  134.4868  160.8505 H   0  0  0  0  0  0  0  0  0  0  0  0
  154.8568  133.4345  161.4373 H   0  0  0  0  0  0  0  0  0  0  0  0
  155.6163  136.0210  159.0345 H   0  0  0  0  0  0  0  0  0  0  0  0
  153.9841  136.0368  158.3936 H   0  0  0  0  0  0  0  0  0  0  0  0
  153.0943  137.0133  160.4952 H   0  0  0  0  0  0  0  0  0  0  0  0
  154.4035  138.0146  159.8884 H   0  0  0  0  0  0  0  0  0  0  0  0
  155.8804  136.9125  161.3613 H   0  0  0  0  0  0  0  0  0  0  0  0
  1  2  1  0  0  0  0
  1 21  1  0  0  0  0
  1 22  1  0  0  0  0
  1 23  1  0  0  0  0
  2 20  2  0  0  0  0
  2  3  1  0  0  0  0
  3  4  2  0  0  0  0
  3 24  1  0  0  0  0
  4  5  1  0  0  0  0
  4  6  1  0  0  0  0
  5 25  1  0  0  0  0
  5 26  1  0  0  0  0
  5 27  1  0  0  0  0
  6  7  1  0  0  0  0
  6 20  1  0  0  0  0
  7  8  1  0  0  0  0
  7 28  1  0  0  0  0
  7 29  1  0  0  0  0
  8  9  2  0  0  0  0
  8 10  1  0  0  0  0
 10 11  1  0  0  0  0
 10 30  1  0  0  0  0
 11 12  1  0  0  0  0
 11 13  1  0  0  0  0
 11 31  1  0  0  0  0
 12 32  1  0  0  0  0
 12 33  1  0  0  0  0
 12 34  1  0  0  0  0
 13 14  1  0  0  0  0
 13 35  1  0  0  0  0
 13 36  1  0  0  0  0
 14 19  1  0  0  0  0
 14 15  1  0  0  0  0
 14 45  1  0  0  0  0
 15 16  1  0  0  0  0
 15 37  1  0  0  0  0
 15 38  1  0  0  0  0
 16 17  1  0  0  0  0
 16 39  1  0  0  0  0
 16 40  1  0  0  0  0
 17 18  1  0  0  0  0
 18 19  1  0  0  0  0
 18 41  1  0  0  0  0
 18 42  1  0  0  0  0
 19 43  1  0  0  0  0
 19 44  1  0  0  0  0
M  CHG  1  14   1
M  END
> <s_m_source_file>
AV-unprocessed.smi

> <i_m_source_file_index>
1959

> <i_lp_mmshare_version>
43012

> <i_f3d_flags>
0

> <s_epik_input>
W0NIM11jMVtjSF1jKFtDSDNdKW4objEpW0NIMl1DKD1PKVtOSF1bQ0BIXShbQ0gzXSlbQ0gyXU4yW0NIMl1bQ0gyXU9bQ0gyXVtDSDJdMg==

> <s_epik_cmdline>
J2VwaWtfcHl0aG9uJywgJy1waCcsICc3LjAnLCAnLXRuJywgJzgnLCAnLW1hJywgJzIwMCcsICctbWV0YWxfYmluZGluZycsICctaW1hZScsICc8aW5maWxlLm1hZT4nLCAnLW9tYWUnLCAnPG91dGZpbGUubWFlPic=

> <r_lp_tautomer_probability>
1

> <r_epik_Ionization_Penalty>
0.748605

> <r_epik_Ionization_Penalty_Charging>
0.748396

> <r_epik_Ionization_Penalty_Neutral>
0.000208859

> <r_epik_State_Penalty>
0.775162

> <r_epik_Charging_Adjusted_Penalty>
1.52356

> <i_epik_Tot_Q>
1

> <i_epik_Tot_abs_Q>
1

> <r_epik_Metal_State_Penalty>
0.775281

> <b_epik_Metal_Only>
0

> <s_lp_Force_Field>
OPLS_2005

> <r_lp_Energy>
20.6749

> <b_lp_Chiralities_Consistent>
1

> <s_lp_Variant>
AV-unprocessed.smi:1959-4

> <Gold.Version>
5.8.1

> <Gold.Id.Protein>
6NUR|6NUR_protein|mol2

> <Gold.PLP.Fitness>
43.8063

> <Gold.PLP.PLP>
-39.4977

> <Gold.PLP.part.hbond>
-2.0000

> <Gold.PLP.part.metal>
0.0000

> <Gold.PLP.part.buried>
-2.8156

> <Gold.PLP.part.nonpolar>
-35.0644

> <Gold.PLP.part.repulsive>
0.0712

> <Gold.PLP.ligand.clash>
0.0000

> <Gold.PLP.ligand.torsion>
0.8773

> <Gold.PLP.Chemscore.Hbond>
2.0000

> <Gold.PLP.Chemscore.CHOScore>
0.0000

> <Gold.PLP.Chemscore.Metal>
0.0000

> <Gold.Chemscore.Hbonds>
donor molecule, donor type, donor heavy atom, donor atom, acceptor molecule, acceptor atom, score
      P1  H  6896  6909       L1    17  1.00
      P1  H  7997  8010       L1     9  0.99

> <Gold.PLP.Chemscore.Internal.Correction>
0.0631

> <Gold.Rescore>
     Score         DG    S(hbond)    S(metal)    S(lipo)     H(rot)  DE(clash)    DE(int)     intcor
     16.90     -19.94       1.85        0.00     109.67       1.77       0.62       2.42       ----

> <Gold.Chemscore.Fitness>
16.9032

> <Gold.Chemscore.DG>
-19.9432

> <Gold.Chemscore.ZeroCoef>
-5.4800

> <Gold.Chemscore.Hbond>
1.8485

> <Gold.Chemscore.Metal>
0.0000

> <Gold.Chemscore.Lipo>
109.6730

> <Gold.Chemscore.Internal_Hbond>
0.0000

> <Gold.Chemscore.DEClash>
0.6161

> <Gold.Chemscore.DEInternal>
2.4239

> <Gold.Chemscore.Rot>
1.7744

> <Gold.Chemscore.Internal.Correction>
   9.000000E+99

> <Gold.Chemscore.Hbonds>
donor molecule, donor type, donor heavy atom, donor atom, acceptor molecule, acceptor atom, score
      P1  H  6896  6909       L1    17  0.67
      P1  H  7997  8010       L1     9  0.92

> <Gold.Chemscore.Hbond.Weighted>
-6.1739

> <Gold.Chemscore.Metal.Weighted>
-0.0000

> <Gold.Chemscore.Lipo.Weighted>
-12.8317

> <Gold.Chemscore.Internal_Hbond.Weighted>
0.0000

> <Gold.Chemscore.DEClash.Weighted>
0.6161

> <Gold.Chemscore.DEInternal.Weighted>
2.4239

> <Gold.Chemscore.Rot.Weighted>
4.5424

> <Gold.Chemscore.Internal.Correction.Weighted>
   9.000000E+99

> <Gold.Protein.RotatedTorsions>
[ 6907 6896 6895 6894 ] final -163.15 input  -60.11 | X-H torsion
[ 7974 7965 7964 7962 ] final   63.84 input  175.53 | X-H torsion
[ 8008 7997 7996 7995 ] final  -19.96 input   59.86 | X-H torsion
[ 10167 10162 10161 10158 ] final -115.03 input  -65.29 | X-H torsion
[ 10718 10713 10712 10709 ] final  142.44 input   66.30 | X-H torsion
[ 10763 10752 10751 10750 ] final  -36.41 input  -60.55 | X-H torsion
[ 11005 11000 10999 10996 ] final  142.02 input  -57.11 | X-H torsion

> <Gold.Protein.ActiveResidues>
 VAL166  LYS551  ARG553  GLY616  TRP617  ASP618  TYR619  PRO620  LYS621  CYS622 
 ASP623  PHE694  ASN695  SER759  ASP760  ASP761  ALA762  ILE779  LEU786  VAL792 
 PHE793  MET794  SER795  GLU796  ALA797  LYS798  CYS799  TRP800  GLU811  SER814 

> <Gold.Protein.RotatedAtoms>
  151.3915  133.3787  159.2721 H   0  0  0  0  0  0  0  0  0  0  0  0  # atno 6907 bound_to 6896
  150.9502  134.8903  159.7677 H   0  0  0  0  0  0  0  0  0  0  0  0  # atno 6908 bound_to 6896
  152.5108  134.3870  159.9423 H   0  0  0  0  0  0  0  0  0  0  0  0  # atno 6909 bound_to 6896
  145.8572  139.3291  143.0840 H   0  0  0  0  0  0  0  0  0  0  0  0  # atno 7974 bound_to 7965
  154.4801  140.2075  155.9783 H   0  0  0  0  0  0  0  0  0  0  0  0  # atno 8008 bound_to 7997
  156.1152  140.3222  155.8098 H   0  0  0  0  0  0  0  0  0  0  0  0  # atno 8009 bound_to 7997
  155.4565  140.0521  157.2986 H   0  0  0  0  0  0  0  0  0  0  0  0  # atno 8010 bound_to 7997
  140.0945  143.4669  152.1850 H   0  0  0  0  0  0  0  0  0  0  0  0  # atno 10167 bound_to 10162
  157.3805  131.0991  151.0743 H   0  0  0  0  0  0  0  0  0  0  0  0  # atno 10718 bound_to 10713
  153.8792  135.6823  153.4768 H   0  0  0  0  0  0  0  0  0  0  0  0  # atno 10763 bound_to 10752
  153.1243  135.4726  154.9244 H   0  0  0  0  0  0  0  0  0  0  0  0  # atno 10764 bound_to 10752
  154.7677  135.3229  154.8205 H   0  0  0  0  0  0  0  0  0  0  0  0  # atno 10765 bound_to 10752
  140.0445  134.9287  157.0905 H   0  0  0  0  0  0  0  0  0  0  0  0  # atno 11005 bound_to 11000
  145.9290  140.9062  143.0366 LP  0  0  0  0  0  0  0  0  0  0  0  0  # atno 17320 bound_to 7965
  144.6727  140.1392  143.7438 LP  0  0  0  0  0  0  0  0  0  0  0  0  # atno 17321 bound_to 7965
  139.5706  144.7460  151.3902 LP  0  0  0  0  0  0  0  0  0  0  0  0  # atno 17342 bound_to 10162
  140.7011  143.7629  150.7404 LP  0  0  0  0  0  0  0  0  0  0  0  0  # atno 17343 bound_to 10162
  157.1813  130.6311  149.5673 LP  0  0  0  0  0  0  0  0  0  0  0  0  # atno 17370 bound_to 10713
  155.9775  130.4752  150.6595 LP  0  0  0  0  0  0  0  0  0  0  0  0  # atno 17371 bound_to 10713
  140.4015  134.2077  155.7163 LP  0  0  0  0  0  0  0  0  0  0  0  0  # atno 17394 bound_to 11000
  141.1900  133.8226  157.0935 LP  0  0  0  0  0  0  0  0  0  0  0  0  # atno 17395 bound_to 11000

$$$$
