AV-unprocessed.smi:228|AV-procd|sdf|1743|dock1
  -GOLD-   2262020253D 1   1.00000     0.00000
 Structure written by MMmdl.
 60 63  0  0  0  0  0  0  0  0  2 V2000
  144.3542  138.5378  156.3427 C   0  0  0  0  0  0  0  0  0  0  0  0
  144.8076  139.3778  155.2398 N   0  0  0  0  0  0  0  0  0  0  0  0
  145.5864  140.5721  155.5758 C   0  0  0  0  0  0  0  0  0  0  0  0
  145.2983  141.8061  154.6876 C   0  0  2  0  0  0  0  0  0  0  0  0
  146.5355  142.4533  154.4799 O   0  0  0  0  0  0  0  0  0  0  0  0
  144.3377  142.8368  155.3236 C   0  0  0  0  0  0  0  0  0  0  0  0
  143.6197  143.6713  154.3245 N   0  3  0  0  0  0  0  0  0  0  0  0
  142.6654  144.6097  154.9615 C   0  0  0  0  0  0  0  0  0  0  0  0
  141.9210  145.4360  153.8994 C   0  0  0  0  0  0  0  0  0  0  0  0
  142.8614  146.1334  153.0935 O   0  0  0  0  0  0  0  0  0  0  0  0
  143.7207  145.2437  152.3940 C   0  0  0  0  0  0  0  0  0  0  0  0
  144.5246  144.3976  153.3967 C   0  0  0  0  0  0  0  0  0  0  0  0
  145.0705  138.6934  154.0968 C   0  0  0  0  0  0  0  0  0  0  0  0
  145.9892  139.1651  153.2135 N   0  0  0  0  0  0  0  0  0  0  0  0
  146.2331  138.5062  152.0769 C   0  0  0  0  0  0  0  0  0  0  0  0
  145.6741  137.3805  151.6297 N   0  0  0  0  0  0  0  0  0  0  0  0
  144.7549  136.8983  152.5136 C   0  0  0  0  0  0  0  0  0  0  0  0
  144.4049  137.4804  153.7642 C   0  0  0  0  0  0  0  0  0  0  0  0
  143.4328  136.7092  154.3893 N   0  0  0  0  0  0  0  0  0  0  0  0
  143.2281  135.7214  153.5614 C   0  0  0  0  0  0  0  0  0  0  0  0
  143.9504  135.7790  152.3909 N   0  0  0  0  0  0  0  0  0  0  0  0
  143.9307  134.8272  151.3192 C   0  0  0  0  0  0  0  0  0  0  0  0
  144.0620  133.3281  151.6023 C   0  0  0  0  0  0  0  0  0  0  0  0
  144.8919  133.1432  150.3129 C   0  0  0  0  0  0  0  0  0  0  0  0
  146.1663  132.2993  150.4720 C   0  0  0  0  0  0  0  0  0  0  0  0
  146.9161  132.2642  149.2747 O   0  0  0  0  0  0  0  0  0  0  0  0
  144.1475  132.6123  149.0671 C   0  0  0  0  0  0  0  0  0  0  0  0
  142.9327  131.9601  149.3765 O   0  0  0  0  0  0  0  0  0  0  0  0
  145.1263  134.6695  150.3735 C   0  0  0  0  0  0  0  0  0  0  0  0
  143.2676  138.4524  156.3303 H   0  0  0  0  0  0  0  0  0  0  0  0
  144.6429  138.9584  157.3064 H   0  0  0  0  0  0  0  0  0  0  0  0
  144.7787  137.5345  156.2820 H   0  0  0  0  0  0  0  0  0  0  0  0
  145.3832  140.8336  156.6152 H   0  0  0  0  0  0  0  0  0  0  0  0
  146.6472  140.3203  155.5313 H   0  0  0  0  0  0  0  0  0  0  0  0
  144.9516  141.5096  153.7002 H   0  0  0  0  0  0  0  0  0  0  0  0
  147.0067  141.9943  153.8009 H   0  0  0  0  0  0  0  0  0  0  0  0
  143.6190  142.3030  155.9477 H   0  0  0  0  0  0  0  0  0  0  0  0
  144.8824  143.5027  155.9954 H   0  0  0  0  0  0  0  0  0  0  0  0
  141.9448  144.0525  155.5612 H   0  0  0  0  0  0  0  0  0  0  0  0
  143.2038  145.2737  155.6398 H   0  0  0  0  0  0  0  0  0  0  0  0
  141.2895  144.7997  153.2785 H   0  0  0  0  0  0  0  0  0  0  0  0
  141.2643  146.1603  154.3812 H   0  0  0  0  0  0  0  0  0  0  0  0
  143.1381  144.6125  151.7239 H   0  0  0  0  0  0  0  0  0  0  0  0
  144.3974  145.8253  151.7679 H   0  0  0  0  0  0  0  0  0  0  0  0
  145.1923  145.0435  153.9689 H   0  0  0  0  0  0  0  0  0  0  0  0
  145.1518  143.6980  152.8457 H   0  0  0  0  0  0  0  0  0  0  0  0
  146.9777  138.9473  151.4303 H   0  0  0  0  0  0  0  0  0  0  0  0
  142.5267  134.9286  153.7783 H   0  0  0  0  0  0  0  0  0  0  0  0
  143.0190  135.0337  150.7575 H   0  0  0  0  0  0  0  0  0  0  0  0
  144.6370  133.1268  152.5080 H   0  0  0  0  0  0  0  0  0  0  0  0
  143.1137  132.7897  151.6171 H   0  0  0  0  0  0  0  0  0  0  0  0
  146.7969  132.6843  151.2740 H   0  0  0  0  0  0  0  0  0  0  0  0
  145.9218  131.2707  150.7391 H   0  0  0  0  0  0  0  0  0  0  0  0
  147.6953  131.7504  149.4223 H   0  0  0  0  0  0  0  0  0  0  0  0
  143.9188  133.4257  148.3779 H   0  0  0  0  0  0  0  0  0  0  0  0
  144.7652  131.9023  148.5165 H   0  0  0  0  0  0  0  0  0  0  0  0
  142.3099  132.6080  149.6692 H   0  0  0  0  0  0  0  0  0  0  0  0
  145.0165  135.1894  149.4212 H   0  0  0  0  0  0  0  0  0  0  0  0
  146.0717  134.9328  150.8506 H   0  0  0  0  0  0  0  0  0  0  0  0
  143.0629  143.0398  153.7657 H   0  0  0  0  0  0  0  0  0  0  0  0
  1  2  1  0  0  0  0
  1 30  1  0  0  0  0
  1 31  1  0  0  0  0
  1 32  1  0  0  0  0
  2  3  1  0  0  0  0
  2 13  1  0  0  0  0
  3  4  1  0  0  0  0
  3 33  1  0  0  0  0
  3 34  1  0  0  0  0
  4  5  1  0  0  0  0
  4  6  1  0  0  0  0
  4 35  1  0  0  0  0
  5 36  1  0  0  0  0
  6  7  1  0  0  0  0
  6 37  1  0  0  0  0
  6 38  1  0  0  0  0
  7 12  1  0  0  0  0
  7  8  1  0  0  0  0
  7 60  1  0  0  0  0
  8  9  1  0  0  0  0
  8 39  1  0  0  0  0
  8 40  1  0  0  0  0
  9 10  1  0  0  0  0
  9 41  1  0  0  0  0
  9 42  1  0  0  0  0
 10 11  1  0  0  0  0
 11 12  1  0  0  0  0
 11 43  1  0  0  0  0
 11 44  1  0  0  0  0
 12 45  1  0  0  0  0
 12 46  1  0  0  0  0
 13 18  1  0  0  0  0
 13 14  2  0  0  0  0
 14 15  1  0  0  0  0
 15 16  2  0  0  0  0
 15 47  1  0  0  0  0
 16 17  1  0  0  0  0
 17 21  1  0  0  0  0
 17 18  2  0  0  0  0
 18 19  1  0  0  0  0
 19 20  2  0  0  0  0
 20 21  1  0  0  0  0
 20 48  1  0  0  0  0
 21 22  1  0  0  0  0
 22 29  1  0  0  0  0
 22 23  1  0  0  0  0
 22 49  1  0  0  0  0
 23 24  1  0  0  0  0
 23 50  1  0  0  0  0
 23 51  1  0  0  0  0
 24 25  1  0  0  0  0
 24 27  1  0  0  0  0
 24 29  1  0  0  0  0
 25 26  1  0  0  0  0
 25 52  1  0  0  0  0
 25 53  1  0  0  0  0
 26 54  1  0  0  0  0
 27 28  1  0  0  0  0
 27 55  1  0  0  0  0
 27 56  1  0  0  0  0
 28 57  1  0  0  0  0
 29 58  1  0  0  0  0
 29 59  1  0  0  0  0
M  CHG  1   7   1
M  END
> <s_m_source_file>
AV-unprocessed.smi

> <i_m_source_file_index>
228

> <i_lp_mmshare_version>
43012

> <i_f3d_flags>
0

> <s_epik_input>
W0NIMl0xW0NIMl1PW0NIMl1bQ0gyXU4xW0NIMl1bQ0BASF0oW09IXSlbQ0gyXU4oW0NIM10pYyhuW2NIXW4yKWMoYzIzKW5bY0hdbjNbQ0hdKFtDSDJdNClbQ0gyXUM0KFtDSDJdW09IXSlbQ0gyXVtPSF0=

> <s_epik_cmdline>
J2VwaWtfcHl0aG9uJywgJy1waCcsICc3LjAnLCAnLXRuJywgJzgnLCAnLW1hJywgJzIwMCcsICctbWV0YWxfYmluZGluZycsICctaW1hZScsICc8aW5maWxlLm1hZT4nLCAnLW9tYWUnLCAnPG91dGZpbGUubWFlPic=

> <r_lp_tautomer_probability>
1

> <r_epik_Ionization_Penalty>
0.403032

> <r_epik_Ionization_Penalty_Charging>
0.40072

> <r_epik_Ionization_Penalty_Neutral>
0.00231206

> <r_epik_State_Penalty>
0.387266

> <r_epik_Charging_Adjusted_Penalty>
0.787986

> <i_epik_Tot_Q>
1

> <i_epik_Tot_abs_Q>
1

> <r_epik_Metal_State_Penalty>
0.385845

> <b_epik_Metal_Only>
0

> <s_lp_Force_Field>
OPLS_2005

> <r_lp_Energy>
45.878

> <b_lp_Chiralities_Consistent>
1

> <s_lp_Variant>
AV-unprocessed.smi:228-1

> <Gold.Version>
5.8.1

> <Gold.Id.Protein>
6NUR|6NUR_protein|mol2

> <Gold.PLP.Fitness>
56.5951

> <Gold.PLP.PLP>
-43.7887

> <Gold.PLP.part.hbond>
-7.1159

> <Gold.PLP.part.metal>
0.0000

> <Gold.PLP.part.buried>
-3.2657

> <Gold.PLP.part.nonpolar>
-35.0472

> <Gold.PLP.part.repulsive>
0.6551

> <Gold.PLP.ligand.clash>
0.0130

> <Gold.PLP.ligand.torsion>
2.7526

> <Gold.PLP.Chemscore.Hbond>
4.8299

> <Gold.PLP.Chemscore.CHOScore>
0.7250

> <Gold.PLP.Chemscore.Metal>
0.0000

> <Gold.Chemscore.Hbonds>
donor molecule, donor type, donor heavy atom, donor atom, acceptor molecule, acceptor atom, score
      L1  H     7    60       P1 10174  1.86
      L1  H    26    54       P1 10747  1.00
      L1  H    28    57       P1 10186  0.50
      P1  H 10785 10796       L1    28  1.00
      L1  C    15    47       P1  7957  0.29

> <Gold.PLP.Chemscore.Internal.Correction>
1.6599

> <Gold.Rescore>
     Score         DG    S(hbond)    S(metal)    S(lipo)     H(rot)  DE(clash)    DE(int)     intcor
      4.98     -10.99       2.47        0.00      80.95       4.77       0.26       5.75       ----

> <Gold.Chemscore.Fitness>
4.9753

> <Gold.Chemscore.DG>
-10.9854

> <Gold.Chemscore.ZeroCoef>
-5.4800

> <Gold.Chemscore.Hbond>
2.4717

> <Gold.Chemscore.Metal>
0.0000

> <Gold.Chemscore.Lipo>
80.9456

> <Gold.Chemscore.Internal_Hbond>
0.0000

> <Gold.Chemscore.DEClash>
0.2578

> <Gold.Chemscore.DEInternal>
5.7523

> <Gold.Chemscore.Rot>
4.7738

> <Gold.Chemscore.Internal.Correction>
   9.000000E+99

> <Gold.Chemscore.Hbonds>
donor molecule, donor type, donor heavy atom, donor atom, acceptor molecule, acceptor atom, score
      L1  H     7    60       P1 10174  0.76
      L1  H    26    54       P1 10747  1.00
      L1  H    28    57       P1 10186  0.49
      P1  H 10785 10796       L1    28  0.44

> <Gold.Chemscore.Hbond.Weighted>
-8.2556

> <Gold.Chemscore.Metal.Weighted>
-0.0000

> <Gold.Chemscore.Lipo.Weighted>
-9.4706

> <Gold.Chemscore.Internal_Hbond.Weighted>
0.0000

> <Gold.Chemscore.DEClash.Weighted>
0.2578

> <Gold.Chemscore.DEInternal.Weighted>
5.7523

> <Gold.Chemscore.Rot.Weighted>
12.2208

> <Gold.Chemscore.Internal.Correction.Weighted>
   9.000000E+99

> <Gold.Protein.RotatedTorsions>
[ 6907 6896 6895 6894 ] final -136.90 input  -60.11 | X-H torsion
[ 7974 7965 7964 7962 ] final -106.89 input  175.53 | X-H torsion
[ 8008 7997 7996 7995 ] final -160.54 input   59.86 | X-H torsion
[ 10167 10162 10161 10158 ] final -116.44 input  -65.29 | X-H torsion
[ 10718 10713 10712 10709 ] final  -25.07 input   66.30 | X-H torsion
[ 10763 10752 10751 10750 ] final   67.23 input  -60.55 | X-H torsion
[ 11005 11000 10999 10996 ] final -123.87 input  -57.11 | X-H torsion

> <Gold.Protein.ActiveResidues>
 VAL166  LYS551  ARG553  GLY616  TRP617  ASP618  TYR619  PRO620  LYS621  CYS622 
 ASP623  PHE694  ASN695  SER759  ASP760  ASP761  ALA762  ILE779  LEU786  VAL792 
 PHE793  MET794  SER795  GLU796  ALA797  LYS798  CYS799  TRP800  GLU811  SER814 

> <Gold.Protein.RotatedAtoms>
  151.0158  133.5922  159.2676 H   0  0  0  0  0  0  0  0  0  0  0  0  # atno 6907 bound_to 6896
  151.3057  135.0780  159.9264 H   0  0  0  0  0  0  0  0  0  0  0  0  # atno 6908 bound_to 6896
  152.5311  133.9832  159.7870 H   0  0  0  0  0  0  0  0  0  0  0  0  # atno 6909 bound_to 6896
  145.2121  140.9100  143.3308 H   0  0  0  0  0  0  0  0  0  0  0  0  # atno 7974 bound_to 7965
  155.7790  140.0862  157.2069 H   0  0  0  0  0  0  0  0  0  0  0  0  # atno 8008 bound_to 7997
  154.3991  140.1511  156.3088 H   0  0  0  0  0  0  0  0  0  0  0  0  # atno 8009 bound_to 7997
  155.8672  140.3427  155.5799 H   0  0  0  0  0  0  0  0  0  0  0  0  # atno 8010 bound_to 7997
  140.0791  143.4804  152.1936 H   0  0  0  0  0  0  0  0  0  0  0  0  # atno 10167 bound_to 10162
  156.4693  130.4521  149.6879 H   0  0  0  0  0  0  0  0  0  0  0  0  # atno 10718 bound_to 10713
  153.0177  135.5291  154.6948 H   0  0  0  0  0  0  0  0  0  0  0  0  # atno 10763 bound_to 10752
  154.6073  135.2874  155.0473 H   0  0  0  0  0  0  0  0  0  0  0  0  # atno 10764 bound_to 10752
  154.1508  135.6563  153.5015 H   0  0  0  0  0  0  0  0  0  0  0  0  # atno 10765 bound_to 10752
  140.9885  134.0572  157.3682 H   0  0  0  0  0  0  0  0  0  0  0  0  # atno 11005 bound_to 11000
  144.9846  139.3750  143.6245 LP  0  0  0  0  0  0  0  0  0  0  0  0  # atno 17320 bound_to 7965
  146.3395  139.9001  142.8795 LP  0  0  0  0  0  0  0  0  0  0  0  0  # atno 17321 bound_to 7965
  139.5790  144.7501  151.3690 LP  0  0  0  0  0  0  0  0  0  0  0  0  # atno 17342 bound_to 10162
  140.7087  143.7448  150.7527 LP  0  0  0  0  0  0  0  0  0  0  0  0  # atno 17343 bound_to 10162
  156.3635  130.7494  151.2469 LP  0  0  0  0  0  0  0  0  0  0  0  0  # atno 17370 bound_to 10713
  157.7492  131.0343  150.4312 LP  0  0  0  0  0  0  0  0  0  0  0  0  # atno 17371 bound_to 10713
  139.8981  135.0153  156.7134 LP  0  0  0  0  0  0  0  0  0  0  0  0  # atno 17394 bound_to 11000
  140.7076  133.9251  155.8064 LP  0  0  0  0  0  0  0  0  0  0  0  0  # atno 17395 bound_to 11000

$$$$
