AV-unprocessed.smi:2472|AV-procd|sdf|9741|dock7
  -GOLD-   2272013383D 1   1.00000     0.00000
 Structure written by MMmdl.
 47 49  0  0  0  0  0  0  0  0  1 V2000
  151.1239  144.9237  158.7127 C   0  0  0  0  0  0  0  0  0  0  0  0
  151.7810  144.1034  159.8087 C   0  0  0  0  0  0  0  0  0  0  0  0
  152.1385  144.7155  161.0296 C   0  0  0  0  0  0  0  0  0  0  0  0
  152.7261  144.0577  162.0503 N   0  0  0  0  0  0  0  0  0  0  0  0
  152.9882  142.7451  161.8850 C   0  0  0  0  0  0  0  0  0  0  0  0
  152.6745  142.0340  160.7105 C   0  0  0  0  0  0  0  0  0  0  0  0
  152.0423  142.7213  159.6468 C   0  0  0  0  0  0  0  0  0  0  0  0
  151.7054  142.0945  158.4149 N   0  0  0  0  0  0  0  0  0  0  0  0
  151.4395  140.7966  158.1910 C   0  0  0  0  0  0  0  0  0  0  0  0
  151.4549  139.9113  159.0462 O   0  0  0  0  0  0  0  0  0  0  0  0
  151.1103  140.5844  156.9042 N   0  0  0  0  0  0  0  0  0  0  0  0
  150.7112  139.3139  156.2697 C   0  0  0  0  0  0  0  0  0  0  0  0
  149.5804  138.5765  157.0438 C   0  0  0  0  0  0  0  0  0  0  0  0
  148.4981  139.1342  157.2305 O   0  0  0  0  0  0  0  0  0  0  0  0
  149.8308  137.3412  157.5080 N   0  0  0  0  0  0  0  0  0  0  0  0
  148.8851  136.5139  158.2402 C   0  0  0  0  0  0  0  0  0  0  0  0
  149.3244  136.1955  159.6539 C   0  0  0  0  0  0  0  0  0  0  0  0
  148.8404  134.9434  160.3459 C   0  0  0  0  0  0  0  0  0  0  0  0
  148.3578  136.2968  160.8104 C   0  0  0  0  0  0  0  0  0  0  0  0
  150.2088  139.6259  154.8393 C   0  0  0  0  0  0  0  0  0  0  0  0
  150.6722  138.4688  153.9569 C   0  0  0  0  0  0  0  0  0  0  0  0
  152.0353  138.0992  154.5264 C   0  0  0  0  0  0  0  0  0  0  0  0
  151.9464  138.3891  156.0302 C   0  0  0  0  0  0  0  0  0  0  0  0
  150.9612  145.9535  159.0325 H   0  0  0  0  0  0  0  0  0  0  0  0
  150.1567  144.4975  158.4453 H   0  0  0  0  0  0  0  0  0  0  0  0
  151.7530  144.9418  157.8224 H   0  0  0  0  0  0  0  0  0  0  0  0
  151.9493  145.7660  161.1947 H   0  0  0  0  0  0  0  0  0  0  0  0
  153.4696  142.2455  162.7128 H   0  0  0  0  0  0  0  0  0  0  0  0
  152.9327  140.9882  160.6426 H   0  0  0  0  0  0  0  0  0  0  0  0
  151.5582  142.7199  157.6365 H   0  0  0  0  0  0  0  0  0  0  0  0
  151.1252  141.3871  156.2923 H   0  0  0  0  0  0  0  0  0  0  0  0
  150.7390  136.9415  157.3218 H   0  0  0  0  0  0  0  0  0  0  0  0
  147.9145  137.0119  158.2633 H   0  0  0  0  0  0  0  0  0  0  0  0
  148.7465  135.5719  157.7076 H   0  0  0  0  0  0  0  0  0  0  0  0
  150.3556  136.4748  159.8635 H   0  0  0  0  0  0  0  0  0  0  0  0
  148.1302  134.3120  159.8154 H   0  0  0  0  0  0  0  0  0  0  0  0
  149.5475  134.4161  160.9834 H   0  0  0  0  0  0  0  0  0  0  0  0
  148.7451  136.6738  161.7548 H   0  0  0  0  0  0  0  0  0  0  0  0
  147.3267  136.5648  160.5890 H   0  0  0  0  0  0  0  0  0  0  0  0
  149.1282  139.7675  154.7798 H   0  0  0  0  0  0  0  0  0  0  0  0
  150.6622  140.5470  154.4688 H   0  0  0  0  0  0  0  0  0  0  0  0
  149.9871  137.6259  154.0560 H   0  0  0  0  0  0  0  0  0  0  0  0
  150.7180  138.7378  152.9012 H   0  0  0  0  0  0  0  0  0  0  0  0
  152.3060  137.0641  154.3164 H   0  0  0  0  0  0  0  0  0  0  0  0
  152.7994  138.7359  154.0785 H   0  0  0  0  0  0  0  0  0  0  0  0
  152.8831  138.8396  156.3595 H   0  0  0  0  0  0  0  0  0  0  0  0
  151.8642  137.4513  156.5814 H   0  0  0  0  0  0  0  0  0  0  0  0
  1  2  1  0  0  0  0
  1 24  1  0  0  0  0
  1 25  1  0  0  0  0
  1 26  1  0  0  0  0
  2  7  1  0  0  0  0
  2  3  2  0  0  0  0
  3  4  1  0  0  0  0
  3 27  1  0  0  0  0
  4  5  2  0  0  0  0
  5  6  1  0  0  0  0
  5 28  1  0  0  0  0
  6  7  2  0  0  0  0
  6 29  1  0  0  0  0
  7  8  1  0  0  0  0
  8  9  1  0  0  0  0
  8 30  1  0  0  0  0
  9 10  2  0  0  0  0
  9 11  1  0  0  0  0
 11 12  1  0  0  0  0
 11 31  1  0  0  0  0
 12 23  1  0  0  0  0
 12 13  1  0  0  0  0
 12 20  1  0  0  0  0
 13 14  2  0  0  0  0
 13 15  1  0  0  0  0
 15 16  1  0  0  0  0
 15 32  1  0  0  0  0
 16 17  1  0  0  0  0
 16 33  1  0  0  0  0
 16 34  1  0  0  0  0
 17 19  1  0  0  0  0
 17 18  1  0  0  0  0
 17 35  1  0  0  0  0
 18 19  1  0  0  0  0
 18 36  1  0  0  0  0
 18 37  1  0  0  0  0
 19 38  1  0  0  0  0
 19 39  1  0  0  0  0
 20 21  1  0  0  0  0
 20 40  1  0  0  0  0
 20 41  1  0  0  0  0
 21 22  1  0  0  0  0
 21 42  1  0  0  0  0
 21 43  1  0  0  0  0
 22 23  1  0  0  0  0
 22 44  1  0  0  0  0
 22 45  1  0  0  0  0
 23 46  1  0  0  0  0
 23 47  1  0  0  0  0
M  END
> <s_m_source_file>
AV-unprocessed.smi

> <i_m_source_file_index>
2472

> <i_lp_mmshare_version>
43012

> <i_f3d_flags>
0

> <s_epik_input>
W0NIM11jMVtjSF1uW2NIXVtjSF1jMVtOSF1DKD1PKVtOSF1DMihbQ0gyXVtDSDJdW0NIMl1bQ0gyXTIpQyg9TylbTkhdW0NIMl1bQ0hdM1tDSDJdW0NIMl0z

> <s_epik_cmdline>
J2VwaWtfcHl0aG9uJywgJy1waCcsICc3LjAnLCAnLXRuJywgJzgnLCAnLW1hJywgJzIwMCcsICctbWV0YWxfYmluZGluZycsICctaW1hZScsICc8aW5maWxlLm1hZT4nLCAnLW9tYWUnLCAnPG91dGZpbGUubWFlPic=

> <r_epik_Ionization_Penalty>
0.187836

> <r_epik_Ionization_Penalty_Charging>
0

> <r_epik_Ionization_Penalty_Neutral>
0.187836

> <r_epik_State_Penalty>
0.177409

> <r_epik_Charging_Adjusted_Penalty>
0.177409

> <i_epik_Tot_Q>
0

> <i_epik_Tot_abs_Q>
0

> <r_epik_Metal_State_Penalty>
0.134269

> <b_epik_Metal_Only>
0

> <s_lp_Force_Field>
OPLS_2005

> <r_lp_Energy>
32.7124

> <b_lp_Chiralities_Consistent>
1

> <s_lp_Variant>
AV-unprocessed.smi:2472-1

> <Gold.Version>
5.8.1

> <Gold.Id.Protein>
6NUR|6NUR_protein|mol2

> <Gold.PLP.Fitness>
39.3703

> <Gold.PLP.PLP>
-40.4075

> <Gold.PLP.part.hbond>
0.0000

> <Gold.PLP.part.metal>
0.0000

> <Gold.PLP.part.buried>
-3.8646

> <Gold.PLP.part.nonpolar>
-36.2854

> <Gold.PLP.part.repulsive>
0.3455

> <Gold.PLP.ligand.clash>
0.0000

> <Gold.PLP.ligand.torsion>
0.8379

> <Gold.PLP.Chemscore.Hbond>
0.0000

> <Gold.PLP.Chemscore.CHOScore>
0.0000

> <Gold.PLP.Chemscore.Metal>
0.0000

> <Gold.PLP.Chemscore.Internal.Correction>
0.6386

> <Gold.Rescore>
     Score         DG    S(hbond)    S(metal)    S(lipo)     H(rot)  DE(clash)    DE(int)     intcor
     12.99     -15.49       0.00        0.00     120.45       1.59       0.21       2.29       ----

> <Gold.Chemscore.Fitness>
12.9903

> <Gold.Chemscore.DG>
-15.4913

> <Gold.Chemscore.ZeroCoef>
-5.4800

> <Gold.Chemscore.Hbond>
0.0000

> <Gold.Chemscore.Metal>
0.0000

> <Gold.Chemscore.Lipo>
120.4460

> <Gold.Chemscore.Internal_Hbond>
0.0000

> <Gold.Chemscore.DEClash>
0.2101

> <Gold.Chemscore.DEInternal>
2.2908

> <Gold.Chemscore.Rot>
1.5941

> <Gold.Chemscore.Internal.Correction>
   9.000000E+99

> <Gold.Chemscore.Hbond.Weighted>
-0.0000

> <Gold.Chemscore.Metal.Weighted>
-0.0000

> <Gold.Chemscore.Lipo.Weighted>
-14.0922

> <Gold.Chemscore.Internal_Hbond.Weighted>
0.0000

> <Gold.Chemscore.DEClash.Weighted>
0.2101

> <Gold.Chemscore.DEInternal.Weighted>
2.2908

> <Gold.Chemscore.Rot.Weighted>
4.0809

> <Gold.Chemscore.Internal.Correction.Weighted>
   9.000000E+99

> <Gold.Protein.RotatedTorsions>
[ 6907 6896 6895 6894 ] final -132.74 input  -60.11 | X-H torsion
[ 7974 7965 7964 7962 ] final -170.97 input  175.53 | X-H torsion
[ 8008 7997 7996 7995 ] final  169.83 input   59.86 | X-H torsion
[ 10167 10162 10161 10158 ] final   49.60 input  -65.29 | X-H torsion
[ 10718 10713 10712 10709 ] final  -81.08 input   66.30 | X-H torsion
[ 10763 10752 10751 10750 ] final  -65.63 input  -60.55 | X-H torsion
[ 11005 11000 10999 10996 ] final  -34.06 input  -57.11 | X-H torsion

> <Gold.Protein.ActiveResidues>
 VAL166  LYS551  ARG553  GLY616  TRP617  ASP618  TYR619  PRO620  LYS621  CYS622 
 ASP623  PHE694  ASN695  SER759  ASP760  ASP761  ALA762  ILE779  LEU786  VAL792 
 PHE793  MET794  SER795  GLU796  ALA797  LYS798  CYS799  TRP800  GLU811  SER814 

> <Gold.Protein.RotatedAtoms>
  150.9659  133.6395  159.2745 H   0  0  0  0  0  0  0  0  0  0  0  0  # atno 6907 bound_to 6896
  151.3701  135.0919  159.9472 H   0  0  0  0  0  0  0  0  0  0  0  0  # atno 6908 bound_to 6896
  152.5165  133.9215  159.7591 H   0  0  0  0  0  0  0  0  0  0  0  0  # atno 6909 bound_to 6896
  144.7163  140.1993  143.6340 H   0  0  0  0  0  0  0  0  0  0  0  0  # atno 7974 bound_to 7965
  156.1422  140.1554  156.8903 H   0  0  0  0  0  0  0  0  0  0  0  0  # atno 8008 bound_to 7997
  154.4997  140.0828  156.7810 H   0  0  0  0  0  0  0  0  0  0  0  0  # atno 8009 bound_to 7997
  155.4058  140.3416  155.4262 H   0  0  0  0  0  0  0  0  0  0  0  0  # atno 8010 bound_to 7997
  140.2812  144.3154  150.6264 H   0  0  0  0  0  0  0  0  0  0  0  0  # atno 10167 bound_to 10162
  156.0057  130.4593  150.3898 H   0  0  0  0  0  0  0  0  0  0  0  0  # atno 10718 bound_to 10713
  154.3479  135.6142  153.5628 H   0  0  0  0  0  0  0  0  0  0  0  0  # atno 10763 bound_to 10752
  152.9800  135.5785  154.4777 H   0  0  0  0  0  0  0  0  0  0  0  0  # atno 10764 bound_to 10752
  154.4493  135.2852  155.1770 H   0  0  0  0  0  0  0  0  0  0  0  0  # atno 10765 bound_to 10752
  140.9685  133.7123  156.1485 H   0  0  0  0  0  0  0  0  0  0  0  0  # atno 11005 bound_to 11000
  145.8695  139.2264  143.1669 LP  0  0  0  0  0  0  0  0  0  0  0  0  # atno 17320 bound_to 7965
  146.0098  140.8446  142.9976 LP  0  0  0  0  0  0  0  0  0  0  0  0  # atno 17321 bound_to 7965
  140.5810  143.2173  151.7428 LP  0  0  0  0  0  0  0  0  0  0  0  0  # atno 17342 bound_to 10162
  139.4962  144.4080  152.0111 LP  0  0  0  0  0  0  0  0  0  0  0  0  # atno 17343 bound_to 10162
  157.1974  131.0430  151.2669 LP  0  0  0  0  0  0  0  0  0  0  0  0  # atno 17370 bound_to 10713
  157.4007  130.7331  149.6765 LP  0  0  0  0  0  0  0  0  0  0  0  0  # atno 17371 bound_to 10713
  140.7363  134.4199  157.5560 LP  0  0  0  0  0  0  0  0  0  0  0  0  # atno 17394 bound_to 11000
  139.8903  134.8807  156.2374 LP  0  0  0  0  0  0  0  0  0  0  0  0  # atno 17395 bound_to 11000

$$$$
