AV-unprocessed.smi:287|AV-procd|sdf|2201|dock10
  -GOLD-   2262022 23D 1   1.00000     0.00000
 Structure written by MMmdl.
 55 58  0  0  0  0  0  0  0  0  1 V2000
  142.4850  146.3431  154.2091 C   0  0  0  0  0  0  0  0  0  0  0  0
  142.2630  144.9047  154.5295 C   0  0  0  0  0  0  0  0  0  0  0  0
  143.0246  143.9412  155.1234 C   0  0  0  0  0  0  0  0  0  0  0  0
  142.2544  142.7401  155.1423 C   0  0  0  0  0  0  0  0  0  0  0  0
  142.7033  141.4016  155.7131 C   0  0  1  0  0  0  0  0  0  0  0  0
  141.8095  141.0166  156.9039 C   0  0  0  0  0  0  0  0  0  0  0  0
  142.5741  140.3376  154.7897 O   0  0  0  0  0  0  0  0  0  0  0  0
  144.1869  141.4157  156.1465 C   0  0  0  0  0  0  0  0  0  0  0  0
  145.0758  140.8399  155.1454 N   0  0  0  0  0  0  0  0  0  0  0  0
  146.4097  140.7900  155.3433 C   0  0  0  0  0  0  0  0  0  0  0  0
  147.1154  140.1491  154.3815 N   0  0  0  0  0  0  0  0  0  0  0  0
  148.4433  140.0468  154.4784 C   0  0  0  0  0  0  0  0  0  0  0  0
  149.2462  140.5071  155.4384 N   0  0  0  0  0  0  0  0  0  0  0  0
  148.5451  141.1521  156.4151 C   0  0  0  0  0  0  0  0  0  0  0  0
  147.1323  141.3377  156.4454 C   0  0  0  0  0  0  0  0  0  0  0  0
  146.7886  142.0400  157.5962 N   0  0  0  0  0  0  0  0  0  0  0  0
  147.9258  142.2543  158.1991 C   0  0  0  0  0  0  0  0  0  0  0  0
  149.0346  141.7494  157.5599 N   0  0  0  0  0  0  0  0  0  0  0  0
  150.4616  141.8329  158.0065 C   0  0  2  0  0  0  0  0  0  0  0  0
  150.4928  142.4149  159.2713 O   0  0  0  0  0  0  0  0  0  0  0  0
  151.6647  143.2122  159.3869 C   0  0  2  0  0  0  0  0  0  0  0  0
  151.5419  144.2150  160.5481 C   0  0  0  0  0  0  0  0  0  0  0  0
  151.8762  143.5875  161.7676 O   0  0  0  0  0  0  0  0  0  0  0  0
  151.8050  143.8293  157.9875 C   0  0  2  0  0  0  0  0  0  0  0  0
  151.0082  144.9950  157.8609 O   0  0  0  0  0  0  0  0  0  0  0  0
  151.3429  142.6932  157.0752 C   0  0  2  0  0  0  0  0  0  0  0  0
  150.7266  143.1353  155.8762 O   0  0  0  0  0  0  0  0  0  0  0  0
  141.0594  143.0811  154.5551 C   0  0  0  0  0  0  0  0  0  0  0  0
  139.7995  142.3369  154.2555 C   0  0  0  0  0  0  0  0  0  0  0  0
  141.0579  144.3903  154.1785 O   0  0  0  0  0  0  0  0  0  0  0  0
  150.7960  140.7959  158.0611 H   0  0  0  0  0  0  0  0  0  0  0  0
  152.5171  142.5499  159.5517 H   0  0  0  0  0  0  0  0  0  0  0  0
  152.8378  144.1119  157.7813 H   0  0  0  0  0  0  0  0  0  0  0  0
  152.2055  142.0827  156.8054 H   0  0  0  0  0  0  0  0  0  0  0  0
  143.5303  146.6168  154.3530 H   0  0  0  0  0  0  0  0  0  0  0  0
  141.8767  146.9797  154.8519 H   0  0  0  0  0  0  0  0  0  0  0  0
  142.2205  146.5551  153.1730 H   0  0  0  0  0  0  0  0  0  0  0  0
  144.0273  144.0798  155.5002 H   0  0  0  0  0  0  0  0  0  0  0  0
  141.8674  141.7605  157.6991 H   0  0  0  0  0  0  0  0  0  0  0  0
  142.1050  140.0580  157.3325 H   0  0  0  0  0  0  0  0  0  0  0  0
  140.7633  140.9370  156.6055 H   0  0  0  0  0  0  0  0  0  0  0  0
  143.0977  140.5358  154.0287 H   0  0  0  0  0  0  0  0  0  0  0  0
  144.4935  142.4528  156.2890 H   0  0  0  0  0  0  0  0  0  0  0  0
  144.3156  140.9111  157.1051 H   0  0  0  0  0  0  0  0  0  0  0  0
  144.6299  140.5261  154.2952 H   0  0  0  0  0  0  0  0  0  0  0  0
  148.9325  139.5207  153.6720 H   0  0  0  0  0  0  0  0  0  0  0  0
  147.9862  142.7874  159.1367 H   0  0  0  0  0  0  0  0  0  0  0  0
  152.2388  145.0414  160.4061 H   0  0  0  0  0  0  0  0  0  0  0  0
  150.5387  144.6393  160.6033 H   0  0  0  0  0  0  0  0  0  0  0  0
  151.3590  143.9762  162.4565 H   0  0  0  0  0  0  0  0  0  0  0  0
  150.4355  144.8839  157.1160 H   0  0  0  0  0  0  0  0  0  0  0  0
  150.2732  143.9454  156.0522 H   0  0  0  0  0  0  0  0  0  0  0  0
  139.3953  141.8821  155.1600 H   0  0  0  0  0  0  0  0  0  0  0  0
  139.9825  141.5449  153.5294 H   0  0  0  0  0  0  0  0  0  0  0  0
  139.0368  142.9993  153.8453 H   0  0  0  0  0  0  0  0  0  0  0  0
  1  2  1  0  0  0  0
  1 35  1  0  0  0  0
  1 36  1  0  0  0  0
  1 37  1  0  0  0  0
  2 30  1  0  0  0  0
  2  3  2  0  0  0  0
  3  4  1  0  0  0  0
  3 38  1  0  0  0  0
  4  5  1  0  0  0  0
  4 28  2  0  0  0  0
  5  6  1  0  0  0  0
  5  7  1  0  0  0  0
  5  8  1  0  0  0  0
  6 39  1  0  0  0  0
  6 40  1  0  0  0  0
  6 41  1  0  0  0  0
  7 42  1  0  0  0  0
  8  9  1  0  0  0  0
  8 43  1  0  0  0  0
  8 44  1  0  0  0  0
  9 10  1  0  0  0  0
  9 45  1  0  0  0  0
 10 15  1  0  0  0  0
 10 11  2  0  0  0  0
 11 12  1  0  0  0  0
 12 13  2  0  0  0  0
 12 46  1  0  0  0  0
 13 14  1  0  0  0  0
 14 18  1  0  0  0  0
 14 15  2  0  0  0  0
 15 16  1  0  0  0  0
 16 17  2  0  0  0  0
 17 18  1  0  0  0  0
 17 47  1  0  0  0  0
 18 19  1  0  0  0  0
 19 31  1  0  0  0  0
 19 26  1  0  0  0  0
 19 20  1  0  0  0  0
 20 21  1  0  0  0  0
 21 32  1  0  0  0  0
 21 22  1  0  0  0  0
 21 24  1  0  0  0  0
 22 23  1  0  0  0  0
 22 48  1  0  0  0  0
 22 49  1  0  0  0  0
 23 50  1  0  0  0  0
 24 33  1  0  0  0  0
 24 25  1  0  0  0  0
 24 26  1  0  0  0  0
 25 51  1  0  0  0  0
 26 34  1  0  0  0  0
 26 27  1  0  0  0  0
 27 52  1  0  0  0  0
 28 29  1  0  0  0  0
 28 30  1  0  0  0  0
 29 53  1  0  0  0  0
 29 54  1  0  0  0  0
 29 55  1  0  0  0  0
M  END
> <s_m_source_file>
AV-unprocessed.smi

> <i_m_source_file_index>
287

> <i_lp_mmshare_version>
43012

> <i_f3d_flags>
0

> <s_epik_input>
W0NIM11jMVtjSF1jKGMobzEpW0NIM10pW0NAQF0oW0NIM10pKFtPSF0pW0NIMl1bTkhdYyhuW2NIXW4yKWMoYzIzKW5bY0hdbjNbQ0BASF00T1tDQEhdKFtDSDJdW09IXSlbQ0BASF0oW09IXSlbQ0BIXTRbT0hd

> <s_epik_cmdline>
J2VwaWtfcHl0aG9uJywgJy1waCcsICc3LjAnLCAnLXRuJywgJzgnLCAnLW1hJywgJzIwMCcsICctbWV0YWxfYmluZGluZycsICctaW1hZScsICc8aW5maWxlLm1hZT4nLCAnLW9tYWUnLCAnPG91dGZpbGUubWFlPic=

> <r_lp_tautomer_probability>
1

> <r_epik_Ionization_Penalty>
0.000992612

> <r_epik_Ionization_Penalty_Charging>
0

> <r_epik_Ionization_Penalty_Neutral>
0.000992612

> <r_epik_State_Penalty>
-0

> <r_epik_Charging_Adjusted_Penalty>
0

> <i_epik_Tot_Q>
0

> <i_epik_Tot_abs_Q>
0

> <r_epik_Metal_State_Penalty>
-0

> <b_epik_Metal_Only>
0

> <s_epik_Chemistry_Notes>
This compound contains an acetal/aminal-like group ( X-CH(R)-Y where X, Y are N, S, or O) that may be acid/base labile, releasing an aldehyde.

> <s_lp_Force_Field>
OPLS_2005

> <r_lp_Energy>
50.9422

> <b_lp_Chiralities_Consistent>
1

> <s_lp_Variant>
AV-unprocessed.smi:287-25

> <Gold.Version>
5.8.1

> <Gold.Id.Protein>
6NUR|6NUR_protein|mol2

> <Gold.PLP.Fitness>
45.5658

> <Gold.PLP.PLP>
-34.0874

> <Gold.PLP.part.hbond>
-5.8260

> <Gold.PLP.part.metal>
0.0000

> <Gold.PLP.part.buried>
-4.5858

> <Gold.PLP.part.nonpolar>
-23.7588

> <Gold.PLP.part.repulsive>
0.3917

> <Gold.PLP.ligand.clash>
0.0965

> <Gold.PLP.ligand.torsion>
1.1553

> <Gold.PLP.Chemscore.Hbond>
3.5808

> <Gold.PLP.Chemscore.CHOScore>
1.0000

> <Gold.PLP.Chemscore.Metal>
0.0000

> <Gold.Chemscore.Hbonds>
donor molecule, donor type, donor heavy atom, donor atom, acceptor molecule, acceptor atom, score
      L1  H     7    42       P1 10175  1.00
      L1  H     9    45       P1 10175  0.98
      L1  H    25    51       P1  8028  0.86
      L1  H    27    52       P1  8028  0.83
      L1  C    12    46       P1  7957  0.70

> <Gold.PLP.Chemscore.Internal.Correction>
0.1432

> <Gold.Rescore>
     Score         DG    S(hbond)    S(metal)    S(lipo)     H(rot)  DE(clash)    DE(int)     intcor
      8.33     -12.71       3.77        0.00      69.45       5.27       1.33       3.05       ----

> <Gold.Chemscore.Fitness>
8.3254

> <Gold.Chemscore.DG>
-12.7080

> <Gold.Chemscore.ZeroCoef>
-5.4800

> <Gold.Chemscore.Hbond>
3.7684

> <Gold.Chemscore.Metal>
0.0000

> <Gold.Chemscore.Lipo>
69.4472

> <Gold.Chemscore.Internal_Hbond>
0.0000

> <Gold.Chemscore.DEClash>
1.3294

> <Gold.Chemscore.DEInternal>
3.0533

> <Gold.Chemscore.Rot>
5.2672

> <Gold.Chemscore.Internal.Correction>
   9.000000E+99

> <Gold.Chemscore.Hbonds>
donor molecule, donor type, donor heavy atom, donor atom, acceptor molecule, acceptor atom, score
      L1  H     7    42       P1 10175  0.92
      L1  H     9    45       P1 10175  0.92
      L1  H    25    51       P1  8028  0.33
      L1  H    27    52       P1  8028  0.81

> <Gold.Chemscore.Hbond.Weighted>
-12.5866

> <Gold.Chemscore.Metal.Weighted>
-0.0000

> <Gold.Chemscore.Lipo.Weighted>
-8.1253

> <Gold.Chemscore.Internal_Hbond.Weighted>
0.0000

> <Gold.Chemscore.DEClash.Weighted>
1.3294

> <Gold.Chemscore.DEInternal.Weighted>
3.0533

> <Gold.Chemscore.Rot.Weighted>
13.4839

> <Gold.Chemscore.Internal.Correction.Weighted>
   9.000000E+99

> <Gold.Protein.RotatedTorsions>
[ 6907 6896 6895 6894 ] final -177.60 input  -60.11 | X-H torsion
[ 7974 7965 7964 7962 ] final  120.12 input  175.53 | X-H torsion
[ 8008 7997 7996 7995 ] final -176.52 input   59.86 | X-H torsion
[ 10167 10162 10161 10158 ] final  -29.71 input  -65.29 | X-H torsion
[ 10718 10713 10712 10709 ] final   70.42 input   66.30 | X-H torsion
[ 10763 10752 10751 10750 ] final  145.64 input  -60.55 | X-H torsion
[ 11005 11000 10999 10996 ] final  172.09 input  -57.11 | X-H torsion

> <Gold.Protein.ActiveResidues>
 VAL166  LYS551  ARG553  GLY616  TRP617  ASP618  TYR619  PRO620  LYS621  CYS622 
 ASP623  PHE694  ASN695  SER759  ASP760  ASP761  ALA762  ILE779  LEU786  VAL792 
 PHE793  MET794  SER795  GLU796  ALA797  LYS798  CYS799  TRP800  GLU811  SER814 

> <Gold.Protein.RotatedAtoms>
  151.6236  133.3337  159.3093 H   0  0  0  0  0  0  0  0  0  0  0  0  # atno 6907 bound_to 6896
  150.8093  134.7242  159.6685 H   0  0  0  0  0  0  0  0  0  0  0  0  # atno 6908 bound_to 6896
  152.4189  134.5995  160.0048 H   0  0  0  0  0  0  0  0  0  0  0  0  # atno 6909 bound_to 6896
  145.1349  139.3304  143.4646 H   0  0  0  0  0  0  0  0  0  0  0  0  # atno 7974 bound_to 7965
  155.9958  140.1210  157.0594 H   0  0  0  0  0  0  0  0  0  0  0  0  # atno 8008 bound_to 7997
  154.4226  140.1116  156.5697 H   0  0  0  0  0  0  0  0  0  0  0  0  # atno 8009 bound_to 7997
  155.6280  140.3472  155.4675 H   0  0  0  0  0  0  0  0  0  0  0  0  # atno 8010 bound_to 7997
  140.7257  143.3907  151.1435 H   0  0  0  0  0  0  0  0  0  0  0  0  # atno 10167 bound_to 10162
  157.6399  130.9476  150.0648 H   0  0  0  0  0  0  0  0  0  0  0  0  # atno 10718 bound_to 10713
  154.0087  135.2916  155.3395 H   0  0  0  0  0  0  0  0  0  0  0  0  # atno 10763 bound_to 10752
  154.7116  135.5147  153.8678 H   0  0  0  0  0  0  0  0  0  0  0  0  # atno 10764 bound_to 10752
  153.0733  135.6655  154.0321 H   0  0  0  0  0  0  0  0  0  0  0  0  # atno 10765 bound_to 10752
  140.3260  134.7397  157.4099 H   0  0  0  0  0  0  0  0  0  0  0  0  # atno 11005 bound_to 11000
  146.3510  140.1363  142.8596 LP  0  0  0  0  0  0  0  0  0  0  0  0  # atno 17320 bound_to 7965
  145.0595  140.9077  143.4947 LP  0  0  0  0  0  0  0  0  0  0  0  0  # atno 17321 bound_to 7965
  139.7511  143.8777  152.3077 LP  0  0  0  0  0  0  0  0  0  0  0  0  # atno 17342 bound_to 10162
  139.8631  144.7107  150.9076 LP  0  0  0  0  0  0  0  0  0  0  0  0  # atno 17343 bound_to 10162
  156.1670  130.3645  149.9218 LP  0  0  0  0  0  0  0  0  0  0  0  0  # atno 17370 bound_to 10713
  156.7203  130.9004  151.3617 LP  0  0  0  0  0  0  0  0  0  0  0  0  # atno 17371 bound_to 10713
  140.0901  134.5613  155.8453 LP  0  0  0  0  0  0  0  0  0  0  0  0  # atno 17394 bound_to 11000
  141.2075  133.6665  156.6310 LP  0  0  0  0  0  0  0  0  0  0  0  0  # atno 17395 bound_to 11000

$$$$
