AV-unprocessed.smi:334|AV-procd|sdf|2367|dock6
  -GOLD-   2262022283D 1   1.00000     0.00000
 Structure written by MMmdl.
 44 46  0  0  0  0  0  0  0  0  3 V2000
  149.9011  141.5831  156.7314 C   0  0  0  0  0  0  0  0  0  0  0  0
  150.5041  141.6007  158.1457 C   0  0  1  0  0  0  0  0  0  0  0  0
  150.9465  140.2594  158.5115 N   0  0  0  0  0  0  0  0  0  0  0  0
  151.9497  139.5710  157.9410 C   0  0  0  0  0  0  0  0  0  0  0  0
  152.6724  140.0448  157.0653 O   0  0  0  0  0  0  0  0  0  0  0  0
  152.1823  138.1212  158.4012 C   0  0  0  0  0  0  0  0  0  0  0  0
  151.0941  137.1837  158.0646 N   0  0  0  0  0  0  0  0  0  0  0  0
  149.9375  137.2321  158.8675 C   0  0  0  0  0  0  0  0  0  0  0  0
  148.8756  136.4338  158.6423 C   0  0  0  0  0  0  0  0  0  0  0  0
  147.6935  136.5023  159.4727 N   0  3  0  0  0  0  0  0  0  0  0  0
  146.6588  135.9833  159.0669 O   0  0  0  0  0  0  0  0  0  0  0  0
  147.7590  137.0765  160.5556 O   0  5  0  0  0  0  0  0  0  0  0  0
  148.9541  135.5044  157.5320 C   0  0  0  0  0  0  0  0  0  0  0  0
  150.0563  135.4549  156.7585 C   0  0  0  0  0  0  0  0  0  0  0  0
  151.2092  136.3272  157.0032 C   0  0  0  0  0  0  0  0  0  0  0  0
  152.2127  136.2977  156.2912 O   0  0  0  0  0  0  0  0  0  0  0  0
  151.7054  142.5673  158.2650 C   0  0  2  0  0  0  0  0  0  0  0  0
  152.3677  142.6119  159.6621 C   0  0  0  0  0  0  0  0  0  0  0  0
  152.4682  144.1216  159.9486 C   0  0  2  0  0  0  0  0  0  0  0  0
  151.0672  144.6609  160.2892 C   0  0  0  0  0  0  0  0  0  0  0  0
  150.3595  144.6484  158.9220 C   0  0  0  0  0  0  0  0  0  0  0  0
  151.4361  144.0661  157.9826 C   0  0  1  0  0  0  0  0  0  0  0  0
  152.6991  144.7010  158.5574 C   0  0  0  0  0  0  0  0  0  0  0  0
  149.5138  142.5638  156.4547 H   0  0  0  0  0  0  0  0  0  0  0  0
  149.0719  140.8783  156.6646 H   0  0  0  0  0  0  0  0  0  0  0  0
  150.6435  141.2952  155.9865 H   0  0  0  0  0  0  0  0  0  0  0  0
  149.7312  141.9053  158.8517 H   0  0  0  0  0  0  0  0  0  0  0  0
  150.4110  139.7938  159.2296 H   0  0  0  0  0  0  0  0  0  0  0  0
  153.1234  137.7700  157.9743 H   0  0  0  0  0  0  0  0  0  0  0  0
  152.3521  138.1341  159.4787 H   0  0  0  0  0  0  0  0  0  0  0  0
  149.9748  137.9618  159.6636 H   0  0  0  0  0  0  0  0  0  0  0  0
  148.1296  134.8426  157.3118 H   0  0  0  0  0  0  0  0  0  0  0  0
  150.0931  134.7557  155.9360 H   0  0  0  0  0  0  0  0  0  0  0  0
  152.4625  142.2357  157.5516 H   0  0  0  0  0  0  0  0  0  0  0  0
  151.7880  142.0953  160.4284 H   0  0  0  0  0  0  0  0  0  0  0  0
  153.3553  142.1499  159.6314 H   0  0  0  0  0  0  0  0  0  0  0  0
  153.2272  144.3772  160.6885 H   0  0  0  0  0  0  0  0  0  0  0  0
  150.5544  144.0448  161.0288 H   0  0  0  0  0  0  0  0  0  0  0  0
  151.1251  145.6767  160.6821 H   0  0  0  0  0  0  0  0  0  0  0  0
  149.4317  144.0783  158.9299 H   0  0  0  0  0  0  0  0  0  0  0  0
  150.1067  145.6661  158.6216 H   0  0  0  0  0  0  0  0  0  0  0  0
  151.2619  144.2882  156.9294 H   0  0  0  0  0  0  0  0  0  0  0  0
  152.6854  145.7922  158.5357 H   0  0  0  0  0  0  0  0  0  0  0  0
  153.6183  144.3463  158.0874 H   0  0  0  0  0  0  0  0  0  0  0  0
  1  2  1  0  0  0  0
  1 24  1  0  0  0  0
  1 25  1  0  0  0  0
  1 26  1  0  0  0  0
  2  3  1  0  0  0  0
  2 17  1  0  0  0  0
  2 27  1  0  0  0  0
  3  4  1  0  0  0  0
  3 28  1  0  0  0  0
  4  5  2  0  0  0  0
  4  6  1  0  0  0  0
  6  7  1  0  0  0  0
  6 29  1  0  0  0  0
  6 30  1  0  0  0  0
  7 15  1  0  0  0  0
  7  8  1  0  0  0  0
  8  9  2  0  0  0  0
  8 31  1  0  0  0  0
  9 10  1  0  0  0  0
  9 13  1  0  0  0  0
 10 11  2  0  0  0  0
 10 12  1  0  0  0  0
 13 14  2  0  0  0  0
 13 32  1  0  0  0  0
 14 15  1  0  0  0  0
 14 33  1  0  0  0  0
 15 16  2  0  0  0  0
 17 22  1  0  0  0  0
 17 18  1  0  0  0  0
 17 34  1  0  0  0  0
 18 19  1  0  0  0  0
 18 35  1  0  0  0  0
 18 36  1  0  0  0  0
 19 23  1  0  0  0  0
 19 20  1  0  0  0  0
 19 37  1  0  0  0  0
 20 21  1  0  0  0  0
 20 38  1  0  0  0  0
 20 39  1  0  0  0  0
 21 22  1  0  0  0  0
 21 40  1  0  0  0  0
 21 41  1  0  0  0  0
 22 23  1  0  0  0  0
 22 42  1  0  0  0  0
 23 43  1  0  0  0  0
 23 44  1  0  0  0  0
M  CHG  1  10   1
M  CHG  1  12  -1
M  END
> <s_m_source_file>
AV-unprocessed.smi

> <i_m_source_file_index>
334

> <i_lp_mmshare_version>
43012

> <i_f3d_flags>
0

> <s_epik_input>
W0NIMl0xW0NIMl1bQ0BIXShbQ0gyXTIpW0NAQEhdKFtDSDJdW0NAQEhdMTIpW0NASF0oW0NIM10pW05IXUMoPU8pW0NIMl1uM1tjSF1jKFtOK10oPU8pW08tXSlbY0hdW2NIXWMzPU8=

> <s_epik_cmdline>
J2VwaWtfcHl0aG9uJywgJy1waCcsICc3LjAnLCAnLXRuJywgJzgnLCAnLW1hJywgJzIwMCcsICctbWV0YWxfYmluZGluZycsICctaW1hZScsICc8aW5maWxlLm1hZT4nLCAnLW9tYWUnLCAnPG91dGZpbGUubWFlPic=

> <r_lp_tautomer_probability>
1

> <r_epik_Ionization_Penalty>
2.17081e-08

> <r_epik_Ionization_Penalty_Charging>
8.1195e-11

> <r_epik_Ionization_Penalty_Neutral>
2.16269e-08

> <r_epik_State_Penalty>
-0

> <r_epik_Charging_Adjusted_Penalty>
8.1195e-11

> <i_epik_Tot_Q>
0

> <i_epik_Tot_abs_Q>
2

> <r_epik_Metal_State_Penalty>
-0

> <b_epik_Metal_Only>
0

> <s_lp_Force_Field>
OPLS_2005

> <r_lp_Energy>
62.3621

> <b_lp_Chiralities_Consistent>
1

> <s_lp_Variant>
AV-unprocessed.smi:334-6

> <Gold.Version>
5.8.1

> <Gold.Id.Protein>
6NUR|6NUR_protein|mol2

> <Gold.PLP.Fitness>
52.1260

> <Gold.PLP.PLP>
-41.9205

> <Gold.PLP.part.hbond>
-4.0000

> <Gold.PLP.part.metal>
0.0000

> <Gold.PLP.part.buried>
-5.6610

> <Gold.PLP.part.nonpolar>
-32.7483

> <Gold.PLP.part.repulsive>
0.1676

> <Gold.PLP.ligand.clash>
0.0000

> <Gold.PLP.ligand.torsion>
0.4255

> <Gold.PLP.Chemscore.Hbond>
3.6720

> <Gold.PLP.Chemscore.CHOScore>
0.0000

> <Gold.PLP.Chemscore.Metal>
0.0000

> <Gold.Chemscore.Hbonds>
donor molecule, donor type, donor heavy atom, donor atom, acceptor molecule, acceptor atom, score
      P1  H  6931  6943       L1    12  0.49
      P1  H  6934  6947       L1    12  0.84
      P1  H  7997  8009       L1     5  1.00
      P1  H 10752 10764       L1    16  0.80

> <Gold.PLP.Chemscore.Internal.Correction>
0.0406

> <Gold.Rescore>
     Score         DG    S(hbond)    S(metal)    S(lipo)     H(rot)  DE(clash)    DE(int)     intcor
     24.11     -25.32       3.61        0.00     104.73       1.75       0.00       1.21       ----

> <Gold.Chemscore.Fitness>
24.1112

> <Gold.Chemscore.DG>
-25.3200

> <Gold.Chemscore.ZeroCoef>
-5.4800

> <Gold.Chemscore.Hbond>
3.6106

> <Gold.Chemscore.Metal>
0.0000

> <Gold.Chemscore.Lipo>
104.7333

> <Gold.Chemscore.Internal_Hbond>
0.0000

> <Gold.Chemscore.DEClash>
0.0000

> <Gold.Chemscore.DEInternal>
1.2088

> <Gold.Chemscore.Rot>
1.7474

> <Gold.Chemscore.Internal.Correction>
   9.000000E+99

> <Gold.Chemscore.Hbonds>
donor molecule, donor type, donor heavy atom, donor atom, acceptor molecule, acceptor atom, score
      P1  H  6931  6943       L1    12  0.49
      P1  H  6934  6947       L1    12  0.78
      P1  H  7997  8009       L1     5  0.99
      P1  H 10752 10764       L1    16  0.79

> <Gold.Chemscore.Hbond.Weighted>
-12.0596

> <Gold.Chemscore.Metal.Weighted>
-0.0000

> <Gold.Chemscore.Lipo.Weighted>
-12.2538

> <Gold.Chemscore.Internal_Hbond.Weighted>
0.0000

> <Gold.Chemscore.DEClash.Weighted>
0.0000

> <Gold.Chemscore.DEInternal.Weighted>
1.2088

> <Gold.Chemscore.Rot.Weighted>
4.4733

> <Gold.Chemscore.Internal.Correction.Weighted>
   9.000000E+99

> <Gold.Protein.RotatedTorsions>
[ 6907 6896 6895 6894 ] final -133.47 input  -60.11 | X-H torsion
[ 7974 7965 7964 7962 ] final -146.04 input  175.53 | X-H torsion
[ 8008 7997 7996 7995 ] final  177.09 input   59.86 | X-H torsion
[ 10167 10162 10161 10158 ] final   27.52 input  -65.29 | X-H torsion
[ 10718 10713 10712 10709 ] final  164.53 input   66.30 | X-H torsion
[ 10763 10752 10751 10750 ] final  -53.43 input  -60.55 | X-H torsion
[ 11005 11000 10999 10996 ] final -120.33 input  -57.11 | X-H torsion

> <Gold.Protein.ActiveResidues>
 VAL166  LYS551  ARG553  GLY616  TRP617  ASP618  TYR619  PRO620  LYS621  CYS622 
 ASP623  PHE694  ASN695  SER759  ASP760  ASP761  ALA762  ILE779  LEU786  VAL792 
 PHE793  MET794  SER795  GLU796  ALA797  LYS798  CYS799  TRP800  GLU811  SER814 

> <Gold.Protein.RotatedAtoms>
  150.9745  133.6309  159.2732 H   0  0  0  0  0  0  0  0  0  0  0  0  # atno 6907 bound_to 6896
  151.3587  135.0898  159.9437 H   0  0  0  0  0  0  0  0  0  0  0  0  # atno 6908 bound_to 6896
  152.5194  133.9323  159.7641 H   0  0  0  0  0  0  0  0  0  0  0  0  # atno 6909 bound_to 6896
  144.8186  140.5507  143.5593 H   0  0  0  0  0  0  0  0  0  0  0  0  # atno 7974 bound_to 7965
  156.0694  140.1367  156.9846 H   0  0  0  0  0  0  0  0  0  0  0  0  # atno 8008 bound_to 7997
  154.4524  140.0975  156.6708 H   0  0  0  0  0  0  0  0  0  0  0  0  # atno 8009 bound_to 7997
  155.5252  140.3457  155.4417 H   0  0  0  0  0  0  0  0  0  0  0  0  # atno 8010 bound_to 7997
  140.4931  144.0435  150.6304 H   0  0  0  0  0  0  0  0  0  0  0  0  # atno 10167 bound_to 10162
  157.0931  131.0423  151.2529 H   0  0  0  0  0  0  0  0  0  0  0  0  # atno 10718 bound_to 10713
  154.1587  135.6478  153.4980 H   0  0  0  0  0  0  0  0  0  0  0  0  # atno 10763 bound_to 10752
  153.0117  135.5355  154.6733 H   0  0  0  0  0  0  0  0  0  0  0  0  # atno 10764 bound_to 10752
  154.6041  135.2947  155.0475 H   0  0  0  0  0  0  0  0  0  0  0  0  # atno 10765 bound_to 10752
  141.0151  134.0207  157.3360 H   0  0  0  0  0  0  0  0  0  0  0  0  # atno 11005 bound_to 11000
  145.5156  139.1478  143.3580 LP  0  0  0  0  0  0  0  0  0  0  0  0  # atno 17320 bound_to 7965
  146.2491  140.5297  142.8901 LP  0  0  0  0  0  0  0  0  0  0  0  0  # atno 17321 bound_to 7965
  140.3710  143.2854  152.0278 LP  0  0  0  0  0  0  0  0  0  0  0  0  # atno 17342 bound_to 10162
  139.4855  144.6230  151.7219 LP  0  0  0  0  0  0  0  0  0  0  0  0  # atno 17343 bound_to 10162
  157.4704  130.7705  149.7318 LP  0  0  0  0  0  0  0  0  0  0  0  0  # atno 17370 bound_to 10713
  155.9893  130.3953  150.3080 LP  0  0  0  0  0  0  0  0  0  0  0  0  # atno 17371 bound_to 10713
  139.9112  135.0190  156.7700 LP  0  0  0  0  0  0  0  0  0  0  0  0  # atno 17394 bound_to 11000
  140.6668  133.9596  155.7834 LP  0  0  0  0  0  0  0  0  0  0  0  0  # atno 17395 bound_to 11000

$$$$
