AV-unprocessed.smi:1220|AV-procd|sdf|5117|dock10
  -GOLD-   22720 4173D 1   1.00000     0.00000
 Structure written by MMmdl.
 35 36  0  0  0  0  0  0  0  0  1 V2000
  146.0704  133.2831  154.2236 C   0  0  0  0  0  0  0  0  0  0  0  0
  147.1734  133.5457  153.1895 C   0  0  1  0  0  0  0  0  0  0  0  0
  146.5966  134.1637  151.8972 C   0  0  0  0  0  0  0  0  0  0  0  0
  145.6860  133.2697  151.2035 N   0  0  0  0  0  0  0  0  0  0  0  0
  145.9676  132.0678  150.5882 C   0  0  0  0  0  0  0  0  0  0  0  0
  144.7927  131.5805  150.0922 C   0  0  0  0  0  0  0  0  0  0  0  0
  143.8370  132.5706  150.4541 C   0  0  0  0  0  0  0  0  0  0  0  0
  144.3753  133.5824  151.1156 N   0  0  0  0  0  0  0  0  0  0  0  0
  148.1792  134.4277  153.7812 N   0  0  0  0  0  0  0  0  0  0  0  0
  148.9238  134.1523  154.8642 C   0  0  0  0  0  0  0  0  0  0  0  0
  148.8118  133.1153  155.5184 O   0  0  0  0  0  0  0  0  0  0  0  0
  149.9722  135.2010  155.2529 C   0  0  1  0  0  0  0  0  0  0  0  0
  149.4046  136.6368  155.2296 C   0  0  0  0  0  0  0  0  0  0  0  0
  150.3989  137.5621  155.9380 C   0  0  0  0  0  0  0  0  0  0  0  0
  151.1421  136.5565  157.2757 S   0  0  0  0  0  0  0  0  0  0  0  0
  152.6071  136.6124  157.1597 O   0  0  0  0  0  0  0  0  0  0  0  0
  150.4711  136.8615  158.5483 O   0  0  0  0  0  0  0  0  0  0  0  0
  150.5394  134.9392  156.6600 C   0  0  0  0  0  0  0  0  0  0  0  0
  145.3165  132.6021  153.8276 H   0  0  0  0  0  0  0  0  0  0  0  0
  145.5663  134.2063  154.5116 H   0  0  0  0  0  0  0  0  0  0  0  0
  146.4789  132.8295  155.1274 H   0  0  0  0  0  0  0  0  0  0  0  0
  147.6219  132.5805  152.9472 H   0  0  0  0  0  0  0  0  0  0  0  0
  146.0554  135.0823  152.1289 H   0  0  0  0  0  0  0  0  0  0  0  0
  147.4005  134.4420  151.2143 H   0  0  0  0  0  0  0  0  0  0  0  0
  146.9675  131.6607  150.5626 H   0  0  0  0  0  0  0  0  0  0  0  0
  144.6386  130.6568  149.5546 H   0  0  0  0  0  0  0  0  0  0  0  0
  142.7752  132.5840  150.2573 H   0  0  0  0  0  0  0  0  0  0  0  0
  148.3417  135.3064  153.3109 H   0  0  0  0  0  0  0  0  0  0  0  0
  150.8014  135.1626  154.5441 H   0  0  0  0  0  0  0  0  0  0  0  0
  149.2093  136.9762  154.2119 H   0  0  0  0  0  0  0  0  0  0  0  0
  148.4540  136.6730  155.7642 H   0  0  0  0  0  0  0  0  0  0  0  0
  151.1975  137.8640  155.2601 H   0  0  0  0  0  0  0  0  0  0  0  0
  149.9330  138.4571  156.3508 H   0  0  0  0  0  0  0  0  0  0  0  0
  149.7760  134.5808  157.3523 H   0  0  0  0  0  0  0  0  0  0  0  0
  151.3601  134.2218  156.6529 H   0  0  0  0  0  0  0  0  0  0  0  0
  1  2  1  0  0  0  0
  1 19  1  0  0  0  0
  1 20  1  0  0  0  0
  1 21  1  0  0  0  0
  2  3  1  0  0  0  0
  2  9  1  0  0  0  0
  2 22  1  0  0  0  0
  3  4  1  0  0  0  0
  3 23  1  0  0  0  0
  3 24  1  0  0  0  0
  4  8  1  0  0  0  0
  4  5  1  0  0  0  0
  5  6  2  0  0  0  0
  5 25  1  0  0  0  0
  6  7  1  0  0  0  0
  6 26  1  0  0  0  0
  7  8  2  0  0  0  0
  7 27  1  0  0  0  0
  9 10  1  0  0  0  0
  9 28  1  0  0  0  0
 10 11  2  0  0  0  0
 10 12  1  0  0  0  0
 12 18  1  0  0  0  0
 12 13  1  0  0  0  0
 12 29  1  0  0  0  0
 13 14  1  0  0  0  0
 13 30  1  0  0  0  0
 13 31  1  0  0  0  0
 14 15  1  0  0  0  0
 14 32  1  0  0  0  0
 14 33  1  0  0  0  0
 15 16  2  0  0  0  0
 15 17  2  0  0  0  0
 15 18  1  0  0  0  0
 18 34  1  0  0  0  0
 18 35  1  0  0  0  0
M  END
> <s_m_source_file>
AV-unprocessed.smi

> <i_m_source_file_index>
1220

> <i_lp_mmshare_version>
43012

> <i_f3d_flags>
0

> <s_epik_input>
bjFbY0hdW2NIXVtjSF1uMVtDSDJdW0NAQEhdKFtDSDNdKVtOSF1DKD1PKVtDQEBIXShbQ0gyXTIpW0NIMl1bQ0gyXVMyKD1PKT1P

> <s_epik_cmdline>
J2VwaWtfcHl0aG9uJywgJy1waCcsICc3LjAnLCAnLXRuJywgJzgnLCAnLW1hJywgJzIwMCcsICctbWV0YWxfYmluZGluZycsICctaW1hZScsICc8aW5maWxlLm1hZT4nLCAnLW9tYWUnLCAnPG91dGZpbGUubWFlPic=

> <r_lp_tautomer_probability>
1

> <r_epik_Ionization_Penalty>
0.000293905

> <r_epik_Ionization_Penalty_Charging>
0

> <r_epik_Ionization_Penalty_Neutral>
0.000293905

> <r_epik_State_Penalty>
-0

> <r_epik_Charging_Adjusted_Penalty>
0

> <i_epik_Tot_Q>
0

> <i_epik_Tot_abs_Q>
0

> <r_epik_Metal_State_Penalty>
-0

> <b_epik_Metal_Only>
0

> <s_lp_Force_Field>
OPLS_2005

> <r_lp_Energy>
3.0384

> <b_lp_Chiralities_Consistent>
1

> <s_lp_Variant>
AV-unprocessed.smi:1220-4

> <Gold.Version>
5.8.1

> <Gold.Id.Protein>
6NUR|6NUR_protein|mol2

> <Gold.PLP.Fitness>
40.5686

> <Gold.PLP.PLP>
-27.6486

> <Gold.PLP.part.hbond>
-3.0000

> <Gold.PLP.part.metal>
0.0000

> <Gold.PLP.part.buried>
-4.1212

> <Gold.PLP.part.nonpolar>
-20.9210

> <Gold.PLP.part.repulsive>
0.1503

> <Gold.PLP.ligand.clash>
0.0000

> <Gold.PLP.ligand.torsion>
0.3959

> <Gold.PLP.Chemscore.Hbond>
2.5680

> <Gold.PLP.Chemscore.CHOScore>
1.9979

> <Gold.PLP.Chemscore.Metal>
0.0000

> <Gold.Chemscore.Hbonds>
donor molecule, donor type, donor heavy atom, donor atom, acceptor molecule, acceptor atom, score
      L1  H     9    28       P1  7948  0.98
      P1  H  6896  6907       L1    17  0.26
      P1  H 10752 10764       L1    16  0.08
      L1  C     5    25       P1 10747  1.00
      L1  C     7    27       P1 10186  0.72

> <Gold.PLP.Chemscore.Internal.Correction>
0.0141

> <Gold.Rescore>
     Score         DG    S(hbond)    S(metal)    S(lipo)     H(rot)  DE(clash)    DE(int)     intcor
     15.66     -16.41       2.51        0.00      59.90       1.75       0.34       0.42       ----

> <Gold.Chemscore.Fitness>
15.6584

> <Gold.Chemscore.DG>
-16.4125

> <Gold.Chemscore.ZeroCoef>
-5.4800

> <Gold.Chemscore.Hbond>
2.5133

> <Gold.Chemscore.Metal>
0.0000

> <Gold.Chemscore.Lipo>
59.8957

> <Gold.Chemscore.Internal_Hbond>
0.0000

> <Gold.Chemscore.DEClash>
0.3363

> <Gold.Chemscore.DEInternal>
0.4178

> <Gold.Chemscore.Rot>
1.7460

> <Gold.Chemscore.Internal.Correction>
   9.000000E+99

> <Gold.Chemscore.Hbonds>
donor molecule, donor type, donor heavy atom, donor atom, acceptor molecule, acceptor atom, score
      L1  H     9    28       P1  7948  0.91
      P1  H  6896  6907       L1    17  0.07
      P1  H 10752 10764       L1    16  0.12

> <Gold.Chemscore.Hbond.Weighted>
-8.3944

> <Gold.Chemscore.Metal.Weighted>
-0.0000

> <Gold.Chemscore.Lipo.Weighted>
-7.0078

> <Gold.Chemscore.Internal_Hbond.Weighted>
0.0000

> <Gold.Chemscore.DEClash.Weighted>
0.3363

> <Gold.Chemscore.DEInternal.Weighted>
0.4178

> <Gold.Chemscore.Rot.Weighted>
4.4697

> <Gold.Chemscore.Internal.Correction.Weighted>
   9.000000E+99

> <Gold.Protein.RotatedTorsions>
[ 6907 6896 6895 6894 ] final  -18.74 input  -60.11 | X-H torsion
[ 7974 7965 7964 7962 ] final  -51.23 input  175.53 | X-H torsion
[ 8008 7997 7996 7995 ] final  -17.85 input   59.86 | X-H torsion
[ 10167 10162 10161 10158 ] final  144.65 input  -65.29 | X-H torsion
[ 10718 10713 10712 10709 ] final  -56.03 input   66.30 | X-H torsion
[ 10763 10752 10751 10750 ] final    1.48 input  -60.55 | X-H torsion
[ 11005 11000 10999 10996 ] final  -31.04 input  -57.11 | X-H torsion

> <Gold.Protein.ActiveResidues>
 VAL166  LYS551  ARG553  GLY616  TRP617  ASP618  TYR619  PRO620  LYS621  CYS622 
 ASP623  PHE694  ASN695  SER759  ASP760  ASP761  ALA762  ILE779  LEU786  VAL792 
 PHE793  MET794  SER795  GLU796  ALA797  LYS798  CYS799  TRP800  GLU811  SER814 

> <Gold.Protein.RotatedAtoms>
  151.2736  135.0692  159.9142 H   0  0  0  0  0  0  0  0  0  0  0  0  # atno 6907 bound_to 6896
  152.5346  134.0105  159.7946 H   0  0  0  0  0  0  0  0  0  0  0  0  # atno 6908 bound_to 6896
  151.0347  133.5709  159.2688 H   0  0  0  0  0  0  0  0  0  0  0  0  # atno 6909 bound_to 6896
  145.9212  140.7832  142.9646 H   0  0  0  0  0  0  0  0  0  0  0  0  # atno 7974 bound_to 7965
  154.4948  140.2131  155.9471 H   0  0  0  0  0  0  0  0  0  0  0  0  # atno 8008 bound_to 7997
  156.1355  140.3189  155.8382 H   0  0  0  0  0  0  0  0  0  0  0  0  # atno 8009 bound_to 7997
  155.4217  140.0497  157.3016 H   0  0  0  0  0  0  0  0  0  0  0  0  # atno 8010 bound_to 7997
  139.4942  144.5957  151.6588 H   0  0  0  0  0  0  0  0  0  0  0  0  # atno 10167 bound_to 10162
  156.1321  130.4159  150.0250 H   0  0  0  0  0  0  0  0  0  0  0  0  # atno 10718 bound_to 10713
  153.3075  135.6960  153.7146 H   0  0  0  0  0  0  0  0  0  0  0  0  # atno 10763 bound_to 10752
  153.6037  135.3457  155.2955 H   0  0  0  0  0  0  0  0  0  0  0  0  # atno 10764 bound_to 10752
  154.8566  135.4346  154.2203 H   0  0  0  0  0  0  0  0  0  0  0  0  # atno 10765 bound_to 10752
  140.9434  133.7265  156.1110 H   0  0  0  0  0  0  0  0  0  0  0  0  # atno 11005 bound_to 11000
  144.6753  140.1979  143.7390 LP  0  0  0  0  0  0  0  0  0  0  0  0  # atno 17320 bound_to 7965
  145.8547  139.2193  143.1751 LP  0  0  0  0  0  0  0  0  0  0  0  0  # atno 17321 bound_to 7965
  140.5594  144.0294  150.6162 LP  0  0  0  0  0  0  0  0  0  0  0  0  # atno 17342 bound_to 10162
  140.3374  143.3040  152.0623 LP  0  0  0  0  0  0  0  0  0  0  0  0  # atno 17343 bound_to 10162
  156.8159  130.9341  151.3643 LP  0  0  0  0  0  0  0  0  0  0  0  0  # atno 17370 bound_to 10713
  157.6498  130.8875  149.9610 LP  0  0  0  0  0  0  0  0  0  0  0  0  # atno 17371 bound_to 10713
  140.7703  134.3840  157.5509 LP  0  0  0  0  0  0  0  0  0  0  0  0  # atno 17394 bound_to 11000
  139.8826  134.9018  156.2818 LP  0  0  0  0  0  0  0  0  0  0  0  0  # atno 17395 bound_to 11000

$$$$
