#       Name:                AV-unprocessed.smi:1046
#       Creating user name   scv26
#       Creation time:       Fri Mar 27 02:57:49 2020


#       File generated by GOLD software.
#

@<TRIPOS>MOLECULE
AV-unprocessed.smi:1046
    59    61     1
SMALL
NO_CHARGES


@<TRIPOS>ATOM
      1 ****        -6.4606  -0.4979  -3.3635 C.3            1 S1                 0.0000
      2 ****        -5.3541  -0.1688  -2.3769 C.ar           1 S1                 0.0000
      3 ****        -5.6722   0.5496  -1.2023 C.ar           1 S1                 0.0000
      4 ****        -4.6722   0.8771  -0.2605 C.ar           1 S1                 0.0000
      5 ****        -4.7565   1.5634   0.9388 N.2            1 S1                 0.0000
      6 ****        -3.4917   1.5414   1.3496 C.2            1 S1                 0.0000
      7 ****        -2.5964   0.9218   0.5563 N.pl3          1 S1                 0.0000
      8 ****        -1.1720   0.7702   0.7902 C.3            1 S1                 0.0000
      9 ****        -0.8201  -0.6295   1.3294 C.3            1 S1                 0.0000
     10 ****        -1.3665  -0.8168   2.6196 O.3            1 S1                 0.0000
     11 ****         0.6783  -1.0069   1.3492 C.3            1 S1                 0.0000
     12 ****         1.5529  -0.2046   2.2187 N.3            1 S1                 0.0000
     13 ****         2.7054  -0.9623   2.7089 C.3            1 S1                 0.0000
     14 ****         3.7483  -1.2613   1.6142 C.3            1 S1                 0.0000
     15 ****         4.2389   0.0057   1.0160 N.4            1 S1                 1.0000
     16 ****         5.3142  -0.2177   0.0168 C.3            1 S1                 0.0000
     17 ****         6.1639   1.0402  -0.2333 C.3            1 S1                 0.0000
     18 ****         6.8538   1.4005   0.9450 O.3            1 S1                 0.0000
     19 ****         3.1013   0.8142   0.5043 C.3            1 S1                 0.0000
     20 ****         2.0541   1.0371   1.6164 C.3            1 S1                 0.0000
     21 ****        -3.3348   0.4630  -0.5286 C.ar           1 S1                 0.0000
     22 ****        -3.0057  -0.2533  -1.6927 C.ar           1 S1                 0.0000
     23 ****        -4.0171  -0.5735  -2.6225 C.ar           1 S1                 0.0000
     24 ****        -3.6522  -1.3487  -3.8760 C.3            1 S1                 0.0000
     25 ****        -7.4122  -0.0652  -3.0538 H              1 S1                 0.0000
     26 ****        -6.5925  -1.5774  -3.4411 H              1 S1                 0.0000
     27 ****        -6.2220  -0.1052  -4.3522 H              1 S1                 0.0000
     28 ****        -6.6905   0.8561  -1.0137 H              1 S1                 0.0000
     29 ****        -3.1987   2.0008   2.2823 H              1 S1                 0.0000
     30 ****        -0.6525   0.9569  -0.1505 H              1 S1                 0.0000
     31 ****        -0.8639   1.5451   1.4920 H              1 S1                 0.0000
     32 ****        -1.3101  -1.3612   0.6855 H              1 S1                 0.0000
     33 ****        -0.9313  -0.2277   3.2170 H              1 S1                 0.0000
     34 ****         0.7212  -2.0475   1.6748 H              1 S1                 0.0000
     35 ****         1.0614  -1.0202   0.3296 H              1 S1                 0.0000
     36 ****         3.1865  -0.4000   3.5105 H              1 S1                 0.0000
     37 ****         2.3705  -1.8942   3.1661 H              1 S1                 0.0000
     38 ****         4.5847  -1.8054   2.0549 H              1 S1                 0.0000
     39 ****         3.3263  -1.9024   0.8387 H              1 S1                 0.0000
     40 ****         5.9743  -1.0148   0.3624 H              1 S1                 0.0000
     41 ****         4.8747  -0.5697  -0.9175 H              1 S1                 0.0000
     42 ****         6.9011   0.8368  -1.0105 H              1 S1                 0.0000
     43 ****         5.5647   1.8803  -0.5826 H              1 S1                 0.0000
     44 ****         7.4146   2.1374   0.7533 H              1 S1                 0.0000
     45 ****         3.4569   1.7857   0.1633 H              1 S1                 0.0000
     46 ****         2.6554   0.3264  -0.3630 H              1 S1                 0.0000
     47 ****         1.2412   1.6396   1.2228 H              1 S1                 0.0000
     48 ****         2.5076   1.6457   2.3999 H              1 S1                 0.0000
     49 ****        -1.9834  -0.5545  -1.8668 H              1 S1                 0.0000
     50 ****        -2.5998  -1.6342  -3.8745 H              1 S1                 0.0000
     51 ****        -3.8348  -0.7438  -4.7643 H              1 S1                 0.0000
     52 ****        -4.2446  -2.2609  -3.9495 H              1 S1                 0.0000
     53 ****         4.6577   0.5293   1.7717 H              1 S1                 0.0000
     54 ****        -5.5572   1.9688   1.3799 LP             1 S1                 0.0000
     55 ****        -1.2230  -1.7619   2.9130 LP             1 S1                 0.0000
     56 ****        -2.3464  -0.6180   2.6033 LP             1 S1                 0.0000
     57 ****         0.9466   0.0419   2.9748 LP             1 S1                 0.0000
     58 ****         7.4069   0.6295   1.2605 LP             1 S1                 0.0000
     59 ****         6.1973   1.6528   1.6558 LP             1 S1                 0.0000
@<TRIPOS>BOND
    1    1    2 1     
    2    1   25 1     
    3    1   26 1     
    4    1   27 1     
    5    2   23 ar    
    6    2    3 ar    
    7    3    4 ar    
    8    3   28 1     
    9    4   21 ar    
   10    4    5 1     
   11    5    6 2     
   12    6    7 1     
   13    6   29 1     
   14    7    8 1     
   15    7   21 1     
   16    8    9 1     
   17    8   30 1     
   18    8   31 1     
   19    9   10 1     
   20    9   11 1     
   21    9   32 1     
   22   10   33 1     
   23   11   12 1     
   24   11   34 1     
   25   11   35 1     
   26   12   20 1     
   27   12   13 1     
   28   13   14 1     
   29   13   36 1     
   30   13   37 1     
   31   14   15 1     
   32   14   38 1     
   33   14   39 1     
   34   15   16 1     
   35   15   19 1     
   36   15   53 1     
   37   16   17 1     
   38   16   40 1     
   39   16   41 1     
   40   17   18 1     
   41   17   42 1     
   42   17   43 1     
   43   18   44 1     
   44   19   20 1     
   45   19   45 1     
   46   19   46 1     
   47   20   47 1     
   48   20   48 1     
   49   21   22 ar    
   50   22   23 ar    
   51   22   49 1     
   52   23   24 1     
   53   24   50 1     
   54   24   51 1     
   55   24   52 1     
   56    5   54 1     
   57   10   55 1     
   58   10   56 1     
   59   12   57 1     
   60   18   58 1     
   61   18   59 1     
@<TRIPOS>SUBSTRUCTURE
      1 S1             1
@<TRIPOS>SET
LONE_PAIRS      STATIC     ATOMS    <user>   **** ""
6 54 55 56 57 58 59
DONOR_HYDROGENS      STATIC     ATOMS    <user>   **** ""
3 33 53 44
ATOM$BLUE        STATIC     ATOMS    COLORGROUP SYSTEM
6 54 55 56 57 58 59
ATOM$RED        STATIC     ATOMS    COLORGROUP SYSTEM
3 33 53 44
