AV-unprocessed.smi:992|AV-procd|sdf|4334|dock5
  -GOLD-   22720 2233D 1   1.00000     0.00000
 Structure written by MMmdl.
 33 34  0  0  0  0  0  0  0  0  2 V2000
  152.7787  144.6564  157.9495 C   0  0  0  0  0  0  0  0  0  0  0  0
  151.6822  143.8613  158.6803 C   0  0  1  0  0  0  0  0  0  0  0  0
  150.7943  143.0234  157.7382 C   0  0  0  0  0  0  0  0  0  0  0  0
  151.5085  141.8436  157.2683 N   0  0  0  0  0  0  0  0  0  0  0  0
  150.7845  141.1041  156.3240 C   0  0  0  0  0  0  0  0  0  0  0  0
  149.5239  141.5026  155.8200 C   0  0  0  0  0  0  0  0  0  0  0  0
  148.8700  140.6889  154.8714 C   0  0  0  0  0  0  0  0  0  0  0  0
  149.4869  139.4943  154.4440 C   0  0  0  0  0  0  0  0  0  0  0  0
  148.8626  138.6701  153.5097 N   0  0  0  0  0  0  0  0  0  0  0  0
  150.7449  139.1456  154.9765 C   0  0  0  0  0  0  0  0  0  0  0  0
  151.3383  139.9525  155.8831 N   0  3  0  0  0  0  0  0  0  0  0  0
  152.0265  141.0355  158.3631 C   0  0  0  0  0  0  0  0  0  0  0  0
  152.9401  141.8896  159.2598 C   0  0  2  0  0  0  0  0  0  0  0  0
  153.4266  141.1126  160.4874 C   0  0  0  0  0  0  0  0  0  0  0  0
  152.2174  143.0333  159.7165 O   0  0  0  0  0  0  0  0  0  0  0  0
  152.3388  145.3697  157.2521 H   0  0  0  0  0  0  0  0  0  0  0  0
  153.4461  144.0137  157.3762 H   0  0  0  0  0  0  0  0  0  0  0  0
  153.3852  145.2212  158.6579 H   0  0  0  0  0  0  0  0  0  0  0  0
  151.0420  144.5920  159.1754 H   0  0  0  0  0  0  0  0  0  0  0  0
  149.8969  142.7083  158.2727 H   0  0  0  0  0  0  0  0  0  0  0  0
  150.4648  143.6263  156.8909 H   0  0  0  0  0  0  0  0  0  0  0  0
  149.0596  142.4195  156.1525 H   0  0  0  0  0  0  0  0  0  0  0  0
  147.9068  140.9814  154.4793 H   0  0  0  0  0  0  0  0  0  0  0  0
  147.9612  138.9033  153.1175 H   0  0  0  0  0  0  0  0  0  0  0  0
  149.3087  137.8345  153.1587 H   0  0  0  0  0  0  0  0  0  0  0  0
  151.2927  138.2533  154.7094 H   0  0  0  0  0  0  0  0  0  0  0  0
  151.1987  140.6350  158.9498 H   0  0  0  0  0  0  0  0  0  0  0  0
  152.5808  140.1852  157.9635 H   0  0  0  0  0  0  0  0  0  0  0  0
  153.8155  142.2089  158.6936 H   0  0  0  0  0  0  0  0  0  0  0  0
  153.9931  140.2286  160.1931 H   0  0  0  0  0  0  0  0  0  0  0  0
  152.5901  140.7844  161.1049 H   0  0  0  0  0  0  0  0  0  0  0  0
  154.0756  141.7313  161.1079 H   0  0  0  0  0  0  0  0  0  0  0  0
  152.2480  139.6776  156.2545 H   0  0  0  0  0  0  0  0  0  0  0  0
  1  2  1  0  0  0  0
  1 16  1  0  0  0  0
  1 17  1  0  0  0  0
  1 18  1  0  0  0  0
  2 15  1  0  0  0  0
  2  3  1  0  0  0  0
  2 19  1  0  0  0  0
  3  4  1  0  0  0  0
  3 20  1  0  0  0  0
  3 21  1  0  0  0  0
  4  5  1  0  0  0  0
  4 12  1  0  0  0  0
  5 11  1  0  0  0  0
  5  6  2  0  0  0  0
  6  7  1  0  0  0  0
  6 22  1  0  0  0  0
  7  8  2  0  0  0  0
  7 23  1  0  0  0  0
  8  9  1  0  0  0  0
  8 10  1  0  0  0  0
  9 24  1  0  0  0  0
  9 25  1  0  0  0  0
 10 11  2  0  0  0  0
 10 26  1  0  0  0  0
 11 33  1  0  0  0  0
 12 13  1  0  0  0  0
 12 27  1  0  0  0  0
 12 28  1  0  0  0  0
 13 14  1  0  0  0  0
 13 15  1  0  0  0  0
 13 29  1  0  0  0  0
 14 30  1  0  0  0  0
 14 31  1  0  0  0  0
 14 32  1  0  0  0  0
M  CHG  1  11   1
M  END
> <s_m_source_file>
AV-unprocessed.smi

> <i_m_source_file_index>
992

> <i_lp_mmshare_version>
43012

> <i_f3d_flags>
0

> <s_epik_input>
W0NIM11bQ0BASF0xW0NIMl1OKFtDSDJdW0NASF0oTzEpW0NIM10pYzJbY0hdW2NIXWMoW05IMl0pW2NIXW4y

> <s_epik_cmdline>
J2VwaWtfcHl0aG9uJywgJy1waCcsICc3LjAnLCAnLXRuJywgJzgnLCAnLW1hJywgJzIwMCcsICctbWV0YWxfYmluZGluZycsICctaW1hZScsICc8aW5maWxlLm1hZT4nLCAnLW9tYWUnLCAnPG91dGZpbGUubWFlPic=

> <r_lp_tautomer_probability>
0.999846

> <r_epik_Ionization_Penalty>
2.28753

> <r_epik_Ionization_Penalty_Charging>
2.28753

> <r_epik_Ionization_Penalty_Neutral>
1.09395e-07

> <r_epik_State_Penalty>
2.43729

> <r_epik_Charging_Adjusted_Penalty>
4.72482

> <i_epik_Tot_Q>
1

> <i_epik_Tot_abs_Q>
1

> <r_epik_Metal_State_Penalty>
6.52028

> <b_epik_Metal_Only>
0

> <s_lp_Force_Field>
OPLS_2005

> <r_lp_Energy>
28.0905

> <b_lp_Chiralities_Consistent>
1

> <s_lp_Variant>
AV-unprocessed.smi:992-6

> <Gold.Version>
5.8.1

> <Gold.Id.Protein>
6NUR|6NUR_protein|mol2

> <Gold.PLP.Fitness>
36.4747

> <Gold.PLP.PLP>
-34.6767

> <Gold.PLP.part.hbond>
-2.0000

> <Gold.PLP.part.metal>
0.0000

> <Gold.PLP.part.buried>
-2.4256

> <Gold.PLP.part.nonpolar>
-30.4795

> <Gold.PLP.part.repulsive>
0.2729

> <Gold.PLP.ligand.clash>
0.0000

> <Gold.PLP.ligand.torsion>
0.1593

> <Gold.PLP.Chemscore.Hbond>
0.6752

> <Gold.PLP.Chemscore.CHOScore>
0.0000

> <Gold.PLP.Chemscore.Metal>
0.0000

> <Gold.Chemscore.Hbonds>
donor molecule, donor type, donor heavy atom, donor atom, acceptor molecule, acceptor atom, score
      L1  H     9    25       P1  7948  0.77

> <Gold.PLP.Chemscore.Internal.Correction>
0.0908

> <Gold.Rescore>
     Score         DG    S(hbond)    S(metal)    S(lipo)     H(rot)  DE(clash)    DE(int)     intcor
     16.20     -16.53       0.89        0.00      91.00       1.00       0.24       0.09       ----

> <Gold.Chemscore.Fitness>
16.1998

> <Gold.Chemscore.DG>
-16.5257

> <Gold.Chemscore.ZeroCoef>
-5.4800

> <Gold.Chemscore.Hbond>
0.8858

> <Gold.Chemscore.Metal>
0.0000

> <Gold.Chemscore.Lipo>
91.0009

> <Gold.Chemscore.Internal_Hbond>
0.0000

> <Gold.Chemscore.DEClash>
0.2366

> <Gold.Chemscore.DEInternal>
0.0893

> <Gold.Chemscore.Rot>
1.0000

> <Gold.Chemscore.Internal.Correction>
   9.000000E+99

> <Gold.Chemscore.Hbonds>
donor molecule, donor type, donor heavy atom, donor atom, acceptor molecule, acceptor atom, score
      L1  H     9    25       P1  7948  0.71

> <Gold.Chemscore.Hbond.Weighted>
-2.9586

> <Gold.Chemscore.Metal.Weighted>
-0.0000

> <Gold.Chemscore.Lipo.Weighted>
-10.6471

> <Gold.Chemscore.Internal_Hbond.Weighted>
0.0000

> <Gold.Chemscore.DEClash.Weighted>
0.2366

> <Gold.Chemscore.DEInternal.Weighted>
0.0893

> <Gold.Chemscore.Rot.Weighted>
2.5600

> <Gold.Chemscore.Internal.Correction.Weighted>
   9.000000E+99

> <Gold.Protein.RotatedTorsions>
[ 6907 6896 6895 6894 ] final    3.88 input  -60.11 | X-H torsion
[ 7974 7965 7964 7962 ] final  169.31 input  175.53 | X-H torsion
[ 8008 7997 7996 7995 ] final  -89.26 input   59.86 | X-H torsion
[ 10167 10162 10161 10158 ] final -164.40 input  -65.29 | X-H torsion
[ 10718 10713 10712 10709 ] final   93.45 input   66.30 | X-H torsion
[ 10763 10752 10751 10750 ] final   76.04 input  -60.55 | X-H torsion
[ 11005 11000 10999 10996 ] final  -59.06 input  -57.11 | X-H torsion

> <Gold.Protein.ActiveResidues>
 VAL166  LYS551  ARG553  GLY616  TRP617  ASP618  TYR619  PRO620  LYS621  CYS622 
 ASP623  PHE694  ASN695  SER759  ASP760  ASP761  ALA762  ILE779  LEU786  VAL792 
 PHE793  MET794  SER795  GLU796  ALA797  LYS798  CYS799  TRP800  GLU811  SER814 

> <Gold.Protein.RotatedAtoms>
  151.6323  135.1021  160.0123 H   0  0  0  0  0  0  0  0  0  0  0  0  # atno 6907 bound_to 6896
  152.4100  133.6944  159.6398 H   0  0  0  0  0  0  0  0  0  0  0  0  # atno 6908 bound_to 6896
  150.7991  133.8559  159.3259 H   0  0  0  0  0  0  0  0  0  0  0  0  # atno 6909 bound_to 6896
  144.7359  139.9035  143.6411 H   0  0  0  0  0  0  0  0  0  0  0  0  # atno 7974 bound_to 7965
  154.6845  140.0544  157.0300 H   0  0  0  0  0  0  0  0  0  0  0  0  # atno 8008 bound_to 7997
  155.0904  140.3218  155.4556 H   0  0  0  0  0  0  0  0  0  0  0  0  # atno 8009 bound_to 7997
  156.2706  140.2049  156.6031 H   0  0  0  0  0  0  0  0  0  0  0  0  # atno 8010 bound_to 7997
  139.6253  144.0544  152.1969 H   0  0  0  0  0  0  0  0  0  0  0  0  # atno 10167 bound_to 10162
  157.6954  131.0479  150.4036 H   0  0  0  0  0  0  0  0  0  0  0  0  # atno 10718 bound_to 10713
  153.0697  135.4966  154.8278 H   0  0  0  0  0  0  0  0  0  0  0  0  # atno 10763 bound_to 10752
  154.7005  135.3001  154.9350 H   0  0  0  0  0  0  0  0  0  0  0  0  # atno 10764 bound_to 10752
  154.0076  135.6758  153.4816 H   0  0  0  0  0  0  0  0  0  0  0  0  # atno 10765 bound_to 10752
  141.1233  133.6614  156.5015 H   0  0  0  0  0  0  0  0  0  0  0  0  # atno 11005 bound_to 11000
  146.1054  139.4053  143.0321 LP  0  0  0  0  0  0  0  0  0  0  0  0  # atno 17320 bound_to 7965
  145.7520  140.9969  143.1245 LP  0  0  0  0  0  0  0  0  0  0  0  0  # atno 17321 bound_to 7965
  140.0196  144.6163  150.7578 LP  0  0  0  0  0  0  0  0  0  0  0  0  # atno 17342 bound_to 10162
  140.7407  143.2808  151.3604 LP  0  0  0  0  0  0  0  0  0  0  0  0  # atno 17343 bound_to 10162
  156.4427  130.3995  149.6686 LP  0  0  0  0  0  0  0  0  0  0  0  0  # atno 17370 bound_to 10713
  156.3864  130.7605  151.2602 LP  0  0  0  0  0  0  0  0  0  0  0  0  # atno 17371 bound_to 10713
  140.4442  134.6988  157.5007 LP  0  0  0  0  0  0  0  0  0  0  0  0  # atno 17394 bound_to 11000
  140.0209  134.6549  155.9242 LP  0  0  0  0  0  0  0  0  0  0  0  0  # atno 17395 bound_to 11000

$$$$
