AV-unprocessed.smi:1429|AV-procd|sdf|5820|dock10
  -GOLD-   22720 5473D 1   1.00000     0.00000
 Structure written by MMmdl.
 29 30  0  0  0  0  0  0  0  0  2 V2000
  138.7729  139.5674  153.5584 C   0  0  0  0  0  0  0  0  0  0  0  0
  139.3533  138.2160  153.7994 C   0  0  0  0  0  0  0  0  0  0  0  0
  138.7682  137.3007  154.5732 N   0  0  0  0  0  0  0  0  0  0  0  0
  139.5041  136.1277  154.6385 N   0  0  0  0  0  0  0  0  0  0  0  0
  140.6393  136.1614  153.9156 C   0  0  0  0  0  0  0  0  0  0  0  0
  141.5438  135.1634  153.7952 N   0  5  0  0  0  0  0  0  0  0  0  0
  142.6833  135.2168  153.0590 C   0  0  0  0  0  0  0  0  0  0  0  0
  143.0850  136.1510  152.3624 O   0  0  0  0  0  0  0  0  0  0  0  0
  143.4142  134.0967  153.1383 N   0  0  0  0  0  0  0  0  0  0  0  0
  144.6821  133.8693  152.4559 C   0  0  0  0  0  0  0  0  0  0  0  0
  144.5989  132.6427  151.5330 C   0  0  2  0  0  0  0  0  0  0  0  0
  145.6061  132.6311  150.3997 C   0  0  0  0  0  0  0  0  0  0  0  0
  144.9831  131.6265  149.4352 C   0  0  0  0  0  0  0  0  0  0  0  0
  143.5737  131.7287  149.6197 O   0  0  0  0  0  0  0  0  0  0  0  0
  143.2866  132.5366  150.7576 C   0  0  0  0  0  0  0  0  0  0  0  0
  140.8692  137.7001  153.0846 S   0  0  0  0  0  0  0  0  0  0  0  0
  137.8337  139.6855  154.0998 H   0  0  0  0  0  0  0  0  0  0  0  0
  138.5827  139.7067  152.4942 H   0  0  0  0  0  0  0  0  0  0  0  0
  139.4688  140.3363  153.8944 H   0  0  0  0  0  0  0  0  0  0  0  0
  143.0618  133.3484  153.7168 H   0  0  0  0  0  0  0  0  0  0  0  0
  144.9378  134.7544  151.8716 H   0  0  0  0  0  0  0  0  0  0  0  0
  145.4728  133.7344  153.1959 H   0  0  0  0  0  0  0  0  0  0  0  0
  144.7266  131.7341  152.1244 H   0  0  0  0  0  0  0  0  0  0  0  0
  145.6625  133.6147  149.9309 H   0  0  0  0  0  0  0  0  0  0  0  0
  146.6095  132.3467  150.7176 H   0  0  0  0  0  0  0  0  0  0  0  0
  145.2650  131.8150  148.3990 H   0  0  0  0  0  0  0  0  0  0  0  0
  145.2926  130.6123  149.6905 H   0  0  0  0  0  0  0  0  0  0  0  0
  142.4814  132.1099  151.3563 H   0  0  0  0  0  0  0  0  0  0  0  0
  142.9634  133.5182  150.4083 H   0  0  0  0  0  0  0  0  0  0  0  0
  1  2  1  0  0  0  0
  1 17  1  0  0  0  0
  1 18  1  0  0  0  0
  1 19  1  0  0  0  0
  2 16  1  0  0  0  0
  2  3  2  0  0  0  0
  3  4  1  0  0  0  0
  4  5  2  0  0  0  0
  5  6  1  0  0  0  0
  5 16  1  0  0  0  0
  6  7  1  0  0  0  0
  7  8  2  0  0  0  0
  7  9  1  0  0  0  0
  9 10  1  0  0  0  0
  9 20  1  0  0  0  0
 10 11  1  0  0  0  0
 10 21  1  0  0  0  0
 10 22  1  0  0  0  0
 11 15  1  0  0  0  0
 11 12  1  0  0  0  0
 11 23  1  0  0  0  0
 12 13  1  0  0  0  0
 12 24  1  0  0  0  0
 12 25  1  0  0  0  0
 13 14  1  0  0  0  0
 13 26  1  0  0  0  0
 13 27  1  0  0  0  0
 14 15  1  0  0  0  0
 15 28  1  0  0  0  0
 15 29  1  0  0  0  0
M  CHG  1   6  -1
M  END
> <s_m_source_file>
AV-unprocessed.smi

> <i_m_source_file_index>
1429

> <i_lp_mmshare_version>
43012

> <i_f3d_flags>
0

> <s_epik_input>
W0NIM11jMW5uYyhzMSlbTkhdQyg9TylbTkhdW0NIMl1bQ0BASF0yW0NIMl1bQ0gyXU9bQ0gyXTI=

> <s_epik_cmdline>
J2VwaWtfcHl0aG9uJywgJy1waCcsICc3LjAnLCAnLXRuJywgJzgnLCAnLW1hJywgJzIwMCcsICctbWV0YWxfYmluZGluZycsICctaW1hZScsICc8aW5maWxlLm1hZT4nLCAnLW9tYWUnLCAnPG91dGZpbGUubWFlPic=

> <r_lp_tautomer_probability>
1

> <r_epik_Ionization_Penalty>
4.4122

> <r_epik_Ionization_Penalty_Charging>
4.26477

> <r_epik_Ionization_Penalty_Neutral>
0.147429

> <r_epik_State_Penalty>
4.26433

> <r_epik_Charging_Adjusted_Penalty>
8.5291

> <i_epik_Tot_Q>
-1

> <i_epik_Tot_abs_Q>
1

> <r_epik_Metal_State_Penalty>
0.713483

> <b_epik_Metal_Only>
1

> <s_lp_Force_Field>
OPLS_2005

> <r_lp_Energy>
20.5351

> <b_lp_Chiralities_Consistent>
1

> <s_lp_Variant>
AV-unprocessed.smi:1429-3

> <Gold.Version>
5.8.1

> <Gold.Id.Protein>
6NUR|6NUR_protein|mol2

> <Gold.PLP.Fitness>
35.5672

> <Gold.PLP.PLP>
-27.9104

> <Gold.PLP.part.hbond>
-3.2970

> <Gold.PLP.part.metal>
0.0000

> <Gold.PLP.part.buried>
-7.7353

> <Gold.PLP.part.nonpolar>
-19.1425

> <Gold.PLP.part.repulsive>
0.7147

> <Gold.PLP.ligand.clash>
0.0000

> <Gold.PLP.ligand.torsion>
0.2101

> <Gold.PLP.Chemscore.Hbond>
2.6895

> <Gold.PLP.Chemscore.CHOScore>
0.0000

> <Gold.PLP.Chemscore.Metal>
0.0000

> <Gold.Chemscore.Hbonds>
donor molecule, donor type, donor heavy atom, donor atom, acceptor molecule, acceptor atom, score
      L1  H     9    20       P1 10957  1.00
      P1  H 10785 10796       L1    14  0.67
      P1  H 11000 11005       L1     4  1.00

> <Gold.PLP.Chemscore.Internal.Correction>
0.0085

> <Gold.Rescore>
     Score         DG    S(hbond)    S(metal)    S(lipo)     H(rot)  DE(clash)    DE(int)     intcor
     15.94     -17.52       2.43        0.00      62.03       1.30       0.11       1.47       ----

> <Gold.Chemscore.Fitness>
15.9434

> <Gold.Chemscore.DG>
-17.5201

> <Gold.Chemscore.ZeroCoef>
-5.4800

> <Gold.Chemscore.Hbond>
2.4267

> <Gold.Chemscore.Metal>
0.0000

> <Gold.Chemscore.Lipo>
62.0330

> <Gold.Chemscore.Internal_Hbond>
0.0000

> <Gold.Chemscore.DEClash>
0.1108

> <Gold.Chemscore.DEInternal>
1.4659

> <Gold.Chemscore.Rot>
1.2980

> <Gold.Chemscore.Internal.Correction>
   9.000000E+99

> <Gold.Chemscore.Hbonds>
donor molecule, donor type, donor heavy atom, donor atom, acceptor molecule, acceptor atom, score
      L1  H     9    20       P1 10957  0.99
      P1  H 10785 10796       L1    14  0.07
      P1  H 11000 11005       L1     4  0.38

> <Gold.Chemscore.Hbond.Weighted>
-8.1051

> <Gold.Chemscore.Metal.Weighted>
-0.0000

> <Gold.Chemscore.Lipo.Weighted>
-7.2579

> <Gold.Chemscore.Internal_Hbond.Weighted>
0.0000

> <Gold.Chemscore.DEClash.Weighted>
0.1108

> <Gold.Chemscore.DEInternal.Weighted>
1.4659

> <Gold.Chemscore.Rot.Weighted>
3.3229

> <Gold.Chemscore.Internal.Correction.Weighted>
   9.000000E+99

> <Gold.Protein.RotatedTorsions>
[ 6907 6896 6895 6894 ] final  171.99 input  -60.11 | X-H torsion
[ 7974 7965 7964 7962 ] final -129.33 input  175.53 | X-H torsion
[ 8008 7997 7996 7995 ] final  160.64 input   59.86 | X-H torsion
[ 10167 10162 10161 10158 ] final  104.34 input  -65.29 | X-H torsion
[ 10718 10713 10712 10709 ] final -128.17 input   66.30 | X-H torsion
[ 10763 10752 10751 10750 ] final  105.47 input  -60.55 | X-H torsion
[ 11005 11000 10999 10996 ] final   74.09 input  -57.11 | X-H torsion

> <Gold.Protein.ActiveResidues>
 VAL166  LYS551  ARG553  GLY616  TRP617  ASP618  TYR619  PRO620  LYS621  CYS622 
 ASP623  PHE694  ASN695  SER759  ASP760  ASP761  ALA762  ILE779  LEU786  VAL792 
 PHE793  MET794  SER795  GLU796  ALA797  LYS798  CYS799  TRP800  GLU811  SER814 

> <Gold.Protein.RotatedAtoms>
  151.7915  133.3360  159.3500 H   0  0  0  0  0  0  0  0  0  0  0  0  # atno 6907 bound_to 6896
  150.7390  134.5838  159.5962 H   0  0  0  0  0  0  0  0  0  0  0  0  # atno 6908 bound_to 6896
  152.3207  134.7385  160.0366 H   0  0  0  0  0  0  0  0  0  0  0  0  # atno 6909 bound_to 6896
  144.9583  140.7419  143.4745 H   0  0  0  0  0  0  0  0  0  0  0  0  # atno 7974 bound_to 7965
  156.2158  140.1799  156.7591 H   0  0  0  0  0  0  0  0  0  0  0  0  # atno 8008 bound_to 7997
  154.5790  140.0669  156.9105 H   0  0  0  0  0  0  0  0  0  0  0  0  # atno 8009 bound_to 7997
  155.2536  140.3331  155.4282 H   0  0  0  0  0  0  0  0  0  0  0  0  # atno 8010 bound_to 7997
  139.7185  144.7063  151.0910 H   0  0  0  0  0  0  0  0  0  0  0  0  # atno 10167 bound_to 10162
  156.1926  130.6805  151.0442 H   0  0  0  0  0  0  0  0  0  0  0  0  # atno 10718 bound_to 10713
  153.3799  135.3909  155.1849 H   0  0  0  0  0  0  0  0  0  0  0  0  # atno 10763 bound_to 10752
  154.8706  135.3723  154.4871 H   0  0  0  0  0  0  0  0  0  0  0  0  # atno 10764 bound_to 10752
  153.5347  135.7085  153.5727 H   0  0  0  0  0  0  0  0  0  0  0  0  # atno 10765 bound_to 10752
  139.9408  134.7403  156.1105 H   0  0  0  0  0  0  0  0  0  0  0  0  # atno 11005 bound_to 11000
  145.2739  139.1944  143.4827 LP  0  0  0  0  0  0  0  0  0  0  0  0  # atno 17320 bound_to 7965
  146.3344  140.2690  142.8605 LP  0  0  0  0  0  0  0  0  0  0  0  0  # atno 17321 bound_to 7965
  140.7749  143.5197  150.9551 LP  0  0  0  0  0  0  0  0  0  0  0  0  # atno 17342 bound_to 10162
  139.8883  143.6984  152.3148 LP  0  0  0  0  0  0  0  0  0  0  0  0  # atno 17343 bound_to 10162
  157.6938  131.0801  150.7030 LP  0  0  0  0  0  0  0  0  0  0  0  0  # atno 17370 bound_to 10713
  156.7086  130.4645  149.5553 LP  0  0  0  0  0  0  0  0  0  0  0  0  # atno 17371 bound_to 10713
  141.1041  133.6666  156.2823 LP  0  0  0  0  0  0  0  0  0  0  0  0  # atno 17394 bound_to 11000
  140.5957  134.5606  157.5508 LP  0  0  0  0  0  0  0  0  0  0  0  0  # atno 17395 bound_to 11000

$$$$
