AV-unprocessed.smi:862|AV-procd|sdf|3976|dock9
  -GOLD-   22720 1453D 1   1.00000     0.00000
 Structure written by MMmdl.
 44 46  0  0  0  0  0  0  0  0  2 V2000
  143.6910  134.3001  153.4297 N   0  0  0  0  0  0  0  0  0  0  0  0
  144.4413  134.5729  152.3577 C   0  0  0  0  0  0  0  0  0  0  0  0
  144.9838  133.6729  151.7192 O   0  0  0  0  0  0  0  0  0  0  0  0
  144.5106  135.8849  152.0183 N   0  0  0  0  0  0  0  0  0  0  0  0
  144.2239  137.0256  152.9038 C   0  0  0  0  0  0  0  0  0  0  0  0
  145.5573  137.6681  153.3286 C   0  0  0  0  0  0  0  0  0  0  0  0
  146.3846  138.1049  152.1010 C   0  0  0  0  0  0  0  0  0  0  0  0
  147.7116  138.5932  152.5381 N   0  3  0  0  0  0  0  0  0  0  0  0
  147.7153  139.5485  153.6697 C   0  0  2  0  0  0  0  0  0  0  0  0
  146.7919  140.7534  153.4668 C   0  0  0  0  0  0  0  0  0  0  0  0
  147.3481  141.8462  154.3891 C   0  0  0  0  0  0  0  0  0  0  0  0
  148.8042  141.4603  154.6946 C   0  0  0  0  0  0  0  0  0  0  0  0
  149.0889  140.2023  153.8606 C   0  0  1  0  0  0  0  0  0  0  0  0
  150.0715  139.3162  154.4655 N   0  0  0  0  0  0  0  0  0  0  0  0
  150.3662  138.0033  154.1139 C   0  0  0  0  0  0  0  0  0  0  0  0
  151.3666  137.5823  154.9600 C   0  0  0  0  0  0  0  0  0  0  0  0
  151.7047  138.6127  155.8330 N   0  0  0  0  0  0  0  0  0  0  0  0
  150.8958  139.6036  155.4829 C   0  0  0  0  0  0  0  0  0  0  0  0
  146.5159  136.9416  151.0914 C   0  0  0  0  0  0  0  0  0  0  0  0
  145.1411  136.3284  150.7692 C   0  0  0  0  0  0  0  0  0  0  0  0
  143.5853  133.3429  153.7338 H   0  0  0  0  0  0  0  0  0  0  0  0
  143.2249  135.0462  153.9246 H   0  0  0  0  0  0  0  0  0  0  0  0
  143.6138  137.7525  152.3655 H   0  0  0  0  0  0  0  0  0  0  0  0
  143.6448  136.7619  153.7888 H   0  0  0  0  0  0  0  0  0  0  0  0
  145.3649  138.5265  153.9734 H   0  0  0  0  0  0  0  0  0  0  0  0
  146.1260  136.9539  153.9263 H   0  0  0  0  0  0  0  0  0  0  0  0
  145.8443  138.9233  151.6220 H   0  0  0  0  0  0  0  0  0  0  0  0
  148.2299  137.7842  152.8496 H   0  0  0  0  0  0  0  0  0  0  0  0
  147.4300  139.0293  154.5864 H   0  0  0  0  0  0  0  0  0  0  0  0
  146.8453  141.0955  152.4321 H   0  0  0  0  0  0  0  0  0  0  0  0
  145.7493  140.5238  153.6886 H   0  0  0  0  0  0  0  0  0  0  0  0
  147.2789  142.8282  153.9197 H   0  0  0  0  0  0  0  0  0  0  0  0
  146.7749  141.8889  155.3160 H   0  0  0  0  0  0  0  0  0  0  0  0
  149.4994  142.2650  154.4523 H   0  0  0  0  0  0  0  0  0  0  0  0
  148.9042  141.2596  155.7622 H   0  0  0  0  0  0  0  0  0  0  0  0
  149.4657  140.5206  152.8863 H   0  0  0  0  0  0  0  0  0  0  0  0
  149.8535  137.4873  153.3152 H   0  0  0  0  0  0  0  0  0  0  0  0
  151.8649  136.6252  155.0072 H   0  0  0  0  0  0  0  0  0  0  0  0
  150.9074  140.5638  155.9776 H   0  0  0  0  0  0  0  0  0  0  0  0
  146.9820  137.2811  150.1676 H   0  0  0  0  0  0  0  0  0  0  0  0
  147.1682  136.1679  151.4994 H   0  0  0  0  0  0  0  0  0  0  0  0
  145.2523  135.5191  150.0459 H   0  0  0  0  0  0  0  0  0  0  0  0
  144.5029  137.0687  150.2848 H   0  0  0  0  0  0  0  0  0  0  0  0
  148.1981  138.9940  151.7488 H   0  0  0  0  0  0  0  0  0  0  0  0
  1  2  1  0  0  0  0
  1 21  1  0  0  0  0
  1 22  1  0  0  0  0
  2  3  2  0  0  0  0
  2  4  1  0  0  0  0
  4 20  1  0  0  0  0
  4  5  1  0  0  0  0
  5  6  1  0  0  0  0
  5 23  1  0  0  0  0
  5 24  1  0  0  0  0
  6  7  1  0  0  0  0
  6 25  1  0  0  0  0
  6 26  1  0  0  0  0
  7  8  1  0  0  0  0
  7 19  1  0  0  0  0
  7 27  1  0  0  0  0
  8  9  1  0  0  0  0
  8 28  1  0  0  0  0
  8 44  1  0  0  0  0
  9 13  1  0  0  0  0
  9 10  1  0  0  0  0
  9 29  1  0  0  0  0
 10 11  1  0  0  0  0
 10 30  1  0  0  0  0
 10 31  1  0  0  0  0
 11 12  1  0  0  0  0
 11 32  1  0  0  0  0
 11 33  1  0  0  0  0
 12 13  1  0  0  0  0
 12 34  1  0  0  0  0
 12 35  1  0  0  0  0
 13 14  1  0  0  0  0
 13 36  1  0  0  0  0
 14 18  1  0  0  0  0
 14 15  1  0  0  0  0
 15 16  2  0  0  0  0
 15 37  1  0  0  0  0
 16 17  1  0  0  0  0
 16 38  1  0  0  0  0
 17 18  2  0  0  0  0
 18 39  1  0  0  0  0
 19 20  1  0  0  0  0
 19 40  1  0  0  0  0
 19 41  1  0  0  0  0
 20 42  1  0  0  0  0
 20 43  1  0  0  0  0
M  CHG  1   8   1
M  END
> <s_m_source_file>
AV-unprocessed.smi

> <i_m_source_file_index>
862

> <i_lp_mmshare_version>
43012

> <i_f3d_flags>
0

> <s_epik_input>
W05IMl1DKD1PKU4xW0NIMl1bQ0gyXVtDSF0oW0NIMl1bQ0gyXTEpW05IXVtDQEBIXTJbQ0gyXVtDSDJdW0NIMl1bQ0BIXTJuM1tjSF1bY0hdbltjSF0z

> <s_epik_cmdline>
J2VwaWtfcHl0aG9uJywgJy1waCcsICc3LjAnLCAnLXRuJywgJzgnLCAnLW1hJywgJzIwMCcsICctbWV0YWxfYmluZGluZycsICctaW1hZScsICc8aW5maWxlLm1hZT4nLCAnLW9tYWUnLCAnPG91dGZpbGUubWFlPic=

> <r_lp_tautomer_probability>
1

> <r_epik_Ionization_Penalty>
0.0731506

> <r_epik_Ionization_Penalty_Charging>
0.0731

> <r_epik_Ionization_Penalty_Neutral>
5.05966e-05

> <r_epik_State_Penalty>
0.128895

> <r_epik_Charging_Adjusted_Penalty>
0.201995

> <i_epik_Tot_Q>
1

> <i_epik_Tot_abs_Q>
1

> <r_epik_Metal_State_Penalty>
0.113934

> <b_epik_Metal_Only>
0

> <s_lp_Force_Field>
OPLS_2005

> <r_lp_Energy>
56.1174

> <b_lp_Chiralities_Consistent>
1

> <s_lp_Variant>
AV-unprocessed.smi:862-1

> <Gold.Version>
5.8.1

> <Gold.Id.Protein>
6NUR|6NUR_protein|mol2

> <Gold.PLP.Fitness>
43.9111

> <Gold.PLP.PLP>
-32.4120

> <Gold.PLP.part.hbond>
-3.0000

> <Gold.PLP.part.metal>
0.0000

> <Gold.PLP.part.buried>
5.5304

> <Gold.PLP.part.nonpolar>
-38.0285

> <Gold.PLP.part.repulsive>
0.1610

> <Gold.PLP.ligand.clash>
0.0000

> <Gold.PLP.ligand.torsion>
0.5038

> <Gold.PLP.Chemscore.Hbond>
3.1513

> <Gold.PLP.Chemscore.CHOScore>
1.0000

> <Gold.PLP.Chemscore.Metal>
0.0000

> <Gold.Chemscore.Hbonds>
donor molecule, donor type, donor heavy atom, donor atom, acceptor molecule, acceptor atom, score
      L1  H     1    21       P1 10957  0.81
      L1  H     8    28       P1  7948  1.25
      L1  H     8    44       P1  7957  0.98
      L1  C    15    37       P1  7948  1.00

> <Gold.PLP.Chemscore.Internal.Correction>
0.0530

> <Gold.Rescore>
     Score         DG    S(hbond)    S(metal)    S(lipo)     H(rot)  DE(clash)    DE(int)     intcor
     14.15     -18.58       2.39        0.00      79.82       1.64       4.00       0.44       ----

> <Gold.Chemscore.Fitness>
14.1493

> <Gold.Chemscore.DG>
-18.5845

> <Gold.Chemscore.ZeroCoef>
-5.4800

> <Gold.Chemscore.Hbond>
2.3853

> <Gold.Chemscore.Metal>
0.0000

> <Gold.Chemscore.Lipo>
79.8191

> <Gold.Chemscore.Internal_Hbond>
0.0000

> <Gold.Chemscore.DEClash>
3.9956

> <Gold.Chemscore.DEInternal>
0.4395

> <Gold.Chemscore.Rot>
1.6411

> <Gold.Chemscore.Internal.Correction>
   9.000000E+99

> <Gold.Chemscore.Hbonds>
donor molecule, donor type, donor heavy atom, donor atom, acceptor molecule, acceptor atom, score
      L1  H     1    21       P1 10957  0.79
      L1  H     8    28       P1  7948  0.61
      L1  H     8    44       P1  7957  0.85

> <Gold.Chemscore.Hbond.Weighted>
-7.9670

> <Gold.Chemscore.Metal.Weighted>
-0.0000

> <Gold.Chemscore.Lipo.Weighted>
-9.3388

> <Gold.Chemscore.Internal_Hbond.Weighted>
0.0000

> <Gold.Chemscore.DEClash.Weighted>
3.9956

> <Gold.Chemscore.DEInternal.Weighted>
0.4395

> <Gold.Chemscore.Rot.Weighted>
4.2013

> <Gold.Chemscore.Internal.Correction.Weighted>
   9.000000E+99

> <Gold.Protein.RotatedTorsions>
[ 6907 6896 6895 6894 ] final  144.92 input  -60.11 | X-H torsion
[ 7974 7965 7964 7962 ] final  -44.25 input  175.53 | X-H torsion
[ 8008 7997 7996 7995 ] final  136.79 input   59.86 | X-H torsion
[ 10167 10162 10161 10158 ] final  179.83 input  -65.29 | X-H torsion
[ 10718 10713 10712 10709 ] final   -5.36 input   66.30 | X-H torsion
[ 10763 10752 10751 10750 ] final   21.88 input  -60.55 | X-H torsion
[ 11005 11000 10999 10996 ] final -114.38 input  -57.11 | X-H torsion

> <Gold.Protein.ActiveResidues>
 VAL166  LYS551  ARG553  GLY616  TRP617  ASP618  TYR619  PRO620  LYS621  CYS622 
 ASP623  PHE694  ASN695  SER759  ASP760  ASP761  ALA762  ILE779  LEU786  VAL792 
 PHE793  MET794  SER795  GLU796  ALA797  LYS798  CYS799  TRP800  GLU811  SER814 

> <Gold.Protein.RotatedAtoms>
  152.1876  133.4750  159.4990 H   0  0  0  0  0  0  0  0  0  0  0  0  # atno 6907 bound_to 6896
  150.6945  134.1754  159.4237 H   0  0  0  0  0  0  0  0  0  0  0  0  # atno 6908 bound_to 6896
  151.9668  135.0096  160.0601 H   0  0  0  0  0  0  0  0  0  0  0  0  # atno 6909 bound_to 6896
  145.9939  140.7150  142.9303 H   0  0  0  0  0  0  0  0  0  0  0  0  # atno 7974 bound_to 7965
  156.3003  140.2436  156.3804 H   0  0  0  0  0  0  0  0  0  0  0  0  # atno 8008 bound_to 7997
  154.8706  140.0416  157.1742 H   0  0  0  0  0  0  0  0  0  0  0  0  # atno 8009 bound_to 7997
  154.8799  140.2947  155.5435 H   0  0  0  0  0  0  0  0  0  0  0  0  # atno 8010 bound_to 7997
  139.5353  144.2514  152.0781 H   0  0  0  0  0  0  0  0  0  0  0  0  # atno 10167 bound_to 10162
  156.7476  130.5229  149.5810 H   0  0  0  0  0  0  0  0  0  0  0  0  # atno 10718 bound_to 10713
  153.0960  135.6660  153.9762 H   0  0  0  0  0  0  0  0  0  0  0  0  # atno 10763 bound_to 10752
  153.9346  135.3000  155.3446 H   0  0  0  0  0  0  0  0  0  0  0  0  # atno 10764 bound_to 10752
  154.7378  135.5093  153.9146 H   0  0  0  0  0  0  0  0  0  0  0  0  # atno 10765 bound_to 10752
  141.0555  133.9619  157.2761 H   0  0  0  0  0  0  0  0  0  0  0  0  # atno 11005 bound_to 11000
  144.6897  140.3117  143.7247 LP  0  0  0  0  0  0  0  0  0  0  0  0  # atno 17320 bound_to 7965
  145.7589  139.1818  143.2278 LP  0  0  0  0  0  0  0  0  0  0  0  0  # atno 17321 bound_to 7965
  140.1984  144.4683  150.6444 LP  0  0  0  0  0  0  0  0  0  0  0  0  # atno 17342 bound_to 10162
  140.6556  143.2237  151.5975 LP  0  0  0  0  0  0  0  0  0  0  0  0  # atno 17343 bound_to 10162
  156.1422  130.6252  151.0483 LP  0  0  0  0  0  0  0  0  0  0  0  0  # atno 17370 bound_to 10713
  157.6791  131.0843  150.7417 LP  0  0  0  0  0  0  0  0  0  0  0  0  # atno 17371 bound_to 10713
  139.9386  135.0193  156.8638 LP  0  0  0  0  0  0  0  0  0  0  0  0  # atno 17394 bound_to 11000
  140.5972  134.0206  155.7523 LP  0  0  0  0  0  0  0  0  0  0  0  0  # atno 17395 bound_to 11000

$$$$
