#       Name:                AV-unprocessed.smi:1899
#       Creating user name   scv26
#       Creation time:       Fri Mar 27 09:44:32 2020


#       File generated by GOLD software.
#

@<TRIPOS>MOLECULE
AV-unprocessed.smi:1899
    36    37     1
SMALL
NO_CHARGES


@<TRIPOS>ATOM
      1 ****         0.7321   2.0324  -0.5560 O.2            1 S1                 0.0000
      2 ****         0.2904   0.9178  -0.8353 C.2            1 S1                 0.0000
      3 ****         1.0740  -0.1515  -1.0435 N.am           1 S1                 0.0000
      4 ****         2.5317  -0.1603  -0.9579 C.3            1 S1                 0.0000
      5 ****         3.0487  -0.0132   0.4871 C.3            1 S1                 0.0000
      6 ****         2.5888  -1.0938   1.3644 N.pl3          1 S1                 0.0000
      7 ****         3.1286  -2.3476   1.4926 C.2            1 S1                 0.0000
      8 ****         2.3669  -3.0071   2.4228 C.2            1 S1                 0.0000
      9 ****         1.3955  -2.1286   2.8225 N.pl3          1 S1                 1.0000
     10 ****         1.5335  -0.9648   2.1794 C.2            1 S1                 0.0000
     11 ****        -1.2224   0.6899  -0.9471 C.3            1 S1                 0.0000
     12 ****        -1.9064   0.8352   0.4319 C.3            1 S1                 0.0000
     13 ****        -3.4203   0.8675   0.3195 C.2            1 S1                 0.0000
     14 ****        -4.0711   1.0919  -0.8350 C.2            1 S1                 0.0000
     15 ****        -3.3671   1.3439  -2.1567 C.3            1 S1                 0.0000
     16 ****        -1.8674   1.6445  -1.9723 C.3            1 S1                 0.0000
     17 ****         0.6261  -1.0258  -1.2784 H              1 S1                 0.0000
     18 ****         2.8922  -1.0952  -1.3877 H              1 S1                 0.0000
     19 ****         2.9351   0.6395  -1.5810 H              1 S1                 0.0000
     20 ****         4.1392  -0.0265   0.4955 H              1 S1                 0.0000
     21 ****         2.7463   0.9401   0.9226 H              1 S1                 0.0000
     22 ****         3.9914  -2.6688   0.9270 H              1 S1                 0.0000
     23 ****         2.4415  -4.0093   2.8195 H              1 S1                 0.0000
     24 ****         0.9119  -0.0939   2.2916 H              1 S1                 0.0000
     25 ****        -1.3874  -0.3299  -1.3006 H              1 S1                 0.0000
     26 ****        -1.6236  -0.0002   1.0735 H              1 S1                 0.0000
     27 ****        -1.5883   1.7471   0.9394 H              1 S1                 0.0000
     28 ****        -3.9807   0.7124   1.2299 H              1 S1                 0.0000
     29 ****        -5.1513   1.0897  -0.8514 H              1 S1                 0.0000
     30 ****        -3.5008   0.4621  -2.7840 H              1 S1                 0.0000
     31 ****        -3.8514   2.1754  -2.6694 H              1 S1                 0.0000
     32 ****        -1.7515   2.6755  -1.6336 H              1 S1                 0.0000
     33 ****        -1.3600   1.5794  -2.9359 H              1 S1                 0.0000
     34 ****         0.6762  -2.3281   3.5065 H              1 S1                 0.0000
     35 ****         1.7188   2.1732  -0.4746 LP             1 S1                 0.0000
     36 ****         0.1042   2.7970  -0.4105 LP             1 S1                 0.0000
@<TRIPOS>BOND
    1    1    2 2     
    2    2    3 am    
    3    2   11 1     
    4    3    4 1     
    5    3   17 1     
    6    4    5 1     
    7    4   18 1     
    8    4   19 1     
    9    5    6 1     
   10    5   20 1     
   11    5   21 1     
   12    6   10 1     
   13    6    7 1     
   14    7    8 2     
   15    7   22 1     
   16    8    9 1     
   17    8   23 1     
   18    9   10 2     
   19    9   34 1     
   20   10   24 1     
   21   11   16 1     
   22   11   12 1     
   23   11   25 1     
   24   12   13 1     
   25   12   26 1     
   26   12   27 1     
   27   13   14 2     
   28   13   28 1     
   29   14   15 1     
   30   14   29 1     
   31   15   16 1     
   32   15   30 1     
   33   15   31 1     
   34   16   32 1     
   35   16   33 1     
   36    1   35 1     
   37    1   36 1     
@<TRIPOS>SUBSTRUCTURE
      1 S1             1
@<TRIPOS>SET
LONE_PAIRS      STATIC     ATOMS    <user>   **** ""
2 35 36
DONOR_HYDROGENS      STATIC     ATOMS    <user>   **** ""
2 17 34
ATOM$BLUE        STATIC     ATOMS    COLORGROUP SYSTEM
2 35 36
ATOM$RED        STATIC     ATOMS    COLORGROUP SYSTEM
2 17 34
