AV-unprocessed.smi:2280|AV-procd|sdf|9192|dock9
  -GOLD-   2272012413D 1   1.00000     0.00000
 Structure written by MMmdl.
 41 42  0  0  0  0  0  0  0  0  1 V2000
  145.8325  138.6914  155.3678 C   0  0  0  0  0  0  0  0  0  0  0  0
  147.3142  138.8637  155.0831 C   0  0  0  0  0  0  0  0  0  0  0  0
  148.1081  137.7363  155.3129 N   0  0  0  0  0  0  0  0  0  0  0  0
  149.3817  137.7899  155.0967 C   0  0  0  0  0  0  0  0  0  0  0  0
  150.0022  138.9589  154.6271 N   0  0  0  0  0  0  0  0  0  0  0  0
  151.4591  138.8877  154.4224 C   0  0  0  0  0  0  0  0  0  0  0  0
  152.2337  138.8624  155.7601 C   0  0  1  0  0  0  0  0  0  0  0  0
  153.6160  138.8841  155.4612 O   0  0  0  0  0  0  0  0  0  0  0  0
  151.9367  140.1023  156.6206 C   0  0  0  0  0  0  0  0  0  0  0  0
  152.6973  140.0172  157.8183 O   0  0  0  0  0  0  0  0  0  0  0  0
  152.6842  141.0863  158.6906 C   0  0  0  0  0  0  0  0  0  0  0  0
  152.0688  142.3297  158.3943 C   0  0  0  0  0  0  0  0  0  0  0  0
  152.0913  143.3811  159.3291 C   0  0  0  0  0  0  0  0  0  0  0  0
  152.7265  143.2057  160.5702 C   0  0  0  0  0  0  0  0  0  0  0  0
  153.3393  141.9773  160.8760 C   0  0  0  0  0  0  0  0  0  0  0  0
  153.3230  140.9147  159.9439 C   0  0  0  0  0  0  0  0  0  0  0  0
  153.9888  139.5846  160.2833 C   0  0  0  0  0  0  0  0  0  0  0  0
  154.3181  139.5061  161.5733 F   0  0  0  0  0  0  0  0  0  0  0  0
  153.1575  138.5801  160.0049 F   0  0  0  0  0  0  0  0  0  0  0  0
  155.1005  139.4380  159.5622 F   0  0  0  0  0  0  0  0  0  0  0  0
  149.3033  140.1060  154.3858 C   0  0  0  0  0  0  0  0  0  0  0  0
  149.8602  141.1307  153.9868 O   0  0  0  0  0  0  0  0  0  0  0  0
  147.8548  140.0300  154.6358 C   0  0  0  0  0  0  0  0  0  0  0  0
  147.0402  141.2895  154.3686 C   0  0  0  0  0  0  0  0  0  0  0  0
  145.2446  138.8899  154.4710 H   0  0  0  0  0  0  0  0  0  0  0  0
  145.5131  139.3762  156.1540 H   0  0  0  0  0  0  0  0  0  0  0  0
  145.6065  137.6762  155.6971 H   0  0  0  0  0  0  0  0  0  0  0  0
  150.0462  136.9410  155.2669 H   0  0  0  0  0  0  0  0  0  0  0  0
  151.7465  138.0413  153.7946 H   0  0  0  0  0  0  0  0  0  0  0  0
  151.7607  139.7607  153.8410 H   0  0  0  0  0  0  0  0  0  0  0  0
  151.9896  137.9623  156.3261 H   0  0  0  0  0  0  0  0  0  0  0  0
  153.9081  137.9964  155.3223 H   0  0  0  0  0  0  0  0  0  0  0  0
  152.1500  141.0197  156.0687 H   0  0  0  0  0  0  0  0  0  0  0  0
  150.8799  140.1125  156.8918 H   0  0  0  0  0  0  0  0  0  0  0  0
  151.5692  142.5047  157.4540 H   0  0  0  0  0  0  0  0  0  0  0  0
  151.6197  144.3234  159.0924 H   0  0  0  0  0  0  0  0  0  0  0  0
  152.7436  144.0126  161.2880 H   0  0  0  0  0  0  0  0  0  0  0  0
  153.8216  141.8614  161.8351 H   0  0  0  0  0  0  0  0  0  0  0  0
  147.4177  142.1167  154.9706 H   0  0  0  0  0  0  0  0  0  0  0  0
  145.9823  141.1742  154.5986 H   0  0  0  0  0  0  0  0  0  0  0  0
  147.1199  141.5714  153.3180 H   0  0  0  0  0  0  0  0  0  0  0  0
  1  2  1  0  0  0  0
  1 25  1  0  0  0  0
  1 26  1  0  0  0  0
  1 27  1  0  0  0  0
  2 23  2  0  0  0  0
  2  3  1  0  0  0  0
  3  4  2  0  0  0  0
  4  5  1  0  0  0  0
  4 28  1  0  0  0  0
  5  6  1  0  0  0  0
  5 21  1  0  0  0  0
  6  7  1  0  0  0  0
  6 29  1  0  0  0  0
  6 30  1  0  0  0  0
  7  8  1  0  0  0  0
  7  9  1  0  0  0  0
  7 31  1  0  0  0  0
  8 32  1  0  0  0  0
  9 10  1  0  0  0  0
  9 33  1  0  0  0  0
  9 34  1  0  0  0  0
 10 11  1  0  0  0  0
 11 16  1  0  0  0  0
 11 12  2  0  0  0  0
 12 13  1  0  0  0  0
 12 35  1  0  0  0  0
 13 14  2  0  0  0  0
 13 36  1  0  0  0  0
 14 15  1  0  0  0  0
 14 37  1  0  0  0  0
 15 16  2  0  0  0  0
 15 38  1  0  0  0  0
 16 17  1  0  0  0  0
 17 18  1  0  0  0  0
 17 19  1  0  0  0  0
 17 20  1  0  0  0  0
 21 22  2  0  0  0  0
 21 23  1  0  0  0  0
 23 24  1  0  0  0  0
 24 39  1  0  0  0  0
 24 40  1  0  0  0  0
 24 41  1  0  0  0  0
M  END
> <s_m_source_file>
AV-unprocessed.smi

> <i_m_source_file_index>
2280

> <i_lp_mmshare_version>
43012

> <i_f3d_flags>
0

> <s_epik_input>
W0NIM11jMW5bY0hdbihjKD1PKWMxW0NIM10pW0NIMl1bQ0BIXShbT0hdKVtDSDJdT2MyW2NIXVtjSF1bY0hdW2NIXWMyQyhGKShGKUY=

> <s_epik_cmdline>
J2VwaWtfcHl0aG9uJywgJy1waCcsICc3LjAnLCAnLXRuJywgJzgnLCAnLW1hJywgJzIwMCcsICctbWV0YWxfYmluZGluZycsICctaW1hZScsICc8aW5maWxlLm1hZT4nLCAnLW9tYWUnLCAnPG91dGZpbGUubWFlPic=

> <r_lp_tautomer_probability>
1

> <r_epik_Ionization_Penalty>
3.7476e-05

> <r_epik_Ionization_Penalty_Charging>
8.44705e-08

> <r_epik_Ionization_Penalty_Neutral>
3.73915e-05

> <r_epik_State_Penalty>
-0

> <r_epik_Charging_Adjusted_Penalty>
8.44705e-08

> <i_epik_Tot_Q>
0

> <i_epik_Tot_abs_Q>
0

> <r_epik_Metal_State_Penalty>
-0

> <b_epik_Metal_Only>
0

> <s_lp_Force_Field>
OPLS_2005

> <r_lp_Energy>
26.5065

> <b_lp_Chiralities_Consistent>
1

> <s_lp_Variant>
AV-unprocessed.smi:2280-2

> <Gold.Version>
5.8.1

> <Gold.Id.Protein>
6NUR|6NUR_protein|mol2

> <Gold.PLP.Fitness>
48.3831

> <Gold.PLP.PLP>
-42.7520

> <Gold.PLP.part.hbond>
-3.8759

> <Gold.PLP.part.metal>
0.0000

> <Gold.PLP.part.buried>
-2.8160

> <Gold.PLP.part.nonpolar>
-35.7033

> <Gold.PLP.part.repulsive>
0.6445

> <Gold.PLP.ligand.clash>
0.0758

> <Gold.PLP.ligand.torsion>
0.5730

> <Gold.PLP.Chemscore.Hbond>
2.1166

> <Gold.PLP.Chemscore.CHOScore>
0.0000

> <Gold.PLP.Chemscore.Metal>
0.0000

> <Gold.Chemscore.Hbonds>
donor molecule, donor type, donor heavy atom, donor atom, acceptor molecule, acceptor atom, score
      P1  H  7989  7998       L1    22  0.38
      P1  H  7997  8009       L1    10  0.87
      P1  H  7997  8010       L1     8  0.13
      P1  H  8011  8017       L1    22  0.66

> <Gold.PLP.Chemscore.Internal.Correction>
0.5031

> <Gold.Rescore>
     Score         DG    S(hbond)    S(metal)    S(lipo)     H(rot)  DE(clash)    DE(int)     intcor
     12.05     -15.77       1.58        0.00     102.58       2.73       1.04       2.67       ----

> <Gold.Chemscore.Fitness>
12.0512

> <Gold.Chemscore.DG>
-15.7662

> <Gold.Chemscore.ZeroCoef>
-5.4800

> <Gold.Chemscore.Hbond>
1.5787

> <Gold.Chemscore.Metal>
0.0000

> <Gold.Chemscore.Lipo>
102.5831

> <Gold.Chemscore.Internal_Hbond>
0.0000

> <Gold.Chemscore.DEClash>
1.0440

> <Gold.Chemscore.DEInternal>
2.6710

> <Gold.Chemscore.Rot>
2.7300

> <Gold.Chemscore.Internal.Correction>
   9.000000E+99

> <Gold.Chemscore.Hbonds>
donor molecule, donor type, donor heavy atom, donor atom, acceptor molecule, acceptor atom, score
      P1  H  7989  7998       L1    22  0.34
      P1  H  7997  8009       L1    10  0.09
      P1  H  7997  8010       L1     8  0.13
      P1  H  8011  8017       L1    22  0.67

> <Gold.Chemscore.Hbond.Weighted>
-5.2728

> <Gold.Chemscore.Metal.Weighted>
-0.0000

> <Gold.Chemscore.Lipo.Weighted>
-12.0022

> <Gold.Chemscore.Internal_Hbond.Weighted>
0.0000

> <Gold.Chemscore.DEClash.Weighted>
1.0440

> <Gold.Chemscore.DEInternal.Weighted>
2.6710

> <Gold.Chemscore.Rot.Weighted>
6.9888

> <Gold.Chemscore.Internal.Correction.Weighted>
   9.000000E+99

> <Gold.Protein.RotatedTorsions>
[ 6907 6896 6895 6894 ] final  169.09 input  -60.11 | X-H torsion
[ 7974 7965 7964 7962 ] final  -27.31 input  175.53 | X-H torsion
[ 8008 7997 7996 7995 ] final  152.38 input   59.86 | X-H torsion
[ 10167 10162 10161 10158 ] final -103.23 input  -65.29 | X-H torsion
[ 10718 10713 10712 10709 ] final  -36.46 input   66.30 | X-H torsion
[ 10763 10752 10751 10750 ] final  178.07 input  -60.55 | X-H torsion
[ 11005 11000 10999 10996 ] final  -95.15 input  -57.11 | X-H torsion

> <Gold.Protein.ActiveResidues>
 VAL166  LYS551  ARG553  GLY616  TRP617  ASP618  TYR619  PRO620  LYS621  CYS622 
 ASP623  PHE694  ASN695  SER759  ASP760  ASP761  ALA762  ILE779  LEU786  VAL792 
 PHE793  MET794  SER795  GLU796  ALA797  LYS798  CYS799  TRP800  GLU811  SER814 

> <Gold.Protein.RotatedAtoms>
  151.8374  133.3418  159.3631 H   0  0  0  0  0  0  0  0  0  0  0  0  # atno 6907 bound_to 6896
  150.7245  134.5424  159.5763 H   0  0  0  0  0  0  0  0  0  0  0  0  # atno 6908 bound_to 6896
  152.2891  134.7743  160.0432 H   0  0  0  0  0  0  0  0  0  0  0  0  # atno 6909 bound_to 6896
  146.1366  140.5135  142.8670 H   0  0  0  0  0  0  0  0  0  0  0  0  # atno 7974 bound_to 7965
  156.2631  140.2022  156.6325 H   0  0  0  0  0  0  0  0  0  0  0  0  # atno 8008 bound_to 7997
  154.6672  140.0554  157.0151 H   0  0  0  0  0  0  0  0  0  0  0  0  # atno 8009 bound_to 7997
  155.1190  140.3223  155.4505 H   0  0  0  0  0  0  0  0  0  0  0  0  # atno 8010 bound_to 7997
  140.2222  143.3668  152.0960 H   0  0  0  0  0  0  0  0  0  0  0  0  # atno 10167 bound_to 10162
  156.3266  130.4273  149.7911 H   0  0  0  0  0  0  0  0  0  0  0  0  # atno 10718 bound_to 10713
  154.5029  135.2784  155.1406 H   0  0  0  0  0  0  0  0  0  0  0  0  # atno 10763 bound_to 10752
  154.3032  135.6244  153.5437 H   0  0  0  0  0  0  0  0  0  0  0  0  # atno 10764 bound_to 10752
  152.9905  135.5702  154.5476 H   0  0  0  0  0  0  0  0  0  0  0  0  # atno 10765 bound_to 10752
  141.1450  133.8006  157.0396 H   0  0  0  0  0  0  0  0  0  0  0  0  # atno 11005 bound_to 11000
  144.7747  140.5713  143.6646 LP  0  0  0  0  0  0  0  0  0  0  0  0  # atno 17320 bound_to 7965
  145.5141  139.1478  143.3588 LP  0  0  0  0  0  0  0  0  0  0  0  0  # atno 17321 bound_to 7965
  139.5140  144.6941  151.5678 LP  0  0  0  0  0  0  0  0  0  0  0  0  # atno 17342 bound_to 10162
  140.6247  143.9192  150.6555 LP  0  0  0  0  0  0  0  0  0  0  0  0  # atno 17343 bound_to 10162
  156.5199  130.8210  151.3200 LP  0  0  0  0  0  0  0  0  0  0  0  0  # atno 17370 bound_to 10713
  157.7422  130.9886  150.2501 LP  0  0  0  0  0  0  0  0  0  0  0  0  # atno 17371 bound_to 10713
  140.0701  134.9707  157.1453 LP  0  0  0  0  0  0  0  0  0  0  0  0  # atno 17394 bound_to 11000
  140.3723  134.2377  155.7177 LP  0  0  0  0  0  0  0  0  0  0  0  0  # atno 17395 bound_to 11000

$$$$
