#       Name:                AV-unprocessed.smi:2148
#       Creating user name   scv26
#       Creation time:       Fri Mar 27 11:52:45 2020


#       File generated by GOLD software.
#

@<TRIPOS>MOLECULE
AV-unprocessed.smi:2148
    50    51     1
SMALL
NO_CHARGES


@<TRIPOS>ATOM
      1 ****        -5.4882  -0.1864   2.5990 C.3            1 S1                 0.0000
      2 ****        -6.0560  -1.7281   1.8304 S.3            1 S1                 0.0000
      3 ****        -5.3991  -1.5377   0.1455 C.3            1 S1                 0.0000
      4 ****        -6.0575  -2.5560  -0.7986 C.3            1 S1                 0.0000
      5 ****        -3.8702  -1.6607   0.1104 C.2            1 S1                 0.0000
      6 ****        -3.3442  -2.7586   0.2902 O.2            1 S1                 0.0000
      7 ****        -3.1970  -0.5125  -0.0932 N.am           1 S1                 0.0000
      8 ****        -1.7937  -0.2957  -0.1641 C.ar           1 S1                 0.0000
      9 ****        -1.3271   1.0280  -0.0477 C.ar           1 S1                 0.0000
     10 ****         0.0549   1.2830  -0.1268 C.ar           1 S1                 0.0000
     11 ****         0.9460   0.2020  -0.3247 C.ar           1 S1                 0.0000
     12 ****         2.3376   0.4298  -0.4032 N.3            1 S1                 0.0000
     13 ****         2.9195   1.2125   0.6827 C.3            1 S1                 0.0000
     14 ****         4.3240   1.7069   0.2932 C.3            1 S1                 0.0000
     15 ****         5.0192   2.4262   1.4539 C.3            1 S1                 0.0000
     16 ****         5.1341   0.5953  -0.0865 O.3            1 S1                 0.0000
     17 ****         4.6145  -0.1811  -1.1680 C.3            1 S1                 0.0000
     18 ****         4.7074   0.5606  -2.5132 C.3            1 S1                 0.0000
     19 ****         3.1923  -0.6745  -0.8360 C.3            1 S1                 0.0000
     20 ****         0.4947  -1.0695  -0.4563 N.ar           1 S1                 0.0000
     21 ****        -0.8311  -1.3104  -0.3799 C.ar           1 S1                 0.0000
     22 ****        -5.8442  -0.1289   3.6276 H              1 S1                 0.0000
     23 ****        -5.8701   0.6759   2.0528 H              1 S1                 0.0000
     24 ****        -4.3994  -0.1384   2.6118 H              1 S1                 0.0000
     25 ****        -5.6810  -0.5412  -0.1985 H              1 S1                 0.0000
     26 ****        -5.6771  -2.4582  -1.8162 H              1 S1                 0.0000
     27 ****        -7.1369  -2.4072  -0.8381 H              1 S1                 0.0000
     28 ****        -5.8789  -3.5814  -0.4718 H              1 S1                 0.0000
     29 ****        -3.7640   0.3205  -0.1572 H              1 S1                 0.0000
     30 ****        -2.0188   1.8444   0.1013 H              1 S1                 0.0000
     31 ****         0.4096   2.2998  -0.0490 H              1 S1                 0.0000
     32 ****         2.3007   2.0703   0.9419 H              1 S1                 0.0000
     33 ****         2.9760   0.5843   1.5726 H              1 S1                 0.0000
     34 ****         4.2470   2.4077  -0.5383 H              1 S1                 0.0000
     35 ****         4.4434   3.2931   1.7795 H              1 S1                 0.0000
     36 ****         6.0085   2.7766   1.1580 H              1 S1                 0.0000
     37 ****         5.1424   1.7642   2.3115 H              1 S1                 0.0000
     38 ****         5.2576  -1.0578  -1.2485 H              1 S1                 0.0000
     39 ****         4.4391  -0.1011  -3.3370 H              1 S1                 0.0000
     40 ****         5.7228   0.9145  -2.6922 H              1 S1                 0.0000
     41 ****         4.0394   1.4203  -2.5597 H              1 S1                 0.0000
     42 ****         3.2393  -1.4130  -0.0343 H              1 S1                 0.0000
     43 ****         2.7670  -1.1730  -1.7079 H              1 S1                 0.0000
     44 ****        -1.1038  -2.3444  -0.5171 H              1 S1                 0.0000
     45 ****        -3.9127  -3.5640   0.4580 LP             1 S1                 0.0000
     46 ****        -2.3482  -2.8454   0.2686 LP             1 S1                 0.0000
     47 ****         2.3409   1.0326  -1.2010 LP             1 S1                 0.0000
     48 ****         5.2326  -0.0040   0.7080 LP             1 S1                 0.0000
     49 ****         6.0325   0.9423  -0.3557 LP             1 S1                 0.0000
     50 ****         1.1371  -1.8207  -0.6083 LP             1 S1                 0.0000
@<TRIPOS>BOND
    1    1    2 1     
    2    1   22 1     
    3    1   23 1     
    4    1   24 1     
    5    2    3 1     
    6    3    4 1     
    7    3    5 1     
    8    3   25 1     
    9    4   26 1     
   10    4   27 1     
   11    4   28 1     
   12    5    6 2     
   13    5    7 am    
   14    7    8 1     
   15    7   29 1     
   16    8   21 ar    
   17    8    9 ar    
   18    9   10 ar    
   19    9   30 1     
   20   10   11 ar    
   21   10   31 1     
   22   11   12 1     
   23   11   20 ar    
   24   12   19 1     
   25   12   13 1     
   26   13   14 1     
   27   13   32 1     
   28   13   33 1     
   29   14   15 1     
   30   14   16 1     
   31   14   34 1     
   32   15   35 1     
   33   15   36 1     
   34   15   37 1     
   35   16   17 1     
   36   17   18 1     
   37   17   19 1     
   38   17   38 1     
   39   18   39 1     
   40   18   40 1     
   41   18   41 1     
   42   19   42 1     
   43   19   43 1     
   44   20   21 ar    
   45   21   44 1     
   46    6   45 1     
   47    6   46 1     
   48   12   47 1     
   49   16   48 1     
   50   16   49 1     
   51   20   50 1     
@<TRIPOS>SUBSTRUCTURE
      1 S1             1
@<TRIPOS>SET
LONE_PAIRS      STATIC     ATOMS    <user>   **** ""
6 45 46 47 48 49 50
DONOR_HYDROGENS      STATIC     ATOMS    <user>   **** ""
1 29
ATOM$BLUE        STATIC     ATOMS    COLORGROUP SYSTEM
6 45 46 47 48 49 50
ATOM$RED        STATIC     ATOMS    COLORGROUP SYSTEM
1 29
