AV-unprocessed.smi:1037|AV-procd|sdf|4520|dock4
  -GOLD-   22720 2533D 1   1.00000     0.00000
 Structure written by MMmdl.
 29 29  0  0  0  0  0  0  0  0  1 V2000
  150.5919  137.3890  154.0739 N   0  0  0  0  0  0  0  0  0  0  0  0
  150.9481  138.5578  154.6116 C   0  0  0  0  0  0  0  0  0  0  0  0
  150.5152  139.6293  154.1902 O   0  0  0  0  0  0  0  0  0  0  0  0
  151.9112  138.5001  155.8046 C   0  0  0  0  0  0  0  0  0  0  0  0
  152.2011  139.8163  156.3681 N   0  0  0  0  0  0  0  0  0  0  0  0
  151.6718  140.3067  157.4998 C   0  0  0  0  0  0  0  0  0  0  0  0
  150.8412  139.6971  158.1751 O   0  0  0  0  0  0  0  0  0  0  0  0
  152.1435  141.7073  157.9148 C   0  0  0  0  0  0  0  0  0  0  0  0
  152.6893  141.7486  159.2823 N   0  0  0  0  0  0  0  0  0  0  0  0
  152.2258  142.7761  160.1232 C   0  0  0  0  0  0  0  0  0  0  0  0
  152.6540  142.9006  161.3866 C   0  0  0  0  0  0  0  0  0  0  0  0
  153.6165  141.9451  161.8781 C   0  0  0  0  0  0  0  0  0  0  0  0
  154.0788  140.9441  161.0937 C   0  0  0  0  0  0  0  0  0  0  0  0
  155.0952  139.9226  161.5987 C   0  0  0  0  0  0  0  0  0  0  0  0
  154.5780  138.6936  161.5740 F   0  0  0  0  0  0  0  0  0  0  0  0
  156.1871  139.9309  160.8332 F   0  0  0  0  0  0  0  0  0  0  0  0
  155.4744  140.1796  162.8516 F   0  0  0  0  0  0  0  0  0  0  0  0
  153.5986  140.8149  159.7026 C   0  0  0  0  0  0  0  0  0  0  0  0
  153.9888  139.9201  158.9506 O   0  0  0  0  0  0  0  0  0  0  0  0
  149.9647  137.3731  153.2828 H   0  0  0  0  0  0  0  0  0  0  0  0
  150.9539  136.5266  154.4541 H   0  0  0  0  0  0  0  0  0  0  0  0
  151.4597  137.8865  156.5843 H   0  0  0  0  0  0  0  0  0  0  0  0
  152.8391  138.0045  155.5135 H   0  0  0  0  0  0  0  0  0  0  0  0
  152.8761  140.3828  155.8755 H   0  0  0  0  0  0  0  0  0  0  0  0
  152.8881  142.0707  157.2037 H   0  0  0  0  0  0  0  0  0  0  0  0
  151.2995  142.3910  157.8159 H   0  0  0  0  0  0  0  0  0  0  0  0
  151.5012  143.4443  159.6812 H   0  0  0  0  0  0  0  0  0  0  0  0
  152.2848  143.6925  162.0218 H   0  0  0  0  0  0  0  0  0  0  0  0
  153.9635  142.0442  162.8957 H   0  0  0  0  0  0  0  0  0  0  0  0
  1  2  1  0  0  0  0
  1 20  1  0  0  0  0
  1 21  1  0  0  0  0
  2  3  2  0  0  0  0
  2  4  1  0  0  0  0
  4  5  1  0  0  0  0
  4 22  1  0  0  0  0
  4 23  1  0  0  0  0
  5  6  1  0  0  0  0
  5 24  1  0  0  0  0
  6  7  2  0  0  0  0
  6  8  1  0  0  0  0
  8  9  1  0  0  0  0
  8 25  1  0  0  0  0
  8 26  1  0  0  0  0
  9 18  1  0  0  0  0
  9 10  1  0  0  0  0
 10 11  2  0  0  0  0
 10 27  1  0  0  0  0
 11 12  1  0  0  0  0
 11 28  1  0  0  0  0
 12 13  2  0  0  0  0
 12 29  1  0  0  0  0
 13 14  1  0  0  0  0
 13 18  1  0  0  0  0
 14 15  1  0  0  0  0
 14 16  1  0  0  0  0
 14 17  1  0  0  0  0
 18 19  2  0  0  0  0
M  END
> <s_m_source_file>
AV-unprocessed.smi

> <i_m_source_file_index>
1037

> <i_lp_mmshare_version>
43012

> <i_f3d_flags>
0

> <s_epik_input>
W05IMl1DKD1PKVtDSDJdW05IXUMoPU8pW0NIMl1uMVtjSF1bY0hdW2NIXWMoQyhGKShGKUYpYzE9Tw==

> <s_epik_cmdline>
J2VwaWtfcHl0aG9uJywgJy1waCcsICc3LjAnLCAnLXRuJywgJzgnLCAnLW1hJywgJzIwMCcsICctbWV0YWxfYmluZGluZycsICctaW1hZScsICc8aW5maWxlLm1hZT4nLCAnLW9tYWUnLCAnPG91dGZpbGUubWFlPic=

> <r_lp_tautomer_probability>
1

> <r_epik_Ionization_Penalty>
9.73018e-08

> <r_epik_Ionization_Penalty_Charging>
1.58095e-09

> <r_epik_Ionization_Penalty_Neutral>
9.57208e-08

> <r_epik_State_Penalty>
-0

> <r_epik_Charging_Adjusted_Penalty>
1.58095e-09

> <i_epik_Tot_Q>
0

> <i_epik_Tot_abs_Q>
0

> <r_epik_Metal_State_Penalty>
-0

> <b_epik_Metal_Only>
0

> <s_lp_Force_Field>
OPLS_2005

> <r_lp_Energy>
7.91729

> <b_lp_Chiralities_Consistent>
1

> <s_lp_Variant>
AV-unprocessed.smi:1037-1

> <Gold.Version>
5.8.1

> <Gold.Id.Protein>
6NUR|6NUR_protein|mol2

> <Gold.PLP.Fitness>
47.2663

> <Gold.PLP.PLP>
-38.9756

> <Gold.PLP.part.hbond>
-4.0000

> <Gold.PLP.part.metal>
0.0000

> <Gold.PLP.part.buried>
-4.9366

> <Gold.PLP.part.nonpolar>
-29.8872

> <Gold.PLP.part.repulsive>
0.3867

> <Gold.PLP.ligand.clash>
0.3015

> <Gold.PLP.ligand.torsion>
0.2884

> <Gold.PLP.Chemscore.Hbond>
2.9357

> <Gold.PLP.Chemscore.CHOScore>
0.0000

> <Gold.PLP.Chemscore.Metal>
0.0000

> <Gold.Chemscore.Hbonds>
donor molecule, donor type, donor heavy atom, donor atom, acceptor molecule, acceptor atom, score
      L1  H     1    20       P1  7948  0.92
      P1  H  7989  7998       L1     3  1.00
      P1  H  7997  8009       L1    19  1.00

> <Gold.PLP.Chemscore.Internal.Correction>
0.3618

> <Gold.Rescore>
     Score         DG    S(hbond)    S(metal)    S(lipo)     H(rot)  DE(clash)    DE(int)     intcor
     10.52     -14.86       2.65        0.00      64.56       2.74       0.18       4.17       ----

> <Gold.Chemscore.Fitness>
10.5212

> <Gold.Chemscore.DG>
-14.8649

> <Gold.Chemscore.ZeroCoef>
-5.4800

> <Gold.Chemscore.Hbond>
2.6510

> <Gold.Chemscore.Metal>
0.0000

> <Gold.Chemscore.Lipo>
64.5627

> <Gold.Chemscore.Internal_Hbond>
0.0000

> <Gold.Chemscore.DEClash>
0.1759

> <Gold.Chemscore.DEInternal>
4.1678

> <Gold.Chemscore.Rot>
2.7435

> <Gold.Chemscore.Internal.Correction>
   9.000000E+99

> <Gold.Chemscore.Hbonds>
donor molecule, donor type, donor heavy atom, donor atom, acceptor molecule, acceptor atom, score
      L1  H     1    20       P1  7948  0.29
      P1  H  7989  7998       L1     3  0.98
      P1  H  7997  8009       L1    19  0.98

> <Gold.Chemscore.Hbond.Weighted>
-8.8545

> <Gold.Chemscore.Metal.Weighted>
-0.0000

> <Gold.Chemscore.Lipo.Weighted>
-7.5538

> <Gold.Chemscore.Internal_Hbond.Weighted>
0.0000

> <Gold.Chemscore.DEClash.Weighted>
0.1759

> <Gold.Chemscore.DEInternal.Weighted>
4.1678

> <Gold.Chemscore.Rot.Weighted>
7.0234

> <Gold.Chemscore.Internal.Correction.Weighted>
   9.000000E+99

> <Gold.Protein.RotatedTorsions>
[ 6907 6896 6895 6894 ] final   18.47 input  -60.11 | X-H torsion
[ 7974 7965 7964 7962 ] final    6.19 input  175.53 | X-H torsion
[ 8008 7997 7996 7995 ] final  135.54 input   59.86 | X-H torsion
[ 10167 10162 10161 10158 ] final  -32.23 input  -65.29 | X-H torsion
[ 10718 10713 10712 10709 ] final -163.79 input   66.30 | X-H torsion
[ 10763 10752 10751 10750 ] final   16.94 input  -60.55 | X-H torsion
[ 11005 11000 10999 10996 ] final -135.18 input  -57.11 | X-H torsion

> <Gold.Protein.ActiveResidues>
 VAL166  LYS551  ARG553  GLY616  TRP617  ASP618  TYR619  PRO620  LYS621  CYS622 
 ASP623  PHE694  ASN695  SER759  ASP760  ASP761  ALA762  ILE779  LEU786  VAL792 
 PHE793  MET794  SER795  GLU796  ALA797  LYS798  CYS799  TRP800  GLU811  SER814 

> <Gold.Protein.RotatedAtoms>
  151.8657  135.0508  160.0473 H   0  0  0  0  0  0  0  0  0  0  0  0  # atno 6907 bound_to 6896
  152.2628  133.5308  159.5400 H   0  0  0  0  0  0  0  0  0  0  0  0  # atno 6908 bound_to 6896
  150.7122  134.0723  159.3911 H   0  0  0  0  0  0  0  0  0  0  0  0  # atno 6909 bound_to 6896
  146.2436  140.0270  142.8393 H   0  0  0  0  0  0  0  0  0  0  0  0  # atno 7974 bound_to 7965
  156.3003  140.2468  156.3597 H   0  0  0  0  0  0  0  0  0  0  0  0  # atno 8008 bound_to 7997
  154.8888  140.0410  157.1846 H   0  0  0  0  0  0  0  0  0  0  0  0  # atno 8009 bound_to 7997
  154.8619  140.2922  155.5538 H   0  0  0  0  0  0  0  0  0  0  0  0  # atno 8010 bound_to 7997
  140.7224  143.3710  151.1778 H   0  0  0  0  0  0  0  0  0  0  0  0  # atno 10167 bound_to 10162
  156.6297  130.8924  151.2975 H   0  0  0  0  0  0  0  0  0  0  0  0  # atno 10718 bound_to 10713
  153.1384  135.6755  153.9066 H   0  0  0  0  0  0  0  0  0  0  0  0  # atno 10763 bound_to 10752
  153.8530  135.3091  155.3435 H   0  0  0  0  0  0  0  0  0  0  0  0  # atno 10764 bound_to 10752
  154.7767  135.4910  153.9842 H   0  0  0  0  0  0  0  0  0  0  0  0  # atno 10765 bound_to 10752
  140.8922  134.1797  157.4520 H   0  0  0  0  0  0  0  0  0  0  0  0  # atno 11005 bound_to 11000
  145.1189  140.9450  143.4612 LP  0  0  0  0  0  0  0  0  0  0  0  0  # atno 17320 bound_to 7965
  145.0501  139.3189  143.5933 LP  0  0  0  0  0  0  0  0  0  0  0  0  # atno 17321 bound_to 7965
  139.7281  143.9116  152.3010 LP  0  0  0  0  0  0  0  0  0  0  0  0  # atno 17342 bound_to 10162
  139.8895  144.6973  150.8786 LP  0  0  0  0  0  0  0  0  0  0  0  0  # atno 17343 bound_to 10162
  157.7203  130.9550  150.1414 LP  0  0  0  0  0  0  0  0  0  0  0  0  # atno 17370 bound_to 10713
  156.2244  130.3676  149.8517 LP  0  0  0  0  0  0  0  0  0  0  0  0  # atno 17371 bound_to 10713
  139.8731  134.9863  156.5319 LP  0  0  0  0  0  0  0  0  0  0  0  0  # atno 17394 bound_to 11000
  140.8333  133.8262  155.9005 LP  0  0  0  0  0  0  0  0  0  0  0  0  # atno 17395 bound_to 11000

$$$$
