#       Name:                AV-unprocessed.smi:229
#       Creating user name   scv26
#       Creation time:       Thu Mar 26 20:26:41 2020


#       File generated by GOLD software.
#

@<TRIPOS>MOLECULE
AV-unprocessed.smi:229
    70    74     1
SMALL
NO_CHARGES


@<TRIPOS>ATOM
      1 ****        -6.8289   2.3008  -0.9207 C.3            1 S1                 0.0000
      2 ****        -5.4119   2.7537  -0.5474 C.3            1 S1                 0.0000
      3 ****        -4.3941   1.6036  -0.5633 C.3            1 S1                 0.0000
      4 ****        -2.9623   2.1020  -0.3055 C.3            1 S1                 0.0000
      5 ****        -2.0500   0.9676  -0.2110 N.3            1 S1                 0.0000
      6 ****        -0.7171   1.2117  -0.2753 C.ar           1 S1                 0.0000
      7 ****        -0.2386   2.4572  -0.0101 N.ar           1 S1                 0.0000
      8 ****         1.0743   2.7013  -0.0607 C.ar           1 S1                 0.0000
      9 ****         2.0683   1.8611  -0.3546 N.ar           1 S1                 0.0000
     10 ****         1.5946   0.6126  -0.6302 C.ar           1 S1                 0.0000
     11 ****         0.2308   0.2047  -0.6125 C.ar           1 S1                 0.0000
     12 ****         0.1357  -1.1399  -0.9534 N.2            1 S1                 0.0000
     13 ****         1.3723  -1.5076  -1.1514 C.2            1 S1                 0.0000
     14 ****         2.3125  -0.5179  -0.9777 N.pl3          1 S1                 0.0000
     15 ****         3.7506  -0.6520  -1.1311 C.3            1 S1                 0.0000
     16 ****         4.4251  -1.2084   0.1379 C.3            1 S1                 0.0000
     17 ****         4.1868  -0.3592   1.2452 O.3            1 S1                 0.0000
     18 ****         5.9381  -1.4496  -0.0423 C.3            1 S1                 0.0000
     19 ****         6.6975  -1.9174   1.2115 C.3            1 S1                 0.0000
     20 ****         7.7528  -0.8449   1.4131 C.3            1 S1                 0.0000
     21 ****         7.9177  -0.2715   0.0117 C.3            1 S1                 0.0000
     22 ****         6.5915  -0.2646  -0.4895 O.3            1 S1                 0.0000
     23 ****        -2.4453   0.0096   0.8147 C.3            1 S1                 0.0000
     24 ****        -3.8958  -0.4668   0.5905 C.3            1 S1                 0.0000
     25 ****        -4.0583  -1.4629  -0.5538 C.3            1 S1                 0.0000
     26 ****        -5.3389  -2.1857  -0.1659 C.3            1 S1                 0.0000
     27 ****        -5.2259  -2.3410   1.2402 O.3            1 S1                 0.0000
     28 ****        -4.4339  -1.2834   1.7769 C.3            1 S1                 0.0000
     29 ****        -4.7587   0.6687   0.4536 O.3            1 S1                 0.0000
     30 ****        -7.5198   3.1439  -0.9140 H              1 S1                 0.0000
     31 ****        -7.2054   1.5577  -0.2173 H              1 S1                 0.0000
     32 ****        -6.8517   1.8600  -1.9176 H              1 S1                 0.0000
     33 ****        -5.0949   3.5255  -1.2499 H              1 S1                 0.0000
     34 ****        -5.4254   3.2218   0.4376 H              1 S1                 0.0000
     35 ****        -4.4347   1.1288  -1.5432 H              1 S1                 0.0000
     36 ****        -2.6536   2.7666  -1.1139 H              1 S1                 0.0000
     37 ****        -2.9237   2.6759   0.6217 H              1 S1                 0.0000
     38 ****         1.3708   3.7144   0.1676 H              1 S1                 0.0000
     39 ****         1.6349  -2.5176  -1.4310 H              1 S1                 0.0000
     40 ****         3.9432  -1.3105  -1.9789 H              1 S1                 0.0000
     41 ****         4.1663   0.3216  -1.3940 H              1 S1                 0.0000
     42 ****         3.9627  -2.1662   0.3797 H              1 S1                 0.0000
     43 ****         3.2550  -0.2231   1.3237 H              1 S1                 0.0000
     44 ****         6.0784  -2.1987  -0.8232 H              1 S1                 0.0000
     45 ****         6.0643  -2.0351   2.0911 H              1 S1                 0.0000
     46 ****         7.1715  -2.8806   1.0192 H              1 S1                 0.0000
     47 ****         7.3735  -0.0737   2.0847 H              1 S1                 0.0000
     48 ****         8.6835  -1.2316   1.8288 H              1 S1                 0.0000
     49 ****         8.3533   0.7277   0.0123 H              1 S1                 0.0000
     50 ****         8.5395  -0.9211  -0.6064 H              1 S1                 0.0000
     51 ****        -1.7737  -0.8480   0.8468 H              1 S1                 0.0000
     52 ****        -2.3663   0.5006   1.7859 H              1 S1                 0.0000
     53 ****        -4.1047  -1.0214  -1.5476 H              1 S1                 0.0000
     54 ****        -3.2298  -2.1728  -0.5527 H              1 S1                 0.0000
     55 ****        -6.2122  -1.5724  -0.3928 H              1 S1                 0.0000
     56 ****        -5.4523  -3.1463  -0.6683 H              1 S1                 0.0000
     57 ****        -3.6214  -1.7361   2.3464 H              1 S1                 0.0000
     58 ****        -5.0164  -0.6723   2.4675 H              1 S1                 0.0000
     59 ****        -2.1787   0.5183  -1.0951 LP             1 S1                 0.0000
     60 ****        -0.8727   3.1941   0.2240 LP             1 S1                 0.0000
     61 ****         3.0356   2.1143  -0.3707 LP             1 S1                 0.0000
     62 ****        -0.6909  -1.6975  -1.0295 LP             1 S1                 0.0000
     63 ****         4.6450   0.5181   1.1022 LP             1 S1                 0.0000
     64 ****         4.5368  -0.7860   2.0791 LP             1 S1                 0.0000
     65 ****         6.1050   0.5394  -0.1476 LP             1 S1                 0.0000
     66 ****         6.6079  -0.2442  -1.4892 LP             1 S1                 0.0000
     67 ****        -4.7916  -3.2183   1.4442 LP             1 S1                 0.0000
     68 ****        -6.1369  -2.3163   1.6519 LP             1 S1                 0.0000
     69 ****        -5.6779   0.3332   0.2475 LP             1 S1                 0.0000
     70 ****        -4.7692   1.1540   1.3279 LP             1 S1                 0.0000
@<TRIPOS>BOND
    1    1    2 1     
    2    1   30 1     
    3    1   31 1     
    4    1   32 1     
    5    2    3 1     
    6    2   33 1     
    7    2   34 1     
    8    3   29 1     
    9    3    4 1     
   10    3   35 1     
   11    4    5 1     
   12    4   36 1     
   13    4   37 1     
   14    5    6 1     
   15    5   23 1     
   16    6   11 ar    
   17    6    7 ar    
   18    7    8 ar    
   19    8    9 ar    
   20    8   38 1     
   21    9   10 ar    
   22   10   14 1     
   23   10   11 ar    
   24   11   12 1     
   25   12   13 2     
   26   13   14 1     
   27   13   39 1     
   28   14   15 1     
   29   15   16 1     
   30   15   40 1     
   31   15   41 1     
   32   16   17 1     
   33   16   18 1     
   34   16   42 1     
   35   17   43 1     
   36   18   22 1     
   37   18   19 1     
   38   18   44 1     
   39   19   20 1     
   40   19   45 1     
   41   19   46 1     
   42   20   21 1     
   43   20   47 1     
   44   20   48 1     
   45   21   22 1     
   46   21   49 1     
   47   21   50 1     
   48   23   24 1     
   49   23   51 1     
   50   23   52 1     
   51   24   28 1     
   52   24   25 1     
   53   24   29 1     
   54   25   26 1     
   55   25   53 1     
   56   25   54 1     
   57   26   27 1     
   58   26   55 1     
   59   26   56 1     
   60   27   28 1     
   61   28   57 1     
   62   28   58 1     
   63    5   59 1     
   64    7   60 1     
   65    9   61 1     
   66   12   62 1     
   67   17   63 1     
   68   17   64 1     
   69   22   65 1     
   70   22   66 1     
   71   27   67 1     
   72   27   68 1     
   73   29   69 1     
   74   29   70 1     
@<TRIPOS>SUBSTRUCTURE
      1 S1             1
@<TRIPOS>SET
LONE_PAIRS      STATIC     ATOMS    <user>   **** ""
12 59 60 61 62 63 64 65 66 67 68 69 70
DONOR_HYDROGENS      STATIC     ATOMS    <user>   **** ""
1 43
ATOM$BLUE        STATIC     ATOMS    COLORGROUP SYSTEM
12 59 60 61 62 63 64 65 66 67 68 69 70
ATOM$RED        STATIC     ATOMS    COLORGROUP SYSTEM
1 43
