AV-unprocessed.smi:317|AV-procd|sdf|2329|dock5
  -GOLD-   2262022233D 1   1.00000     0.00000
 Structure written by MMmdl.
 40 41  0  0  0  0  0  0  0  0  2 V2000
  151.5973  138.2685  154.4598 C   0  0  0  0  0  0  0  0  0  0  0  0
  150.1665  137.9312  154.9168 C   0  0  1  0  0  0  0  0  0  0  0  0
  149.1520  139.0562  154.6381 C   0  0  0  0  0  0  0  0  0  0  0  0
  148.5780  138.9333  153.3523 O   0  0  0  0  0  0  0  0  0  0  0  0
  149.6966  136.6805  154.3257 N   0  0  0  0  0  0  0  0  0  0  0  0
  149.9176  135.4534  154.8178 C   0  0  0  0  0  0  0  0  0  0  0  0
  150.5553  135.2355  155.8477 O   0  0  0  0  0  0  0  0  0  0  0  0
  149.3718  134.5112  154.0307 N   0  0  0  0  0  0  0  0  0  0  0  0
  149.4231  133.0956  154.1802 C   0  0  0  0  0  0  0  0  0  0  0  0
  150.5079  132.4577  154.8359 C   0  0  0  0  0  0  0  0  0  0  0  0
  150.5361  131.0547  154.9467 C   0  0  0  0  0  0  0  0  0  0  0  0
  149.4765  130.3080  154.4041 C   0  0  0  0  0  0  0  0  0  0  0  0
  148.4495  130.9442  153.8043 N   0  3  0  0  0  0  0  0  0  0  0  0
  148.3577  132.2921  153.6791 C   0  0  0  0  0  0  0  0  0  0  0  0
  147.2135  132.8196  153.0385 N   0  0  0  0  0  0  0  0  0  0  0  0
  147.3481  133.6054  151.8175 C   0  0  0  0  0  0  0  0  0  0  0  0
  145.9360  133.6900  151.2457 C   0  0  0  0  0  0  0  0  0  0  0  0
  145.3530  132.3278  151.6100 C   0  0  0  0  0  0  0  0  0  0  0  0
  146.0118  131.9955  152.9537 C   0  0  0  0  0  0  0  0  0  0  0  0
  151.9375  139.2048  154.9030 H   0  0  0  0  0  0  0  0  0  0  0  0
  151.6610  138.3702  153.3761 H   0  0  0  0  0  0  0  0  0  0  0  0
  152.3011  137.4913  154.7593 H   0  0  0  0  0  0  0  0  0  0  0  0
  150.1887  137.7977  156.0000 H   0  0  0  0  0  0  0  0  0  0  0  0
  148.3611  139.0618  155.3889 H   0  0  0  0  0  0  0  0  0  0  0  0
  149.6483  140.0255  154.6951 H   0  0  0  0  0  0  0  0  0  0  0  0
  149.1420  139.3654  152.7288 H   0  0  0  0  0  0  0  0  0  0  0  0
  149.1684  136.7636  153.4694 H   0  0  0  0  0  0  0  0  0  0  0  0
  148.9602  134.8421  153.1705 H   0  0  0  0  0  0  0  0  0  0  0  0
  151.3211  133.0235  155.2642 H   0  0  0  0  0  0  0  0  0  0  0  0
  151.3601  130.5599  155.4399 H   0  0  0  0  0  0  0  0  0  0  0  0
  149.4141  129.2300  154.4388 H   0  0  0  0  0  0  0  0  0  0  0  0
  147.7620  134.5932  152.0221 H   0  0  0  0  0  0  0  0  0  0  0  0
  148.0010  133.0983  151.1059 H   0  0  0  0  0  0  0  0  0  0  0  0
  145.3761  134.4812  151.7465 H   0  0  0  0  0  0  0  0  0  0  0  0
  145.9219  133.8894  150.1738 H   0  0  0  0  0  0  0  0  0  0  0  0
  144.2637  132.3308  151.6618 H   0  0  0  0  0  0  0  0  0  0  0  0
  145.6513  131.5918  150.8621 H   0  0  0  0  0  0  0  0  0  0  0  0
  146.2376  130.9309  153.0312 H   0  0  0  0  0  0  0  0  0  0  0  0
  145.3421  132.2625  153.7718 H   0  0  0  0  0  0  0  0  0  0  0  0
  147.6902  130.3751  153.4296 H   0  0  0  0  0  0  0  0  0  0  0  0
  1  2  1  0  0  0  0
  1 20  1  0  0  0  0
  1 21  1  0  0  0  0
  1 22  1  0  0  0  0
  2  3  1  0  0  0  0
  2  5  1  0  0  0  0
  2 23  1  0  0  0  0
  3  4  1  0  0  0  0
  3 24  1  0  0  0  0
  3 25  1  0  0  0  0
  4 26  1  0  0  0  0
  5  6  1  0  0  0  0
  5 27  1  0  0  0  0
  6  7  2  0  0  0  0
  6  8  1  0  0  0  0
  8  9  1  0  0  0  0
  8 28  1  0  0  0  0
  9 14  1  0  0  0  0
  9 10  2  0  0  0  0
 10 11  1  0  0  0  0
 10 29  1  0  0  0  0
 11 12  2  0  0  0  0
 11 30  1  0  0  0  0
 12 13  1  0  0  0  0
 12 31  1  0  0  0  0
 13 14  2  0  0  0  0
 13 40  1  0  0  0  0
 14 15  1  0  0  0  0
 15 19  1  0  0  0  0
 15 16  1  0  0  0  0
 16 17  1  0  0  0  0
 16 32  1  0  0  0  0
 16 33  1  0  0  0  0
 17 18  1  0  0  0  0
 17 34  1  0  0  0  0
 17 35  1  0  0  0  0
 18 19  1  0  0  0  0
 18 36  1  0  0  0  0
 18 37  1  0  0  0  0
 19 38  1  0  0  0  0
 19 39  1  0  0  0  0
M  CHG  1  13   1
M  END
> <s_m_source_file>
AV-unprocessed.smi

> <i_m_source_file_index>
317

> <i_lp_mmshare_version>
43012

> <i_f3d_flags>
0

> <s_epik_input>
W09IXVtDSDJdW0NAQEhdKFtDSDNdKVtOSF1DKD1PKVtOSF1jMVtjSF1bY0hdW2NIXW5jMU4yW0NIMl1bQ0gyXVtDSDJdW0NIMl0y

> <s_epik_cmdline>
J2VwaWtfcHl0aG9uJywgJy1waCcsICc3LjAnLCAnLXRuJywgJzgnLCAnLW1hJywgJzIwMCcsICctbWV0YWxfYmluZGluZycsICctaW1hZScsICc8aW5maWxlLm1hZT4nLCAnLW9tYWUnLCAnPG91dGZpbGUubWFlPic=

> <r_lp_tautomer_probability>
0.999994

> <r_epik_Ionization_Penalty>
1.11558

> <r_epik_Ionization_Penalty_Charging>
1.11556

> <r_epik_Ionization_Penalty_Neutral>
2.02999e-05

> <r_epik_State_Penalty>
1.17393

> <r_epik_Charging_Adjusted_Penalty>
2.28949

> <i_epik_Tot_Q>
1

> <i_epik_Tot_abs_Q>
1

> <r_epik_Metal_State_Penalty>
1.25924

> <b_epik_Metal_Only>
0

> <s_lp_Force_Field>
OPLS_2005

> <r_lp_Energy>
42.0309

> <b_lp_Chiralities_Consistent>
1

> <s_lp_Variant>
AV-unprocessed.smi:317-4

> <Gold.Version>
5.8.1

> <Gold.Id.Protein>
6NUR|6NUR_protein|mol2

> <Gold.PLP.Fitness>
38.6012

> <Gold.PLP.PLP>
-31.9795

> <Gold.PLP.part.hbond>
-4.2590

> <Gold.PLP.part.metal>
0.0000

> <Gold.PLP.part.buried>
-3.2883

> <Gold.PLP.part.nonpolar>
-23.5084

> <Gold.PLP.part.repulsive>
0.2159

> <Gold.PLP.ligand.clash>
0.0000

> <Gold.PLP.ligand.torsion>
1.1068

> <Gold.PLP.Chemscore.Hbond>
2.8128

> <Gold.PLP.Chemscore.CHOScore>
0.0000

> <Gold.PLP.Chemscore.Metal>
0.0000

> <Gold.Chemscore.Hbonds>
donor molecule, donor type, donor heavy atom, donor atom, acceptor molecule, acceptor atom, score
      L1  H     4    26       P1  7957  1.00
      L1  H     5    27       P1  7948  0.91
      L1  H     8    28       P1  7948  0.78

> <Gold.PLP.Chemscore.Internal.Correction>
0.3969

> <Gold.Rescore>
     Score         DG    S(hbond)    S(metal)    S(lipo)     H(rot)  DE(clash)    DE(int)     intcor
     12.25     -14.57       2.21        0.00      60.77       2.11       0.15       2.17       ----

> <Gold.Chemscore.Fitness>
12.2530

> <Gold.Chemscore.DG>
-14.5731

> <Gold.Chemscore.ZeroCoef>
-5.4800

> <Gold.Chemscore.Hbond>
2.2110

> <Gold.Chemscore.Metal>
0.0000

> <Gold.Chemscore.Lipo>
60.7664

> <Gold.Chemscore.Internal_Hbond>
0.0000

> <Gold.Chemscore.DEClash>
0.1461

> <Gold.Chemscore.DEInternal>
2.1739

> <Gold.Chemscore.Rot>
2.1099

> <Gold.Chemscore.Internal.Correction>
   9.000000E+99

> <Gold.Chemscore.Hbonds>
donor molecule, donor type, donor heavy atom, donor atom, acceptor molecule, acceptor atom, score
      L1  H     4    26       P1  7957  0.99
      L1  H     5    27       P1  7948  0.89
      L1  H     8    28       P1  7948  0.13

> <Gold.Chemscore.Hbond.Weighted>
-7.3848

> <Gold.Chemscore.Metal.Weighted>
-0.0000

> <Gold.Chemscore.Lipo.Weighted>
-7.1097

> <Gold.Chemscore.Internal_Hbond.Weighted>
0.0000

> <Gold.Chemscore.DEClash.Weighted>
0.1461

> <Gold.Chemscore.DEInternal.Weighted>
2.1739

> <Gold.Chemscore.Rot.Weighted>
5.4015

> <Gold.Chemscore.Internal.Correction.Weighted>
   9.000000E+99

> <Gold.Protein.RotatedTorsions>
[ 6907 6896 6895 6894 ] final  164.86 input  -60.11 | X-H torsion
[ 7974 7965 7964 7962 ] final  114.07 input  175.53 | X-H torsion
[ 8008 7997 7996 7995 ] final   36.29 input   59.86 | X-H torsion
[ 10167 10162 10161 10158 ] final    9.04 input  -65.29 | X-H torsion
[ 10718 10713 10712 10709 ] final  114.19 input   66.30 | X-H torsion
[ 10763 10752 10751 10750 ] final -144.17 input  -60.55 | X-H torsion
[ 11005 11000 10999 10996 ] final  167.43 input  -57.11 | X-H torsion

> <Gold.Protein.ActiveResidues>
 VAL166  LYS551  ARG553  GLY616  TRP617  ASP618  TYR619  PRO620  LYS621  CYS622 
 ASP623  PHE694  ASN695  SER759  ASP760  ASP761  ALA762  ILE779  LEU786  VAL792 
 PHE793  MET794  SER795  GLU796  ALA797  LYS798  CYS799  TRP800  GLU811  SER814 

> <Gold.Protein.RotatedAtoms>
  151.9034  133.3543  159.3838 H   0  0  0  0  0  0  0  0  0  0  0  0  # atno 6907 bound_to 6896
  150.7075  134.4806  159.5477 H   0  0  0  0  0  0  0  0  0  0  0  0  # atno 6908 bound_to 6896
  152.2398  134.8240  160.0513 H   0  0  0  0  0  0  0  0  0  0  0  0  # atno 6909 bound_to 6896
  145.2090  139.2915  143.4278 H   0  0  0  0  0  0  0  0  0  0  0  0  # atno 7974 bound_to 7965
  155.1849  140.3303  155.4368 H   0  0  0  0  0  0  0  0  0  0  0  0  # atno 8008 bound_to 7997
  156.2463  140.1920  156.6896 H   0  0  0  0  0  0  0  0  0  0  0  0  # atno 8009 bound_to 7997
  154.6245  140.0591  156.9642 H   0  0  0  0  0  0  0  0  0  0  0  0  # atno 8010 bound_to 7997
  140.6278  143.8061  150.7256 H   0  0  0  0  0  0  0  0  0  0  0  0  # atno 10167 bound_to 10162
  157.6295  131.0995  150.7150 H   0  0  0  0  0  0  0  0  0  0  0  0  # atno 10718 bound_to 10713
  154.8439  135.3447  154.6304 H   0  0  0  0  0  0  0  0  0  0  0  0  # atno 10763 bound_to 10752
  153.6914  135.6975  153.5093 H   0  0  0  0  0  0  0  0  0  0  0  0  # atno 10764 bound_to 10752
  153.2592  135.4328  155.0832 H   0  0  0  0  0  0  0  0  0  0  0  0  # atno 10765 bound_to 10752
  140.2768  134.7783  157.3723 H   0  0  0  0  0  0  0  0  0  0  0  0  # atno 11005 bound_to 11000
  146.3401  140.2360  142.8594 LP  0  0  0  0  0  0  0  0  0  0  0  0  # atno 17320 bound_to 7965
  144.9874  140.8515  143.5360 LP  0  0  0  0  0  0  0  0  0  0  0  0  # atno 17321 bound_to 7965
  140.1666  143.4230  152.2030 LP  0  0  0  0  0  0  0  0  0  0  0  0  # atno 17342 bound_to 10162
  139.5496  144.7327  151.4475 LP  0  0  0  0  0  0  0  0  0  0  0  0  # atno 17343 bound_to 10162
  156.7492  130.4763  149.5460 LP  0  0  0  0  0  0  0  0  0  0  0  0  # atno 17370 bound_to 10713
  156.1489  130.6296  151.0569 LP  0  0  0  0  0  0  0  0  0  0  0  0  # atno 17371 bound_to 10713
  140.1321  134.5081  155.8097 LP  0  0  0  0  0  0  0  0  0  0  0  0  # atno 17394 bound_to 11000
  141.2169  133.6794  156.7058 LP  0  0  0  0  0  0  0  0  0  0  0  0  # atno 17395 bound_to 11000

$$$$
