#       Name:                AV-unprocessed.smi:438
#       Creating user name   scv26
#       Creation time:       Thu Mar 26 22:56:03 2020


#       File generated by GOLD software.
#

@<TRIPOS>MOLECULE
AV-unprocessed.smi:438
    56    57     1
SMALL
NO_CHARGES


@<TRIPOS>ATOM
      1 ****        -4.3034   2.7689  -1.6167 C.3            1 S1                 0.0000
      2 ****        -3.6150   1.4188  -1.5340 C.ar           1 S1                 0.0000
      3 ****        -2.2664   1.4504  -1.4567 N.ar           1 S1                 0.0000
      4 ****        -1.6466   0.2727  -1.3730 C.ar           1 S1                 0.0000
      5 ****         0.1290   0.3058  -1.2921 S.3            1 S1                 0.0000
      6 ****         0.3957   1.3931   0.1407 C.3            1 S1                 0.0000
      7 ****         1.2096   0.7079   1.2338 C.2            1 S1                 0.0000
      8 ****         0.6741   0.4038   2.2992 O.2            1 S1                 0.0000
      9 ****         2.4989   0.4640   0.9493 N.am           1 S1                 0.0000
     10 ****         3.4624  -0.2188   1.8148 C.3            1 S1                 0.0000
     11 ****         4.7280   0.6471   1.9792 C.3            1 S1                 0.0000
     12 ****         5.5569   0.7216   0.6852 C.3            1 S1                 0.0000
     13 ****         5.9081  -0.6812   0.1682 C.3            1 S1                 0.0000
     14 ****         4.6468  -1.5385  -0.0240 C.3            1 S1                 0.0000
     15 ****         3.8170  -1.6279   1.2737 C.3            1 S1                 0.0000
     16 ****         2.5861  -2.5334   1.0942 C.3            1 S1                 0.0000
     17 ****        -2.2052  -0.9374  -1.3671 N.ar           1 S1                 0.0000
     18 ****        -3.5524  -0.9859  -1.4449 C.ar           1 S1                 0.0000
     19 ****        -4.1490  -2.2131  -1.4274 O.3            1 S1                 0.0000
     20 ****        -4.3318   0.1945  -1.5363 C.ar           1 S1                 0.0000
     21 ****        -5.8520   0.1393  -1.6229 C.3            1 S1                 0.0000
     22 ****        -6.5074   0.0582  -0.2377 C.3            1 S1                 0.0000
     23 ****        -7.9112   0.0313  -0.3743 O.3            1 S1                 0.0000
     24 ****        -5.0987   2.8425  -0.8747 H              1 S1                 0.0000
     25 ****        -4.7377   2.9107  -2.6066 H              1 S1                 0.0000
     26 ****        -3.6025   3.5850  -1.4355 H              1 S1                 0.0000
     27 ****         0.9149   2.2928  -0.1907 H              1 S1                 0.0000
     28 ****        -0.5567   1.7170   0.5607 H              1 S1                 0.0000
     29 ****         2.8373   0.7514   0.0425 H              1 S1                 0.0000
     30 ****         3.0281  -0.3418   2.8084 H              1 S1                 0.0000
     31 ****         4.4586   1.6512   2.3091 H              1 S1                 0.0000
     32 ****         5.3472   0.2259   2.7722 H              1 S1                 0.0000
     33 ****         5.0016   1.2656  -0.0798 H              1 S1                 0.0000
     34 ****         6.4703   1.2900   0.8633 H              1 S1                 0.0000
     35 ****         6.4523  -0.6050  -0.7736 H              1 S1                 0.0000
     36 ****         6.5791  -1.1724   0.8740 H              1 S1                 0.0000
     37 ****         4.0391  -1.1196  -0.8272 H              1 S1                 0.0000
     38 ****         4.9357  -2.5385  -0.3493 H              1 S1                 0.0000
     39 ****         4.4475  -2.1061   2.0249 H              1 S1                 0.0000
     40 ****         1.9250  -2.1668   0.3084 H              1 S1                 0.0000
     41 ****         2.0069  -2.5949   2.0158 H              1 S1                 0.0000
     42 ****         2.8835  -3.5470   0.8247 H              1 S1                 0.0000
     43 ****        -3.5247  -2.9191  -1.3610 H              1 S1                 0.0000
     44 ****        -6.2261   1.0088  -2.1632 H              1 S1                 0.0000
     45 ****        -6.1461  -0.7219  -2.2241 H              1 S1                 0.0000
     46 ****        -6.1844  -0.8392   0.2910 H              1 S1                 0.0000
     47 ****        -6.2283   0.9168   0.3737 H              1 S1                 0.0000
     48 ****        -8.2962  -0.0247   0.4870 H              1 S1                 0.0000
     49 ****        -1.7593   2.3123  -1.4620 LP             1 S1                 0.0000
     50 ****        -0.2939   0.6059   2.4478 LP             1 S1                 0.0000
     51 ****         1.2070  -0.0455   3.0163 LP             1 S1                 0.0000
     52 ****        -1.6532  -1.7692  -1.3079 LP             1 S1                 0.0000
     53 ****        -4.6728  -2.3269  -2.2717 LP             1 S1                 0.0000
     54 ****        -4.7676  -2.2576  -0.6429 LP             1 S1                 0.0000
     55 ****        -8.1819  -0.7639  -0.9169 LP             1 S1                 0.0000
     56 ****        -8.2217   0.8662  -0.8287 LP             1 S1                 0.0000
@<TRIPOS>BOND
    1    1    2 1     
    2    1   24 1     
    3    1   25 1     
    4    1   26 1     
    5    2   20 ar    
    6    2    3 ar    
    7    3    4 ar    
    8    4    5 1     
    9    4   17 ar    
   10    5    6 1     
   11    6    7 1     
   12    6   27 1     
   13    6   28 1     
   14    7    8 2     
   15    7    9 am    
   16    9   10 1     
   17    9   29 1     
   18   10   15 1     
   19   10   11 1     
   20   10   30 1     
   21   11   12 1     
   22   11   31 1     
   23   11   32 1     
   24   12   13 1     
   25   12   33 1     
   26   12   34 1     
   27   13   14 1     
   28   13   35 1     
   29   13   36 1     
   30   14   15 1     
   31   14   37 1     
   32   14   38 1     
   33   15   16 1     
   34   15   39 1     
   35   16   40 1     
   36   16   41 1     
   37   16   42 1     
   38   17   18 ar    
   39   18   19 1     
   40   18   20 ar    
   41   19   43 1     
   42   20   21 1     
   43   21   22 1     
   44   21   44 1     
   45   21   45 1     
   46   22   23 1     
   47   22   46 1     
   48   22   47 1     
   49   23   48 1     
   50    3   49 1     
   51    8   50 1     
   52    8   51 1     
   53   17   52 1     
   54   19   53 1     
   55   19   54 1     
   56   23   55 1     
   57   23   56 1     
@<TRIPOS>SUBSTRUCTURE
      1 S1             1
@<TRIPOS>SET
LONE_PAIRS      STATIC     ATOMS    <user>   **** ""
8 49 50 51 52 53 54 55 56
DONOR_HYDROGENS      STATIC     ATOMS    <user>   **** ""
3 29 43 48
ATOM$BLUE        STATIC     ATOMS    COLORGROUP SYSTEM
8 49 50 51 52 53 54 55 56
ATOM$RED        STATIC     ATOMS    COLORGROUP SYSTEM
3 29 43 48
