#       Name:                AV-unprocessed.smi:3221
#       Creating user name   scv26
#       Creation time:       Fri Mar 27 18:14:32 2020


#       File generated by GOLD software.
#

@<TRIPOS>MOLECULE
AV-unprocessed.smi:3221
    28    29     1
SMALL
NO_CHARGES


@<TRIPOS>ATOM
      1 ****        -4.0936   3.1047  -1.8033 F              1 S1                 0.0000
      2 ****        -3.6179   2.0091  -1.2114 C.3            1 S1                 0.0000
      3 ****        -4.1473   1.9499   0.0102 F              1 S1                 0.0000
      4 ****        -4.0620   0.9565  -1.8977 F              1 S1                 0.0000
      5 ****        -2.1176   2.0200  -1.1514 C.2            1 S1                 0.0000
      6 ****        -1.2729   2.9897  -1.6343 C.2            1 S1                 0.0000
      7 ****         0.4013   2.5946  -1.3588 S.3            1 S1                 0.0000
      8 ****        -0.1105   1.0994  -0.5849 C.2            1 S1                 0.0000
      9 ****         0.8473   0.0989  -0.0199 C.3            1 S1                 0.0000
     10 ****         0.7285  -0.0332   1.5100 C.3            1 S1                 0.0000
     11 ****         1.7309  -1.0709   2.0385 C.3            1 S1                 0.0000
     12 ****         1.5719  -2.4127   1.3041 C.3            1 S1                 0.0000
     13 ****         1.7202  -2.2300  -0.1563 N.4            1 S1                 1.0000
     14 ****         0.7461  -1.2706  -0.7219 C.3            1 S1                 0.0000
     15 ****        -1.4382   0.9527  -0.5539 N.2            1 S1                 0.0000
     16 ****        -1.5342   3.9100  -2.1356 H              1 S1                 0.0000
     17 ****         1.8465   0.4857  -0.2260 H              1 S1                 0.0000
     18 ****         0.9034   0.9309   1.9889 H              1 S1                 0.0000
     19 ****        -0.2838  -0.3370   1.7800 H              1 S1                 0.0000
     20 ****         2.7480  -0.6989   1.9072 H              1 S1                 0.0000
     21 ****         1.5902  -1.2128   3.1104 H              1 S1                 0.0000
     22 ****         2.3201  -3.1256   1.6513 H              1 S1                 0.0000
     23 ****         0.5939  -2.8477   1.5148 H              1 S1                 0.0000
     24 ****         2.6524  -1.8895  -0.3440 H              1 S1                 0.0000
     25 ****        -0.2580  -1.6835  -0.6125 H              1 S1                 0.0000
     26 ****         0.9335  -1.1665  -1.7910 H              1 S1                 0.0000
     27 ****         1.6021  -3.1234  -0.6126 H              1 S1                 0.0000
     28 ****        -1.8978   0.1634  -0.1467 LP             1 S1                 0.0000
@<TRIPOS>BOND
    1    1    2 1     
    2    2    3 1     
    3    2    4 1     
    4    2    5 1     
    5    5   15 1     
    6    5    6 2     
    7    6    7 1     
    8    6   16 1     
    9    7    8 1     
   10    8    9 1     
   11    8   15 2     
   12    9   14 1     
   13    9   10 1     
   14    9   17 1     
   15   10   11 1     
   16   10   18 1     
   17   10   19 1     
   18   11   12 1     
   19   11   20 1     
   20   11   21 1     
   21   12   13 1     
   22   12   22 1     
   23   12   23 1     
   24   13   14 1     
   25   13   24 1     
   26   13   27 1     
   27   14   25 1     
   28   14   26 1     
   29   15   28 1     
@<TRIPOS>SUBSTRUCTURE
      1 S1             1
@<TRIPOS>SET
LONE_PAIRS      STATIC     ATOMS    <user>   **** ""
1 28
DONOR_HYDROGENS      STATIC     ATOMS    <user>   **** ""
2 24 27
ATOM$BLUE        STATIC     ATOMS    COLORGROUP SYSTEM
1 28
ATOM$RED        STATIC     ATOMS    COLORGROUP SYSTEM
2 24 27
