AV-unprocessed.smi:1875|AV-procd|sdf|7619|dock5
  -GOLD-   22720 9343D 1   1.00000     0.00000
 Structure written by MMmdl.
 48 50  0  0  0  0  0  0  0  0  2 V2000
  157.6337  133.6906  153.4614 C   0  0  0  0  0  0  0  0  0  0  0  0
  157.5101  135.1473  153.0655 C   0  0  0  0  0  0  0  0  0  0  0  0
  158.2307  135.5489  152.0136 N   0  0  0  0  0  0  0  0  0  0  0  0
  158.1271  136.8498  151.6634 C   0  0  0  0  0  0  0  0  0  0  0  0
  157.3009  137.7459  152.3711 C   0  0  0  0  0  0  0  0  0  0  0  0
  156.5896  137.2056  153.4629 C   0  0  0  0  0  0  0  0  0  0  0  0
  155.6793  138.0681  154.3116 C   0  0  0  0  0  0  0  0  0  0  0  0
  154.2713  137.8227  154.0201 N   0  0  0  0  0  0  0  0  0  0  0  0
  153.3687  138.5107  154.9369 C   0  0  0  0  0  0  0  0  0  0  0  0
  151.9184  138.4893  154.4173 C   0  0  1  0  0  0  0  0  0  0  0  0
  151.6471  137.2028  153.9012 O   0  0  0  0  0  0  0  0  0  0  0  0
  150.8643  138.7703  155.5065 C   0  0  0  0  0  0  0  0  0  0  0  0
  150.6685  140.2049  155.7601 N   0  0  0  0  0  0  0  0  0  0  0  0
  149.9190  141.1081  155.0715 C   0  0  0  0  0  0  0  0  0  0  0  0
  150.0478  142.3110  155.6957 N   0  3  0  0  0  0  0  0  0  0  0  0
  150.8913  142.1748  156.8001 C   0  0  0  0  0  0  0  0  0  0  0  0
  151.3221  143.1086  157.7350 C   0  0  0  0  0  0  0  0  0  0  0  0
  152.1947  142.6520  158.7482 C   0  0  0  0  0  0  0  0  0  0  0  0
  152.6876  143.6483  159.7840 C   0  0  0  0  0  0  0  0  0  0  0  0
  152.6068  141.2952  158.7993 C   0  0  0  0  0  0  0  0  0  0  0  0
  153.5524  140.8166  159.8878 C   0  0  0  0  0  0  0  0  0  0  0  0
  152.1523  140.3595  157.8426 C   0  0  0  0  0  0  0  0  0  0  0  0
  151.2933  140.8256  156.8492 C   0  0  0  0  0  0  0  0  0  0  0  0
  156.6981  135.9039  153.8101 N   0  0  0  0  0  0  0  0  0  0  0  0
  157.9123  133.0730  152.6068 H   0  0  0  0  0  0  0  0  0  0  0  0
  156.6895  133.3131  153.8558 H   0  0  0  0  0  0  0  0  0  0  0  0
  158.3972  133.5753  154.2311 H   0  0  0  0  0  0  0  0  0  0  0  0
  158.7085  137.1781  150.8148 H   0  0  0  0  0  0  0  0  0  0  0  0
  157.2201  138.7863  152.0922 H   0  0  0  0  0  0  0  0  0  0  0  0
  155.8878  137.8631  155.3624 H   0  0  0  0  0  0  0  0  0  0  0  0
  155.9219  139.1184  154.1438 H   0  0  0  0  0  0  0  0  0  0  0  0
  154.0929  136.8245  154.0607 H   0  0  0  0  0  0  0  0  0  0  0  0
  153.4190  138.0724  155.9346 H   0  0  0  0  0  0  0  0  0  0  0  0
  153.7081  139.5409  155.0372 H   0  0  0  0  0  0  0  0  0  0  0  0
  151.7970  139.2186  153.6148 H   0  0  0  0  0  0  0  0  0  0  0  0
  151.5252  137.2734  152.9667 H   0  0  0  0  0  0  0  0  0  0  0  0
  149.8969  138.3734  155.1949 H   0  0  0  0  0  0  0  0  0  0  0  0
  151.1120  138.2636  156.4393 H   0  0  0  0  0  0  0  0  0  0  0  0
  149.3278  140.9060  154.1898 H   0  0  0  0  0  0  0  0  0  0  0  0
  151.0060  144.1405  157.6879 H   0  0  0  0  0  0  0  0  0  0  0  0
  152.4318  143.3153  160.7904 H   0  0  0  0  0  0  0  0  0  0  0  0
  152.2403  144.6317  159.6359 H   0  0  0  0  0  0  0  0  0  0  0  0
  153.7702  143.7612  159.7203 H   0  0  0  0  0  0  0  0  0  0  0  0
  153.8097  139.7649  159.7588 H   0  0  0  0  0  0  0  0  0  0  0  0
  153.0940  140.9307  160.8703 H   0  0  0  0  0  0  0  0  0  0  0  0
  154.4799  141.3890  159.8691 H   0  0  0  0  0  0  0  0  0  0  0  0
  152.4701  139.3283  157.8835 H   0  0  0  0  0  0  0  0  0  0  0  0
  149.5926  143.1610  155.3881 H   0  0  0  0  0  0  0  0  0  0  0  0
  1  2  1  0  0  0  0
  1 25  1  0  0  0  0
  1 26  1  0  0  0  0
  1 27  1  0  0  0  0
  2 24  1  0  0  0  0
  2  3  2  0  0  0  0
  3  4  1  0  0  0  0
  4  5  2  0  0  0  0
  4 28  1  0  0  0  0
  5  6  1  0  0  0  0
  5 29  1  0  0  0  0
  6  7  1  0  0  0  0
  6 24  2  0  0  0  0
  7  8  1  0  0  0  0
  7 30  1  0  0  0  0
  7 31  1  0  0  0  0
  8  9  1  0  0  0  0
  8 32  1  0  0  0  0
  9 10  1  0  0  0  0
  9 33  1  0  0  0  0
  9 34  1  0  0  0  0
 10 11  1  0  0  0  0
 10 12  1  0  0  0  0
 10 35  1  0  0  0  0
 11 36  1  0  0  0  0
 12 13  1  0  0  0  0
 12 37  1  0  0  0  0
 12 38  1  0  0  0  0
 13 23  1  0  0  0  0
 13 14  1  0  0  0  0
 14 15  2  0  0  0  0
 14 39  1  0  0  0  0
 15 16  1  0  0  0  0
 15 48  1  0  0  0  0
 16 23  2  0  0  0  0
 16 17  1  0  0  0  0
 17 18  2  0  0  0  0
 17 40  1  0  0  0  0
 18 19  1  0  0  0  0
 18 20  1  0  0  0  0
 19 41  1  0  0  0  0
 19 42  1  0  0  0  0
 19 43  1  0  0  0  0
 20 21  1  0  0  0  0
 20 22  2  0  0  0  0
 21 44  1  0  0  0  0
 21 45  1  0  0  0  0
 21 46  1  0  0  0  0
 22 23  1  0  0  0  0
 22 47  1  0  0  0  0
M  CHG  1  15   1
M  END
> <s_m_source_file>
AV-unprocessed.smi

> <i_m_source_file_index>
1875

> <i_lp_mmshare_version>
43012

> <i_f3d_flags>
0

> <s_epik_input>
W0NIM11jMW5bY0hdW2NIXWMobjEpW0NIMl1bTkhdW0NIMl1bQ0BIXShbT0hdKVtDSDJdbihbY0hdbjIpYyhjMjMpW2NIXWMoW0NIM10pYyhbY0hdMylbQ0gzXQ==

> <s_epik_cmdline>
J2VwaWtfcHl0aG9uJywgJy1waCcsICc3LjAnLCAnLXRuJywgJzgnLCAnLW1hJywgJzIwMCcsICctbWV0YWxfYmluZGluZycsICctaW1hZScsICc8aW5maWxlLm1hZT4nLCAnLW9tYWUnLCAnPG91dGZpbGUubWFlPic=

> <r_epik_Ionization_Penalty>
2.02862

> <r_epik_Ionization_Penalty_Charging>
1.0004

> <r_epik_Ionization_Penalty_Neutral>
1.02823

> <r_epik_State_Penalty>
2.23022

> <r_epik_Charging_Adjusted_Penalty>
3.23062

> <i_epik_Tot_Q>
1

> <i_epik_Tot_abs_Q>
1

> <r_epik_Metal_State_Penalty>
2.31249

> <b_epik_Metal_Only>
0

> <s_epik_Chemistry_Notes>
This compound contains an electron-poor aromatic ring that is susceptible to covalent hydrolysis at low pH, typically resulting in measured values for nitrogen ring protonation that are around two units higher than predicted values.

> <s_lp_Force_Field>
OPLS_2005

> <r_lp_Energy>
17.8623

> <b_lp_Chiralities_Consistent>
1

> <s_lp_Variant>
AV-unprocessed.smi:1875-8

> <Gold.Version>
5.8.1

> <Gold.Id.Protein>
6NUR|6NUR_protein|mol2

> <Gold.PLP.Fitness>
63.1359

> <Gold.PLP.PLP>
-49.4545

> <Gold.PLP.part.hbond>
-5.0000

> <Gold.PLP.part.metal>
0.0000

> <Gold.PLP.part.buried>
0.3996

> <Gold.PLP.part.nonpolar>
-45.2123

> <Gold.PLP.part.repulsive>
0.3107

> <Gold.PLP.ligand.clash>
0.0000

> <Gold.PLP.ligand.torsion>
0.9446

> <Gold.PLP.Chemscore.Hbond>
4.7093

> <Gold.PLP.Chemscore.CHOScore>
0.4548

> <Gold.PLP.Chemscore.Metal>
0.0000

> <Gold.Chemscore.Hbonds>
donor molecule, donor type, donor heavy atom, donor atom, acceptor molecule, acceptor atom, score
      L1  H    11    36       P1  7949  0.70
      L1  H    15    48       P1  8028  2.00
      P1  H 10752 10763       L1    11  0.96
      P1  H 10752 10765       L1    24  0.85
      L1  C     4    28       P1 10674  0.29

> <Gold.PLP.Chemscore.Internal.Correction>
0.0785

> <Gold.Rescore>
     Score         DG    S(hbond)    S(metal)    S(lipo)     H(rot)  DE(clash)    DE(int)     intcor
     21.92     -23.11       2.29        0.00     146.71       2.80       0.24       0.96       ----

> <Gold.Chemscore.Fitness>
21.9165

> <Gold.Chemscore.DG>
-23.1105

> <Gold.Chemscore.ZeroCoef>
-5.4800

> <Gold.Chemscore.Hbond>
2.2878

> <Gold.Chemscore.Metal>
0.0000

> <Gold.Chemscore.Lipo>
146.7117

> <Gold.Chemscore.Internal_Hbond>
0.0000

> <Gold.Chemscore.DEClash>
0.2370

> <Gold.Chemscore.DEInternal>
0.9570

> <Gold.Chemscore.Rot>
2.8032

> <Gold.Chemscore.Internal.Correction>
   9.000000E+99

> <Gold.Chemscore.Hbonds>
donor molecule, donor type, donor heavy atom, donor atom, acceptor molecule, acceptor atom, score
      L1  H    11    36       P1  7949  0.63
      L1  H    15    48       P1  8028  0.98
      P1  H 10752 10763       L1    11  0.23
      P1  H 10752 10765       L1    24  0.14

> <Gold.Chemscore.Hbond.Weighted>
-7.6414

> <Gold.Chemscore.Metal.Weighted>
-0.0000

> <Gold.Chemscore.Lipo.Weighted>
-17.1653

> <Gold.Chemscore.Internal_Hbond.Weighted>
0.0000

> <Gold.Chemscore.DEClash.Weighted>
0.2370

> <Gold.Chemscore.DEInternal.Weighted>
0.9570

> <Gold.Chemscore.Rot.Weighted>
7.1761

> <Gold.Chemscore.Internal.Correction.Weighted>
   9.000000E+99

> <Gold.Protein.RotatedTorsions>
[ 6907 6896 6895 6894 ] final  -18.57 input  -60.11 | X-H torsion
[ 7974 7965 7964 7962 ] final  -20.23 input  175.53 | X-H torsion
[ 8008 7997 7996 7995 ] final   67.08 input   59.86 | X-H torsion
[ 10167 10162 10161 10158 ] final   45.05 input  -65.29 | X-H torsion
[ 10718 10713 10712 10709 ] final  -22.63 input   66.30 | X-H torsion
[ 10763 10752 10751 10750 ] final   21.64 input  -60.55 | X-H torsion
[ 11005 11000 10999 10996 ] final   41.59 input  -57.11 | X-H torsion

> <Gold.Protein.ActiveResidues>
 VAL166  LYS551  ARG553  GLY616  TRP617  ASP618  TYR619  PRO620  LYS621  CYS622 
 ASP623  PHE694  ASN695  SER759  ASP760  ASP761  ALA762  ILE779  LEU786  VAL792 
 PHE793  MET794  SER795  GLU796  ALA797  LYS798  CYS799  TRP800  GLU811  SER814 

> <Gold.Protein.RotatedAtoms>
  151.2762  135.0700  159.9152 H   0  0  0  0  0  0  0  0  0  0  0  0  # atno 6907 bound_to 6896
  152.5342  134.0078  159.7935 H   0  0  0  0  0  0  0  0  0  0  0  0  # atno 6908 bound_to 6896
  151.0325  133.5727  159.2690 H   0  0  0  0  0  0  0  0  0  0  0  0  # atno 6909 bound_to 6896
  146.1799  140.4173  142.8498 H   0  0  0  0  0  0  0  0  0  0  0  0  # atno 7974 bound_to 7965
  155.6874  140.3496  155.4879 H   0  0  0  0  0  0  0  0  0  0  0  0  # atno 8008 bound_to 7997
  155.9554  140.1127  157.0964 H   0  0  0  0  0  0  0  0  0  0  0  0  # atno 8009 bound_to 7997
  154.4131  140.1186  156.5094 H   0  0  0  0  0  0  0  0  0  0  0  0  # atno 8010 bound_to 7997
  140.3280  144.2623  150.6172 H   0  0  0  0  0  0  0  0  0  0  0  0  # atno 10167 bound_to 10162
  156.5019  130.4590  149.6696 H   0  0  0  0  0  0  0  0  0  0  0  0  # atno 10718 bound_to 10713
  153.0979  135.6664  153.9729 H   0  0  0  0  0  0  0  0  0  0  0  0  # atno 10763 bound_to 10752
  153.9308  135.3004  155.3447 H   0  0  0  0  0  0  0  0  0  0  0  0  # atno 10764 bound_to 10752
  154.7398  135.5085  153.9178 H   0  0  0  0  0  0  0  0  0  0  0  0  # atno 10765 bound_to 10752
  140.1819  134.4093  155.8195 H   0  0  0  0  0  0  0  0  0  0  0  0  # atno 11005 bound_to 11000
  144.8298  140.6688  143.6298 LP  0  0  0  0  0  0  0  0  0  0  0  0  # atno 17320 bound_to 7965
  145.4105  139.1581  143.4128 LP  0  0  0  0  0  0  0  0  0  0  0  0  # atno 17321 bound_to 7965
  140.5423  143.2221  151.8065 LP  0  0  0  0  0  0  0  0  0  0  0  0  # atno 17342 bound_to 10162
  139.4861  144.4585  151.9570 LP  0  0  0  0  0  0  0  0  0  0  0  0  # atno 17343 bound_to 10162
  156.3324  130.7338  151.2270 LP  0  0  0  0  0  0  0  0  0  0  0  0  # atno 17370 bound_to 10713
  157.7462  131.0426  150.4703 LP  0  0  0  0  0  0  0  0  0  0  0  0  # atno 17371 bound_to 10713
  141.2223  133.7004  156.7946 LP  0  0  0  0  0  0  0  0  0  0  0  0  # atno 17394 bound_to 11000
  140.2257  134.8723  157.3424 LP  0  0  0  0  0  0  0  0  0  0  0  0  # atno 17395 bound_to 11000

$$$$
