AV-unprocessed.smi:458|AV-procd|sdf|2622|dock2
  -GOLD-   2262023 23D 1   1.00000     0.00000
 Structure written by MMmdl.
 37 39  0  0  0  0  0  0  0  0  2 V2000
  151.5455  136.5950  153.8822 O   0  0  0  0  0  0  0  0  0  0  0  0
  151.7615  137.8328  154.5229 C   0  0  0  0  0  0  0  0  0  0  0  0
  150.6004  138.7590  154.3692 C   0  0  0  0  0  0  0  0  0  0  0  0
  149.5445  138.5728  153.5284 N   0  3  0  0  0  0  0  0  0  0  0  0
  148.6628  139.6486  153.6304 C   0  0  0  0  0  0  0  0  0  0  0  0
  147.4637  139.9060  152.9733 C   0  0  0  0  0  0  0  0  0  0  0  0
  146.8073  141.1097  153.3027 C   0  0  0  0  0  0  0  0  0  0  0  0
  147.3450  142.0024  154.2519 C   0  0  0  0  0  0  0  0  0  0  0  0
  148.5597  141.7286  154.9139 C   0  0  0  0  0  0  0  0  0  0  0  0
  149.2046  140.5361  154.5830 C   0  0  0  0  0  0  0  0  0  0  0  0
  150.4017  139.9467  155.0120 N   0  0  0  0  0  0  0  0  0  0  0  0
  151.2395  140.6362  156.0084 C   0  0  0  0  0  0  0  0  0  0  0  0
  151.5690  139.7430  157.2213 C   0  0  2  0  0  0  0  0  0  0  0  0
  150.4290  138.9628  157.5168 O   0  0  0  0  0  0  0  0  0  0  0  0
  152.0468  140.5487  158.4215 C   0  0  0  0  0  0  0  0  0  0  0  0
  151.5061  141.8294  158.6671 C   0  0  0  0  0  0  0  0  0  0  0  0
  151.9164  142.5697  159.7927 C   0  0  0  0  0  0  0  0  0  0  0  0
  152.8710  142.0345  160.6784 C   0  0  0  0  0  0  0  0  0  0  0  0
  153.2628  142.7448  161.7624 F   0  0  0  0  0  0  0  0  0  0  0  0
  153.4159  140.7587  160.4376 C   0  0  0  0  0  0  0  0  0  0  0  0
  153.0052  140.0174  159.3128 C   0  0  0  0  0  0  0  0  0  0  0  0
  150.7302  136.2326  154.1948 H   0  0  0  0  0  0  0  0  0  0  0  0
  151.9442  137.6565  155.5832 H   0  0  0  0  0  0  0  0  0  0  0  0
  152.6615  138.2939  154.1172 H   0  0  0  0  0  0  0  0  0  0  0  0
  147.0510  139.2244  152.2441 H   0  0  0  0  0  0  0  0  0  0  0  0
  145.8736  141.3536  152.8169 H   0  0  0  0  0  0  0  0  0  0  0  0
  146.8156  142.9170  154.4772 H   0  0  0  0  0  0  0  0  0  0  0  0
  148.9598  142.4253  155.6351 H   0  0  0  0  0  0  0  0  0  0  0  0
  152.1452  141.0134  155.5340 H   0  0  0  0  0  0  0  0  0  0  0  0
  150.6861  141.5177  156.3335 H   0  0  0  0  0  0  0  0  0  0  0  0
  152.3546  139.0403  156.9416 H   0  0  0  0  0  0  0  0  0  0  0  0
  150.4433  138.1917  156.9704 H   0  0  0  0  0  0  0  0  0  0  0  0
  150.7663  142.2438  157.9977 H   0  0  0  0  0  0  0  0  0  0  0  0
  151.4966  143.5476  159.9775 H   0  0  0  0  0  0  0  0  0  0  0  0
  154.1471  140.3470  161.1176 H   0  0  0  0  0  0  0  0  0  0  0  0
  153.4212  139.0351  159.1426 H   0  0  0  0  0  0  0  0  0  0  0  0
  149.4422  137.7687  152.9226 H   0  0  0  0  0  0  0  0  0  0  0  0
  1  2  1  0  0  0  0
  1 22  1  0  0  0  0
  2  3  1  0  0  0  0
  2 23  1  0  0  0  0
  2 24  1  0  0  0  0
  3 11  1  0  0  0  0
  3  4  2  0  0  0  0
  4  5  1  0  0  0  0
  4 37  1  0  0  0  0
  5 10  2  0  0  0  0
  5  6  1  0  0  0  0
  6  7  2  0  0  0  0
  6 25  1  0  0  0  0
  7  8  1  0  0  0  0
  7 26  1  0  0  0  0
  8  9  2  0  0  0  0
  8 27  1  0  0  0  0
  9 10  1  0  0  0  0
  9 28  1  0  0  0  0
 10 11  1  0  0  0  0
 11 12  1  0  0  0  0
 12 13  1  0  0  0  0
 12 29  1  0  0  0  0
 12 30  1  0  0  0  0
 13 14  1  0  0  0  0
 13 15  1  0  0  0  0
 13 31  1  0  0  0  0
 14 32  1  0  0  0  0
 15 21  1  0  0  0  0
 15 16  2  0  0  0  0
 16 17  1  0  0  0  0
 16 33  1  0  0  0  0
 17 18  2  0  0  0  0
 17 34  1  0  0  0  0
 18 19  1  0  0  0  0
 18 20  1  0  0  0  0
 20 21  2  0  0  0  0
 20 35  1  0  0  0  0
 21 36  1  0  0  0  0
M  CHG  1   4   1
M  END
> <s_m_source_file>
AV-unprocessed.smi

> <i_m_source_file_index>
458

> <i_lp_mmshare_version>
43012

> <i_f3d_flags>
0

> <s_epik_input>
W2NIXTFbY0hdW2NIXVtjSF1jKGMxMiluKGMobjIpW0NIMl1bT0hdKVtDSDJdW0NASF0oW09IXSljM1tjSF1bY0hdYyhGKVtjSF1bY0hdMw==

> <s_epik_cmdline>
J2VwaWtfcHl0aG9uJywgJy1waCcsICc3LjAnLCAnLXRuJywgJzgnLCAnLW1hJywgJzIwMCcsICctbWV0YWxfYmluZGluZycsICctaW1hZScsICc8aW5maWxlLm1hZT4nLCAnLW9tYWUnLCAnPG91dGZpbGUubWFlPic=

> <r_epik_Ionization_Penalty>
1.35643

> <r_epik_Ionization_Penalty_Charging>
1.35557

> <r_epik_Ionization_Penalty_Neutral>
0.00085758

> <r_epik_State_Penalty>
1.43401

> <r_epik_Charging_Adjusted_Penalty>
2.78958

> <i_epik_Tot_Q>
1

> <i_epik_Tot_abs_Q>
1

> <r_epik_Metal_State_Penalty>
5.47166

> <b_epik_Metal_Only>
0

> <s_lp_Force_Field>
OPLS_2005

> <r_lp_Energy>
15.2314

> <b_lp_Chiralities_Consistent>
1

> <s_lp_Variant>
AV-unprocessed.smi:458-3

> <Gold.Version>
5.8.1

> <Gold.Id.Protein>
6NUR|6NUR_protein|mol2

> <Gold.PLP.Fitness>
54.4558

> <Gold.PLP.PLP>
-47.5241

> <Gold.PLP.part.hbond>
-4.1860

> <Gold.PLP.part.metal>
0.0000

> <Gold.PLP.part.buried>
2.1524

> <Gold.PLP.part.nonpolar>
-45.1524

> <Gold.PLP.part.repulsive>
0.0790

> <Gold.PLP.ligand.clash>
0.0000

> <Gold.PLP.ligand.torsion>
1.0564

> <Gold.PLP.Chemscore.Hbond>
3.0000

> <Gold.PLP.Chemscore.CHOScore>
0.0000

> <Gold.PLP.Chemscore.Metal>
0.0000

> <Gold.Chemscore.Hbonds>
donor molecule, donor type, donor heavy atom, donor atom, acceptor molecule, acceptor atom, score
      L1  H     4    37       P1  7948  2.00
      P1  H 10752 10764       L1     1  1.00

> <Gold.PLP.Chemscore.Internal.Correction>
0.0446

> <Gold.Rescore>
     Score         DG    S(hbond)    S(metal)    S(lipo)     H(rot)  DE(clash)    DE(int)     intcor
     15.63     -17.28       1.80        0.00     111.36       2.82       0.63       1.02       ----

> <Gold.Chemscore.Fitness>
15.6289

> <Gold.Chemscore.DG>
-17.2833

> <Gold.Chemscore.ZeroCoef>
-5.4800

> <Gold.Chemscore.Hbond>
1.7958

> <Gold.Chemscore.Metal>
0.0000

> <Gold.Chemscore.Lipo>
111.3637

> <Gold.Chemscore.Internal_Hbond>
0.0000

> <Gold.Chemscore.DEClash>
0.6303

> <Gold.Chemscore.DEInternal>
1.0241

> <Gold.Chemscore.Rot>
2.8219

> <Gold.Chemscore.Internal.Correction>
   9.000000E+99

> <Gold.Chemscore.Hbonds>
donor molecule, donor type, donor heavy atom, donor atom, acceptor molecule, acceptor atom, score
      L1  H     4    37       P1  7948  0.88
      P1  H 10752 10764       L1     1  0.38

> <Gold.Chemscore.Hbond.Weighted>
-5.9978

> <Gold.Chemscore.Metal.Weighted>
-0.0000

> <Gold.Chemscore.Lipo.Weighted>
-13.0296

> <Gold.Chemscore.Internal_Hbond.Weighted>
0.0000

> <Gold.Chemscore.DEClash.Weighted>
0.6303

> <Gold.Chemscore.DEInternal.Weighted>
1.0241

> <Gold.Chemscore.Rot.Weighted>
7.2240

> <Gold.Chemscore.Internal.Correction.Weighted>
   9.000000E+99

> <Gold.Protein.RotatedTorsions>
[ 6907 6896 6895 6894 ] final  -12.50 input  -60.11 | X-H torsion
[ 7974 7965 7964 7962 ] final  -43.98 input  175.53 | X-H torsion
[ 8008 7997 7996 7995 ] final -171.60 input   59.86 | X-H torsion
[ 10167 10162 10161 10158 ] final -158.71 input  -65.29 | X-H torsion
[ 10718 10713 10712 10709 ] final    3.70 input   66.30 | X-H torsion
[ 10763 10752 10751 10750 ] final  -73.54 input  -60.55 | X-H torsion
[ 11005 11000 10999 10996 ] final  104.60 input  -57.11 | X-H torsion

> <Gold.Protein.ActiveResidues>
 VAL166  LYS551  ARG553  GLY616  TRP617  ASP618  TYR619  PRO620  LYS621  CYS622 
 ASP623  PHE694  ASN695  SER759  ASP760  ASP761  ALA762  ILE779  LEU786  VAL792 
 PHE793  MET794  SER795  GLU796  ALA797  LYS798  CYS799  TRP800  GLU811  SER814 

> <Gold.Protein.RotatedAtoms>
  151.3695  135.0919  159.9460 H   0  0  0  0  0  0  0  0  0  0  0  0  # atno 6907 bound_to 6896
  152.5139  133.9179  159.7530 H   0  0  0  0  0  0  0  0  0  0  0  0  # atno 6908 bound_to 6896
  150.9590  133.6412  159.2787 H   0  0  0  0  0  0  0  0  0  0  0  0  # atno 6909 bound_to 6896
  145.9966  140.7121  142.9291 H   0  0  0  0  0  0  0  0  0  0  0  0  # atno 7974 bound_to 7965
  155.9337  140.1096  157.1111 H   0  0  0  0  0  0  0  0  0  0  0  0  # atno 8008 bound_to 7997
  154.4075  140.1232  156.4902 H   0  0  0  0  0  0  0  0  0  0  0  0  # atno 8009 bound_to 7997
  155.7048  140.3471  155.4950 H   0  0  0  0  0  0  0  0  0  0  0  0  # atno 8010 bound_to 7997
  139.6671  143.9810  152.2261 H   0  0  0  0  0  0  0  0  0  0  0  0  # atno 10167 bound_to 10162
  156.8817  130.5656  149.5653 H   0  0  0  0  0  0  0  0  0  0  0  0  # atno 10718 bound_to 10713
  154.4608  135.5894  153.6254 H   0  0  0  0  0  0  0  0  0  0  0  0  # atno 10763 bound_to 10752
  152.9823  135.6043  154.3488 H   0  0  0  0  0  0  0  0  0  0  0  0  # atno 10764 bound_to 10752
  154.3360  135.2842  155.2426 H   0  0  0  0  0  0  0  0  0  0  0  0  # atno 10765 bound_to 10752
  139.8793  134.9306  156.5386 H   0  0  0  0  0  0  0  0  0  0  0  0  # atno 11005 bound_to 11000
  144.6905  140.3161  143.7240 LP  0  0  0  0  0  0  0  0  0  0  0  0  # atno 17320 bound_to 7965
  145.7551  139.1806  143.2299 LP  0  0  0  0  0  0  0  0  0  0  0  0  # atno 17321 bound_to 7965
  139.9565  144.6586  150.8121 LP  0  0  0  0  0  0  0  0  0  0  0  0  # atno 17342 bound_to 10162
  140.7603  143.3149  151.2757 LP  0  0  0  0  0  0  0  0  0  0  0  0  # atno 17343 bound_to 10162
  156.0674  130.5714  150.9315 LP  0  0  0  0  0  0  0  0  0  0  0  0  # atno 17370 bound_to 10713
  157.6136  131.0935  150.8750 LP  0  0  0  0  0  0  0  0  0  0  0  0  # atno 17371 bound_to 10713
  140.8327  133.8266  155.8999 LP  0  0  0  0  0  0  0  0  0  0  0  0  # atno 17394 bound_to 11000
  140.9313  134.2018  157.4862 LP  0  0  0  0  0  0  0  0  0  0  0  0  # atno 17395 bound_to 11000

$$$$
