#       Name:                AV-unprocessed.smi:189
#       Creating user name   scv26
#       Creation time:       Thu Mar 26 19:30:14 2020


#       File generated by GOLD software.
#

@<TRIPOS>MOLECULE
AV-unprocessed.smi:189
    61    65     1
SMALL
NO_CHARGES


@<TRIPOS>ATOM
      1 ****        -2.4498   0.7664  -2.3149 C.3            1 S1                 0.0000
      2 ****        -3.1005   0.7801  -0.9179 C.3            1 S1                 0.0000
      3 ****        -3.5140   2.1656  -0.4067 C.3            1 S1                 0.0000
      4 ****        -3.7114   1.9348   1.0987 C.3            1 S1                 0.0000
      5 ****        -3.1766   3.0562   2.0068 C.3            1 S1                 0.0000
      6 ****        -3.3040   2.7001   3.5040 C.3            1 S1                 0.0000
      7 ****        -3.0636   1.2048   3.8172 C.3            1 S1                 0.0000
      8 ****        -2.2609   0.4972   2.7156 C.3            1 S1                 0.0000
      9 ****        -3.0331   0.5732   1.3736 C.3            1 S1                 0.0000
     10 ****        -2.3093   0.1823   0.1590 N.3            1 S1                 0.0000
     11 ****        -0.9681   0.3892   0.1238 C.ar           1 S1                 0.0000
     12 ****        -0.4476   1.6428   0.2087 N.ar           1 S1                 0.0000
     13 ****         0.8757   1.8228   0.1721 C.ar           1 S1                 0.0000
     14 ****         1.8390   0.9069   0.0520 N.ar           1 S1                 0.0000
     15 ****         1.3187  -0.3504  -0.0433 C.ar           1 S1                 0.0000
     16 ****        -0.0615  -0.6940  -0.0114 C.ar           1 S1                 0.0000
     17 ****        -0.2149  -2.0695  -0.1251 N.2            1 S1                 0.0000
     18 ****         1.0081  -2.5156  -0.2199 C.2            1 S1                 0.0000
     19 ****         1.9910  -1.5512  -0.1912 N.pl3          1 S1                 0.0000
     20 ****         3.4266  -1.7678  -0.2782 C.3            1 S1                 0.0000
     21 ****         3.9956  -1.6464  -1.7151 C.3            1 S1                 0.0000
     22 ****         3.7784  -0.3384  -2.2089 O.3            1 S1                 0.0000
     23 ****         5.4801  -1.9688  -1.7721 C.3            1 S1                 0.0000
     24 ****         5.4981  -3.4893  -1.9223 C.3            1 S1                 0.0000
     25 ****         4.2526  -3.8454  -2.5164 O.3            1 S1                 0.0000
     26 ****         3.4489  -2.6855  -2.7010 C.3            1 S1                 0.0000
     27 ****        -3.1474   1.1385  -3.0652 H              1 S1                 0.0000
     28 ****        -2.1641  -0.2455  -2.6041 H              1 S1                 0.0000
     29 ****        -1.5596   1.3940  -2.3620 H              1 S1                 0.0000
     30 ****        -4.0032   0.1709  -0.9896 H              1 S1                 0.0000
     31 ****        -2.7218   2.8930  -0.5868 H              1 S1                 0.0000
     32 ****        -4.4158   2.5351  -0.8954 H              1 S1                 0.0000
     33 ****        -4.7787   1.8222   1.2951 H              1 S1                 0.0000
     34 ****        -2.1259   3.2337   1.7761 H              1 S1                 0.0000
     35 ****        -3.6920   3.9944   1.8000 H              1 S1                 0.0000
     36 ****        -2.5991   3.3119   4.0678 H              1 S1                 0.0000
     37 ****        -4.2946   2.9784   3.8650 H              1 S1                 0.0000
     38 ****        -2.5612   1.1026   4.7796 H              1 S1                 0.0000
     39 ****        -4.0255   0.7018   3.9245 H              1 S1                 0.0000
     40 ****        -1.2847   0.9775   2.6577 H              1 S1                 0.0000
     41 ****        -2.0772  -0.5440   2.9824 H              1 S1                 0.0000
     42 ****        -3.8391  -0.1579   1.4561 H              1 S1                 0.0000
     43 ****         1.2102   2.8465   0.2493 H              1 S1                 0.0000
     44 ****         1.2287  -3.5685  -0.3211 H              1 S1                 0.0000
     45 ****         3.9182  -1.0517   0.3818 H              1 S1                 0.0000
     46 ****         3.6415  -2.7547   0.1335 H              1 S1                 0.0000
     47 ****         4.1330  -0.2837  -3.0830 H              1 S1                 0.0000
     48 ****         5.9331  -1.5207  -2.6584 H              1 S1                 0.0000
     49 ****         6.0377  -1.6183  -0.9028 H              1 S1                 0.0000
     50 ****         6.3364  -3.8297  -2.5306 H              1 S1                 0.0000
     51 ****         5.5704  -3.9731  -0.9477 H              1 S1                 0.0000
     52 ****         2.3882  -2.9024  -2.5819 H              1 S1                 0.0000
     53 ****         3.5961  -2.3486  -3.7286 H              1 S1                 0.0000
     54 ****        -2.2541  -0.8130   0.0791 LP             1 S1                 0.0000
     55 ****        -1.0564   2.4310   0.2987 LP             1 S1                 0.0000
     56 ****         2.8168   1.1156   0.0342 LP             1 S1                 0.0000
     57 ****        -1.0650  -2.5961  -0.1326 LP             1 S1                 0.0000
     58 ****         4.2361   0.3254  -1.6174 LP             1 S1                 0.0000
     59 ****         2.7975  -0.1450  -2.2304 LP             1 S1                 0.0000
     60 ****         3.7731  -4.4883  -1.9191 LP             1 S1                 0.0000
     61 ****         4.4203  -4.2760  -3.4032 LP             1 S1                 0.0000
@<TRIPOS>BOND
    1    1    2 1     
    2    1   27 1     
    3    1   28 1     
    4    1   29 1     
    5    2   10 1     
    6    2    3 1     
    7    2   30 1     
    8    3    4 1     
    9    3   31 1     
   10    3   32 1     
   11    4    9 1     
   12    4    5 1     
   13    4   33 1     
   14    5    6 1     
   15    5   34 1     
   16    5   35 1     
   17    6    7 1     
   18    6   36 1     
   19    6   37 1     
   20    7    8 1     
   21    7   38 1     
   22    7   39 1     
   23    8    9 1     
   24    8   40 1     
   25    8   41 1     
   26    9   10 1     
   27    9   42 1     
   28   10   11 1     
   29   11   16 ar    
   30   11   12 ar    
   31   12   13 ar    
   32   13   14 ar    
   33   13   43 1     
   34   14   15 ar    
   35   15   19 1     
   36   15   16 ar    
   37   16   17 1     
   38   17   18 2     
   39   18   19 1     
   40   18   44 1     
   41   19   20 1     
   42   20   21 1     
   43   20   45 1     
   44   20   46 1     
   45   21   26 1     
   46   21   22 1     
   47   21   23 1     
   48   22   47 1     
   49   23   24 1     
   50   23   48 1     
   51   23   49 1     
   52   24   25 1     
   53   24   50 1     
   54   24   51 1     
   55   25   26 1     
   56   26   52 1     
   57   26   53 1     
   58   10   54 1     
   59   12   55 1     
   60   14   56 1     
   61   17   57 1     
   62   22   58 1     
   63   22   59 1     
   64   25   60 1     
   65   25   61 1     
@<TRIPOS>SUBSTRUCTURE
      1 S1             1
@<TRIPOS>SET
LONE_PAIRS      STATIC     ATOMS    <user>   **** ""
8 54 55 56 57 58 59 60 61
DONOR_HYDROGENS      STATIC     ATOMS    <user>   **** ""
1 47
ATOM$BLUE        STATIC     ATOMS    COLORGROUP SYSTEM
8 54 55 56 57 58 59 60 61
ATOM$RED        STATIC     ATOMS    COLORGROUP SYSTEM
1 47
