AV-unprocessed.smi:3034|AV-procd|sdf|11580|dock2
  -GOLD-   2272016553D 1   1.00000     0.00000
 Structure written by MMmdl.
 31 31  0  0  0  0  0  0  0  0  2 V2000
  150.2913  137.3026  157.6743 C   0  0  0  0  0  0  0  0  0  0  0  0
  151.6520  137.0524  157.0154 C   0  0  0  0  0  0  0  0  0  0  0  0
  151.6661  137.4434  155.5321 C   0  0  0  0  0  0  0  0  0  0  0  0
  151.9225  139.2634  155.3232 S   0  0  0  0  0  0  0  0  0  0  0  0
  153.2895  139.4308  154.8013 O   0  0  0  0  0  0  0  0  0  0  0  0
  150.8283  139.7056  154.4455 O   0  0  0  0  0  0  0  0  0  0  0  0
  151.7182  139.8171  156.8377 N   0  5  0  0  0  0  0  0  0  0  0  0
  150.4937  140.5017  157.2345 C   0  0  0  0  0  0  0  0  0  0  0  0
  150.5961  142.0182  156.9298 C   0  0  1  0  0  0  0  0  0  0  0  0
  149.3021  142.4897  156.6032 O   0  0  0  0  0  0  0  0  0  0  0  0
  151.2481  142.8501  158.0401 C   0  0  0  0  0  0  0  0  0  0  0  0
  151.4949  144.2287  157.8445 C   0  0  0  0  0  0  0  0  0  0  0  0
  152.0874  144.9672  158.8862 C   0  0  0  0  0  0  0  0  0  0  0  0
  152.4045  144.3089  160.0892 C   0  0  0  0  0  0  0  0  0  0  0  0
  152.1144  142.9348  160.1960 C   0  0  0  0  0  0  0  0  0  0  0  0
  151.5467  142.2173  159.2034 N   0  0  0  0  0  0  0  0  0  0  0  0
  150.3131  137.0229  158.7276 H   0  0  0  0  0  0  0  0  0  0  0  0
  149.5072  136.7195  157.1907 H   0  0  0  0  0  0  0  0  0  0  0  0
  150.0129  138.3550  157.6148 H   0  0  0  0  0  0  0  0  0  0  0  0
  152.4195  137.6152  157.5476 H   0  0  0  0  0  0  0  0  0  0  0  0
  151.9132  135.9991  157.1199 H   0  0  0  0  0  0  0  0  0  0  0  0
  152.4693  136.9277  155.0058 H   0  0  0  0  0  0  0  0  0  0  0  0
  150.7242  137.1676  155.0587 H   0  0  0  0  0  0  0  0  0  0  0  0
  149.6353  140.0989  156.6951 H   0  0  0  0  0  0  0  0  0  0  0  0
  150.2718  140.3538  158.2921 H   0  0  0  0  0  0  0  0  0  0  0  0
  151.1921  142.1481  156.0251 H   0  0  0  0  0  0  0  0  0  0  0  0
  149.3717  143.4002  156.3623 H   0  0  0  0  0  0  0  0  0  0  0  0
  151.2448  144.7073  156.9091 H   0  0  0  0  0  0  0  0  0  0  0  0
  152.2949  146.0200  158.7640 H   0  0  0  0  0  0  0  0  0  0  0  0
  152.8594  144.8434  160.9099 H   0  0  0  0  0  0  0  0  0  0  0  0
  152.3425  142.3978  161.1047 H   0  0  0  0  0  0  0  0  0  0  0  0
  1  2  1  0  0  0  0
  1 17  1  0  0  0  0
  1 18  1  0  0  0  0
  1 19  1  0  0  0  0
  2  3  1  0  0  0  0
  2 20  1  0  0  0  0
  2 21  1  0  0  0  0
  3  4  1  0  0  0  0
  3 22  1  0  0  0  0
  3 23  1  0  0  0  0
  4  5  2  0  0  0  0
  4  6  2  0  0  0  0
  4  7  1  0  0  0  0
  7  8  1  0  0  0  0
  8  9  1  0  0  0  0
  8 24  1  0  0  0  0
  8 25  1  0  0  0  0
  9 10  1  0  0  0  0
  9 11  1  0  0  0  0
  9 26  1  0  0  0  0
 10 27  1  0  0  0  0
 11 16  1  0  0  0  0
 11 12  2  0  0  0  0
 12 13  1  0  0  0  0
 12 28  1  0  0  0  0
 13 14  2  0  0  0  0
 13 29  1  0  0  0  0
 14 15  1  0  0  0  0
 14 30  1  0  0  0  0
 15 16  2  0  0  0  0
 15 31  1  0  0  0  0
M  CHG  1   7  -1
M  END
> <s_m_source_file>
AV-unprocessed.smi

> <i_m_source_file_index>
3034

> <i_lp_mmshare_version>
43012

> <i_f3d_flags>
0

> <s_epik_input>
W0NIM11bQ0gyXVtDSDJdUyg9TykoPU8pW05IXVtDSDJdW0NASF0oW09IXSljMVtjSF1bY0hdW2NIXVtjSF1uMQ==

> <s_epik_cmdline>
J2VwaWtfcHl0aG9uJywgJy1waCcsICc3LjAnLCAnLXRuJywgJzgnLCAnLW1hJywgJzIwMCcsICctbWV0YWxfYmluZGluZycsICctaW1hZScsICc8aW5maWxlLm1hZT4nLCAnLW9tYWUnLCAnPG91dGZpbGUubWFlPic=

> <r_epik_Ionization_Penalty>
6.18156

> <r_epik_Ionization_Penalty_Charging>
6.17474

> <r_epik_Ionization_Penalty_Neutral>
0.0068235

> <r_epik_State_Penalty>
6.17598

> <r_epik_Charging_Adjusted_Penalty>
12.3507

> <i_epik_Tot_Q>
-1

> <i_epik_Tot_abs_Q>
1

> <r_epik_Metal_State_Penalty>
2.11803

> <b_epik_Metal_Only>
1

> <s_lp_Force_Field>
OPLS_2005

> <r_lp_Energy>
1.09161

> <b_lp_Chiralities_Consistent>
1

> <s_lp_Variant>
AV-unprocessed.smi:3034-4

> <Gold.Version>
5.8.1

> <Gold.Id.Protein>
6NUR|6NUR_protein|mol2

> <Gold.PLP.Fitness>
41.7604

> <Gold.PLP.PLP>
-34.3961

> <Gold.PLP.part.hbond>
-3.4866

> <Gold.PLP.part.metal>
0.0000

> <Gold.PLP.part.buried>
-5.8180

> <Gold.PLP.part.nonpolar>
-25.7471

> <Gold.PLP.part.repulsive>
0.1383

> <Gold.PLP.ligand.clash>
0.0000

> <Gold.PLP.ligand.torsion>
1.3480

> <Gold.PLP.Chemscore.Hbond>
3.0000

> <Gold.PLP.Chemscore.CHOScore>
0.0000

> <Gold.PLP.Chemscore.Metal>
0.0000

> <Gold.Chemscore.Hbonds>
donor molecule, donor type, donor heavy atom, donor atom, acceptor molecule, acceptor atom, score
      L1  H    10    27       P1  8028  1.00
      P1  H  7989  7998       L1     6  1.00
      P1  H  7997  8009       L1     5  1.00

> <Gold.PLP.Chemscore.Internal.Correction>
1.0604

> <Gold.Rescore>
     Score         DG    S(hbond)    S(metal)    S(lipo)     H(rot)  DE(clash)    DE(int)     intcor
     17.67     -19.07       2.87        0.00      84.18       2.29       0.07       1.33       ----

> <Gold.Chemscore.Fitness>
17.6711

> <Gold.Chemscore.DG>
-19.0654

> <Gold.Chemscore.ZeroCoef>
-5.4800

> <Gold.Chemscore.Hbond>
2.8735

> <Gold.Chemscore.Metal>
0.0000

> <Gold.Chemscore.Lipo>
84.1793

> <Gold.Chemscore.Internal_Hbond>
0.0000

> <Gold.Chemscore.DEClash>
0.0653

> <Gold.Chemscore.DEInternal>
1.3289

> <Gold.Chemscore.Rot>
2.2895

> <Gold.Chemscore.Internal.Correction>
   9.000000E+99

> <Gold.Chemscore.Hbonds>
donor molecule, donor type, donor heavy atom, donor atom, acceptor molecule, acceptor atom, score
      L1  H    10    27       P1  8028  0.94
      P1  H  7989  7998       L1     6  0.30
      P1  H  7997  8009       L1     5  0.99

> <Gold.Chemscore.Hbond.Weighted>
-9.5976

> <Gold.Chemscore.Metal.Weighted>
-0.0000

> <Gold.Chemscore.Lipo.Weighted>
-9.8490

> <Gold.Chemscore.Internal_Hbond.Weighted>
0.0000

> <Gold.Chemscore.DEClash.Weighted>
0.0653

> <Gold.Chemscore.DEInternal.Weighted>
1.3289

> <Gold.Chemscore.Rot.Weighted>
5.8612

> <Gold.Chemscore.Internal.Correction.Weighted>
   9.000000E+99

> <Gold.Protein.RotatedTorsions>
[ 6907 6896 6895 6894 ] final -144.95 input  -60.11 | X-H torsion
[ 7974 7965 7964 7962 ] final  -90.77 input  175.53 | X-H torsion
[ 8008 7997 7996 7995 ] final -125.67 input   59.86 | X-H torsion
[ 10167 10162 10161 10158 ] final -175.66 input  -65.29 | X-H torsion
[ 10718 10713 10712 10709 ] final   47.97 input   66.30 | X-H torsion
[ 10763 10752 10751 10750 ] final  -20.03 input  -60.55 | X-H torsion
[ 11005 11000 10999 10996 ] final -126.88 input  -57.11 | X-H torsion

> <Gold.Protein.ActiveResidues>
 VAL166  LYS551  ARG553  GLY616  TRP617  ASP618  TYR619  PRO620  LYS621  CYS622 
 ASP623  PHE694  ASN695  SER759  ASP760  ASP761  ALA762  ILE779  LEU786  VAL792 
 PHE793  MET794  SER795  GLU796  ALA797  LYS798  CYS799  TRP800  GLU811  SER814 

> <Gold.Protein.RotatedAtoms>
  151.1210  133.5104  159.2601 H   0  0  0  0  0  0  0  0  0  0  0  0  # atno 6907 bound_to 6896
  151.1861  135.0382  159.8823 H   0  0  0  0  0  0  0  0  0  0  0  0  # atno 6908 bound_to 6896
  152.5455  134.1056  159.8390 H   0  0  0  0  0  0  0  0  0  0  0  0  # atno 6909 bound_to 6896
  145.4221  140.9551  143.2175 H   0  0  0  0  0  0  0  0  0  0  0  0  # atno 7974 bound_to 7965
  155.2171  140.0421  157.2942 H   0  0  0  0  0  0  0  0  0  0  0  0  # atno 8008 bound_to 7997
  154.5974  140.2443  155.7809 H   0  0  0  0  0  0  0  0  0  0  0  0  # atno 8009 bound_to 7997
  156.2299  140.2942  156.0170 H   0  0  0  0  0  0  0  0  0  0  0  0  # atno 8010 bound_to 7997
  139.5569  144.1966  152.1174 H   0  0  0  0  0  0  0  0  0  0  0  0  # atno 10167 bound_to 10162
  157.4639  130.8213  149.7915 H   0  0  0  0  0  0  0  0  0  0  0  0  # atno 10718 bound_to 10713
  153.6140  135.6995  153.5336 H   0  0  0  0  0  0  0  0  0  0  0  0  # atno 10763 bound_to 10752
  153.2993  135.4134  155.1237 H   0  0  0  0  0  0  0  0  0  0  0  0  # atno 10764 bound_to 10752
  154.8557  135.3644  154.5679 H   0  0  0  0  0  0  0  0  0  0  0  0  # atno 10765 bound_to 10752
  140.9645  134.0891  157.3934 H   0  0  0  0  0  0  0  0  0  0  0  0  # atno 11005 bound_to 11000
  144.8238  139.5745  143.6974 LP  0  0  0  0  0  0  0  0  0  0  0  0  # atno 17320 bound_to 7965
  146.2651  139.6501  142.9335 LP  0  0  0  0  0  0  0  0  0  0  0  0  # atno 17321 bound_to 7965
  140.1472  144.5148  150.6708 LP  0  0  0  0  0  0  0  0  0  0  0  0  # atno 17342 bound_to 10162
  140.6843  143.2342  151.5301 LP  0  0  0  0  0  0  0  0  0  0  0  0  # atno 17343 bound_to 10162
  156.0041  130.3864  150.2495 LP  0  0  0  0  0  0  0  0  0  0  0  0  # atno 17370 bound_to 10713
  157.0674  131.0107  151.3202 LP  0  0  0  0  0  0  0  0  0  0  0  0  # atno 17371 bound_to 10713
  139.8889  135.0101  156.6651 LP  0  0  0  0  0  0  0  0  0  0  0  0  # atno 17394 bound_to 11000
  140.7419  133.8970  155.8284 LP  0  0  0  0  0  0  0  0  0  0  0  0  # atno 17395 bound_to 11000

$$$$
