AV-unprocessed.smi:2705|AV-procd|sdf|10443|dock10
  -GOLD-   2272014483D 1   1.00000     0.00000
 Structure written by MMmdl.
 36 37  0  0  0  0  0  0  0  0  1 V2000
  152.1591  145.2191  157.3877 C   0  0  0  0  0  0  0  0  0  0  0  0
  151.5583  144.1742  158.3565 C   0  0  0  0  0  0  0  0  0  0  0  0
  150.4166  143.5102  157.7120 N   0  0  0  0  0  0  0  0  0  0  0  0
  149.3746  142.8808  158.2855 C   0  0  0  0  0  0  0  0  0  0  0  0
  149.1979  142.8018  159.5004 O   0  0  0  0  0  0  0  0  0  0  0  0
  148.3829  142.2194  157.3298 C   0  0  0  0  0  0  0  0  0  0  0  0
  149.0702  141.3280  156.4138 N   0  0  0  0  0  0  0  0  0  0  0  0
  149.8059  141.5803  155.3286 C   0  0  0  0  0  0  0  0  0  0  0  0
  150.2655  140.4668  154.7791 N   0  0  0  0  0  0  0  0  0  0  0  0
  149.7597  139.4769  155.6051 N   0  0  0  0  0  0  0  0  0  0  0  0
  149.0500  139.9818  156.5768 N   0  0  0  0  0  0  0  0  0  0  0  0
  152.6289  143.0792  158.5977 C   0  0  0  0  0  0  0  0  0  0  0  0
  152.3813  142.1483  159.7988 C   0  0  0  0  0  0  0  0  0  0  0  0
  153.0166  142.6795  161.0956 C   0  0  0  0  0  0  0  0  0  0  0  0
  152.3174  143.9060  161.7012 C   0  0  0  0  0  0  0  0  0  0  0  0
  152.1613  145.1011  160.7435 C   0  0  0  0  0  0  0  0  0  0  0  0
  151.0844  144.8628  159.6693 C   0  0  0  0  0  0  0  0  0  0  0  0
  153.0457  145.6893  157.8136 H   0  0  0  0  0  0  0  0  0  0  0  0
  151.4583  146.0208  157.1550 H   0  0  0  0  0  0  0  0  0  0  0  0
  152.4557  144.7602  156.4437 H   0  0  0  0  0  0  0  0  0  0  0  0
  150.4390  143.5077  156.7026 H   0  0  0  0  0  0  0  0  0  0  0  0
  147.6371  141.6573  157.8943 H   0  0  0  0  0  0  0  0  0  0  0  0
  147.8493  142.9758  156.7527 H   0  0  0  0  0  0  0  0  0  0  0  0
  150.0079  142.5712  154.9491 H   0  0  0  0  0  0  0  0  0  0  0  0
  152.7115  142.4686  157.6969 H   0  0  0  0  0  0  0  0  0  0  0  0
  153.6143  143.5346  158.7054 H   0  0  0  0  0  0  0  0  0  0  0  0
  151.3184  141.9448  159.9338 H   0  0  0  0  0  0  0  0  0  0  0  0
  152.8420  141.1847  159.5782 H   0  0  0  0  0  0  0  0  0  0  0  0
  153.0123  141.8823  161.8396 H   0  0  0  0  0  0  0  0  0  0  0  0
  154.0683  142.9092  160.9202 H   0  0  0  0  0  0  0  0  0  0  0  0
  151.3400  143.6153  162.0878 H   0  0  0  0  0  0  0  0  0  0  0  0
  152.8910  144.2285  162.5709 H   0  0  0  0  0  0  0  0  0  0  0  0
  151.8528  145.9595  161.3410 H   0  0  0  0  0  0  0  0  0  0  0  0
  153.1165  145.3804  160.2982 H   0  0  0  0  0  0  0  0  0  0  0  0
  150.6385  145.8263  159.4187 H   0  0  0  0  0  0  0  0  0  0  0  0
  150.2699  144.2932  160.1200 H   0  0  0  0  0  0  0  0  0  0  0  0
  1  2  1  0  0  0  0
  1 18  1  0  0  0  0
  1 19  1  0  0  0  0
  1 20  1  0  0  0  0
  2 17  1  0  0  0  0
  2  3  1  0  0  0  0
  2 12  1  0  0  0  0
  3  4  1  0  0  0  0
  3 21  1  0  0  0  0
  4  5  2  0  0  0  0
  4  6  1  0  0  0  0
  6  7  1  0  0  0  0
  6 22  1  0  0  0  0
  6 23  1  0  0  0  0
  7 11  1  0  0  0  0
  7  8  1  0  0  0  0
  8  9  2  0  0  0  0
  8 24  1  0  0  0  0
  9 10  1  0  0  0  0
 10 11  2  0  0  0  0
 12 13  1  0  0  0  0
 12 25  1  0  0  0  0
 12 26  1  0  0  0  0
 13 14  1  0  0  0  0
 13 27  1  0  0  0  0
 13 28  1  0  0  0  0
 14 15  1  0  0  0  0
 14 29  1  0  0  0  0
 14 30  1  0  0  0  0
 15 16  1  0  0  0  0
 15 31  1  0  0  0  0
 15 32  1  0  0  0  0
 16 17  1  0  0  0  0
 16 33  1  0  0  0  0
 16 34  1  0  0  0  0
 17 35  1  0  0  0  0
 17 36  1  0  0  0  0
M  END
> <s_m_source_file>
AV-unprocessed.smi

> <i_m_source_file_index>
2705

> <i_lp_mmshare_version>
43012

> <i_f3d_flags>
0

> <s_epik_input>
W0NIMl0xW0NIMl1bQ0gyXVtDSDJdW0NIMl1bQ0gyXUMxKFtDSDNdKVtOSF1DKD1PKVtDSDJdbjJbY0hdbm5uMg==

> <s_epik_cmdline>
J2VwaWtfcHl0aG9uJywgJy1waCcsICc3LjAnLCAnLXRuJywgJzgnLCAnLW1hJywgJzIwMCcsICctbWV0YWxfYmluZGluZycsICctaW1hZScsICc8aW5maWxlLm1hZT4nLCAnLW9tYWUnLCAnPG91dGZpbGUubWFlPic=

> <r_lp_tautomer_probability>
1

> <r_epik_Ionization_Penalty>
4.39395e-07

> <r_epik_Ionization_Penalty_Charging>
0

> <r_epik_Ionization_Penalty_Neutral>
4.39395e-07

> <r_epik_State_Penalty>
-0

> <r_epik_Charging_Adjusted_Penalty>
0

> <i_epik_Tot_Q>
0

> <i_epik_Tot_abs_Q>
0

> <r_epik_Metal_State_Penalty>
-0

> <b_epik_Metal_Only>
0

> <s_lp_Force_Field>
OPLS_2005

> <r_lp_Energy>
20.5987

> <b_lp_Chiralities_Consistent>
1

> <s_lp_Variant>
AV-unprocessed.smi:2705-1

> <Gold.Version>
5.8.1

> <Gold.Id.Protein>
6NUR|6NUR_protein|mol2

> <Gold.PLP.Fitness>
39.0153

> <Gold.PLP.PLP>
-33.8180

> <Gold.PLP.part.hbond>
-3.0000

> <Gold.PLP.part.metal>
0.0000

> <Gold.PLP.part.buried>
-3.5284

> <Gold.PLP.part.nonpolar>
-27.6020

> <Gold.PLP.part.repulsive>
0.2204

> <Gold.PLP.ligand.clash>
0.0000

> <Gold.PLP.ligand.torsion>
0.7830

> <Gold.PLP.Chemscore.Hbond>
1.3032

> <Gold.PLP.Chemscore.CHOScore>
0.9486

> <Gold.PLP.Chemscore.Metal>
0.0000

> <Gold.Chemscore.Hbonds>
donor molecule, donor type, donor heavy atom, donor atom, acceptor molecule, acceptor atom, score
      L1  H     3    21       P1  8028  0.18
      P1  H  6933  6944       L1     5  0.13
      P1  H  7989  7998       L1     9  0.99
      L1  C     8    24       P1  8028  0.95

> <Gold.PLP.Chemscore.Internal.Correction>
0.0077

> <Gold.Rescore>
     Score         DG    S(hbond)    S(metal)    S(lipo)     H(rot)  DE(clash)    DE(int)     intcor
     12.69     -16.88       1.41        0.00      98.77       1.91       2.22       1.97       ----

> <Gold.Chemscore.Fitness>
12.6910

> <Gold.Chemscore.DG>
-16.8773

> <Gold.Chemscore.ZeroCoef>
-5.4800

> <Gold.Chemscore.Hbond>
1.4132

> <Gold.Chemscore.Metal>
0.0000

> <Gold.Chemscore.Lipo>
98.7689

> <Gold.Chemscore.Internal_Hbond>
0.0000

> <Gold.Chemscore.DEClash>
2.2205

> <Gold.Chemscore.DEInternal>
1.9658

> <Gold.Chemscore.Rot>
1.9058

> <Gold.Chemscore.Internal.Correction>
   9.000000E+99

> <Gold.Chemscore.Hbonds>
donor molecule, donor type, donor heavy atom, donor atom, acceptor molecule, acceptor atom, score
      L1  H     3    21       P1  8028  0.18
      P1  H  6933  6944       L1     5  0.13
      P1  H  7989  7998       L1     9  0.69

> <Gold.Chemscore.Hbond.Weighted>
-4.7202

> <Gold.Chemscore.Metal.Weighted>
-0.0000

> <Gold.Chemscore.Lipo.Weighted>
-11.5560

> <Gold.Chemscore.Internal_Hbond.Weighted>
0.0000

> <Gold.Chemscore.DEClash.Weighted>
2.2205

> <Gold.Chemscore.DEInternal.Weighted>
1.9658

> <Gold.Chemscore.Rot.Weighted>
4.8788

> <Gold.Chemscore.Internal.Correction.Weighted>
   9.000000E+99

> <Gold.Protein.RotatedTorsions>
[ 6907 6896 6895 6894 ] final  103.07 input  -60.11 | X-H torsion
[ 7974 7965 7964 7962 ] final  119.27 input  175.53 | X-H torsion
[ 8008 7997 7996 7995 ] final  155.78 input   59.86 | X-H torsion
[ 10167 10162 10161 10158 ] final  103.59 input  -65.29 | X-H torsion
[ 10718 10713 10712 10709 ] final  135.24 input   66.30 | X-H torsion
[ 10763 10752 10751 10750 ] final  -70.65 input  -60.55 | X-H torsion
[ 11005 11000 10999 10996 ] final   77.35 input  -57.11 | X-H torsion

> <Gold.Protein.ActiveResidues>
 VAL166  LYS551  ARG553  GLY616  TRP617  ASP618  TYR619  PRO620  LYS621  CYS622 
 ASP623  PHE694  ASN695  SER759  ASP760  ASP761  ALA762  ILE779  LEU786  VAL792 
 PHE793  MET794  SER795  GLU796  ALA797  LYS798  CYS799  TRP800  GLU811  SER814 

> <Gold.Protein.RotatedAtoms>
  152.5306  133.9881  159.7837 H   0  0  0  0  0  0  0  0  0  0  0  0  # atno 6907 bound_to 6896
  151.0122  133.5946  159.2688 H   0  0  0  0  0  0  0  0  0  0  0  0  # atno 6908 bound_to 6896
  151.3017  135.0777  159.9294 H   0  0  0  0  0  0  0  0  0  0  0  0  # atno 6909 bound_to 6896
  145.1452  139.3244  143.4595 H   0  0  0  0  0  0  0  0  0  0  0  0  # atno 7974 bound_to 7965
  156.2459  140.1930  156.6854 H   0  0  0  0  0  0  0  0  0  0  0  0  # atno 8008 bound_to 7997
  154.6291  140.0598  156.9736 H   0  0  0  0  0  0  0  0  0  0  0  0  # atno 8009 bound_to 7997
  155.1739  140.3270  155.4390 H   0  0  0  0  0  0  0  0  0  0  0  0  # atno 8010 bound_to 7997
  139.7249  144.7049  151.0813 H   0  0  0  0  0  0  0  0  0  0  0  0  # atno 10167 bound_to 10162
  157.4591  131.1072  150.9942 H   0  0  0  0  0  0  0  0  0  0  0  0  # atno 10718 bound_to 10713
  154.4207  135.5987  153.6008 H   0  0  0  0  0  0  0  0  0  0  0  0  # atno 10763 bound_to 10752
  152.9794  135.5951  154.3958 H   0  0  0  0  0  0  0  0  0  0  0  0  # atno 10764 bound_to 10752
  154.3783  135.2841  155.2204 H   0  0  0  0  0  0  0  0  0  0  0  0  # atno 10765 bound_to 10752
  139.9258  134.7676  156.1511 H   0  0  0  0  0  0  0  0  0  0  0  0  # atno 11005 bound_to 11000
  146.3501  140.1504  142.8592 LP  0  0  0  0  0  0  0  0  0  0  0  0  # atno 17320 bound_to 7965
  145.0490  140.9003  143.5007 LP  0  0  0  0  0  0  0  0  0  0  0  0  # atno 17321 bound_to 7965
  140.7761  143.5117  150.9644 LP  0  0  0  0  0  0  0  0  0  0  0  0  # atno 17342 bound_to 10162
  139.8805  143.7078  152.3157 LP  0  0  0  0  0  0  0  0  0  0  0  0  # atno 17343 bound_to 10162
  157.0745  130.5878  149.5409 LP  0  0  0  0  0  0  0  0  0  0  0  0  # atno 17370 bound_to 10713
  156.0020  130.5101  150.7698 LP  0  0  0  0  0  0  0  0  0  0  0  0  # atno 17371 bound_to 10713
  141.0814  133.6752  156.2345 LP  0  0  0  0  0  0  0  0  0  0  0  0  # atno 17394 bound_to 11000
  140.6340  134.5234  157.5562 LP  0  0  0  0  0  0  0  0  0  0  0  0  # atno 17395 bound_to 11000

$$$$
