AV-unprocessed.smi:2190|AV-procd|sdf|8891|dock4
  -GOLD-   2272012 93D 1   1.00000     0.00000
 Structure written by MMmdl.
 47 49  0  0  0  0  0  0  0  0  2 V2000
  152.4049  145.1742  158.8373 C   0  0  0  0  0  0  0  0  0  0  0  0
  152.3116  143.6640  158.7614 C   0  0  0  0  0  0  0  0  0  0  0  0
  152.9409  142.8640  159.7342 C   0  0  0  0  0  0  0  0  0  0  0  0
  152.8518  141.4627  159.6554 C   0  0  0  0  0  0  0  0  0  0  0  0
  152.1353  140.8527  158.6050 C   0  0  0  0  0  0  0  0  0  0  0  0
  152.0509  139.3395  158.5358 C   0  0  0  0  0  0  0  0  0  0  0  0
  151.4990  141.6443  157.6205 C   0  0  0  0  0  0  0  0  0  0  0  0
  150.8146  140.9851  156.6198 O   0  0  0  0  0  0  0  0  0  0  0  0
  150.1358  141.7580  155.6389 C   0  0  0  0  0  0  0  0  0  0  0  0
  149.3587  140.8100  154.7124 C   0  0  1  0  0  0  0  0  0  0  0  0
  149.1148  141.4787  153.4906 O   0  0  0  0  0  0  0  0  0  0  0  0
  150.1436  139.5131  154.4323 C   0  0  0  0  0  0  0  0  0  0  0  0
  149.3211  138.3007  154.5854 N   0  0  0  0  0  0  0  0  0  0  0  0
  148.0525  138.0395  154.1550 C   0  0  0  0  0  0  0  0  0  0  0  0
  147.1559  138.9516  153.3839 C   0  0  0  0  0  0  0  0  0  0  0  0
  147.3713  138.8630  151.9931 O   0  0  0  0  0  0  0  0  0  0  0  0
  147.7462  136.7707  154.5461 N   0  3  0  0  0  0  0  0  0  0  0  0
  148.8264  136.2125  155.2299 C   0  0  0  0  0  0  0  0  0  0  0  0
  148.9853  134.9573  155.8093 C   0  0  0  0  0  0  0  0  0  0  0  0
  150.2252  134.6991  156.4291 C   0  0  0  0  0  0  0  0  0  0  0  0
  151.2487  135.6683  156.4545 C   0  0  0  0  0  0  0  0  0  0  0  0
  151.0749  136.9378  155.8650 C   0  0  0  0  0  0  0  0  0  0  0  0
  149.8446  137.1878  155.2566 C   0  0  0  0  0  0  0  0  0  0  0  0
  151.5962  143.0567  157.7099 C   0  0  0  0  0  0  0  0  0  0  0  0
  152.7511  145.5010  159.8184 H   0  0  0  0  0  0  0  0  0  0  0  0
  151.4301  145.6273  158.6548 H   0  0  0  0  0  0  0  0  0  0  0  0
  153.1028  145.5455  158.0867 H   0  0  0  0  0  0  0  0  0  0  0  0
  153.4937  143.3204  160.5422 H   0  0  0  0  0  0  0  0  0  0  0  0
  153.3376  140.8574  160.4068 H   0  0  0  0  0  0  0  0  0  0  0  0
  151.0104  139.0159  158.5758 H   0  0  0  0  0  0  0  0  0  0  0  0
  152.5831  138.8710  159.3642 H   0  0  0  0  0  0  0  0  0  0  0  0
  152.4884  138.9779  157.6050 H   0  0  0  0  0  0  0  0  0  0  0  0
  149.4656  142.4905  156.0928 H   0  0  0  0  0  0  0  0  0  0  0  0
  150.8806  142.3020  155.0555 H   0  0  0  0  0  0  0  0  0  0  0  0
  148.4030  140.5535  155.1710 H   0  0  0  0  0  0  0  0  0  0  0  0
  148.2190  141.3162  153.2364 H   0  0  0  0  0  0  0  0  0  0  0  0
  150.5876  139.5288  153.4372 H   0  0  0  0  0  0  0  0  0  0  0  0
  150.9792  139.4265  155.1271 H   0  0  0  0  0  0  0  0  0  0  0  0
  146.1165  138.7021  153.5982 H   0  0  0  0  0  0  0  0  0  0  0  0
  147.3085  139.9816  153.7052 H   0  0  0  0  0  0  0  0  0  0  0  0
  148.2702  139.0929  151.8120 H   0  0  0  0  0  0  0  0  0  0  0  0
  148.2040  134.2119  155.7875 H   0  0  0  0  0  0  0  0  0  0  0  0
  150.3956  133.7374  156.8915 H   0  0  0  0  0  0  0  0  0  0  0  0
  152.1878  135.4335  156.9343 H   0  0  0  0  0  0  0  0  0  0  0  0
  151.8701  137.6680  155.8856 H   0  0  0  0  0  0  0  0  0  0  0  0
  151.1289  143.6991  156.9794 H   0  0  0  0  0  0  0  0  0  0  0  0
  146.8619  136.3192  154.3509 H   0  0  0  0  0  0  0  0  0  0  0  0
  1  2  1  0  0  0  0
  1 25  1  0  0  0  0
  1 26  1  0  0  0  0
  1 27  1  0  0  0  0
  2 24  1  0  0  0  0
  2  3  2  0  0  0  0
  3  4  1  0  0  0  0
  3 28  1  0  0  0  0
  4  5  2  0  0  0  0
  4 29  1  0  0  0  0
  5  6  1  0  0  0  0
  5  7  1  0  0  0  0
  6 30  1  0  0  0  0
  6 31  1  0  0  0  0
  6 32  1  0  0  0  0
  7  8  1  0  0  0  0
  7 24  2  0  0  0  0
  8  9  1  0  0  0  0
  9 10  1  0  0  0  0
  9 33  1  0  0  0  0
  9 34  1  0  0  0  0
 10 11  1  0  0  0  0
 10 12  1  0  0  0  0
 10 35  1  0  0  0  0
 11 36  1  0  0  0  0
 12 13  1  0  0  0  0
 12 37  1  0  0  0  0
 12 38  1  0  0  0  0
 13 23  1  0  0  0  0
 13 14  1  0  0  0  0
 14 15  1  0  0  0  0
 14 17  2  0  0  0  0
 15 16  1  0  0  0  0
 15 39  1  0  0  0  0
 15 40  1  0  0  0  0
 16 41  1  0  0  0  0
 17 18  1  0  0  0  0
 17 47  1  0  0  0  0
 18 23  2  0  0  0  0
 18 19  1  0  0  0  0
 19 20  2  0  0  0  0
 19 42  1  0  0  0  0
 20 21  1  0  0  0  0
 20 43  1  0  0  0  0
 21 22  2  0  0  0  0
 21 44  1  0  0  0  0
 22 23  1  0  0  0  0
 22 45  1  0  0  0  0
 24 46  1  0  0  0  0
M  CHG  1  17   1
M  END
> <s_m_source_file>
AV-unprocessed.smi

> <i_m_source_file_index>
2190

> <i_lp_mmshare_version>
43012

> <i_f3d_flags>
0

> <s_epik_input>
W0NIM11jMVtjSF1bY0hdYyhbQ0gzXSljKFtjSF0xKU9bQ0gyXVtDQEhdKFtPSF0pW0NIMl1uKGMobjIpW0NIMl1bT0hdKWMoYzIzKVtjSF1bY0hdW2NIXVtjSF0z

> <s_epik_cmdline>
J2VwaWtfcHl0aG9uJywgJy1waCcsICc3LjAnLCAnLXRuJywgJzgnLCAnLW1hJywgJzIwMCcsICctbWV0YWxfYmluZGluZycsICctaW1hZScsICc8aW5maWxlLm1hZT4nLCAnLW9tYWUnLCAnPG91dGZpbGUubWFlPic=

> <r_lp_tautomer_probability>
1

> <r_epik_Ionization_Penalty>
1.43125

> <r_epik_Ionization_Penalty_Charging>
1.43039

> <r_epik_Ionization_Penalty_Neutral>
0.000858184

> <r_epik_State_Penalty>
1.51493

> <r_epik_Charging_Adjusted_Penalty>
2.94531

> <i_epik_Tot_Q>
1

> <i_epik_Tot_abs_Q>
1

> <r_epik_Metal_State_Penalty>
5.5599

> <b_epik_Metal_Only>
0

> <s_lp_Force_Field>
OPLS_2005

> <r_lp_Energy>
19.5123

> <b_lp_Chiralities_Consistent>
1

> <s_lp_Variant>
AV-unprocessed.smi:2190-4

> <Gold.Version>
5.8.1

> <Gold.Id.Protein>
6NUR|6NUR_protein|mol2

> <Gold.PLP.Fitness>
50.9828

> <Gold.PLP.PLP>
-48.0142

> <Gold.PLP.part.hbond>
-6.4701

> <Gold.PLP.part.metal>
0.0000

> <Gold.PLP.part.buried>
-2.5310

> <Gold.PLP.part.nonpolar>
-38.6061

> <Gold.PLP.part.repulsive>
0.0334

> <Gold.PLP.ligand.clash>
0.0000

> <Gold.PLP.ligand.torsion>
1.4711

> <Gold.PLP.Chemscore.Hbond>
1.9440

> <Gold.PLP.Chemscore.CHOScore>
0.0000

> <Gold.PLP.Chemscore.Metal>
0.0000

> <Gold.Chemscore.Hbonds>
donor molecule, donor type, donor heavy atom, donor atom, acceptor molecule, acceptor atom, score
      L1  H    16    41       P1  7957  1.00
      P1  H  8011  8017       L1    11  0.86

> <Gold.PLP.Chemscore.Internal.Correction>
0.0789

> <Gold.Rescore>
     Score         DG    S(hbond)    S(metal)    S(lipo)     H(rot)  DE(clash)    DE(int)     intcor
     16.62     -18.82       1.73        0.00     131.42       3.05       0.71       1.50       ----

> <Gold.Chemscore.Fitness>
16.6185

> <Gold.Chemscore.DG>
-18.8247

> <Gold.Chemscore.ZeroCoef>
-5.4800

> <Gold.Chemscore.Hbond>
1.7275

> <Gold.Chemscore.Metal>
0.0000

> <Gold.Chemscore.Lipo>
131.4239

> <Gold.Chemscore.Internal_Hbond>
0.0000

> <Gold.Chemscore.DEClash>
0.7097

> <Gold.Chemscore.DEInternal>
1.4965

> <Gold.Chemscore.Rot>
3.0476

> <Gold.Chemscore.Internal.Correction>
   9.000000E+99

> <Gold.Chemscore.Hbonds>
donor molecule, donor type, donor heavy atom, donor atom, acceptor molecule, acceptor atom, score
      L1  H    16    41       P1  7957  0.95
      P1  H  8011  8017       L1    11  0.51

> <Gold.Chemscore.Hbond.Weighted>
-5.7699

> <Gold.Chemscore.Metal.Weighted>
-0.0000

> <Gold.Chemscore.Lipo.Weighted>
-15.3766

> <Gold.Chemscore.Internal_Hbond.Weighted>
0.0000

> <Gold.Chemscore.DEClash.Weighted>
0.7097

> <Gold.Chemscore.DEInternal.Weighted>
1.4965

> <Gold.Chemscore.Rot.Weighted>
7.8018

> <Gold.Chemscore.Internal.Correction.Weighted>
   9.000000E+99

> <Gold.Protein.RotatedTorsions>
[ 6907 6896 6895 6894 ] final  -13.67 input  -60.11 | X-H torsion
[ 7974 7965 7964 7962 ] final  156.31 input  175.53 | X-H torsion
[ 8008 7997 7996 7995 ] final   88.82 input   59.86 | X-H torsion
[ 10167 10162 10161 10158 ] final  -90.56 input  -65.29 | X-H torsion
[ 10718 10713 10712 10709 ] final   43.12 input   66.30 | X-H torsion
[ 10763 10752 10751 10750 ] final  141.52 input  -60.55 | X-H torsion
[ 11005 11000 10999 10996 ] final -118.92 input  -57.11 | X-H torsion

> <Gold.Protein.ActiveResidues>
 VAL166  LYS551  ARG553  GLY616  TRP617  ASP618  TYR619  PRO620  LYS621  CYS622 
 ASP623  PHE694  ASN695  SER759  ASP760  ASP761  ALA762  ILE779  LEU786  VAL792 
 PHE793  MET794  SER795  GLU796  ALA797  LYS798  CYS799  TRP800  GLU811  SER814 

> <Gold.Protein.RotatedAtoms>
  151.3513  135.0885  159.9403 H   0  0  0  0  0  0  0  0  0  0  0  0  # atno 6907 bound_to 6896
  152.5186  133.9350  159.7609 H   0  0  0  0  0  0  0  0  0  0  0  0  # atno 6908 bound_to 6896
  150.9726  133.6274  159.2765 H   0  0  0  0  0  0  0  0  0  0  0  0  # atno 6909 bound_to 6896
  144.7970  139.7187  143.6197 H   0  0  0  0  0  0  0  0  0  0  0  0  # atno 7974 bound_to 7965
  155.9924  140.3367  155.6766 H   0  0  0  0  0  0  0  0  0  0  0  0  # atno 8008 bound_to 7997
  155.6402  140.0694  157.2639 H   0  0  0  0  0  0  0  0  0  0  0  0  # atno 8009 bound_to 7997
  154.4223  140.1744  156.1552 H   0  0  0  0  0  0  0  0  0  0  0  0  # atno 8010 bound_to 7997
  140.3536  143.2878  151.9697 H   0  0  0  0  0  0  0  0  0  0  0  0  # atno 10167 bound_to 10162
  157.4124  130.7922  149.7442 H   0  0  0  0  0  0  0  0  0  0  0  0  # atno 10718 bound_to 10713
  153.9406  135.2980  155.3443 H   0  0  0  0  0  0  0  0  0  0  0  0  # atno 10763 bound_to 10752
  154.7479  135.4994  153.9240 H   0  0  0  0  0  0  0  0  0  0  0  0  # atno 10764 bound_to 10752
  153.1044  135.6743  153.9719 H   0  0  0  0  0  0  0  0  0  0  0  0  # atno 10765 bound_to 10752
  141.0252  134.0064  157.3225 H   0  0  0  0  0  0  0  0  0  0  0  0  # atno 11005 bound_to 11000
  146.2242  139.5691  142.9598 LP  0  0  0  0  0  0  0  0  0  0  0  0  # atno 17320 bound_to 7965
  145.5647  141.0400  143.2207 LP  0  0  0  0  0  0  0  0  0  0  0  0  # atno 17321 bound_to 7965
  139.4823  144.6054  151.7531 LP  0  0  0  0  0  0  0  0  0  0  0  0  # atno 17342 bound_to 10162
  140.5195  144.0901  150.6018 LP  0  0  0  0  0  0  0  0  0  0  0  0  # atno 17343 bound_to 10162
  155.9854  130.3983  150.3260 LP  0  0  0  0  0  0  0  0  0  0  0  0  # atno 17370 bound_to 10713
  157.1400  131.0294  151.2932 LP  0  0  0  0  0  0  0  0  0  0  0  0  # atno 17371 bound_to 10713
  139.9171  135.0198  156.7924 LP  0  0  0  0  0  0  0  0  0  0  0  0  # atno 17394 bound_to 11000
  140.6503  133.9737  155.7752 LP  0  0  0  0  0  0  0  0  0  0  0  0  # atno 17395 bound_to 11000

$$$$
