AV-unprocessed.smi:232|AV-procd|sdf|1779|dock10
  -GOLD-   2262020323D 1   1.00000     0.00000
 Structure written by MMmdl.
 52 55  0  0  0  0  0  0  0  0  1 V2000
  151.8773  144.9447  158.9291 C   0  0  0  0  0  0  0  0  0  0  0  0
  151.5898  144.0762  157.6969 C   0  0  0  0  0  0  0  0  0  0  0  0
  151.1402  142.6465  158.0490 C   0  0  2  0  0  0  0  0  0  0  0  0
  151.9151  142.0436  159.2346 C   0  0  0  0  0  0  0  0  0  0  0  0
  152.0701  140.5719  158.8649 C   0  0  0  0  0  0  0  0  0  0  0  0
  152.2405  140.6618  157.3520 C   0  0  1  0  0  0  0  0  0  0  0  0
  152.1398  139.3146  156.6087 C   0  0  0  0  0  0  0  0  0  0  0  0
  151.3180  141.7169  156.9264 N   0  0  0  0  0  0  0  0  0  0  0  0
  150.1907  141.3457  156.2727 C   0  0  0  0  0  0  0  0  0  0  0  0
  150.2542  140.8569  155.0055 N   0  0  0  0  0  0  0  0  0  0  0  0
  149.1331  140.4999  154.3709 C   0  0  0  0  0  0  0  0  0  0  0  0
  147.8724  140.5529  154.8078 N   0  0  0  0  0  0  0  0  0  0  0  0
  147.8091  141.0536  156.0750 C   0  0  0  0  0  0  0  0  0  0  0  0
  148.9104  141.4743  156.8706 C   0  0  0  0  0  0  0  0  0  0  0  0
  148.4636  141.9309  158.1039 N   0  0  0  0  0  0  0  0  0  0  0  0
  147.1679  141.7827  158.0435 C   0  0  0  0  0  0  0  0  0  0  0  0
  146.6914  141.2580  156.8632 N   0  0  0  0  0  0  0  0  0  0  0  0
  145.3070  140.9759  156.5299 C   0  0  0  0  0  0  0  0  0  0  0  0
  144.7572  141.9406  155.4616 C   0  0  1  0  0  0  0  0  0  0  0  0
  143.4293  141.5955  155.1143 O   0  0  0  0  0  0  0  0  0  0  0  0
  144.8345  143.4188  155.8926 C   0  0  1  0  0  0  0  0  0  0  0  0
  144.2132  144.4403  154.9360 C   0  0  0  0  0  0  0  0  0  0  0  0
  143.9294  145.5901  155.8762 C   0  0  0  0  0  0  0  0  0  0  0  0
  143.4847  144.8564  157.1388 C   0  0  0  0  0  0  0  0  0  0  0  0
  144.2201  143.6357  157.1610 O   0  0  0  0  0  0  0  0  0  0  0  0
  152.2512  145.9249  158.6329 H   0  0  0  0  0  0  0  0  0  0  0  0
  152.6283  144.4823  159.5700 H   0  0  0  0  0  0  0  0  0  0  0  0
  150.9785  145.1023  159.5251 H   0  0  0  0  0  0  0  0  0  0  0  0
  150.8389  144.5613  157.0720 H   0  0  0  0  0  0  0  0  0  0  0  0
  152.4986  144.0229  157.0963 H   0  0  0  0  0  0  0  0  0  0  0  0
  150.0910  142.6928  158.3422 H   0  0  0  0  0  0  0  0  0  0  0  0
  152.9035  142.4989  159.3147 H   0  0  0  0  0  0  0  0  0  0  0  0
  151.4054  142.1880  160.1875 H   0  0  0  0  0  0  0  0  0  0  0  0
  152.9157  140.0959  159.3617 H   0  0  0  0  0  0  0  0  0  0  0  0
  151.1644  140.0188  159.1182 H   0  0  0  0  0  0  0  0  0  0  0  0
  153.2386  141.0550  157.1534 H   0  0  0  0  0  0  0  0  0  0  0  0
  152.9128  138.6282  156.9545 H   0  0  0  0  0  0  0  0  0  0  0  0
  152.2757  139.4444  155.5346 H   0  0  0  0  0  0  0  0  0  0  0  0
  151.1777  138.8278  156.7723 H   0  0  0  0  0  0  0  0  0  0  0  0
  149.2655  140.1157  153.3702 H   0  0  0  0  0  0  0  0  0  0  0  0
  146.5201  142.0472  158.8665 H   0  0  0  0  0  0  0  0  0  0  0  0
  145.2345  139.9421  156.1896 H   0  0  0  0  0  0  0  0  0  0  0  0
  144.7152  141.0467  157.4434 H   0  0  0  0  0  0  0  0  0  0  0  0
  145.3536  141.8264  154.5553 H   0  0  0  0  0  0  0  0  0  0  0  0
  143.4374  141.2195  154.2473 H   0  0  0  0  0  0  0  0  0  0  0  0
  145.8856  143.6831  156.0220 H   0  0  0  0  0  0  0  0  0  0  0  0
  144.8769  144.7115  154.1145 H   0  0  0  0  0  0  0  0  0  0  0  0
  143.2764  144.0782  154.5113 H   0  0  0  0  0  0  0  0  0  0  0  0
  144.8446  146.1517  156.0692 H   0  0  0  0  0  0  0  0  0  0  0  0
  143.1763  146.2808  155.4961 H   0  0  0  0  0  0  0  0  0  0  0  0
  143.6535  145.4410  158.0432 H   0  0  0  0  0  0  0  0  0  0  0  0
  142.4220  144.6176  157.0829 H   0  0  0  0  0  0  0  0  0  0  0  0
  1  2  1  0  0  0  0
  1 26  1  0  0  0  0
  1 27  1  0  0  0  0
  1 28  1  0  0  0  0
  2  3  1  0  0  0  0
  2 29  1  0  0  0  0
  2 30  1  0  0  0  0
  3  8  1  0  0  0  0
  3  4  1  0  0  0  0
  3 31  1  0  0  0  0
  4  5  1  0  0  0  0
  4 32  1  0  0  0  0
  4 33  1  0  0  0  0
  5  6  1  0  0  0  0
  5 34  1  0  0  0  0
  5 35  1  0  0  0  0
  6  7  1  0  0  0  0
  6  8  1  0  0  0  0
  6 36  1  0  0  0  0
  7 37  1  0  0  0  0
  7 38  1  0  0  0  0
  7 39  1  0  0  0  0
  8  9  1  0  0  0  0
  9 14  1  0  0  0  0
  9 10  2  0  0  0  0
 10 11  1  0  0  0  0
 11 12  2  0  0  0  0
 11 40  1  0  0  0  0
 12 13  1  0  0  0  0
 13 17  1  0  0  0  0
 13 14  2  0  0  0  0
 14 15  1  0  0  0  0
 15 16  2  0  0  0  0
 16 17  1  0  0  0  0
 16 41  1  0  0  0  0
 17 18  1  0  0  0  0
 18 19  1  0  0  0  0
 18 42  1  0  0  0  0
 18 43  1  0  0  0  0
 19 20  1  0  0  0  0
 19 21  1  0  0  0  0
 19 44  1  0  0  0  0
 20 45  1  0  0  0  0
 21 25  1  0  0  0  0
 21 22  1  0  0  0  0
 21 46  1  0  0  0  0
 22 23  1  0  0  0  0
 22 47  1  0  0  0  0
 22 48  1  0  0  0  0
 23 24  1  0  0  0  0
 23 49  1  0  0  0  0
 23 50  1  0  0  0  0
 24 25  1  0  0  0  0
 24 51  1  0  0  0  0
 24 52  1  0  0  0  0
M  END
> <s_m_source_file>
AV-unprocessed.smi

> <i_m_source_file_index>
232

> <i_lp_mmshare_version>
43012

> <i_f3d_flags>
0

> <s_epik_input>
W0NIM11bQ0gyXVtDQEBIXTFbQ0gyXVtDSDJdW0NAQEhdKFtDSDNdKU4xYyhuW2NIXW4yKWMoYzIzKW5bY0hdbjNbQ0gyXVtDQEhdKFtPSF0pW0NAQEhdNFtDSDJdW0NIMl1bQ0gyXU80

> <s_epik_cmdline>
J2VwaWtfcHl0aG9uJywgJy1waCcsICc3LjAnLCAnLXRuJywgJzgnLCAnLW1hJywgJzIwMCcsICctbWV0YWxfYmluZGluZycsICctaW1hZScsICc8aW5maWxlLm1hZT4nLCAnLW9tYWUnLCAnPG91dGZpbGUubWFlPic=

> <r_lp_tautomer_probability>
1

> <r_epik_Ionization_Penalty>
0.00258048

> <r_epik_Ionization_Penalty_Charging>
0

> <r_epik_Ionization_Penalty_Neutral>
0.00258048

> <r_epik_State_Penalty>
0.00168551

> <r_epik_Charging_Adjusted_Penalty>
0.00168551

> <i_epik_Tot_Q>
0

> <i_epik_Tot_abs_Q>
0

> <r_epik_Metal_State_Penalty>
-0

> <b_epik_Metal_Only>
0

> <s_lp_Force_Field>
OPLS_2005

> <r_lp_Energy>
58.3384

> <b_lp_Chiralities_Consistent>
1

> <s_lp_Variant>
AV-unprocessed.smi:232-13

> <Gold.Version>
5.8.1

> <Gold.Id.Protein>
6NUR|6NUR_protein|mol2

> <Gold.PLP.Fitness>
44.6061

> <Gold.PLP.PLP>
-37.5664

> <Gold.PLP.part.hbond>
-2.9424

> <Gold.PLP.part.metal>
0.0000

> <Gold.PLP.part.buried>
-5.3394

> <Gold.PLP.part.nonpolar>
-28.8839

> <Gold.PLP.part.repulsive>
0.4090

> <Gold.PLP.ligand.clash>
0.0000

> <Gold.PLP.ligand.torsion>
0.7332

> <Gold.PLP.Chemscore.Hbond>
1.7691

> <Gold.PLP.Chemscore.CHOScore>
1.0000

> <Gold.PLP.Chemscore.Metal>
0.0000

> <Gold.Chemscore.Hbonds>
donor molecule, donor type, donor heavy atom, donor atom, acceptor molecule, acceptor atom, score
      L1  H    20    45       P1 10175  1.00
      P1  H  7989  7998       L1    10  0.78
      L1  C    11    40       P1  7957  1.00

> <Gold.PLP.Chemscore.Internal.Correction>
0.1989

> <Gold.Rescore>
     Score         DG    S(hbond)    S(metal)    S(lipo)     H(rot)  DE(clash)    DE(int)     intcor
      9.65     -13.16       1.13        0.00      86.52       2.43       0.18       3.33       ----

> <Gold.Chemscore.Fitness>
9.6463

> <Gold.Chemscore.DG>
-13.1640

> <Gold.Chemscore.ZeroCoef>
-5.4800

> <Gold.Chemscore.Hbond>
1.1291

> <Gold.Chemscore.Metal>
0.0000

> <Gold.Chemscore.Lipo>
86.5238

> <Gold.Chemscore.Internal_Hbond>
0.0000

> <Gold.Chemscore.DEClash>
0.1828

> <Gold.Chemscore.DEInternal>
3.3348

> <Gold.Chemscore.Rot>
2.4260

> <Gold.Chemscore.Internal.Correction>
   9.000000E+99

> <Gold.Chemscore.Hbonds>
donor molecule, donor type, donor heavy atom, donor atom, acceptor molecule, acceptor atom, score
      L1  H    20    45       P1 10175  0.40
      P1  H  7989  7998       L1    10  0.28

> <Gold.Chemscore.Hbond.Weighted>
-3.7714

> <Gold.Chemscore.Metal.Weighted>
-0.0000

> <Gold.Chemscore.Lipo.Weighted>
-10.1233

> <Gold.Chemscore.Internal_Hbond.Weighted>
0.0000

> <Gold.Chemscore.DEClash.Weighted>
0.1828

> <Gold.Chemscore.DEInternal.Weighted>
3.3348

> <Gold.Chemscore.Rot.Weighted>
6.2107

> <Gold.Chemscore.Internal.Correction.Weighted>
   9.000000E+99

> <Gold.Protein.RotatedTorsions>
[ 6907 6896 6895 6894 ] final  119.96 input  -60.11 | X-H torsion
[ 7974 7965 7964 7962 ] final  143.06 input  175.53 | X-H torsion
[ 8008 7997 7996 7995 ] final  -57.15 input   59.86 | X-H torsion
[ 10167 10162 10161 10158 ] final -125.06 input  -65.29 | X-H torsion
[ 10718 10713 10712 10709 ] final   40.15 input   66.30 | X-H torsion
[ 10763 10752 10751 10750 ] final   89.54 input  -60.55 | X-H torsion
[ 11005 11000 10999 10996 ] final  -79.96 input  -57.11 | X-H torsion

> <Gold.Protein.ActiveResidues>
 VAL166  LYS551  ARG553  GLY616  TRP617  ASP618  TYR619  PRO620  LYS621  CYS622 
 ASP623  PHE694  ASN695  SER759  ASP760  ASP761  ALA762  ILE779  LEU786  VAL792 
 PHE793  MET794  SER795  GLU796  ALA797  LYS798  CYS799  TRP800  GLU811  SER814 

> <Gold.Protein.RotatedAtoms>
  152.4433  133.7489  159.6682 H   0  0  0  0  0  0  0  0  0  0  0  0  # atno 6907 bound_to 6896
  150.8328  133.8053  159.3098 H   0  0  0  0  0  0  0  0  0  0  0  0  # atno 6908 bound_to 6896
  151.5701  135.1065  160.0045 H   0  0  0  0  0  0  0  0  0  0  0  0  # atno 6909 bound_to 6896
  144.8954  139.5499  143.5779 H   0  0  0  0  0  0  0  0  0  0  0  0  # atno 7974 bound_to 7965
  154.4257  140.1113  156.5751 H   0  0  0  0  0  0  0  0  0  0  0  0  # atno 8008 bound_to 7997
  155.6171  140.3495  155.4621 H   0  0  0  0  0  0  0  0  0  0  0  0  # atno 8009 bound_to 7997
  156.0053  140.1208  157.0497 H   0  0  0  0  0  0  0  0  0  0  0  0  # atno 8010 bound_to 7997
  139.9862  143.5690  152.2359 H   0  0  0  0  0  0  0  0  0  0  0  0  # atno 10167 bound_to 10162
  157.3788  130.7742  149.7177 H   0  0  0  0  0  0  0  0  0  0  0  0  # atno 10718 bound_to 10713
  153.1882  135.4466  155.0116 H   0  0  0  0  0  0  0  0  0  0  0  0  # atno 10763 bound_to 10752
  154.8074  135.3280  154.7399 H   0  0  0  0  0  0  0  0  0  0  0  0  # atno 10764 bound_to 10752
  153.7855  135.6974  153.4936 H   0  0  0  0  0  0  0  0  0  0  0  0  # atno 10765 bound_to 10752
  141.1668  133.7129  156.8201 H   0  0  0  0  0  0  0  0  0  0  0  0  # atno 11005 bound_to 11000
  146.3078  139.7640  142.9043 LP  0  0  0  0  0  0  0  0  0  0  0  0  # atno 17320 bound_to 7965
  145.3710  141.0342  143.3231 LP  0  0  0  0  0  0  0  0  0  0  0  0  # atno 17321 bound_to 7965
  139.6373  144.7651  151.2411 LP  0  0  0  0  0  0  0  0  0  0  0  0  # atno 17342 bound_to 10162
  140.7471  143.6376  150.8365 LP  0  0  0  0  0  0  0  0  0  0  0  0  # atno 17343 bound_to 10162
  155.9771  130.4067  150.3733 LP  0  0  0  0  0  0  0  0  0  0  0  0  # atno 17370 bound_to 10713
  157.1834  131.0398  151.2737 LP  0  0  0  0  0  0  0  0  0  0  0  0  # atno 17371 bound_to 10713
  140.2125  134.8816  157.3290 LP  0  0  0  0  0  0  0  0  0  0  0  0  # atno 17394 bound_to 11000
  140.2071  134.4183  155.7632 LP  0  0  0  0  0  0  0  0  0  0  0  0  # atno 17395 bound_to 11000

$$$$
