AV-unprocessed.smi:2913|AV-procd|sdf|11183|dock3
  -GOLD-   2272016 73D 1   1.00000     0.00000
 Structure written by MMmdl.
 41 42  0  0  0  0  0  0  0  0  1 V2000
  145.7052  135.8345  151.0688 C   0  0  0  0  0  0  0  0  0  0  0  0
  145.5826  134.3227  151.1642 C   0  0  0  0  0  0  0  0  0  0  0  0
  144.5998  133.6853  150.4897 C   0  0  0  0  0  0  0  0  0  0  0  0
  144.4211  132.2334  150.5347 C   0  0  0  0  0  0  0  0  0  0  0  0
  143.5248  131.6617  149.9132 O   0  0  0  0  0  0  0  0  0  0  0  0
  145.3111  131.5566  151.3110 N   0  0  0  0  0  0  0  0  0  0  0  0
  145.2128  130.0990  151.4275 C   0  0  0  0  0  0  0  0  0  0  0  0
  146.3371  132.2067  152.0181 C   0  0  0  0  0  0  0  0  0  0  0  0
  146.5134  133.5463  151.9740 C   0  0  0  0  0  0  0  0  0  0  0  0
  147.5200  134.2415  152.6669 N   0  0  0  0  0  0  0  0  0  0  0  0
  147.8278  134.2348  153.9775 C   0  0  0  0  0  0  0  0  0  0  0  0
  147.2683  133.5696  154.8485 O   0  0  0  0  0  0  0  0  0  0  0  0
  148.8558  135.0595  154.2260 N   0  0  0  0  0  0  0  0  0  0  0  0
  149.4796  135.2949  155.5281 C   0  0  1  0  0  0  0  0  0  0  0  0
  150.4466  134.1445  155.8436 C   0  0  0  0  0  0  0  0  0  0  0  0
  150.1854  136.6664  155.5649 C   0  0  2  0  0  0  0  0  0  0  0  0
  149.3795  137.8415  155.0056 C   0  0  0  0  0  0  0  0  0  0  0  0
  150.4791  138.8239  154.6735 C   0  0  0  0  0  0  0  0  0  0  0  0
  151.5727  137.9008  154.1423 C   0  0  0  0  0  0  0  0  0  0  0  0
  151.3933  136.6517  154.8062 O   0  0  0  0  0  0  0  0  0  0  0  0
  144.9427  136.2622  150.4168 H   0  0  0  0  0  0  0  0  0  0  0  0
  146.6812  136.1112  150.6692 H   0  0  0  0  0  0  0  0  0  0  0  0
  145.5952  136.2865  152.0550 H   0  0  0  0  0  0  0  0  0  0  0  0
  143.9113  134.2608  149.8883 H   0  0  0  0  0  0  0  0  0  0  0  0
  145.9747  129.6724  152.0802 H   0  0  0  0  0  0  0  0  0  0  0  0
  145.3242  129.6287  150.4493 H   0  0  0  0  0  0  0  0  0  0  0  0
  144.2414  129.8121  151.8330 H   0  0  0  0  0  0  0  0  0  0  0  0
  146.9498  131.5324  152.5935 H   0  0  0  0  0  0  0  0  0  0  0  0
  148.1033  134.8211  152.0813 H   0  0  0  0  0  0  0  0  0  0  0  0
  149.2477  135.5690  153.4476 H   0  0  0  0  0  0  0  0  0  0  0  0
  148.7203  135.2946  156.3119 H   0  0  0  0  0  0  0  0  0  0  0  0
  150.9113  134.2794  156.8206 H   0  0  0  0  0  0  0  0  0  0  0  0
  151.2442  134.0785  155.1028 H   0  0  0  0  0  0  0  0  0  0  0  0
  149.9257  133.1866  155.8578 H   0  0  0  0  0  0  0  0  0  0  0  0
  150.4564  136.9041  156.5951 H   0  0  0  0  0  0  0  0  0  0  0  0
  148.8479  137.5667  154.0943 H   0  0  0  0  0  0  0  0  0  0  0  0
  148.6541  138.2357  155.7177 H   0  0  0  0  0  0  0  0  0  0  0  0
  150.1746  139.5843  153.9541 H   0  0  0  0  0  0  0  0  0  0  0  0
  150.8186  139.3260  155.5806 H   0  0  0  0  0  0  0  0  0  0  0  0
  151.4491  137.7422  153.0704 H   0  0  0  0  0  0  0  0  0  0  0  0
  152.5719  138.3018  154.3123 H   0  0  0  0  0  0  0  0  0  0  0  0
  1  2  1  0  0  0  0
  1 21  1  0  0  0  0
  1 22  1  0  0  0  0
  1 23  1  0  0  0  0
  2  9  1  0  0  0  0
  2  3  2  0  0  0  0
  3  4  1  0  0  0  0
  3 24  1  0  0  0  0
  4  5  2  0  0  0  0
  4  6  1  0  0  0  0
  6  7  1  0  0  0  0
  6  8  1  0  0  0  0
  7 25  1  0  0  0  0
  7 26  1  0  0  0  0
  7 27  1  0  0  0  0
  8  9  2  0  0  0  0
  8 28  1  0  0  0  0
  9 10  1  0  0  0  0
 10 11  1  0  0  0  0
 10 29  1  0  0  0  0
 11 12  2  0  0  0  0
 11 13  1  0  0  0  0
 13 14  1  0  0  0  0
 13 30  1  0  0  0  0
 14 15  1  0  0  0  0
 14 16  1  0  0  0  0
 14 31  1  0  0  0  0
 15 32  1  0  0  0  0
 15 33  1  0  0  0  0
 15 34  1  0  0  0  0
 16 20  1  0  0  0  0
 16 17  1  0  0  0  0
 16 35  1  0  0  0  0
 17 18  1  0  0  0  0
 17 36  1  0  0  0  0
 17 37  1  0  0  0  0
 18 19  1  0  0  0  0
 18 38  1  0  0  0  0
 18 39  1  0  0  0  0
 19 20  1  0  0  0  0
 19 40  1  0  0  0  0
 19 41  1  0  0  0  0
M  END
> <s_m_source_file>
AV-unprocessed.smi

> <i_m_source_file_index>
2913

> <i_lp_mmshare_version>
43012

> <i_f3d_flags>
0

> <s_epik_input>
W0NIM11jMVtjSF1jKD1PKW4oW0NIM10pW2NIXWMxW05IXUMoPU8pW05IXVtDQEhdKFtDSDNdKVtDQEBIXTJbQ0gyXVtDSDJdW0NIMl1PMg==

> <s_epik_cmdline>
J2VwaWtfcHl0aG9uJywgJy1waCcsICc3LjAnLCAnLXRuJywgJzgnLCAnLW1hJywgJzIwMCcsICctbWV0YWxfYmluZGluZycsICctaW1hZScsICc8aW5maWxlLm1hZT4nLCAnLW9tYWUnLCAnPG91dGZpbGUubWFlPic=

> <r_lp_tautomer_probability>
1

> <r_epik_Ionization_Penalty>
2.72039e-05

> <r_epik_Ionization_Penalty_Charging>
8.03976e-06

> <r_epik_Ionization_Penalty_Neutral>
1.91642e-05

> <r_epik_State_Penalty>
-0

> <r_epik_Charging_Adjusted_Penalty>
8.03976e-06

> <i_epik_Tot_Q>
0

> <i_epik_Tot_abs_Q>
0

> <r_epik_Metal_State_Penalty>
-0

> <b_epik_Metal_Only>
0

> <s_lp_Force_Field>
OPLS_2005

> <r_lp_Energy>
32.4224

> <b_lp_Chiralities_Consistent>
1

> <s_lp_Variant>
AV-unprocessed.smi:2913-2

> <Gold.Version>
5.8.1

> <Gold.Id.Protein>
6NUR|6NUR_protein|mol2

> <Gold.PLP.Fitness>
44.3876

> <Gold.PLP.PLP>
-34.4841

> <Gold.PLP.part.hbond>
-4.0000

> <Gold.PLP.part.metal>
0.0000

> <Gold.PLP.part.buried>
-5.3357

> <Gold.PLP.part.nonpolar>
-26.5372

> <Gold.PLP.part.repulsive>
1.0279

> <Gold.PLP.ligand.clash>
0.0000

> <Gold.PLP.ligand.torsion>
0.9593

> <Gold.PLP.Chemscore.Hbond>
3.9360

> <Gold.PLP.Chemscore.CHOScore>
0.0000

> <Gold.PLP.Chemscore.Metal>
0.0000

> <Gold.Chemscore.Hbonds>
donor molecule, donor type, donor heavy atom, donor atom, acceptor molecule, acceptor atom, score
      L1  H    10    29       P1  7948  1.00
      L1  H    13    30       P1  7948  0.94
      P1  H 10752 10765       L1    20  1.00
      P1  H 10785 10796       L1     5  0.98

> <Gold.PLP.Chemscore.Internal.Correction>
0.0140

> <Gold.Rescore>
     Score         DG    S(hbond)    S(metal)    S(lipo)     H(rot)  DE(clash)    DE(int)     intcor
     18.01     -19.43       2.57        0.00      72.35       1.21       0.48       0.94       ----

> <Gold.Chemscore.Fitness>
18.0099

> <Gold.Chemscore.DG>
-19.4335

> <Gold.Chemscore.ZeroCoef>
-5.4800

> <Gold.Chemscore.Hbond>
2.5709

> <Gold.Chemscore.Metal>
0.0000

> <Gold.Chemscore.Lipo>
72.3464

> <Gold.Chemscore.Internal_Hbond>
0.0000

> <Gold.Chemscore.DEClash>
0.4838

> <Gold.Chemscore.DEInternal>
0.9398

> <Gold.Chemscore.Rot>
1.2101

> <Gold.Chemscore.Internal.Correction>
   9.000000E+99

> <Gold.Chemscore.Hbonds>
donor molecule, donor type, donor heavy atom, donor atom, acceptor molecule, acceptor atom, score
      L1  H    10    29       P1  7948  0.28
      L1  H    13    30       P1  7948  0.41
      P1  H 10752 10765       L1    20  0.28
      P1  H 10785 10796       L1     5  0.93

> <Gold.Chemscore.Hbond.Weighted>
-8.5869

> <Gold.Chemscore.Metal.Weighted>
-0.0000

> <Gold.Chemscore.Lipo.Weighted>
-8.4645

> <Gold.Chemscore.Internal_Hbond.Weighted>
0.0000

> <Gold.Chemscore.DEClash.Weighted>
0.4838

> <Gold.Chemscore.DEInternal.Weighted>
0.9398

> <Gold.Chemscore.Rot.Weighted>
3.0979

> <Gold.Chemscore.Internal.Correction.Weighted>
   9.000000E+99

> <Gold.Protein.RotatedTorsions>
[ 6907 6896 6895 6894 ] final -115.18 input  -60.11 | X-H torsion
[ 7974 7965 7964 7962 ] final  113.68 input  175.53 | X-H torsion
[ 8008 7997 7996 7995 ] final -151.69 input   59.86 | X-H torsion
[ 10167 10162 10161 10158 ] final  -27.02 input  -65.29 | X-H torsion
[ 10718 10713 10712 10709 ] final   22.34 input   66.30 | X-H torsion
[ 10763 10752 10751 10750 ] final  153.58 input  -60.55 | X-H torsion
[ 11005 11000 10999 10996 ] final  168.90 input  -57.11 | X-H torsion

> <Gold.Protein.ActiveResidues>
 VAL166  LYS551  ARG553  GLY616  TRP617  ASP618  TYR619  PRO620  LYS621  CYS622 
 ASP623  PHE694  ASN695  SER759  ASP760  ASP761  ALA762  ILE779  LEU786  VAL792 
 PHE793  MET794  SER795  GLU796  ALA797  LYS798  CYS799  TRP800  GLU811  SER814 

> <Gold.Protein.RotatedAtoms>
  150.7958  133.8695  159.3254 H   0  0  0  0  0  0  0  0  0  0  0  0  # atno 6907 bound_to 6896
  151.6521  135.0998  160.0172 H   0  0  0  0  0  0  0  0  0  0  0  0  # atno 6908 bound_to 6896
  152.4039  133.6820  159.6375 H   0  0  0  0  0  0  0  0  0  0  0  0  # atno 6909 bound_to 6896
  145.2139  139.2893  143.4254 H   0  0  0  0  0  0  0  0  0  0  0  0  # atno 7974 bound_to 7965
  155.6433  140.0704  157.2611 H   0  0  0  0  0  0  0  0  0  0  0  0  # atno 8008 bound_to 7997
  154.4179  140.1746  156.1646 H   0  0  0  0  0  0  0  0  0  0  0  0  # atno 8009 bound_to 7997
  155.9837  140.3351  155.6690 H   0  0  0  0  0  0  0  0  0  0  0  0  # atno 8010 bound_to 7997
  140.7280  143.4128  151.1077 H   0  0  0  0  0  0  0  0  0  0  0  0  # atno 10167 bound_to 10162
  157.1510  130.6674  149.6012 H   0  0  0  0  0  0  0  0  0  0  0  0  # atno 10718 bound_to 10713
  154.1385  135.2822  155.3167 H   0  0  0  0  0  0  0  0  0  0  0  0  # atno 10763 bound_to 10752
  154.6304  135.5437  153.7678 H   0  0  0  0  0  0  0  0  0  0  0  0  # atno 10764 bound_to 10752
  153.0258  135.6461  154.1532 H   0  0  0  0  0  0  0  0  0  0  0  0  # atno 10765 bound_to 10752
  140.2921  134.7665  157.3847 H   0  0  0  0  0  0  0  0  0  0  0  0  # atno 11005 bound_to 11000
  146.3391  140.2424  142.8596 LP  0  0  0  0  0  0  0  0  0  0  0  0  # atno 17320 bound_to 7965
  144.9829  140.8476  143.5386 LP  0  0  0  0  0  0  0  0  0  0  0  0  # atno 17321 bound_to 7965
  139.7764  143.8419  152.3130 LP  0  0  0  0  0  0  0  0  0  0  0  0  # atno 17342 bound_to 10162
  139.8355  144.7234  150.9396 LP  0  0  0  0  0  0  0  0  0  0  0  0  # atno 17343 bound_to 10162
  155.9770  130.4744  150.6569 LP  0  0  0  0  0  0  0  0  0  0  0  0  # atno 17370 bound_to 10713
  157.4221  131.0838  151.1121 LP  0  0  0  0  0  0  0  0  0  0  0  0  # atno 17371 bound_to 10713
  140.1186  134.5250  155.8203 LP  0  0  0  0  0  0  0  0  0  0  0  0  # atno 17394 bound_to 11000
  141.2144  133.6748  156.6823 LP  0  0  0  0  0  0  0  0  0  0  0  0  # atno 17395 bound_to 11000

$$$$
