AV-unprocessed.smi:2568|AV-procd|sdf|10098|dock5
  -GOLD-   2272014113D 1   1.00000     0.00000
 Structure written by MMmdl.
 24 25  0  0  0  0  0  0  0  0  3 V2000
  155.4640  139.3626  160.6577 C   0  0  0  0  0  0  0  0  0  0  0  0
  154.3627  140.1176  159.9499 C   0  0  0  0  0  0  0  0  0  0  0  0
  153.8343  139.8059  158.7534 N   0  5  0  0  0  0  0  0  0  0  0  0
  152.8955  140.6753  158.4401 N   0  0  0  0  0  0  0  0  0  0  0  0
  152.8427  141.5301  159.4728 C   0  0  0  0  0  0  0  0  0  0  0  0
  151.9246  142.7325  159.5421 C   0  0  2  0  0  0  0  0  0  0  0  0
  151.1004  142.8762  158.2477 C   0  0  0  0  0  0  0  0  0  0  0  0
  150.2224  144.0594  158.3304 N   0  3  0  0  0  0  0  0  0  0  0  0
  150.9876  145.2820  158.6415 C   0  0  0  0  0  0  0  0  0  0  0  0
  151.8190  145.0728  159.9183 C   0  0  0  0  0  0  0  0  0  0  0  0
  152.6597  143.9358  159.7594 O   0  0  0  0  0  0  0  0  0  0  0  0
  153.7507  141.2060  160.4047 N   0  0  0  0  0  0  0  0  0  0  0  0
  155.7997  138.5171  160.0569 H   0  0  0  0  0  0  0  0  0  0  0  0
  155.1069  138.9850  161.6159 H   0  0  0  0  0  0  0  0  0  0  0  0
  156.3162  140.0179  160.8382 H   0  0  0  0  0  0  0  0  0  0  0  0
  151.2528  142.5777  160.3885 H   0  0  0  0  0  0  0  0  0  0  0  0
  151.7612  142.9797  157.3856 H   0  0  0  0  0  0  0  0  0  0  0  0
  150.4896  141.9888  158.0791 H   0  0  0  0  0  0  0  0  0  0  0  0
  149.7375  144.1787  157.4525 H   0  0  0  0  0  0  0  0  0  0  0  0
  151.6412  145.5193  157.8010 H   0  0  0  0  0  0  0  0  0  0  0  0
  150.3002  146.1194  158.7625 H   0  0  0  0  0  0  0  0  0  0  0  0
  152.4404  145.9478  160.1097 H   0  0  0  0  0  0  0  0  0  0  0  0
  151.1736  144.9440  160.7888 H   0  0  0  0  0  0  0  0  0  0  0  0
  149.5454  143.9055  159.0640 H   0  0  0  0  0  0  0  0  0  0  0  0
  1 13  1  0  0  0  0
  1 14  1  0  0  0  0
  1 15  1  0  0  0  0
  1  2  1  0  0  0  0
  2 12  2  0  0  0  0
  2  3  1  0  0  0  0
  3  4  1  0  0  0  0
  4  5  2  0  0  0  0
  5 12  1  0  0  0  0
  5  6  1  0  0  0  0
  6 11  1  0  0  0  0
  6  7  1  0  0  0  0
  6 16  1  0  0  0  0
  7  8  1  0  0  0  0
  7 17  1  0  0  0  0
  7 18  1  0  0  0  0
  8  9  1  0  0  0  0
  8 19  1  0  0  0  0
  8 24  1  0  0  0  0
  9 10  1  0  0  0  0
  9 20  1  0  0  0  0
  9 21  1  0  0  0  0
 10 11  1  0  0  0  0
 10 22  1  0  0  0  0
 10 23  1  0  0  0  0
M  CHG  1   3  -1
M  CHG  1   8   1
M  END
> <s_m_source_file>
AV-unprocessed.smi

> <i_m_source_file_index>
2568

> <i_lp_mmshare_version>
43012

> <i_f3d_flags>
0

> <s_epik_input>
W0NIM11jMW5bbkhdYyhuMSlbQ0BASF0yW0NIMl1bTkhdW0NIMl1bQ0gyXU8y

> <s_epik_cmdline>
J2VwaWtfcHl0aG9uJywgJy1waCcsICc3LjAnLCAnLXRuJywgJzgnLCAnLW1hJywgJzIwMCcsICctbWV0YWxfYmluZGluZycsICctaW1hZScsICc8aW5maWxlLm1hZT4nLCAnLW9tYWUnLCAnPG91dGZpbGUubWFlPic=

> <r_lp_tautomer_probability>
0.948284

> <r_epik_Ionization_Penalty>
5.18319

> <r_epik_Ionization_Penalty_Charging>
5.18319

> <r_epik_Ionization_Penalty_Neutral>
2.73247e-13

> <r_epik_State_Penalty>
2.89074

> <r_epik_Charging_Adjusted_Penalty>
8.07392

> <i_epik_Tot_Q>
0

> <i_epik_Tot_abs_Q>
2

> <r_epik_Metal_State_Penalty>
0.548499

> <b_epik_Metal_Only>
1

> <s_lp_Force_Field>
OPLS_2005

> <r_lp_Energy>
8.28058

> <b_lp_Chiralities_Consistent>
1

> <s_lp_Variant>
AV-unprocessed.smi:2568-11

> <Gold.Version>
5.8.1

> <Gold.Id.Protein>
6NUR|6NUR_protein|mol2

> <Gold.PLP.Fitness>
34.9990

> <Gold.PLP.PLP>
-23.0800

> <Gold.PLP.part.hbond>
-3.3431

> <Gold.PLP.part.metal>
0.0000

> <Gold.PLP.part.buried>
-3.3404

> <Gold.PLP.part.nonpolar>
-15.7864

> <Gold.PLP.part.repulsive>
0.0763

> <Gold.PLP.ligand.clash>
0.0000

> <Gold.PLP.ligand.torsion>
0.0464

> <Gold.PLP.Chemscore.Hbond>
4.0000

> <Gold.PLP.Chemscore.CHOScore>
0.0000

> <Gold.PLP.Chemscore.Metal>
0.0000

> <Gold.Chemscore.Hbonds>
donor molecule, donor type, donor heavy atom, donor atom, acceptor molecule, acceptor atom, score
      L1  H     8    19       P1  8028  2.00
      P1  H  7997  8008       L1     3  2.00

> <Gold.PLP.Chemscore.Internal.Correction>
0.0117

> <Gold.Rescore>
     Score         DG    S(hbond)    S(metal)    S(lipo)     H(rot)  DE(clash)    DE(int)     intcor
     11.82     -11.97       1.02        0.00      48.14       1.00       0.04       0.12       ----

> <Gold.Chemscore.Fitness>
11.8154

> <Gold.Chemscore.DG>
-11.9708

> <Gold.Chemscore.ZeroCoef>
-5.4800

> <Gold.Chemscore.Hbond>
1.0235

> <Gold.Chemscore.Metal>
0.0000

> <Gold.Chemscore.Lipo>
48.1396

> <Gold.Chemscore.Internal_Hbond>
0.0000

> <Gold.Chemscore.DEClash>
0.0354

> <Gold.Chemscore.DEInternal>
0.1200

> <Gold.Chemscore.Rot>
1.0000

> <Gold.Chemscore.Internal.Correction>
   9.000000E+99

> <Gold.Chemscore.Hbonds>
donor molecule, donor type, donor heavy atom, donor atom, acceptor molecule, acceptor atom, score
      L1  H     8    19       P1  8028  0.32
      P1  H  7997  8008       L1     3  0.22

> <Gold.Chemscore.Hbond.Weighted>
-3.4185

> <Gold.Chemscore.Metal.Weighted>
-0.0000

> <Gold.Chemscore.Lipo.Weighted>
-5.6323

> <Gold.Chemscore.Internal_Hbond.Weighted>
0.0000

> <Gold.Chemscore.DEClash.Weighted>
0.0354

> <Gold.Chemscore.DEInternal.Weighted>
0.1200

> <Gold.Chemscore.Rot.Weighted>
2.5600

> <Gold.Chemscore.Internal.Correction.Weighted>
   9.000000E+99

> <Gold.Protein.RotatedTorsions>
[ 6907 6896 6895 6894 ] final  148.25 input  -60.11 | X-H torsion
[ 7974 7965 7964 7962 ] final  122.31 input  175.53 | X-H torsion
[ 8008 7997 7996 7995 ] final -113.14 input   59.86 | X-H torsion
[ 10167 10162 10161 10158 ] final  125.32 input  -65.29 | X-H torsion
[ 10718 10713 10712 10709 ] final -139.13 input   66.30 | X-H torsion
[ 10763 10752 10751 10750 ] final -157.26 input  -60.55 | X-H torsion
[ 11005 11000 10999 10996 ] final  -81.83 input  -57.11 | X-H torsion

> <Gold.Protein.ActiveResidues>
 VAL166  LYS551  ARG553  GLY616  TRP617  ASP618  TYR619  PRO620  LYS621  CYS622 
 ASP623  PHE694  ASN695  SER759  ASP760  ASP761  ALA762  ILE779  LEU786  VAL792 
 PHE793  MET794  SER795  GLU796  ALA797  LYS798  CYS799  TRP800  GLU811  SER814 

> <Gold.Protein.RotatedAtoms>
  152.1440  133.4481  159.4780 H   0  0  0  0  0  0  0  0  0  0  0  0  # atno 6907 bound_to 6896
  150.6889  134.2270  159.4428 H   0  0  0  0  0  0  0  0  0  0  0  0  # atno 6908 bound_to 6896
  152.0163  134.9847  160.0620 H   0  0  0  0  0  0  0  0  0  0  0  0  # atno 6909 bound_to 6896
  145.1091  139.3465  143.4772 H   0  0  0  0  0  0  0  0  0  0  0  0  # atno 7974 bound_to 7965
  155.0160  140.0393  157.2418 H   0  0  0  0  0  0  0  0  0  0  0  0  # atno 8008 bound_to 7997
  154.7419  140.2750  155.6343 H   0  0  0  0  0  0  0  0  0  0  0  0  # atno 8009 bound_to 7997
  156.2866  140.2664  156.2148 H   0  0  0  0  0  0  0  0  0  0  0  0  # atno 8010 bound_to 7997
  139.5692  144.6929  151.3825 H   0  0  0  0  0  0  0  0  0  0  0  0  # atno 10167 bound_to 10162
  156.3072  130.7462  151.1528 H   0  0  0  0  0  0  0  0  0  0  0  0  # atno 10718 bound_to 10713
  154.7650  135.3128  154.8304 H   0  0  0  0  0  0  0  0  0  0  0  0  # atno 10763 bound_to 10752
  153.9055  135.6811  153.4757 H   0  0  0  0  0  0  0  0  0  0  0  0  # atno 10764 bound_to 10752
  153.1255  135.4803  154.9197 H   0  0  0  0  0  0  0  0  0  0  0  0  # atno 10765 bound_to 10752
  141.1665  133.7215  156.8480 H   0  0  0  0  0  0  0  0  0  0  0  0  # atno 11005 bound_to 11000
  146.3527  140.1002  142.8608 LP  0  0  0  0  0  0  0  0  0  0  0  0  # atno 17320 bound_to 7965
  145.0867  140.9257  143.4793 LP  0  0  0  0  0  0  0  0  0  0  0  0  # atno 17321 bound_to 7965
  140.6976  143.7710  150.7352 LP  0  0  0  0  0  0  0  0  0  0  0  0  # atno 17342 bound_to 10162
  140.1211  143.4611  152.2312 LP  0  0  0  0  0  0  0  0  0  0  0  0  # atno 17343 bound_to 10162
  157.7382  131.0543  150.5307 LP  0  0  0  0  0  0  0  0  0  0  0  0  # atno 17370 bound_to 10713
  156.5442  130.4215  149.6139 LP  0  0  0  0  0  0  0  0  0  0  0  0  # atno 17371 bound_to 10713
  140.1936  134.8948  157.3088 LP  0  0  0  0  0  0  0  0  0  0  0  0  # atno 17394 bound_to 11000
  140.2264  134.3962  155.7542 LP  0  0  0  0  0  0  0  0  0  0  0  0  # atno 17395 bound_to 11000

$$$$
