AV-unprocessed.smi:3156|AV-procd|sdf|12035|dock10
  -GOLD-   2272017453D 1   1.00000     0.00000
 Structure written by MMmdl.
 41 42  0  0  0  0  0  0  0  0  2 V2000
  148.7042  141.3728  154.0966 C   0  0  0  0  0  0  0  0  0  0  0  0
  148.7470  141.1265  155.6157 C   0  0  2  0  0  0  0  0  0  0  0  0
  149.7691  142.0144  156.2142 N   0  3  0  0  0  0  0  0  0  0  0  0
  149.8027  142.0171  157.6913 C   0  0  0  0  0  0  0  0  0  0  0  0
  151.1025  142.6506  158.2266 C   0  0  1  0  0  0  0  0  0  0  0  0
  151.3218  144.0815  157.6954 C   0  0  0  0  0  0  0  0  0  0  0  0
  152.5765  144.7034  158.3190 C   0  0  0  0  0  0  0  0  0  0  0  0
  152.4927  144.6102  159.8460 C   0  0  0  0  0  0  0  0  0  0  0  0
  152.2114  143.1625  160.2774 C   0  0  0  0  0  0  0  0  0  0  0  0
  151.0218  142.6913  159.6503 O   0  0  0  0  0  0  0  0  0  0  0  0
  149.0347  139.6477  155.9896 C   0  0  1  0  0  0  0  0  0  0  0  0
  147.8722  138.7050  155.6228 C   0  0  0  0  0  0  0  0  0  0  0  0
  150.2761  139.1617  155.4000 N   0  0  0  0  0  0  0  0  0  0  0  0
  151.5422  139.6983  155.5124 C   0  0  0  0  0  0  0  0  0  0  0  0
  152.3883  138.9032  154.7942 C   0  0  0  0  0  0  0  0  0  0  0  0
  151.5385  137.8889  154.2725 C   0  0  0  0  0  0  0  0  0  0  0  0
  150.2760  138.0454  154.6366 N   0  0  0  0  0  0  0  0  0  0  0  0
  147.9001  140.8146  153.6164 H   0  0  0  0  0  0  0  0  0  0  0  0
  149.6416  141.0823  153.6210 H   0  0  0  0  0  0  0  0  0  0  0  0
  148.5336  142.4275  153.8777 H   0  0  0  0  0  0  0  0  0  0  0  0
  147.7650  141.3946  156.0102 H   0  0  0  0  0  0  0  0  0  0  0  0
  150.6760  141.7274  155.8744 H   0  0  0  0  0  0  0  0  0  0  0  0
  148.9274  142.5516  158.0629 H   0  0  0  0  0  0  0  0  0  0  0  0
  149.7104  140.9896  158.0463 H   0  0  0  0  0  0  0  0  0  0  0  0
  151.9571  142.0295  157.9501 H   0  0  0  0  0  0  0  0  0  0  0  0
  151.4130  144.0718  156.6087 H   0  0  0  0  0  0  0  0  0  0  0  0
  150.4551  144.7005  157.9317 H   0  0  0  0  0  0  0  0  0  0  0  0
  153.4637  144.1759  157.9663 H   0  0  0  0  0  0  0  0  0  0  0  0
  152.6834  145.7423  158.0059 H   0  0  0  0  0  0  0  0  0  0  0  0
  153.4185  144.9671  160.2979 H   0  0  0  0  0  0  0  0  0  0  0  0
  151.6955  145.2596  160.2099 H   0  0  0  0  0  0  0  0  0  0  0  0
  153.0504  142.5114  160.0272 H   0  0  0  0  0  0  0  0  0  0  0  0
  152.0828  143.1126  161.3588 H   0  0  0  0  0  0  0  0  0  0  0  0
  149.1667  139.5972  157.0717 H   0  0  0  0  0  0  0  0  0  0  0  0
  146.9612  138.9634  156.1626 H   0  0  0  0  0  0  0  0  0  0  0  0
  148.1128  137.6715  155.8745 H   0  0  0  0  0  0  0  0  0  0  0  0
  147.6470  138.7422  154.5565 H   0  0  0  0  0  0  0  0  0  0  0  0
  151.7345  140.5924  156.0873 H   0  0  0  0  0  0  0  0  0  0  0  0
  153.4531  139.0263  154.6629 H   0  0  0  0  0  0  0  0  0  0  0  0
  151.7995  137.0492  153.6452 H   0  0  0  0  0  0  0  0  0  0  0  0
  149.5934  142.9578  155.8991 H   0  0  0  0  0  0  0  0  0  0  0  0
  1  2  1  0  0  0  0
  1 18  1  0  0  0  0
  1 19  1  0  0  0  0
  1 20  1  0  0  0  0
  2  3  1  0  0  0  0
  2 11  1  0  0  0  0
  2 21  1  0  0  0  0
  3  4  1  0  0  0  0
  3 22  1  0  0  0  0
  3 41  1  0  0  0  0
  4  5  1  0  0  0  0
  4 23  1  0  0  0  0
  4 24  1  0  0  0  0
  5 10  1  0  0  0  0
  5  6  1  0  0  0  0
  5 25  1  0  0  0  0
  6  7  1  0  0  0  0
  6 26  1  0  0  0  0
  6 27  1  0  0  0  0
  7  8  1  0  0  0  0
  7 28  1  0  0  0  0
  7 29  1  0  0  0  0
  8  9  1  0  0  0  0
  8 30  1  0  0  0  0
  8 31  1  0  0  0  0
  9 10  1  0  0  0  0
  9 32  1  0  0  0  0
  9 33  1  0  0  0  0
 11 12  1  0  0  0  0
 11 13  1  0  0  0  0
 11 34  1  0  0  0  0
 12 35  1  0  0  0  0
 12 36  1  0  0  0  0
 12 37  1  0  0  0  0
 13 17  1  0  0  0  0
 13 14  1  0  0  0  0
 14 15  2  0  0  0  0
 14 38  1  0  0  0  0
 15 16  1  0  0  0  0
 15 39  1  0  0  0  0
 16 17  2  0  0  0  0
 16 40  1  0  0  0  0
M  CHG  1   3   1
M  END
> <s_m_source_file>
AV-unprocessed.smi

> <i_m_source_file_index>
3156

> <i_lp_mmshare_version>
43012

> <i_f3d_flags>
0

> <s_epik_input>
bjFbY0hdW2NIXVtjSF1uMVtDQEBIXShbQ0gzXSlbQ0BIXShbQ0gzXSlbTkhdW0NIMl1bQ0BASF0yW0NIMl1bQ0gyXVtDSDJdW0NIMl1PMg==

> <s_epik_cmdline>
J2VwaWtfcHl0aG9uJywgJy1waCcsICc3LjAnLCAnLXRuJywgJzgnLCAnLW1hJywgJzIwMCcsICctbWV0YWxfYmluZGluZycsICctaW1hZScsICc8aW5maWxlLm1hZT4nLCAnLW9tYWUnLCAnPG91dGZpbGUubWFlPic=

> <r_lp_tautomer_probability>
1

> <r_epik_Ionization_Penalty>
0.00658015

> <r_epik_Ionization_Penalty_Charging>
0.00656881

> <r_epik_Ionization_Penalty_Neutral>
1.13431e-05

> <r_epik_State_Penalty>
0.0048654

> <r_epik_Charging_Adjusted_Penalty>
0.0114342

> <i_epik_Tot_Q>
1

> <i_epik_Tot_abs_Q>
1

> <r_epik_Metal_State_Penalty>
-0

> <b_epik_Metal_Only>
0

> <s_lp_Force_Field>
OPLS_2005

> <r_lp_Energy>
21.7915

> <b_lp_Chiralities_Consistent>
1

> <s_lp_Variant>
AV-unprocessed.smi:3156-7

> <Gold.Version>
5.8.1

> <Gold.Id.Protein>
6NUR|6NUR_protein|mol2

> <Gold.PLP.Fitness>
46.0559

> <Gold.PLP.PLP>
-37.3244

> <Gold.PLP.part.hbond>
-2.0000

> <Gold.PLP.part.metal>
0.0000

> <Gold.PLP.part.buried>
-3.8593

> <Gold.PLP.part.nonpolar>
-32.3915

> <Gold.PLP.part.repulsive>
0.2680

> <Gold.PLP.ligand.clash>
0.0000

> <Gold.PLP.ligand.torsion>
0.1667

> <Gold.PLP.Chemscore.Hbond>
2.0000

> <Gold.PLP.Chemscore.CHOScore>
1.0000

> <Gold.PLP.Chemscore.Metal>
0.0000

> <Gold.Chemscore.Hbonds>
donor molecule, donor type, donor heavy atom, donor atom, acceptor molecule, acceptor atom, score
      L1  H     3    41       P1  8028  2.00
      L1  C    16    40       P1  7949  1.00

> <Gold.PLP.Chemscore.Internal.Correction>
0.0649

> <Gold.Rescore>
     Score         DG    S(hbond)    S(metal)    S(lipo)     H(rot)  DE(clash)    DE(int)     intcor
     16.62     -16.94       1.00        0.00     104.29       1.59       0.06       0.27       ----

> <Gold.Chemscore.Fitness>
16.6186

> <Gold.Chemscore.DG>
-16.9406

> <Gold.Chemscore.ZeroCoef>
-5.4800

> <Gold.Chemscore.Hbond>
0.9997

> <Gold.Chemscore.Metal>
0.0000

> <Gold.Chemscore.Lipo>
104.2895

> <Gold.Chemscore.Internal_Hbond>
0.0000

> <Gold.Chemscore.DEClash>
0.0553

> <Gold.Chemscore.DEInternal>
0.2667

> <Gold.Chemscore.Rot>
1.5938

> <Gold.Chemscore.Internal.Correction>
   9.000000E+99

> <Gold.Chemscore.Hbonds>
donor molecule, donor type, donor heavy atom, donor atom, acceptor molecule, acceptor atom, score
      L1  H     3    41       P1  8028  1.00

> <Gold.Chemscore.Hbond.Weighted>
-3.3390

> <Gold.Chemscore.Metal.Weighted>
-0.0000

> <Gold.Chemscore.Lipo.Weighted>
-12.2019

> <Gold.Chemscore.Internal_Hbond.Weighted>
0.0000

> <Gold.Chemscore.DEClash.Weighted>
0.0553

> <Gold.Chemscore.DEInternal.Weighted>
0.2667

> <Gold.Chemscore.Rot.Weighted>
4.0802

> <Gold.Chemscore.Internal.Correction.Weighted>
   9.000000E+99

> <Gold.Protein.RotatedTorsions>
[ 6907 6896 6895 6894 ] final  -20.31 input  -60.11 | X-H torsion
[ 7974 7965 7964 7962 ] final  170.90 input  175.53 | X-H torsion
[ 8008 7997 7996 7995 ] final   13.97 input   59.86 | X-H torsion
[ 10167 10162 10161 10158 ] final   93.09 input  -65.29 | X-H torsion
[ 10718 10713 10712 10709 ] final  121.53 input   66.30 | X-H torsion
[ 10763 10752 10751 10750 ] final -143.89 input  -60.55 | X-H torsion
[ 11005 11000 10999 10996 ] final  -68.49 input  -57.11 | X-H torsion

> <Gold.Protein.ActiveResidues>
 VAL166  LYS551  ARG553  GLY616  TRP617  ASP618  TYR619  PRO620  LYS621  CYS622 
 ASP623  PHE694  ASN695  SER759  ASP760  ASP761  ALA762  ILE779  LEU786  VAL792 
 PHE793  MET794  SER795  GLU796  ALA797  LYS798  CYS799  TRP800  GLU811  SER814 

> <Gold.Protein.RotatedAtoms>
  151.2501  135.0619  159.9058 H   0  0  0  0  0  0  0  0  0  0  0  0  # atno 6907 bound_to 6896
  152.5381  134.0342  159.8048 H   0  0  0  0  0  0  0  0  0  0  0  0  # atno 6908 bound_to 6896
  151.0548  133.5544  159.2670 H   0  0  0  0  0  0  0  0  0  0  0  0  # atno 6909 bound_to 6896
  144.7310  139.9271  143.6423 H   0  0  0  0  0  0  0  0  0  0  0  0  # atno 7974 bound_to 7965
  154.8419  140.2916  155.5654 H   0  0  0  0  0  0  0  0  0  0  0  0  # atno 8008 bound_to 7997
  156.3012  140.2512  156.3295 H   0  0  0  0  0  0  0  0  0  0  0  0  # atno 8009 bound_to 7997
  154.9116  140.0388  157.1938 H   0  0  0  0  0  0  0  0  0  0  0  0  # atno 8010 bound_to 7997
  139.8213  144.6730  150.9515 H   0  0  0  0  0  0  0  0  0  0  0  0  # atno 10167 bound_to 10162
  157.5811  131.1075  150.8185 H   0  0  0  0  0  0  0  0  0  0  0  0  # atno 10718 bound_to 10713
  154.8451  135.3455  154.6259 H   0  0  0  0  0  0  0  0  0  0  0  0  # atno 10763 bound_to 10752
  153.6868  135.6977  153.5106 H   0  0  0  0  0  0  0  0  0  0  0  0  # atno 10764 bound_to 10752
  153.2625  135.4318  155.0864 H   0  0  0  0  0  0  0  0  0  0  0  0  # atno 10765 bound_to 10752
  141.1533  133.6742  156.6454 H   0  0  0  0  0  0  0  0  0  0  0  0  # atno 11005 bound_to 11000
  146.0886  139.3875  143.0420 LP  0  0  0  0  0  0  0  0  0  0  0  0  # atno 17320 bound_to 7965
  145.7742  140.9883  143.1133 LP  0  0  0  0  0  0  0  0  0  0  0  0  # atno 17321 bound_to 7965
  140.7813  143.4088  151.1026 LP  0  0  0  0  0  0  0  0  0  0  0  0  # atno 17342 bound_to 10162
  139.7749  143.8440  152.3127 LP  0  0  0  0  0  0  0  0  0  0  0  0  # atno 17343 bound_to 10162
  156.8631  130.5120  149.5302 LP  0  0  0  0  0  0  0  0  0  0  0  0  # atno 17370 bound_to 10713
  156.0857  130.5856  150.9644 LP  0  0  0  0  0  0  0  0  0  0  0  0  # atno 17371 bound_to 10713
  140.3361  134.7888  157.4363 LP  0  0  0  0  0  0  0  0  0  0  0  0  # atno 17394 bound_to 11000
  140.0976  134.5516  155.8383 LP  0  0  0  0  0  0  0  0  0  0  0  0  # atno 17395 bound_to 11000

$$$$
