AV-unprocessed.smi:2568|AV-procd|sdf|10091|dock4
  -GOLD-   2272014113D 1   1.00000     0.00000
 Structure written by MMmdl.
 24 25  0  0  0  0  0  0  0  0  1 V2000
  150.6426  135.6388  155.0070 C   0  0  0  0  0  0  0  0  0  0  0  0
  150.9079  137.1055  154.9627 C   0  0  0  0  0  0  0  0  0  0  0  0
  151.0448  137.7675  153.8127 N   0  0  0  0  0  0  0  0  0  0  0  0
  151.2682  139.0730  154.0727 N   0  0  0  0  0  0  0  0  0  0  0  0
  151.2674  139.0964  155.4055 C   0  0  0  0  0  0  0  0  0  0  0  0
  151.4440  140.3839  156.1498 C   0  0  1  0  0  0  0  0  0  0  0  0
  150.4023  141.4418  155.7351 C   0  0  0  0  0  0  0  0  0  0  0  0
  150.5474  142.6444  156.5544 N   0  0  0  0  0  0  0  0  0  0  0  0
  150.4722  142.3248  157.9794 C   0  0  0  0  0  0  0  0  0  0  0  0
  151.5048  141.2416  158.3414 C   0  0  0  0  0  0  0  0  0  0  0  0
  151.2904  140.0876  157.5361 O   0  0  0  0  0  0  0  0  0  0  0  0
  151.0285  137.8972  156.0223 N   0  0  0  0  0  0  0  0  0  0  0  0
  150.9897  137.3925  152.8765 H   0  0  0  0  0  0  0  0  0  0  0  0
  150.6367  135.2831  156.0379 H   0  0  0  0  0  0  0  0  0  0  0  0
  151.4156  135.1009  154.4577 H   0  0  0  0  0  0  0  0  0  0  0  0
  149.6740  135.4202  154.5572 H   0  0  0  0  0  0  0  0  0  0  0  0
  152.4544  140.7573  155.9696 H   0  0  0  0  0  0  0  0  0  0  0  0
  150.5185  141.6915  154.6802 H   0  0  0  0  0  0  0  0  0  0  0  0
  149.3972  141.0346  155.8527 H   0  0  0  0  0  0  0  0  0  0  0  0
  149.8180  143.3087  156.3158 H   0  0  0  0  0  0  0  0  0  0  0  0
  150.6460  143.2221  158.5736 H   0  0  0  0  0  0  0  0  0  0  0  0
  149.4703  141.9729  158.2285 H   0  0  0  0  0  0  0  0  0  0  0  0
  152.5229  141.6109  158.2076 H   0  0  0  0  0  0  0  0  0  0  0  0
  151.4028  140.9625  159.3902 H   0  0  0  0  0  0  0  0  0  0  0  0
  1 14  1  0  0  0  0
  1 15  1  0  0  0  0
  1 16  1  0  0  0  0
  1  2  1  0  0  0  0
  2 12  2  0  0  0  0
  2  3  1  0  0  0  0
  3  4  1  0  0  0  0
  3 13  1  0  0  0  0
  4  5  2  0  0  0  0
  5 12  1  0  0  0  0
  5  6  1  0  0  0  0
  6 11  1  0  0  0  0
  6  7  1  0  0  0  0
  6 17  1  0  0  0  0
  7  8  1  0  0  0  0
  7 18  1  0  0  0  0
  7 19  1  0  0  0  0
  8  9  1  0  0  0  0
  8 20  1  0  0  0  0
  9 10  1  0  0  0  0
  9 21  1  0  0  0  0
  9 22  1  0  0  0  0
 10 11  1  0  0  0  0
 10 23  1  0  0  0  0
 10 24  1  0  0  0  0
M  END
> <s_m_source_file>
AV-unprocessed.smi

> <i_m_source_file_index>
2568

> <i_lp_mmshare_version>
43012

> <i_f3d_flags>
0

> <s_epik_input>
W0NIM11jMW5bbkhdYyhuMSlbQ0BASF0yW0NIMl1bTkhdW0NIMl1bQ0gyXU8y

> <s_epik_cmdline>
J2VwaWtfcHl0aG9uJywgJy1waCcsICc3LjAnLCAnLXRuJywgJzgnLCAnLW1hJywgJzIwMCcsICctbWV0YWxfYmluZGluZycsICctaW1hZScsICc8aW5maWxlLm1hZT4nLCAnLW9tYWUnLCAnPG91dGZpbGUubWFlPic=

> <r_epik_Ionization_Penalty>
1.10101

> <r_epik_Ionization_Penalty_Charging>
0

> <r_epik_Ionization_Penalty_Neutral>
1.10101

> <r_epik_State_Penalty>
1.26524

> <r_epik_Charging_Adjusted_Penalty>
1.26524

> <i_epik_Tot_Q>
0

> <i_epik_Tot_abs_Q>
0

> <r_epik_Metal_State_Penalty>
1.56429

> <b_epik_Metal_Only>
0

> <s_lp_Force_Field>
OPLS_2005

> <r_lp_Energy>
12.1745

> <b_lp_Chiralities_Consistent>
1

> <s_lp_Variant>
AV-unprocessed.smi:2568-4

> <Gold.Version>
5.8.1

> <Gold.Id.Protein>
6NUR|6NUR_protein|mol2

> <Gold.PLP.Fitness>
28.3289

> <Gold.PLP.PLP>
-19.3565

> <Gold.PLP.part.hbond>
-3.5272

> <Gold.PLP.part.metal>
0.0000

> <Gold.PLP.part.buried>
-1.2447

> <Gold.PLP.part.nonpolar>
-14.2144

> <Gold.PLP.part.repulsive>
0.3092

> <Gold.PLP.ligand.clash>
0.0000

> <Gold.PLP.ligand.torsion>
0.0201

> <Gold.PLP.Chemscore.Hbond>
3.0000

> <Gold.PLP.Chemscore.CHOScore>
0.0000

> <Gold.PLP.Chemscore.Metal>
0.0000

> <Gold.Chemscore.Hbonds>
donor molecule, donor type, donor heavy atom, donor atom, acceptor molecule, acceptor atom, score
      L1  H     3    13       P1  7949  1.00
      L1  H     8    20       P1  8028  1.00
      P1  H  7989  7998       L1     4  1.00

> <Gold.PLP.Chemscore.Internal.Correction>
0.0126

> <Gold.Rescore>
     Score         DG    S(hbond)    S(metal)    S(lipo)     H(rot)  DE(clash)    DE(int)     intcor
     14.48     -14.61       2.45        0.00      29.95       1.00       0.10       0.03       ----

> <Gold.Chemscore.Fitness>
14.4838

> <Gold.Chemscore.DG>
-14.6133

> <Gold.Chemscore.ZeroCoef>
-5.4800

> <Gold.Chemscore.Hbond>
2.4517

> <Gold.Chemscore.Metal>
0.0000

> <Gold.Chemscore.Lipo>
29.9544

> <Gold.Chemscore.Internal_Hbond>
0.0000

> <Gold.Chemscore.DEClash>
0.0998

> <Gold.Chemscore.DEInternal>
0.0297

> <Gold.Chemscore.Rot>
1.0000

> <Gold.Chemscore.Internal.Correction>
   9.000000E+99

> <Gold.Chemscore.Hbonds>
donor molecule, donor type, donor heavy atom, donor atom, acceptor molecule, acceptor atom, score
      L1  H     3    13       P1  7949  0.25
      L1  H     8    20       P1  8028  1.00
      P1  H  7989  7998       L1     4  0.58

> <Gold.Chemscore.Hbond.Weighted>
-8.1886

> <Gold.Chemscore.Metal.Weighted>
-0.0000

> <Gold.Chemscore.Lipo.Weighted>
-3.5047

> <Gold.Chemscore.Internal_Hbond.Weighted>
0.0000

> <Gold.Chemscore.DEClash.Weighted>
0.0998

> <Gold.Chemscore.DEInternal.Weighted>
0.0297

> <Gold.Chemscore.Rot.Weighted>
2.5600

> <Gold.Chemscore.Internal.Correction.Weighted>
   9.000000E+99

> <Gold.Protein.RotatedTorsions>
[ 6907 6896 6895 6894 ] final  152.12 input  -60.11 | X-H torsion
[ 7974 7965 7964 7962 ] final -130.72 input  175.53 | X-H torsion
[ 8008 7997 7996 7995 ] final  -36.35 input   59.86 | X-H torsion
[ 10167 10162 10161 10158 ] final  -29.00 input  -65.29 | X-H torsion
[ 10718 10713 10712 10709 ] final  134.51 input   66.30 | X-H torsion
[ 10763 10752 10751 10750 ] final -178.38 input  -60.55 | X-H torsion
[ 11005 11000 10999 10996 ] final -130.73 input  -57.11 | X-H torsion

> <Gold.Protein.ActiveResidues>
 VAL166  LYS551  ARG553  GLY616  TRP617  ASP618  TYR619  PRO620  LYS621  CYS622 
 ASP623  PHE694  ASN695  SER759  ASP760  ASP761  ALA762  ILE779  LEU786  VAL792 
 PHE793  MET794  SER795  GLU796  ALA797  LYS798  CYS799  TRP800  GLU811  SER814 

> <Gold.Protein.RotatedAtoms>
  152.0912  133.4201  159.4544 H   0  0  0  0  0  0  0  0  0  0  0  0  # atno 6907 bound_to 6896
  150.6862  134.2870  159.4660 H   0  0  0  0  0  0  0  0  0  0  0  0  # atno 6908 bound_to 6896
  152.0721  134.9526  160.0625 H   0  0  0  0  0  0  0  0  0  0  0  0  # atno 6909 bound_to 6896
  144.9447  140.7278  143.4825 H   0  0  0  0  0  0  0  0  0  0  0  0  # atno 7974 bound_to 7965
  154.4075  140.1633  156.2360 H   0  0  0  0  0  0  0  0  0  0  0  0  # atno 8008 bound_to 7997
  155.9242  140.3419  155.6174 H   0  0  0  0  0  0  0  0  0  0  0  0  # atno 8009 bound_to 7997
  155.7185  140.0765  157.2331 H   0  0  0  0  0  0  0  0  0  0  0  0  # atno 8010 bound_to 7997
  140.7265  143.3964  151.1341 H   0  0  0  0  0  0  0  0  0  0  0  0  # atno 10167 bound_to 10162
  157.4665  131.1077  150.9855 H   0  0  0  0  0  0  0  0  0  0  0  0  # atno 10718 bound_to 10713
  154.5484  135.2811  155.1031 H   0  0  0  0  0  0  0  0  0  0  0  0  # atno 10763 bound_to 10752
  154.2486  135.6343  153.5236 H   0  0  0  0  0  0  0  0  0  0  0  0  # atno 10764 bound_to 10752
  152.9996  135.5577  154.6043 H   0  0  0  0  0  0  0  0  0  0  0  0  # atno 10765 bound_to 10752
  140.9320  134.1307  157.4226 H   0  0  0  0  0  0  0  0  0  0  0  0  # atno 11005 bound_to 11000
  145.2936  139.1875  143.4727 LP  0  0  0  0  0  0  0  0  0  0  0  0  # atno 17320 bound_to 7965
  146.3299  140.2916  142.8615 LP  0  0  0  0  0  0  0  0  0  0  0  0  # atno 17321 bound_to 7965
  139.7577  143.8683  152.3092 LP  0  0  0  0  0  0  0  0  0  0  0  0  # atno 17342 bound_to 10162
  139.8558  144.7142  150.9159 LP  0  0  0  0  0  0  0  0  0  0  0  0  # atno 17343 bound_to 10162
  157.0635  130.5835  149.5390 LP  0  0  0  0  0  0  0  0  0  0  0  0  # atno 17370 bound_to 10713
  156.0053  130.5139  150.7808 LP  0  0  0  0  0  0  0  0  0  0  0  0  # atno 17371 bound_to 10713
  139.8799  135.0008  156.6032 LP  0  0  0  0  0  0  0  0  0  0  0  0  # atno 17394 bound_to 11000
  140.7849  133.8629  155.8598 LP  0  0  0  0  0  0  0  0  0  0  0  0  # atno 17395 bound_to 11000

$$$$
