#       Name:                AV-unprocessed.smi:287
#       Creating user name   scv26
#       Creation time:       Thu Mar 26 21:54:55 2020


#       File generated by GOLD software.
#

@<TRIPOS>MOLECULE
AV-unprocessed.smi:287
    70    73     1
SMALL
NO_CHARGES


@<TRIPOS>ATOM
      1 ****        -1.9633   3.4259  -4.2960 C.3            1 S1                 0.0000
      2 ****        -2.4709   3.2923  -2.9013 C.2            1 S1                 0.0000
      3 ****        -3.1317   2.3071  -2.2276 C.2            1 S1                 0.0000
      4 ****        -3.3457   2.7708  -0.8953 C.2            1 S1                 0.0000
      5 ****        -4.0515   2.0041   0.2152 C.3            1 S1                 0.0000
      6 ****        -5.5656   1.9803  -0.0513 C.3            1 S1                 0.0000
      7 ****        -3.9040   2.6128   1.4836 O.3            1 S1                 0.0000
      8 ****        -3.5161   0.5622   0.3702 C.3            1 S1                 0.0000
      9 ****        -2.0592   0.4894   0.3280 N.pl3          1 S1                 0.0000
     10 ****        -1.4378  -0.7076   0.3701 C.ar           1 S1                 0.0000
     11 ****        -2.1454  -1.8602   0.5035 N.ar           1 S1                 0.0000
     12 ****        -1.5075  -3.0346   0.5400 C.ar           1 S1                 0.0000
     13 ****        -0.1967  -3.2763   0.4595 N.ar           1 S1                 0.0000
     14 ****         0.5148  -2.1195   0.3272 C.ar           1 S1                 0.0000
     15 ****        -0.0259  -0.8057   0.2753 C.ar           1 S1                 0.0000
     16 ****         1.0006   0.1195   0.1354 N.2            1 S1                 0.0000
     17 ****         2.0835  -0.6110   0.1076 C.2            1 S1                 0.0000
     18 ****         1.8801  -1.9708   0.2236 N.pl3          1 S1                 0.0000
     19 ****         2.8789  -3.0890   0.2278 C.3            1 S1                 0.0000
     20 ****         4.0827  -2.6044  -0.2891 O.3            1 S1                 0.0000
     21 ****         4.9957  -2.3508   0.7731 C.3            1 S1                 0.0000
     22 ****         6.4334  -2.3286   0.2330 C.3            1 S1                 0.0000
     23 ****         6.7254  -1.0559  -0.3033 O.3            1 S1                 0.0000
     24 ****         4.7011  -3.5288   1.7012 C.3            1 S1                 0.0000
     25 ****         5.2157  -3.3445   3.0071 O.3            1 S1                 0.0000
     26 ****         3.1772  -3.6179   1.6523 C.3            1 S1                 0.0000
     27 ****         2.5621  -2.8662   2.6889 O.3            1 S1                 0.0000
     28 ****        -2.7943   4.0295  -0.8698 C.2            1 S1                 0.0000
     29 ****        -2.6666   5.0857   0.1783 C.3            1 S1                 0.0000
     30 ****        -2.2595   4.3516  -2.0808 O.3            1 S1                 0.0000
     31 ****         2.4559  -3.8389  -0.4418 H              1 S1                 0.0000
     32 ****         4.7450  -1.4132   1.2736 H              1 S1                 0.0000
     33 ****         5.1261  -4.4405   1.2785 H              1 S1                 0.0000
     34 ****         2.8417  -4.6523   1.7327 H              1 S1                 0.0000
     35 ****        -2.0446   2.4800  -4.8318 H              1 S1                 0.0000
     36 ****        -0.9155   3.7271  -4.3001 H              1 S1                 0.0000
     37 ****        -2.5341   4.1753  -4.8444 H              1 S1                 0.0000
     38 ****        -3.4270   1.3547  -2.6425 H              1 S1                 0.0000
     39 ****        -5.7922   1.4914  -0.9997 H              1 S1                 0.0000
     40 ****        -5.9760   2.9901  -0.0976 H              1 S1                 0.0000
     41 ****        -6.1021   1.4406   0.7302 H              1 S1                 0.0000
     42 ****        -4.3504   2.0810   2.1244 H              1 S1                 0.0000
     43 ****        -3.8950   0.1026   1.2846 H              1 S1                 0.0000
     44 ****        -3.8906  -0.0394  -0.4593 H              1 S1                 0.0000
     45 ****        -1.5720   1.3687   0.2271 H              1 S1                 0.0000
     46 ****        -2.1374  -3.9048   0.6503 H              1 S1                 0.0000
     47 ****         3.0629  -0.1686  -0.0014 H              1 S1                 0.0000
     48 ****         7.1415  -2.5124   1.0415 H              1 S1                 0.0000
     49 ****         6.5896  -3.1037  -0.5178 H              1 S1                 0.0000
     50 ****         7.6191  -1.0568  -0.6105 H              1 S1                 0.0000
     51 ****         4.9091  -4.0529   3.5524 H              1 S1                 0.0000
     52 ****         2.8368  -1.9656   2.6070 H              1 S1                 0.0000
     53 ****        -3.6445   5.3522   0.5792 H              1 S1                 0.0000
     54 ****        -2.2122   5.9908  -0.2254 H              1 S1                 0.0000
     55 ****        -2.0450   4.7376   1.0030 H              1 S1                 0.0000
     56 ****        -4.3048   3.5288   1.4670 LP             1 S1                 0.0000
     57 ****        -2.9335   2.6777   1.7160 LP             1 S1                 0.0000
     58 ****        -3.1424  -1.8300   0.5743 LP             1 S1                 0.0000
     59 ****         0.2114  -4.1887   0.4920 LP             1 S1                 0.0000
     60 ****         0.9277   1.1147   0.0709 LP             1 S1                 0.0000
     61 ****         3.9115  -1.7558  -0.7895 LP             1 S1                 0.0000
     62 ****         4.4752  -3.2837  -0.9092 LP             1 S1                 0.0000
     63 ****         6.6128  -0.3581   0.4041 LP             1 S1                 0.0000
     64 ****         6.1074  -0.8612  -1.0649 LP             1 S1                 0.0000
     65 ****         4.8956  -2.4719   3.3759 LP             1 S1                 0.0000
     66 ****         6.2153  -3.3482   2.9796 LP             1 S1                 0.0000
     67 ****         2.8428  -3.2255   3.5790 LP             1 S1                 0.0000
     68 ****         1.5674  -2.9251   2.6044 LP             1 S1                 0.0000
     69 ****        -2.7080   5.1660  -2.4488 LP             1 S1                 0.0000
     70 ****        -1.2788   4.5242  -1.9883 LP             1 S1                 0.0000
@<TRIPOS>BOND
    1    1    2 1     
    2    1   35 1     
    3    1   36 1     
    4    1   37 1     
    5    2   30 1     
    6    2    3 2     
    7    3    4 1     
    8    3   38 1     
    9    4    5 1     
   10    4   28 2     
   11    5    6 1     
   12    5    7 1     
   13    5    8 1     
   14    6   39 1     
   15    6   40 1     
   16    6   41 1     
   17    7   42 1     
   18    8    9 1     
   19    8   43 1     
   20    8   44 1     
   21    9   10 1     
   22    9   45 1     
   23   10   15 ar    
   24   10   11 ar    
   25   11   12 ar    
   26   12   13 ar    
   27   12   46 1     
   28   13   14 ar    
   29   14   18 1     
   30   14   15 ar    
   31   15   16 1     
   32   16   17 2     
   33   17   18 1     
   34   17   47 1     
   35   18   19 1     
   36   19   31 1     
   37   19   26 1     
   38   19   20 1     
   39   20   21 1     
   40   21   32 1     
   41   21   22 1     
   42   21   24 1     
   43   22   23 1     
   44   22   48 1     
   45   22   49 1     
   46   23   50 1     
   47   24   33 1     
   48   24   25 1     
   49   24   26 1     
   50   25   51 1     
   51   26   34 1     
   52   26   27 1     
   53   27   52 1     
   54   28   29 1     
   55   28   30 1     
   56   29   53 1     
   57   29   54 1     
   58   29   55 1     
   59    7   56 1     
   60    7   57 1     
   61   11   58 1     
   62   13   59 1     
   63   16   60 1     
   64   20   61 1     
   65   20   62 1     
   66   23   63 1     
   67   23   64 1     
   68   25   65 1     
   69   25   66 1     
   70   27   67 1     
   71   27   68 1     
   72   30   69 1     
   73   30   70 1     
@<TRIPOS>SUBSTRUCTURE
      1 S1             1
@<TRIPOS>SET
LONE_PAIRS      STATIC     ATOMS    <user>   **** ""
15 56 57 58 59 60 61 62 63 64 65 66 67 68 69 70
DONOR_HYDROGENS      STATIC     ATOMS    <user>   **** ""
5 42 45 50 51 52
ATOM$BLUE        STATIC     ATOMS    COLORGROUP SYSTEM
15 56 57 58 59 60 61 62 63 64 65 66 67 68 69 70
ATOM$RED        STATIC     ATOMS    COLORGROUP SYSTEM
5 42 45 50 51 52
