AV-unprocessed.smi:992|AV-procd|sdf|4332|dock6
  -GOLD-   22720 2233D 1   1.00000     0.00000
 Structure written by MMmdl.
 33 34  0  0  0  0  0  0  0  0  2 V2000
  153.2421  142.1997  161.1821 C   0  0  0  0  0  0  0  0  0  0  0  0
  152.2788  142.7994  160.1527 C   0  0  2  0  0  0  0  0  0  0  0  0
  152.1176  141.8933  158.9191 C   0  0  0  0  0  0  0  0  0  0  0  0
  151.2787  142.5491  157.9263 N   0  0  0  0  0  0  0  0  0  0  0  0
  150.9665  141.7268  156.8358 C   0  0  0  0  0  0  0  0  0  0  0  0
  151.5334  140.4460  156.6364 C   0  0  0  0  0  0  0  0  0  0  0  0
  151.1530  139.6898  155.5082 C   0  0  0  0  0  0  0  0  0  0  0  0
  150.2152  140.2265  154.6011 C   0  0  0  0  0  0  0  0  0  0  0  0
  149.8193  139.5006  153.4794 N   0  0  0  0  0  0  0  0  0  0  0  0
  149.6829  141.5089  154.8465 C   0  0  0  0  0  0  0  0  0  0  0  0
  150.0732  142.2011  155.9390 N   0  3  0  0  0  0  0  0  0  0  0  0
  151.7998  143.8514  157.5320 C   0  0  0  0  0  0  0  0  0  0  0  0
  152.0126  144.7516  158.7656 C   0  0  1  0  0  0  0  0  0  0  0  0
  150.7048  145.3067  159.3576 C   0  0  0  0  0  0  0  0  0  0  0  0
  152.7981  144.0653  159.7443 O   0  0  0  0  0  0  0  0  0  0  0  0
  152.8875  141.2303  161.5333 H   0  0  0  0  0  0  0  0  0  0  0  0
  153.3397  142.8520  162.0503 H   0  0  0  0  0  0  0  0  0  0  0  0
  154.2369  142.0591  160.7580 H   0  0  0  0  0  0  0  0  0  0  0  0
  151.3111  142.9369  160.6357 H   0  0  0  0  0  0  0  0  0  0  0  0
  153.0954  141.6738  158.4881 H   0  0  0  0  0  0  0  0  0  0  0  0
  151.6708  140.9412  159.2087 H   0  0  0  0  0  0  0  0  0  0  0  0
  152.2504  140.0430  157.3365 H   0  0  0  0  0  0  0  0  0  0  0  0
  151.5775  138.7098  155.3449 H   0  0  0  0  0  0  0  0  0  0  0  0
  150.1892  138.5803  153.2875 H   0  0  0  0  0  0  0  0  0  0  0  0
  149.1847  139.8873  152.7951 H   0  0  0  0  0  0  0  0  0  0  0  0
  148.9618  142.0005  154.2094 H   0  0  0  0  0  0  0  0  0  0  0  0
  152.7514  143.7152  157.0162 H   0  0  0  0  0  0  0  0  0  0  0  0
  151.1204  144.3301  156.8252 H   0  0  0  0  0  0  0  0  0  0  0  0
  152.6038  145.6116  158.4498 H   0  0  0  0  0  0  0  0  0  0  0  0
  150.1848  145.9290  158.6291 H   0  0  0  0  0  0  0  0  0  0  0  0
  150.9071  145.9248  160.2326 H   0  0  0  0  0  0  0  0  0  0  0  0
  150.0165  144.5173  159.6580 H   0  0  0  0  0  0  0  0  0  0  0  0
  149.6726  143.1263  156.0950 H   0  0  0  0  0  0  0  0  0  0  0  0
  1  2  1  0  0  0  0
  1 16  1  0  0  0  0
  1 17  1  0  0  0  0
  1 18  1  0  0  0  0
  2 15  1  0  0  0  0
  2  3  1  0  0  0  0
  2 19  1  0  0  0  0
  3  4  1  0  0  0  0
  3 20  1  0  0  0  0
  3 21  1  0  0  0  0
  4  5  1  0  0  0  0
  4 12  1  0  0  0  0
  5 11  1  0  0  0  0
  5  6  2  0  0  0  0
  6  7  1  0  0  0  0
  6 22  1  0  0  0  0
  7  8  2  0  0  0  0
  7 23  1  0  0  0  0
  8  9  1  0  0  0  0
  8 10  1  0  0  0  0
  9 24  1  0  0  0  0
  9 25  1  0  0  0  0
 10 11  2  0  0  0  0
 10 26  1  0  0  0  0
 11 33  1  0  0  0  0
 12 13  1  0  0  0  0
 12 27  1  0  0  0  0
 12 28  1  0  0  0  0
 13 14  1  0  0  0  0
 13 15  1  0  0  0  0
 13 29  1  0  0  0  0
 14 30  1  0  0  0  0
 14 31  1  0  0  0  0
 14 32  1  0  0  0  0
M  CHG  1  11   1
M  END
> <s_m_source_file>
AV-unprocessed.smi

> <i_m_source_file_index>
992

> <i_lp_mmshare_version>
43012

> <i_f3d_flags>
0

> <s_epik_input>
W0NIM11bQ0BASF0xW0NIMl1OKFtDSDJdW0NASF0oTzEpW0NIM10pYzJbY0hdW2NIXWMoW05IMl0pW2NIXW4y

> <s_epik_cmdline>
J2VwaWtfcHl0aG9uJywgJy1waCcsICc3LjAnLCAnLXRuJywgJzgnLCAnLW1hJywgJzIwMCcsICctbWV0YWxfYmluZGluZycsICctaW1hZScsICc8aW5maWxlLm1hZT4nLCAnLW9tYWUnLCAnPG91dGZpbGUubWFlPic=

> <r_lp_tautomer_probability>
0.999846

> <r_epik_Ionization_Penalty>
2.28753

> <r_epik_Ionization_Penalty_Charging>
2.28753

> <r_epik_Ionization_Penalty_Neutral>
1.09395e-07

> <r_epik_State_Penalty>
2.43729

> <r_epik_Charging_Adjusted_Penalty>
4.72482

> <i_epik_Tot_Q>
1

> <i_epik_Tot_abs_Q>
1

> <r_epik_Metal_State_Penalty>
6.52028

> <b_epik_Metal_Only>
0

> <s_lp_Force_Field>
OPLS_2005

> <r_lp_Energy>
28.0969

> <b_lp_Chiralities_Consistent>
1

> <s_lp_Variant>
AV-unprocessed.smi:992-4

> <Gold.Version>
5.8.1

> <Gold.Id.Protein>
6NUR|6NUR_protein|mol2

> <Gold.PLP.Fitness>
44.6956

> <Gold.PLP.PLP>
-37.8531

> <Gold.PLP.part.hbond>
-1.9066

> <Gold.PLP.part.metal>
0.0000

> <Gold.PLP.part.buried>
-3.9144

> <Gold.PLP.part.nonpolar>
-32.6317

> <Gold.PLP.part.repulsive>
0.3148

> <Gold.PLP.ligand.clash>
0.0000

> <Gold.PLP.ligand.torsion>
0.0556

> <Gold.PLP.Chemscore.Hbond>
2.2880

> <Gold.PLP.Chemscore.CHOScore>
0.0000

> <Gold.PLP.Chemscore.Metal>
0.0000

> <Gold.Chemscore.Hbonds>
donor molecule, donor type, donor heavy atom, donor atom, acceptor molecule, acceptor atom, score
      L1  H     9    25       P1  7957  0.45
      L1  H    11    33       P1  8028  2.00

> <Gold.PLP.Chemscore.Internal.Correction>
0.0897

> <Gold.Rescore>
     Score         DG    S(hbond)    S(metal)    S(lipo)     H(rot)  DE(clash)    DE(int)     intcor
     18.85     -19.10       1.52        0.00      94.95       1.00       0.14       0.10       ----

> <Gold.Chemscore.Fitness>
18.8528

> <Gold.Chemscore.DG>
-19.0979

> <Gold.Chemscore.ZeroCoef>
-5.4800

> <Gold.Chemscore.Hbond>
1.5176

> <Gold.Chemscore.Metal>
0.0000

> <Gold.Chemscore.Lipo>
94.9508

> <Gold.Chemscore.Internal_Hbond>
0.0000

> <Gold.Chemscore.DEClash>
0.1421

> <Gold.Chemscore.DEInternal>
0.1030

> <Gold.Chemscore.Rot>
1.0000

> <Gold.Chemscore.Internal.Correction>
   9.000000E+99

> <Gold.Chemscore.Hbonds>
donor molecule, donor type, donor heavy atom, donor atom, acceptor molecule, acceptor atom, score
      L1  H     9    25       P1  7957  0.44
      L1  H    11    33       P1  8028  0.99

> <Gold.Chemscore.Hbond.Weighted>
-5.0687

> <Gold.Chemscore.Metal.Weighted>
-0.0000

> <Gold.Chemscore.Lipo.Weighted>
-11.1092

> <Gold.Chemscore.Internal_Hbond.Weighted>
0.0000

> <Gold.Chemscore.DEClash.Weighted>
0.1421

> <Gold.Chemscore.DEInternal.Weighted>
0.1030

> <Gold.Chemscore.Rot.Weighted>
2.5600

> <Gold.Chemscore.Internal.Correction.Weighted>
   9.000000E+99

> <Gold.Protein.RotatedTorsions>
[ 6907 6896 6895 6894 ] final -126.25 input  -60.11 | X-H torsion
[ 7974 7965 7964 7962 ] final   -2.99 input  175.53 | X-H torsion
[ 8008 7997 7996 7995 ] final   47.47 input   59.86 | X-H torsion
[ 10167 10162 10161 10158 ] final   84.77 input  -65.29 | X-H torsion
[ 10718 10713 10712 10709 ] final -105.38 input   66.30 | X-H torsion
[ 10763 10752 10751 10750 ] final -150.60 input  -60.55 | X-H torsion
[ 11005 11000 10999 10996 ] final  167.29 input  -57.11 | X-H torsion

> <Gold.Protein.ActiveResidues>
 VAL166  LYS551  ARG553  GLY616  TRP617  ASP618  TYR619  PRO620  LYS621  CYS622 
 ASP623  PHE694  ASN695  SER759  ASP760  ASP761  ALA762  ILE779  LEU786  VAL792 
 PHE793  MET794  SER795  GLU796  ALA797  LYS798  CYS799  TRP800  GLU811  SER814 

> <Gold.Protein.RotatedAtoms>
  150.8950  133.7193  159.2894 H   0  0  0  0  0  0  0  0  0  0  0  0  # atno 6907 bound_to 6896
  151.4731  135.1046  159.9766 H   0  0  0  0  0  0  0  0  0  0  0  0  # atno 6908 bound_to 6896
  152.4843  133.8285  159.7146 H   0  0  0  0  0  0  0  0  0  0  0  0  # atno 6909 bound_to 6896
  146.2396  140.1654  142.8332 H   0  0  0  0  0  0  0  0  0  0  0  0  # atno 7974 bound_to 7965
  155.3695  140.3423  155.4243 H   0  0  0  0  0  0  0  0  0  0  0  0  # atno 8008 bound_to 7997
  156.1670  140.1619  156.8548 H   0  0  0  0  0  0  0  0  0  0  0  0  # atno 8009 bound_to 7997
  154.5195  140.0770  156.8127 H   0  0  0  0  0  0  0  0  0  0  0  0  # atno 8010 bound_to 7997
  139.9046  144.6309  150.8601 H   0  0  0  0  0  0  0  0  0  0  0  0  # atno 10167 bound_to 10162
  156.0344  130.5561  150.7531 H   0  0  0  0  0  0  0  0  0  0  0  0  # atno 10718 bound_to 10713
  154.8109  135.3280  154.7307 H   0  0  0  0  0  0  0  0  0  0  0  0  # atno 10763 bound_to 10752
  153.7957  135.6907  153.4868 H   0  0  0  0  0  0  0  0  0  0  0  0  # atno 10764 bound_to 10752
  153.1887  135.4559  155.0068 H   0  0  0  0  0  0  0  0  0  0  0  0  # atno 10765 bound_to 10752
  140.2752  134.7794  157.3710 H   0  0  0  0  0  0  0  0  0  0  0  0  # atno 11005 bound_to 11000
  145.0055  140.8669  143.5255 LP  0  0  0  0  0  0  0  0  0  0  0  0  # atno 17320 bound_to 7965
  145.1679  139.2421  143.5357 LP  0  0  0  0  0  0  0  0  0  0  0  0  # atno 17321 bound_to 7965
  140.7699  143.3411  151.2206 LP  0  0  0  0  0  0  0  0  0  0  0  0  # atno 17342 bound_to 10162
  139.6995  143.9556  152.2899 LP  0  0  0  0  0  0  0  0  0  0  0  0  # atno 17343 bound_to 10162
  157.5070  131.0923  151.0245 LP  0  0  0  0  0  0  0  0  0  0  0  0  # atno 17370 bound_to 10713
  157.0610  130.5825  149.5386 LP  0  0  0  0  0  0  0  0  0  0  0  0  # atno 17371 bound_to 10713
  140.1335  134.5064  155.8087 LP  0  0  0  0  0  0  0  0  0  0  0  0  # atno 17394 bound_to 11000
  141.2171  133.6798  156.7082 LP  0  0  0  0  0  0  0  0  0  0  0  0  # atno 17395 bound_to 11000

$$$$
