#       Name:                AV-unprocessed.smi:1205
#       Creating user name   scv26
#       Creation time:       Fri Mar 27 04:06:43 2020


#       File generated by GOLD software.
#

@<TRIPOS>MOLECULE
AV-unprocessed.smi:1205
    52    53     1
SMALL
NO_CHARGES


@<TRIPOS>ATOM
      1 ****        -6.1988   3.9731   0.1943 C.3            1 S1                 0.0000
      2 ****        -5.5311   2.6821  -0.1772 C.2            1 S1                 0.0000
      3 ****        -4.1350   2.4074  -0.2599 C.2            1 S1                 0.0000
      4 ****        -4.1090   1.0932  -0.6393 C.2            1 S1                 0.0000
      5 ****        -3.0361   0.2943  -0.8816 N.am           1 S1                 0.0000
      6 ****        -1.7302   0.5706  -0.7222 C.2            1 S1                 0.0000
      7 ****        -1.2675   1.6358  -0.3135 O.2            1 S1                 0.0000
      8 ****        -0.9683  -0.4793  -1.0601 N.am           1 S1                 0.0000
      9 ****         0.4895  -0.5070  -0.9962 C.3            1 S1                 0.0000
     10 ****         1.0176  -0.6798   0.4513 C.3            1 S1                 0.0000
     11 ****         0.4902  -1.9593   1.1280 C.3            1 S1                 0.0000
     12 ****         2.5048  -0.6096   0.5456 N.4            1 S1                 1.0000
     13 ****         3.0403   0.7743   0.4585 C.3            1 S1                 0.0000
     14 ****         4.5285   0.8075   0.8418 C.3            1 S1                 0.0000
     15 ****         5.3449  -0.1640  -0.0238 C.3            1 S1                 0.0000
     16 ****         4.7484  -1.5843   0.0074 C.3            1 S1                 0.0000
     17 ****         5.0162  -2.3165   1.3340 C.3            1 S1                 0.0000
     18 ****         3.2471  -1.5460  -0.3438 C.3            1 S1                 0.0000
     19 ****        -5.4036   0.6415  -0.7690 N.pl3          1 S1                 0.0000
     20 ****        -5.8888  -0.6694  -1.1550 C.3            1 S1                 0.0000
     21 ****        -6.2800   1.6279  -0.4811 N.2            1 S1                 0.0000
     22 ****        -5.4646   4.7391   0.4446 H              1 S1                 0.0000
     23 ****        -6.8508   3.8441   1.0585 H              1 S1                 0.0000
     24 ****        -6.8054   4.3517  -0.6288 H              1 S1                 0.0000
     25 ****        -3.3100   3.0778  -0.0720 H              1 S1                 0.0000
     26 ****        -3.2585  -0.6329  -1.2126 H              1 S1                 0.0000
     27 ****        -1.4275  -1.3171  -1.3871 H              1 S1                 0.0000
     28 ****         0.8183  -1.3344  -1.6248 H              1 S1                 0.0000
     29 ****         0.8843   0.4024  -1.4514 H              1 S1                 0.0000
     30 ****         0.6328   0.1465   1.0505 H              1 S1                 0.0000
     31 ****        -0.5942  -1.9299   1.2372 H              1 S1                 0.0000
     32 ****         0.9095  -2.0757   2.1277 H              1 S1                 0.0000
     33 ****         0.7344  -2.8546   0.5568 H              1 S1                 0.0000
     34 ****         2.9063   1.1635  -0.5515 H              1 S1                 0.0000
     35 ****         2.4870   1.4335   1.1284 H              1 S1                 0.0000
     36 ****         4.9180   1.8197   0.7288 H              1 S1                 0.0000
     37 ****         4.6428   0.5534   1.8960 H              1 S1                 0.0000
     38 ****         5.3511   0.1983  -1.0526 H              1 S1                 0.0000
     39 ****         6.3862  -0.1772   0.3002 H              1 S1                 0.0000
     40 ****         5.2508  -2.1632  -0.7686 H              1 S1                 0.0000
     41 ****         4.5335  -1.8229   2.1774 H              1 S1                 0.0000
     42 ****         6.0847  -2.3655   1.5456 H              1 S1                 0.0000
     43 ****         4.6437  -3.3405   1.2960 H              1 S1                 0.0000
     44 ****         2.8338  -2.5519  -0.2762 H              1 S1                 0.0000
     45 ****         3.1325  -1.2303  -1.3816 H              1 S1                 0.0000
     46 ****        -5.3650  -1.4384  -0.5868 H              1 S1                 0.0000
     47 ****        -5.7089  -0.8261  -2.2188 H              1 S1                 0.0000
     48 ****        -6.9585  -0.7555  -0.9590 H              1 S1                 0.0000
     49 ****         2.7147  -0.9076   1.4875 H              1 S1                 0.0000
     50 ****        -1.8813   2.3861  -0.0680 LP             1 S1                 0.0000
     51 ****        -0.2779   1.7507  -0.2271 LP             1 S1                 0.0000
     52 ****        -7.2786   1.5759  -0.4940 LP             1 S1                 0.0000
@<TRIPOS>BOND
    1    1    2 1     
    2    1   22 1     
    3    1   23 1     
    4    1   24 1     
    5    2   21 2     
    6    2    3 1     
    7    3    4 2     
    8    3   25 1     
    9    4    5 1     
   10    4   19 1     
   11    5    6 am    
   12    5   26 1     
   13    6    7 2     
   14    6    8 am    
   15    8    9 1     
   16    8   27 1     
   17    9   10 1     
   18    9   28 1     
   19    9   29 1     
   20   10   11 1     
   21   10   12 1     
   22   10   30 1     
   23   11   31 1     
   24   11   32 1     
   25   11   33 1     
   26   12   18 1     
   27   12   13 1     
   28   12   49 1     
   29   13   14 1     
   30   13   34 1     
   31   13   35 1     
   32   14   15 1     
   33   14   36 1     
   34   14   37 1     
   35   15   16 1     
   36   15   38 1     
   37   15   39 1     
   38   16   17 1     
   39   16   18 1     
   40   16   40 1     
   41   17   41 1     
   42   17   42 1     
   43   17   43 1     
   44   18   44 1     
   45   18   45 1     
   46   19   20 1     
   47   19   21 1     
   48   20   46 1     
   49   20   47 1     
   50   20   48 1     
   51    7   50 1     
   52    7   51 1     
   53   21   52 1     
@<TRIPOS>SUBSTRUCTURE
      1 S1             1
@<TRIPOS>SET
LONE_PAIRS      STATIC     ATOMS    <user>   **** ""
3 50 51 52
DONOR_HYDROGENS      STATIC     ATOMS    <user>   **** ""
3 26 27 49
ATOM$BLUE        STATIC     ATOMS    COLORGROUP SYSTEM
3 50 51 52
ATOM$RED        STATIC     ATOMS    COLORGROUP SYSTEM
3 26 27 49
