#       Name:                AV-unprocessed.smi:1388
#       Creating user name   scv26
#       Creation time:       Fri Mar 27 05:26:20 2020


#       File generated by GOLD software.
#

@<TRIPOS>MOLECULE
AV-unprocessed.smi:1388
    51    52     1
SMALL
NO_CHARGES


@<TRIPOS>ATOM
      1 ****        -3.1283   3.6335  -5.0028 C.3            1 S1                 0.0000
      2 ****        -2.8818   2.4416  -4.1995 N.pl3          1 S1                -1.0000
      3 ****        -3.3156   2.2979  -2.9167 C.2            1 S1                 0.0000
      4 ****        -3.9583   3.0648  -2.1929 O.2            1 S1                 0.0000
      5 ****        -2.9009   0.9370  -2.3436 C.3            1 S1                 0.0000
      6 ****        -1.4217   0.8033  -2.3099 N.4            1 S1                 1.0000
      7 ****        -0.9819  -0.6145  -2.3303 C.3            1 S1                 0.0000
      8 ****         0.5496  -0.7236  -2.4455 C.3            1 S1                 0.0000
      9 ****         1.2696   0.0558  -1.3318 C.3            1 S1                 0.0000
     10 ****         1.0974  -0.6179  -0.0451 N.am           1 S1                 0.0000
     11 ****         1.9014  -0.4783   1.0192 C.2            1 S1                 0.0000
     12 ****         2.8877   0.2584   1.0315 O.2            1 S1                 0.0000
     13 ****         1.4819  -1.2391   2.0458 N.am           1 S1                 0.0000
     14 ****         2.0637  -1.3851   3.3368 C.ar           1 S1                 0.0000
     15 ****         3.1908  -0.7288   3.7100 N.ar           1 S1                 0.0000
     16 ****         3.6909  -0.9164   4.9485 C.ar           1 S1                 0.0000
     17 ****         3.0980  -1.7701   5.8943 C.ar           1 S1                 0.0000
     18 ****         1.9288  -2.4565   5.5245 C.ar           1 S1                 0.0000
     19 ****         1.3985  -2.2665   4.2306 C.ar           1 S1                 0.0000
     20 ****         0.1339  -3.0084   3.8292 C.3            1 S1                 0.0000
     21 ****         0.7479   1.5056  -1.2935 C.3            1 S1                 0.0000
     22 ****        -0.7871   1.5642  -1.2006 C.3            1 S1                 0.0000
     23 ****        -2.6418   3.5729  -5.9760 H              1 S1                 0.0000
     24 ****        -2.7537   4.5406  -4.5274 H              1 S1                 0.0000
     25 ****        -4.1895   3.7926  -5.1961 H              1 S1                 0.0000
     26 ****        -3.3180   0.7942  -1.3454 H              1 S1                 0.0000
     27 ****        -3.3384   0.1629  -2.9765 H              1 S1                 0.0000
     28 ****        -1.3342  -1.1182  -1.4290 H              1 S1                 0.0000
     29 ****        -1.4387  -1.1272  -3.1777 H              1 S1                 0.0000
     30 ****         0.8534  -1.7711  -2.4321 H              1 S1                 0.0000
     31 ****         0.8610  -0.3310  -3.4146 H              1 S1                 0.0000
     32 ****         2.3358   0.0711  -1.5655 H              1 S1                 0.0000
     33 ****         0.3130  -1.2481   0.0356 H              1 S1                 0.0000
     34 ****         0.6496  -1.7863   1.8854 H              1 S1                 0.0000
     35 ****         4.5900  -0.3697   5.1913 H              1 S1                 0.0000
     36 ****         3.5286  -1.8946   6.8769 H              1 S1                 0.0000
     37 ****         1.4475  -3.1198   6.2278 H              1 S1                 0.0000
     38 ****        -0.2350  -3.6332   4.6431 H              1 S1                 0.0000
     39 ****         0.3255  -3.6540   2.9716 H              1 S1                 0.0000
     40 ****        -0.6546  -2.3034   3.5646 H              1 S1                 0.0000
     41 ****         1.1950   2.0538  -0.4633 H              1 S1                 0.0000
     42 ****         1.0661   2.0230  -2.1997 H              1 S1                 0.0000
     43 ****        -1.1026   2.6074  -1.2334 H              1 S1                 0.0000
     44 ****        -1.1242   1.1653  -0.2426 H              1 S1                 0.0000
     45 ****        -1.0988   1.2165  -3.1742 H              1 S1                 0.0000
     46 ****        -2.3671   1.6902  -4.6124 LP             1 S1                 0.0000
     47 ****        -4.2425   3.9588  -2.5394 LP             1 S1                 0.0000
     48 ****        -4.1946   2.7918  -1.2604 LP             1 S1                 0.0000
     49 ****         3.1239   0.7913   0.2190 LP             1 S1                 0.0000
     50 ****         3.4526   0.3238   1.8540 LP             1 S1                 0.0000
     51 ****         3.6478  -0.1100   3.0711 LP             1 S1                 0.0000
@<TRIPOS>BOND
    1    1    2 1     
    2    1   23 1     
    3    1   24 1     
    4    1   25 1     
    5    2    3 1     
    6    3    4 2     
    7    3    5 1     
    8    5    6 1     
    9    5   26 1     
   10    5   27 1     
   11    6   22 1     
   12    6    7 1     
   13    6   45 1     
   14    7    8 1     
   15    7   28 1     
   16    7   29 1     
   17    8    9 1     
   18    8   30 1     
   19    8   31 1     
   20    9   10 1     
   21    9   21 1     
   22    9   32 1     
   23   10   11 am    
   24   10   33 1     
   25   11   12 2     
   26   11   13 am    
   27   13   14 1     
   28   13   34 1     
   29   14   19 ar    
   30   14   15 ar    
   31   15   16 ar    
   32   16   17 ar    
   33   16   35 1     
   34   17   18 ar    
   35   17   36 1     
   36   18   19 ar    
   37   18   37 1     
   38   19   20 1     
   39   20   38 1     
   40   20   39 1     
   41   20   40 1     
   42   21   22 1     
   43   21   41 1     
   44   21   42 1     
   45   22   43 1     
   46   22   44 1     
   47    2   46 1     
   48    4   47 1     
   49    4   48 1     
   50   12   49 1     
   51   12   50 1     
   52   15   51 1     
@<TRIPOS>SUBSTRUCTURE
      1 S1             1
@<TRIPOS>SET
LONE_PAIRS      STATIC     ATOMS    <user>   **** ""
6 46 47 48 49 50 51
DONOR_HYDROGENS      STATIC     ATOMS    <user>   **** ""
3 45 33 34
ATOM$BLUE        STATIC     ATOMS    COLORGROUP SYSTEM
6 46 47 48 49 50 51
ATOM$RED        STATIC     ATOMS    COLORGROUP SYSTEM
3 45 33 34
