AV-unprocessed.smi:1308|AV-procd|sdf|5441|dock9
  -GOLD-   22720 5 13D 1   1.00000     0.00000
 Structure written by MMmdl.
 45 45  0  0  0  0  0  0  0  0  1 V2000
  150.9826  142.3174  156.4195 C   0  0  0  0  0  0  0  0  0  0  0  0
  150.0030  141.6164  155.5038 C   0  0  0  0  0  0  0  0  0  0  0  0
  148.8556  142.3498  155.2503 N   0  0  0  0  0  0  0  0  0  0  0  0
  147.9022  141.7931  154.4159 C   0  0  0  0  0  0  0  0  0  0  0  0
  146.6765  142.6615  154.1894 C   0  0  0  0  0  0  0  0  0  0  0  0
  148.0816  140.5652  153.8657 C   0  0  0  0  0  0  0  0  0  0  0  0
  147.0537  139.9151  152.9399 C   0  0  0  0  0  0  0  0  0  0  0  0
  146.6251  138.4893  153.2962 C   0  0  0  0  0  0  0  0  0  0  0  0
  147.2049  137.8648  154.1846 O   0  0  0  0  0  0  0  0  0  0  0  0
  145.5910  137.9985  152.5923 N   0  0  0  0  0  0  0  0  0  0  0  0
  144.9420  136.6950  152.7553 C   0  0  1  0  0  0  0  0  0  0  0  0
  143.4083  136.8213  152.7817 C   0  0  0  0  0  0  0  0  0  0  0  0
  145.4290  135.6492  151.7268 C   0  0  0  0  0  0  0  0  0  0  0  0
  144.7225  134.2834  151.8428 C   0  0  0  0  0  0  0  0  0  0  0  0
  145.1167  133.2747  150.7447 C   0  0  0  0  0  0  0  0  0  0  0  0
  144.3045  131.9709  150.8234 C   0  0  0  0  0  0  0  0  0  0  0  0
  146.6212  132.9690  150.8038 C   0  0  0  0  0  0  0  0  0  0  0  0
  149.3248  139.8236  154.1831 C   0  0  0  0  0  0  0  0  0  0  0  0
  149.5378  138.6996  153.7303 O   0  0  0  0  0  0  0  0  0  0  0  0
  150.2643  140.4370  155.0277 N   0  0  0  0  0  0  0  0  0  0  0  0
  148.6818  143.2651  155.6397 H   0  0  0  0  0  0  0  0  0  0  0  0
  151.8538  141.6904  156.6128 H   0  0  0  0  0  0  0  0  0  0  0  0
  150.5117  142.5490  157.3753 H   0  0  0  0  0  0  0  0  0  0  0  0
  151.3268  143.2480  155.9670 H   0  0  0  0  0  0  0  0  0  0  0  0
  145.7727  142.1364  154.4992 H   0  0  0  0  0  0  0  0  0  0  0  0
  146.5814  142.9197  153.1347 H   0  0  0  0  0  0  0  0  0  0  0  0
  146.7327  143.5912  154.7571 H   0  0  0  0  0  0  0  0  0  0  0  0
  147.4072  139.9224  151.9084 H   0  0  0  0  0  0  0  0  0  0  0  0
  146.1600  140.5399  152.9314 H   0  0  0  0  0  0  0  0  0  0  0  0
  145.1958  138.6000  151.8841 H   0  0  0  0  0  0  0  0  0  0  0  0
  145.2461  136.3441  153.7420 H   0  0  0  0  0  0  0  0  0  0  0  0
  142.9456  135.8692  153.0427 H   0  0  0  0  0  0  0  0  0  0  0  0
  143.0077  137.1230  151.8138 H   0  0  0  0  0  0  0  0  0  0  0  0
  143.0858  137.5555  153.5206 H   0  0  0  0  0  0  0  0  0  0  0  0
  145.2666  136.0565  150.7293 H   0  0  0  0  0  0  0  0  0  0  0  0
  146.5065  135.5089  151.8172 H   0  0  0  0  0  0  0  0  0  0  0  0
  144.9649  133.8465  152.8121 H   0  0  0  0  0  0  0  0  0  0  0  0
  143.6412  134.4262  151.8400 H   0  0  0  0  0  0  0  0  0  0  0  0
  144.9204  133.7349  149.7753 H   0  0  0  0  0  0  0  0  0  0  0  0
  144.4277  131.4853  151.7920 H   0  0  0  0  0  0  0  0  0  0  0  0
  144.6241  131.2648  150.0566 H   0  0  0  0  0  0  0  0  0  0  0  0
  143.2400  132.1465  150.6705 H   0  0  0  0  0  0  0  0  0  0  0  0
  146.8962  132.5143  151.7562 H   0  0  0  0  0  0  0  0  0  0  0  0
  147.2140  133.8765  150.6843 H   0  0  0  0  0  0  0  0  0  0  0  0
  146.9145  132.2813  150.0101 H   0  0  0  0  0  0  0  0  0  0  0  0
  1 22  1  0  0  0  0
  1 23  1  0  0  0  0
  1 24  1  0  0  0  0
  1  2  1  0  0  0  0
  2  3  1  0  0  0  0
  2 20  2  0  0  0  0
  3  4  1  0  0  0  0
  3 21  1  0  0  0  0
  4  6  2  0  0  0  0
  4  5  1  0  0  0  0
  5 25  1  0  0  0  0
  5 26  1  0  0  0  0
  5 27  1  0  0  0  0
  6 18  1  0  0  0  0
  6  7  1  0  0  0  0
  7  8  1  0  0  0  0
  7 28  1  0  0  0  0
  7 29  1  0  0  0  0
  8  9  2  0  0  0  0
  8 10  1  0  0  0  0
 10 11  1  0  0  0  0
 10 30  1  0  0  0  0
 11 12  1  0  0  0  0
 11 13  1  0  0  0  0
 11 31  1  0  0  0  0
 12 32  1  0  0  0  0
 12 33  1  0  0  0  0
 12 34  1  0  0  0  0
 13 14  1  0  0  0  0
 13 35  1  0  0  0  0
 13 36  1  0  0  0  0
 14 15  1  0  0  0  0
 14 37  1  0  0  0  0
 14 38  1  0  0  0  0
 15 16  1  0  0  0  0
 15 17  1  0  0  0  0
 15 39  1  0  0  0  0
 16 40  1  0  0  0  0
 16 41  1  0  0  0  0
 16 42  1  0  0  0  0
 17 43  1  0  0  0  0
 17 44  1  0  0  0  0
 17 45  1  0  0  0  0
 18 19  2  0  0  0  0
 18 20  1  0  0  0  0
M  END
> <s_m_source_file>
AV-unprocessed.smi

> <i_m_source_file_index>
1308

> <i_lp_mmshare_version>
43012

> <i_f3d_flags>
0

> <s_epik_input>
W0NIM11jMW5jKFtDSDNdKWMoYyg9TylbbkhdMSlbQ0gyXUMoPU8pW05IXVtDQEhdKFtDSDNdKVtDSDJdW0NIMl1bQ0hdKFtDSDNdKVtDSDNd

> <s_epik_cmdline>
J2VwaWtfcHl0aG9uJywgJy1waCcsICc3LjAnLCAnLXRuJywgJzgnLCAnLW1hJywgJzIwMCcsICctbWV0YWxfYmluZGluZycsICctaW1hZScsICc8aW5maWxlLm1hZT4nLCAnLW9tYWUnLCAnPG91dGZpbGUubWFlPic=

> <r_lp_tautomer_probability>
0.156392

> <r_epik_Ionization_Penalty>
0.0141156

> <r_epik_Ionization_Penalty_Charging>
0.0139937

> <r_epik_Ionization_Penalty_Neutral>
0.00012188

> <r_epik_State_Penalty>
1.52994

> <r_epik_Charging_Adjusted_Penalty>
1.54393

> <i_epik_Tot_Q>
0

> <i_epik_Tot_abs_Q>
0

> <r_epik_Metal_State_Penalty>
1.70663

> <b_epik_Metal_Only>
0

> <s_lp_Force_Field>
OPLS_2005

> <r_lp_Energy>
10.3869

> <b_lp_Chiralities_Consistent>
1

> <s_lp_Variant>
AV-unprocessed.smi:1308-4

> <Gold.Version>
5.8.1

> <Gold.Id.Protein>
6NUR|6NUR_protein|mol2

> <Gold.PLP.Fitness>
44.1349

> <Gold.PLP.PLP>
-38.4077

> <Gold.PLP.part.hbond>
-3.6633

> <Gold.PLP.part.metal>
0.0000

> <Gold.PLP.part.buried>
-3.9151

> <Gold.PLP.part.nonpolar>
-35.2978

> <Gold.PLP.part.repulsive>
3.9001

> <Gold.PLP.ligand.clash>
0.0000

> <Gold.PLP.ligand.torsion>
0.4013

> <Gold.PLP.Chemscore.Hbond>
2.1492

> <Gold.PLP.Chemscore.CHOScore>
0.0000

> <Gold.PLP.Chemscore.Metal>
0.0000

> <Gold.Chemscore.Hbonds>
donor molecule, donor type, donor heavy atom, donor atom, acceptor molecule, acceptor atom, score
      L1  H     3    21       P1  8028  0.83
      P1  H  7989  7998       L1    20  0.63

> <Gold.PLP.Chemscore.Internal.Correction>
0.0820

> <Gold.Rescore>
     Score         DG    S(hbond)    S(metal)    S(lipo)     H(rot)  DE(clash)    DE(int)     intcor
      7.74     -13.82       1.32        0.00      77.06       1.98       1.80       4.27       ----

> <Gold.Chemscore.Fitness>
7.7426

> <Gold.Chemscore.DG>
-13.8150

> <Gold.Chemscore.ZeroCoef>
-5.4800

> <Gold.Chemscore.Hbond>
1.3164

> <Gold.Chemscore.Metal>
0.0000

> <Gold.Chemscore.Lipo>
77.0585

> <Gold.Chemscore.Internal_Hbond>
0.0000

> <Gold.Chemscore.DEClash>
1.8015

> <Gold.Chemscore.DEInternal>
4.2710

> <Gold.Chemscore.Rot>
1.9835

> <Gold.Chemscore.Internal.Correction>
   9.000000E+99

> <Gold.Chemscore.Hbonds>
donor molecule, donor type, donor heavy atom, donor atom, acceptor molecule, acceptor atom, score
      L1  H     3    21       P1  8028  0.77
      L1  H    10    30       P1 10171  0.04
      P1  H  7989  7998       L1    20  0.03

> <Gold.Chemscore.Hbond.Weighted>
-4.3969

> <Gold.Chemscore.Metal.Weighted>
-0.0000

> <Gold.Chemscore.Lipo.Weighted>
-9.0158

> <Gold.Chemscore.Internal_Hbond.Weighted>
0.0000

> <Gold.Chemscore.DEClash.Weighted>
1.8015

> <Gold.Chemscore.DEInternal.Weighted>
4.2710

> <Gold.Chemscore.Rot.Weighted>
5.0778

> <Gold.Chemscore.Internal.Correction.Weighted>
   9.000000E+99

> <Gold.Protein.RotatedTorsions>
[ 6907 6896 6895 6894 ] final  -43.11 input  -60.11 | X-H torsion
[ 7974 7965 7964 7962 ] final   31.50 input  175.53 | X-H torsion
[ 8008 7997 7996 7995 ] final  103.62 input   59.86 | X-H torsion
[ 10167 10162 10161 10158 ] final    5.24 input  -65.29 | X-H torsion
[ 10718 10713 10712 10709 ] final   33.70 input   66.30 | X-H torsion
[ 10763 10752 10751 10750 ] final  152.37 input  -60.55 | X-H torsion
[ 11005 11000 10999 10996 ] final  -47.53 input  -57.11 | X-H torsion

> <Gold.Protein.ActiveResidues>
 VAL166  LYS551  ARG553  GLY616  TRP617  ASP618  TYR619  PRO620  LYS621  CYS622 
 ASP623  PHE694  ASN695  SER759  ASP760  ASP761  ALA762  ILE779  LEU786  VAL792 
 PHE793  MET794  SER795  GLU796  ALA797  LYS798  CYS799  TRP800  GLU811  SER814 

> <Gold.Protein.RotatedAtoms>
  150.9476  134.8879  159.7651 H   0  0  0  0  0  0  0  0  0  0  0  0  # atno 6907 bound_to 6896
  152.5106  134.3853  159.9375 H   0  0  0  0  0  0  0  0  0  0  0  0  # atno 6908 bound_to 6896
  151.3870  133.3761  159.2751 H   0  0  0  0  0  0  0  0  0  0  0  0  # atno 6909 bound_to 6896
  146.1546  139.6648  142.9075 H   0  0  0  0  0  0  0  0  0  0  0  0  # atno 7974 bound_to 7965
  156.1500  140.3161  155.8633 H   0  0  0  0  0  0  0  0  0  0  0  0  # atno 8008 bound_to 7997
  155.3989  140.0498  157.3054 H   0  0  0  0  0  0  0  0  0  0  0  0  # atno 8009 bound_to 7997
  154.5050  140.2143  155.9280 H   0  0  0  0  0  0  0  0  0  0  0  0  # atno 8010 bound_to 7997
  140.6492  143.7586  150.7548 H   0  0  0  0  0  0  0  0  0  0  0  0  # atno 10167 bound_to 10162
  157.3011  130.7351  149.6667 H   0  0  0  0  0  0  0  0  0  0  0  0  # atno 10718 bound_to 10713
  154.1189  135.2834  155.3213 H   0  0  0  0  0  0  0  0  0  0  0  0  # atno 10763 bound_to 10752
  154.6437  135.5393  153.7823 H   0  0  0  0  0  0  0  0  0  0  0  0  # atno 10764 bound_to 10752
  153.0320  135.6493  154.1344 H   0  0  0  0  0  0  0  0  0  0  0  0  # atno 10765 bound_to 10752
  141.0646  133.6698  156.3310 H   0  0  0  0  0  0  0  0  0  0  0  0  # atno 11005 bound_to 11000
  145.4740  141.0436  143.2683 LP  0  0  0  0  0  0  0  0  0  0  0  0  # atno 17320 bound_to 7965
  144.7947  139.6258  143.7098 LP  0  0  0  0  0  0  0  0  0  0  0  0  # atno 17321 bound_to 7965
  140.1233  143.4592  152.2299 LP  0  0  0  0  0  0  0  0  0  0  0  0  # atno 17342 bound_to 10162
  139.5706  144.7460  151.3902 LP  0  0  0  0  0  0  0  0  0  0  0  0  # atno 17343 bound_to 10162
  155.9671  130.4280  150.4767 LP  0  0  0  0  0  0  0  0  0  0  0  0  # atno 17370 bound_to 10713
  157.2748  131.0594  151.2236 LP  0  0  0  0  0  0  0  0  0  0  0  0  # atno 17371 bound_to 10713
  140.5800  134.5755  157.5477 LP  0  0  0  0  0  0  0  0  0  0  0  0  # atno 17394 bound_to 11000
  139.9464  134.7694  156.0552 LP  0  0  0  0  0  0  0  0  0  0  0  0  # atno 17395 bound_to 11000

$$$$
