AV-unprocessed.smi:259|AV-procd|sdf|1973|dock3
  -GOLD-   2262021133D 1   1.00000     0.00000
 Structure written by MMmdl.
 54 57  0  0  0  0  0  0  0  0  1 V2000
  145.8731  135.1952  151.5758 C   0  0  0  0  0  0  0  0  0  0  0  0
  147.0445  134.5958  152.1959 N   0  0  0  0  0  0  0  0  0  0  0  0
  147.0280  133.9475  153.3695 C   0  0  0  0  0  0  0  0  0  0  0  0
  146.0048  133.8013  154.0380 O   0  0  0  0  0  0  0  0  0  0  0  0
  148.3757  133.3967  153.8638 C   0  0  0  0  0  0  0  0  0  0  0  0
  148.9372  134.0283  155.1677 C   0  0  1  0  0  0  0  0  0  0  0  0
  147.8411  134.4732  155.9479 O   0  0  0  0  0  0  0  0  0  0  0  0
  149.8023  133.0325  155.9847 C   0  0  0  0  0  0  0  0  0  0  0  0
  150.5357  133.7134  157.1521 C   0  0  0  0  0  0  0  0  0  0  0  0
  151.3385  134.9251  156.6629 C   0  0  0  0  0  0  0  0  0  0  0  0
  150.4644  135.8461  155.9494 N   0  0  0  0  0  0  0  0  0  0  0  0
  151.0206  137.0568  155.7392 C   0  0  0  0  0  0  0  0  0  0  0  0
  152.1531  137.0949  154.9957 N   0  0  0  0  0  0  0  0  0  0  0  0
  152.7534  138.2642  154.7537 C   0  0  0  0  0  0  0  0  0  0  0  0
  152.3910  139.4866  155.1492 N   0  0  0  0  0  0  0  0  0  0  0  0
  151.2448  139.4503  155.8882 C   0  0  0  0  0  0  0  0  0  0  0  0
  150.4981  138.2875  156.2275 C   0  0  0  0  0  0  0  0  0  0  0  0
  149.3866  138.6424  156.9821 N   0  0  0  0  0  0  0  0  0  0  0  0
  149.4750  139.9401  157.0889 C   0  0  0  0  0  0  0  0  0  0  0  0
  150.5564  140.5093  156.4546 N   0  0  0  0  0  0  0  0  0  0  0  0
  150.8979  141.9228  156.4091 C   0  0  0  0  0  0  0  0  0  0  0  0
  150.8306  142.6247  157.7783 C   0  0  0  0  0  0  0  0  0  0  0  0
  149.3509  142.7611  158.1923 C   0  0  0  0  0  0  0  0  0  0  0  0
  149.0181  144.0771  158.5872 O   0  0  0  0  0  0  0  0  0  0  0  0
  151.7873  142.0954  158.8566 C   0  0  0  0  0  0  0  0  0  0  0  0
  152.3637  143.4024  159.0728 O   0  0  0  0  0  0  0  0  0  0  0  0
  151.6880  143.8932  157.8938 C   0  0  0  0  0  0  0  0  0  0  0  0
  149.7571  135.2878  154.7984 C   0  0  0  0  0  0  0  0  0  0  0  0
  146.1431  135.6275  150.6124 H   0  0  0  0  0  0  0  0  0  0  0  0
  145.4652  135.9886  152.2036 H   0  0  0  0  0  0  0  0  0  0  0  0
  145.0958  134.4485  151.4086 H   0  0  0  0  0  0  0  0  0  0  0  0
  147.9228  134.6822  151.7052 H   0  0  0  0  0  0  0  0  0  0  0  0
  148.2691  132.3210  154.0134 H   0  0  0  0  0  0  0  0  0  0  0  0
  149.0997  133.5103  153.0556 H   0  0  0  0  0  0  0  0  0  0  0  0
  147.0504  134.3649  155.4415 H   0  0  0  0  0  0  0  0  0  0  0  0
  149.1950  132.2130  156.3706 H   0  0  0  0  0  0  0  0  0  0  0  0
  150.5437  132.5786  155.3257 H   0  0  0  0  0  0  0  0  0  0  0  0
  149.8136  134.0334  157.9044 H   0  0  0  0  0  0  0  0  0  0  0  0
  151.1983  133.0008  157.6439 H   0  0  0  0  0  0  0  0  0  0  0  0
  151.8030  135.4293  157.5117 H   0  0  0  0  0  0  0  0  0  0  0  0
  152.1433  134.6016  156.0012 H   0  0  0  0  0  0  0  0  0  0  0  0
  153.6528  138.2129  154.1581 H   0  0  0  0  0  0  0  0  0  0  0  0
  148.7467  140.5203  157.6366 H   0  0  0  0  0  0  0  0  0  0  0  0
  151.9003  142.0047  155.9868 H   0  0  0  0  0  0  0  0  0  0  0  0
  150.2380  142.4159  155.6943 H   0  0  0  0  0  0  0  0  0  0  0  0
  148.6909  142.4773  157.3720 H   0  0  0  0  0  0  0  0  0  0  0  0
  149.1138  142.1067  159.0311 H   0  0  0  0  0  0  0  0  0  0  0  0
  148.4846  144.4679  157.9121 H   0  0  0  0  0  0  0  0  0  0  0  0
  151.2893  141.7037  159.7444 H   0  0  0  0  0  0  0  0  0  0  0  0
  152.5303  141.3886  158.4861 H   0  0  0  0  0  0  0  0  0  0  0  0
  152.3806  144.0368  157.0630 H   0  0  0  0  0  0  0  0  0  0  0  0
  151.1216  144.8058  158.0827 H   0  0  0  0  0  0  0  0  0  0  0  0
  150.4909  135.0200  154.0379 H   0  0  0  0  0  0  0  0  0  0  0  0
  149.1104  136.0477  154.3559 H   0  0  0  0  0  0  0  0  0  0  0  0
  1  2  1  0  0  0  0
  1 29  1  0  0  0  0
  1 30  1  0  0  0  0
  1 31  1  0  0  0  0
  2  3  1  0  0  0  0
  2 32  1  0  0  0  0
  3  4  2  0  0  0  0
  3  5  1  0  0  0  0
  5  6  1  0  0  0  0
  5 33  1  0  0  0  0
  5 34  1  0  0  0  0
  6 28  1  0  0  0  0
  6  7  1  0  0  0  0
  6  8  1  0  0  0  0
  7 35  1  0  0  0  0
  8  9  1  0  0  0  0
  8 36  1  0  0  0  0
  8 37  1  0  0  0  0
  9 10  1  0  0  0  0
  9 38  1  0  0  0  0
  9 39  1  0  0  0  0
 10 11  1  0  0  0  0
 10 40  1  0  0  0  0
 10 41  1  0  0  0  0
 11 12  1  0  0  0  0
 11 28  1  0  0  0  0
 12 17  1  0  0  0  0
 12 13  2  0  0  0  0
 13 14  1  0  0  0  0
 14 15  2  0  0  0  0
 14 42  1  0  0  0  0
 15 16  1  0  0  0  0
 16 20  1  0  0  0  0
 16 17  2  0  0  0  0
 17 18  1  0  0  0  0
 18 19  2  0  0  0  0
 19 20  1  0  0  0  0
 19 43  1  0  0  0  0
 20 21  1  0  0  0  0
 21 22  1  0  0  0  0
 21 44  1  0  0  0  0
 21 45  1  0  0  0  0
 22 27  1  0  0  0  0
 22 23  1  0  0  0  0
 22 25  1  0  0  0  0
 23 24  1  0  0  0  0
 23 46  1  0  0  0  0
 23 47  1  0  0  0  0
 24 48  1  0  0  0  0
 25 26  1  0  0  0  0
 25 49  1  0  0  0  0
 25 50  1  0  0  0  0
 26 27  1  0  0  0  0
 27 51  1  0  0  0  0
 27 52  1  0  0  0  0
 28 53  1  0  0  0  0
 28 54  1  0  0  0  0
M  END
> <s_m_source_file>
AV-unprocessed.smi

> <i_m_source_file_index>
259

> <i_lp_mmshare_version>
43012

> <i_f3d_flags>
0

> <s_epik_input>
W0NIM11bTkhdQyg9TylbQ0gyXVtDQEBdMShbT0hdKVtDSDJdW0NIMl1bQ0gyXU4oW0NIMl0xKWMobltjSF1uMiljKGMyMyluW2NIXW4zW0NIMl1DNChbQ0gyXVtPSF0pW0NIMl1PW0NIMl00

> <s_epik_cmdline>
J2VwaWtfcHl0aG9uJywgJy1waCcsICc3LjAnLCAnLXRuJywgJzgnLCAnLW1hJywgJzIwMCcsICctbWV0YWxfYmluZGluZycsICctaW1hZScsICc8aW5maWxlLm1hZT4nLCAnLW9tYWUnLCAnPG91dGZpbGUubWFlPic=

> <r_lp_tautomer_probability>
1

> <r_epik_Ionization_Penalty>
0.00366363

> <r_epik_Ionization_Penalty_Charging>
0

> <r_epik_Ionization_Penalty_Neutral>
0.00366363

> <r_epik_State_Penalty>
0.00243014

> <r_epik_Charging_Adjusted_Penalty>
0.00243014

> <i_epik_Tot_Q>
0

> <i_epik_Tot_abs_Q>
0

> <r_epik_Metal_State_Penalty>
-0

> <b_epik_Metal_Only>
0

> <s_lp_Force_Field>
OPLS_2005

> <r_lp_Energy>
40.2539

> <b_lp_Chiralities_Consistent>
1

> <s_lp_Variant>
AV-unprocessed.smi:259-1

> <Gold.Version>
5.8.1

> <Gold.Id.Protein>
6NUR|6NUR_protein|mol2

> <Gold.PLP.Fitness>
45.7677

> <Gold.PLP.PLP>
-38.8958

> <Gold.PLP.part.hbond>
-4.3407

> <Gold.PLP.part.metal>
0.0000

> <Gold.PLP.part.buried>
-3.5616

> <Gold.PLP.part.nonpolar>
-31.6989

> <Gold.PLP.part.repulsive>
0.3040

> <Gold.PLP.ligand.clash>
0.0000

> <Gold.PLP.ligand.torsion>
2.0422

> <Gold.PLP.Chemscore.Hbond>
3.4219

> <Gold.PLP.Chemscore.CHOScore>
0.0000

> <Gold.PLP.Chemscore.Metal>
0.0000

> <Gold.Chemscore.Hbonds>
donor molecule, donor type, donor heavy atom, donor atom, acceptor molecule, acceptor atom, score
      L1  H     2    32       P1  7948  0.38
      L1  H    24    48       P1  8029  0.73
      P1  H  7989  7998       L1    15  0.30
      P1  H  7997  8009       L1    15  0.34
      P1  H 10752 10763       L1    13  0.85

> <Gold.PLP.Chemscore.Internal.Correction>
0.6907

> <Gold.Rescore>
     Score         DG    S(hbond)    S(metal)    S(lipo)     H(rot)  DE(clash)    DE(int)     intcor
      9.92     -12.54       2.41        0.00      81.13       4.09       0.56       2.05       ----

> <Gold.Chemscore.Fitness>
9.9237

> <Gold.Chemscore.DG>
-12.5366

> <Gold.Chemscore.ZeroCoef>
-5.4800

> <Gold.Chemscore.Hbond>
2.4061

> <Gold.Chemscore.Metal>
0.0000

> <Gold.Chemscore.Lipo>
81.1293

> <Gold.Chemscore.Internal_Hbond>
0.0000

> <Gold.Chemscore.DEClash>
0.5631

> <Gold.Chemscore.DEInternal>
2.0498

> <Gold.Chemscore.Rot>
4.0906

> <Gold.Chemscore.Internal.Correction>
   9.000000E+99

> <Gold.Chemscore.Hbonds>
donor molecule, donor type, donor heavy atom, donor atom, acceptor molecule, acceptor atom, score
      L1  H     2    32       P1  7948  0.07
      L1  H    24    48       P1  8029  0.11
      P1  H  7989  7998       L1    15  0.06
      P1  H  7997  8009       L1    15  0.08
      P1  H 10752 10763       L1    13  0.79

> <Gold.Chemscore.Hbond.Weighted>
-8.0364

> <Gold.Chemscore.Metal.Weighted>
-0.0000

> <Gold.Chemscore.Lipo.Weighted>
-9.4921

> <Gold.Chemscore.Internal_Hbond.Weighted>
0.0000

> <Gold.Chemscore.DEClash.Weighted>
0.5631

> <Gold.Chemscore.DEInternal.Weighted>
2.0498

> <Gold.Chemscore.Rot.Weighted>
10.4719

> <Gold.Chemscore.Internal.Correction.Weighted>
   9.000000E+99

> <Gold.Protein.RotatedTorsions>
[ 6907 6896 6895 6894 ] final    0.85 input  -60.11 | X-H torsion
[ 7974 7965 7964 7962 ] final  -57.05 input  175.53 | X-H torsion
[ 8008 7997 7996 7995 ] final -143.72 input   59.86 | X-H torsion
[ 10167 10162 10161 10158 ] final   92.31 input  -65.29 | X-H torsion
[ 10718 10713 10712 10709 ] final    9.39 input   66.30 | X-H torsion
[ 10763 10752 10751 10750 ] final   51.27 input  -60.55 | X-H torsion
[ 11005 11000 10999 10996 ] final   70.31 input  -57.11 | X-H torsion

> <Gold.Protein.ActiveResidues>
 VAL166  LYS551  ARG553  GLY616  TRP617  ASP618  TYR619  PRO620  LYS621  CYS622 
 ASP623  PHE694  ASN695  SER759  ASP760  ASP761  ALA762  ILE779  LEU786  VAL792 
 PHE793  MET794  SER795  GLU796  ALA797  LYS798  CYS799  TRP800  GLU811  SER814 

> <Gold.Protein.RotatedAtoms>
  151.5832  135.1057  160.0021 H   0  0  0  0  0  0  0  0  0  0  0  0  # atno 6907 bound_to 6896
  152.4344  133.7330  159.6608 H   0  0  0  0  0  0  0  0  0  0  0  0  # atno 6908 bound_to 6896
  150.8239  133.8134  159.3150 H   0  0  0  0  0  0  0  0  0  0  0  0  # atno 6909 bound_to 6896
  145.8556  140.8322  142.9963 H   0  0  0  0  0  0  0  0  0  0  0  0  # atno 7974 bound_to 7965
  155.5151  140.0586  157.2916 H   0  0  0  0  0  0  0  0  0  0  0  0  # atno 8008 bound_to 7997
  154.4537  140.1962  156.0388 H   0  0  0  0  0  0  0  0  0  0  0  0  # atno 8009 bound_to 7997
  156.0757  140.3254  155.7635 H   0  0  0  0  0  0  0  0  0  0  0  0  # atno 8010 bound_to 7997
  139.8289  144.6696  150.9425 H   0  0  0  0  0  0  0  0  0  0  0  0  # atno 10167 bound_to 10162
  156.9656  130.5949  149.5665 H   0  0  0  0  0  0  0  0  0  0  0  0  # atno 10718 bound_to 10713
  152.9785  135.5851  154.4389 H   0  0  0  0  0  0  0  0  0  0  0  0  # atno 10763 bound_to 10752
  154.3992  135.2768  155.2109 H   0  0  0  0  0  0  0  0  0  0  0  0  # atno 10764 bound_to 10752
  154.3947  135.6117  153.5917 H   0  0  0  0  0  0  0  0  0  0  0  0  # atno 10765 bound_to 10752
  139.9605  134.7069  156.0657 H   0  0  0  0  0  0  0  0  0  0  0  0  # atno 11005 bound_to 11000
  144.6728  140.1018  143.7460 LP  0  0  0  0  0  0  0  0  0  0  0  0  # atno 17320 bound_to 7965
  145.9308  139.2605  143.1326 LP  0  0  0  0  0  0  0  0  0  0  0  0  # atno 17321 bound_to 7965
  140.7808  143.4020  151.1134 LP  0  0  0  0  0  0  0  0  0  0  0  0  # atno 17342 bound_to 10162
  139.7675  143.8544  152.3113 LP  0  0  0  0  0  0  0  0  0  0  0  0  # atno 17343 bound_to 10162
  156.0304  130.5396  150.8519 LP  0  0  0  0  0  0  0  0  0  0  0  0  # atno 17370 bound_to 10713
  157.5628  131.0946  150.9534 LP  0  0  0  0  0  0  0  0  0  0  0  0  # atno 17371 bound_to 10713
  141.1281  133.6593  156.3391 LP  0  0  0  0  0  0  0  0  0  0  0  0  # atno 17394 bound_to 11000
  140.5511  134.6026  157.5408 LP  0  0  0  0  0  0  0  0  0  0  0  0  # atno 17395 bound_to 11000

$$$$
