AV-unprocessed.smi:3134|AV-procd|sdf|11942|dock6
  -GOLD-   2272017333D 1   1.00000     0.00000
 Structure written by MMmdl.
 37 37  0  0  0  0  0  0  0  0  2 V2000
  146.0761  142.5729  154.2210 C   0  0  0  0  0  0  0  0  0  0  0  0
  146.7311  141.2601  154.6795 C   0  0  0  0  0  0  0  0  0  0  0  0
  148.2606  141.3229  154.5769 C   0  0  0  0  0  0  0  0  0  0  0  0
  146.2363  140.1391  153.8853 N   0  0  0  0  0  0  0  0  0  0  0  0
  146.6754  138.8742  153.9745 C   0  0  0  0  0  0  0  0  0  0  0  0
  147.5734  138.5225  154.7409 O   0  0  0  0  0  0  0  0  0  0  0  0
  146.0012  137.8470  153.0544 C   0  0  1  0  0  0  0  0  0  0  0  0
  146.2114  138.2398  151.5843 C   0  0  0  0  0  0  0  0  0  0  0  0
  146.5396  136.4903  153.2946 N   0  3  0  0  0  0  0  0  0  0  0  0
  145.7502  135.3907  152.6974 C   0  0  0  0  0  0  0  0  0  0  0  0
  146.4555  134.8073  151.4624 C   0  0  0  0  0  0  0  0  0  0  0  0
  145.6836  133.7445  150.8407 N   0  0  0  0  0  0  0  0  0  0  0  0
  146.0735  132.4517  150.5605 C   0  0  0  0  0  0  0  0  0  0  0  0
  145.0102  131.8236  149.9780 C   0  0  0  0  0  0  0  0  0  0  0  0
  144.0055  132.8301  149.9324 C   0  0  0  0  0  0  0  0  0  0  0  0
  144.4142  133.9802  150.4429 N   0  0  0  0  0  0  0  0  0  0  0  0
  146.4362  143.4157  154.8116 H   0  0  0  0  0  0  0  0  0  0  0  0
  144.9917  142.5366  154.3323 H   0  0  0  0  0  0  0  0  0  0  0  0
  146.2965  142.7830  153.1739 H   0  0  0  0  0  0  0  0  0  0  0  0
  146.4767  141.0933  155.7277 H   0  0  0  0  0  0  0  0  0  0  0  0
  148.6603  142.1331  155.1873 H   0  0  0  0  0  0  0  0  0  0  0  0
  148.5847  141.4907  153.5492 H   0  0  0  0  0  0  0  0  0  0  0  0
  148.7166  140.3949  154.9238 H   0  0  0  0  0  0  0  0  0  0  0  0
  145.5004  140.3425  153.2243 H   0  0  0  0  0  0  0  0  0  0  0  0
  144.9279  137.8314  153.2532 H   0  0  0  0  0  0  0  0  0  0  0  0
  145.8000  139.2284  151.3756 H   0  0  0  0  0  0  0  0  0  0  0  0
  145.7161  137.5344  150.9164 H   0  0  0  0  0  0  0  0  0  0  0  0
  147.2700  138.2577  151.3204 H   0  0  0  0  0  0  0  0  0  0  0  0
  147.4778  136.4388  152.9248 H   0  0  0  0  0  0  0  0  0  0  0  0
  145.5820  134.5996  153.4295 H   0  0  0  0  0  0  0  0  0  0  0  0
  144.7663  135.7741  152.4253 H   0  0  0  0  0  0  0  0  0  0  0  0
  146.6175  135.5891  150.7194 H   0  0  0  0  0  0  0  0  0  0  0  0
  147.4389  134.4196  151.7318 H   0  0  0  0  0  0  0  0  0  0  0  0
  147.0617  132.0870  150.7999 H   0  0  0  0  0  0  0  0  0  0  0  0
  144.9581  130.8013  149.6338 H   0  0  0  0  0  0  0  0  0  0  0  0
  142.9996  132.7602  149.5452 H   0  0  0  0  0  0  0  0  0  0  0  0
  146.5777  136.3540  154.2952 H   0  0  0  0  0  0  0  0  0  0  0  0
  1  2  1  0  0  0  0
  1 17  1  0  0  0  0
  1 18  1  0  0  0  0
  1 19  1  0  0  0  0
  2  3  1  0  0  0  0
  2  4  1  0  0  0  0
  2 20  1  0  0  0  0
  3 21  1  0  0  0  0
  3 22  1  0  0  0  0
  3 23  1  0  0  0  0
  4  5  1  0  0  0  0
  4 24  1  0  0  0  0
  5  6  2  0  0  0  0
  5  7  1  0  0  0  0
  7  8  1  0  0  0  0
  7  9  1  0  0  0  0
  7 25  1  0  0  0  0
  8 26  1  0  0  0  0
  8 27  1  0  0  0  0
  8 28  1  0  0  0  0
  9 10  1  0  0  0  0
  9 29  1  0  0  0  0
  9 37  1  0  0  0  0
 10 11  1  0  0  0  0
 10 30  1  0  0  0  0
 10 31  1  0  0  0  0
 11 12  1  0  0  0  0
 11 32  1  0  0  0  0
 11 33  1  0  0  0  0
 12 16  1  0  0  0  0
 12 13  1  0  0  0  0
 13 14  2  0  0  0  0
 13 34  1  0  0  0  0
 14 15  1  0  0  0  0
 14 35  1  0  0  0  0
 15 16  2  0  0  0  0
 15 36  1  0  0  0  0
M  CHG  1   9   1
M  END
> <s_m_source_file>
AV-unprocessed.smi

> <i_m_source_file_index>
3134

> <i_lp_mmshare_version>
43012

> <i_f3d_flags>
0

> <s_epik_input>
W0NIM11bQ0hdKFtDSDNdKVtOSF1DKD1PKVtDQEhdKFtDSDNdKVtOSF1bQ0gyXVtDSDJdbjFbY0hdW2NIXVtjSF1uMQ==

> <s_epik_cmdline>
J2VwaWtfcHl0aG9uJywgJy1waCcsICc3LjAnLCAnLXRuJywgJzgnLCAnLW1hJywgJzIwMCcsICctbWV0YWxfYmluZGluZycsICctaW1hZScsICc8aW5maWxlLm1hZT4nLCAnLW9tYWUnLCAnPG91dGZpbGUubWFlPic=

> <r_lp_tautomer_probability>
1

> <r_epik_Ionization_Penalty>
0.20398

> <r_epik_Ionization_Penalty_Charging>
0.203977

> <r_epik_Ionization_Penalty_Neutral>
3.23345e-06

> <r_epik_State_Penalty>
0.193898

> <r_epik_Charging_Adjusted_Penalty>
0.397875

> <i_epik_Tot_Q>
1

> <i_epik_Tot_abs_Q>
1

> <r_epik_Metal_State_Penalty>
0.194184

> <b_epik_Metal_Only>
0

> <s_lp_Force_Field>
OPLS_2005

> <r_lp_Energy>
4.47428

> <b_lp_Chiralities_Consistent>
1

> <s_lp_Variant>
AV-unprocessed.smi:3134-2

> <Gold.Version>
5.8.1

> <Gold.Id.Protein>
6NUR|6NUR_protein|mol2

> <Gold.PLP.Fitness>
43.7058

> <Gold.PLP.PLP>
-29.5297

> <Gold.PLP.part.hbond>
-2.0000

> <Gold.PLP.part.metal>
0.0000

> <Gold.PLP.part.buried>
-0.4614

> <Gold.PLP.part.nonpolar>
-27.4439

> <Gold.PLP.part.repulsive>
0.2963

> <Gold.PLP.ligand.clash>
0.0000

> <Gold.PLP.ligand.torsion>
0.4762

> <Gold.PLP.Chemscore.Hbond>
3.0000

> <Gold.PLP.Chemscore.CHOScore>
2.0000

> <Gold.PLP.Chemscore.Metal>
0.0000

> <Gold.Chemscore.Hbonds>
donor molecule, donor type, donor heavy atom, donor atom, acceptor molecule, acceptor atom, score
      L1  H     4    24       P1 10175  1.00
      L1  H     9    29       P1  7948  2.00
      L1  C    13    34       P1 10747  1.00
      L1  C    15    36       P1 10186  0.85

> <Gold.PLP.Chemscore.Internal.Correction>
0.1286

> <Gold.Rescore>
     Score         DG    S(hbond)    S(metal)    S(lipo)     H(rot)  DE(clash)    DE(int)     intcor
     11.90     -14.88       2.00        0.00      70.07       2.13       1.29       1.69       ----

> <Gold.Chemscore.Fitness>
11.8981

> <Gold.Chemscore.DG>
-14.8820

> <Gold.Chemscore.ZeroCoef>
-5.4800

> <Gold.Chemscore.Hbond>
1.9954

> <Gold.Chemscore.Metal>
0.0000

> <Gold.Chemscore.Lipo>
70.0749

> <Gold.Chemscore.Internal_Hbond>
0.0000

> <Gold.Chemscore.DEClash>
1.2932

> <Gold.Chemscore.DEInternal>
1.6906

> <Gold.Chemscore.Rot>
2.1334

> <Gold.Chemscore.Internal.Correction>
   9.000000E+99

> <Gold.Chemscore.Hbonds>
donor molecule, donor type, donor heavy atom, donor atom, acceptor molecule, acceptor atom, score
      L1  H     4    24       P1 10175  0.96
      L1  H     9    29       P1  7948  1.00

> <Gold.Chemscore.Hbond.Weighted>
-6.6647

> <Gold.Chemscore.Metal.Weighted>
-0.0000

> <Gold.Chemscore.Lipo.Weighted>
-8.1988

> <Gold.Chemscore.Internal_Hbond.Weighted>
0.0000

> <Gold.Chemscore.DEClash.Weighted>
1.2932

> <Gold.Chemscore.DEInternal.Weighted>
1.6906

> <Gold.Chemscore.Rot.Weighted>
5.4615

> <Gold.Chemscore.Internal.Correction.Weighted>
   9.000000E+99

> <Gold.Protein.RotatedTorsions>
[ 6907 6896 6895 6894 ] final  157.32 input  -60.11 | X-H torsion
[ 7974 7965 7964 7962 ] final -100.72 input  175.53 | X-H torsion
[ 8008 7997 7996 7995 ] final  147.85 input   59.86 | X-H torsion
[ 10167 10162 10161 10158 ] final  159.59 input  -65.29 | X-H torsion
[ 10718 10713 10712 10709 ] final -114.69 input   66.30 | X-H torsion
[ 10763 10752 10751 10750 ] final   54.72 input  -60.55 | X-H torsion
[ 11005 11000 10999 10996 ] final   34.42 input  -57.11 | X-H torsion

> <Gold.Protein.ActiveResidues>
 VAL166  LYS551  ARG553  GLY616  TRP617  ASP618  TYR619  PRO620  LYS621  CYS622 
 ASP623  PHE694  ASN695  SER759  ASP760  ASP761  ALA762  ILE779  LEU786  VAL792 
 PHE793  MET794  SER795  GLU796  ALA797  LYS798  CYS799  TRP800  GLU811  SER814 

> <Gold.Protein.RotatedAtoms>
  152.0167  133.3882  159.4241 H   0  0  0  0  0  0  0  0  0  0  0  0  # atno 6907 bound_to 6896
  150.6894  134.3670  159.4985 H   0  0  0  0  0  0  0  0  0  0  0  0  # atno 6908 bound_to 6896
  152.1439  134.9041  160.0603 H   0  0  0  0  0  0  0  0  0  0  0  0  # atno 6909 bound_to 6896
  145.2908  140.9352  143.2878 H   0  0  0  0  0  0  0  0  0  0  0  0  # atno 7974 bound_to 7965
  156.2811  140.2144  156.5605 H   0  0  0  0  0  0  0  0  0  0  0  0  # atno 8008 bound_to 7997
  154.7217  140.0503  157.0668 H   0  0  0  0  0  0  0  0  0  0  0  0  # atno 8009 bound_to 7997
  155.0469  140.3152  155.4708 H   0  0  0  0  0  0  0  0  0  0  0  0  # atno 8010 bound_to 7997
  139.4833  144.4715  151.8569 H   0  0  0  0  0  0  0  0  0  0  0  0  # atno 10167 bound_to 10162
  156.0846  130.6040  150.8808 H   0  0  0  0  0  0  0  0  0  0  0  0  # atno 10718 bound_to 10713
  152.9808  135.5735  154.4949 H   0  0  0  0  0  0  0  0  0  0  0  0  # atno 10763 bound_to 10752
  154.4478  135.2777  155.1805 H   0  0  0  0  0  0  0  0  0  0  0  0  # atno 10764 bound_to 10752
  154.3445  135.6222  153.5666 H   0  0  0  0  0  0  0  0  0  0  0  0  # atno 10765 bound_to 10752
  140.2530  134.3281  155.7883 H   0  0  0  0  0  0  0  0  0  0  0  0  # atno 11005 bound_to 11000
  144.9174  139.4453  143.6558 LP  0  0  0  0  0  0  0  0  0  0  0  0  # atno 17320 bound_to 7965
  146.3185  139.8015  142.8964 LP  0  0  0  0  0  0  0  0  0  0  0  0  # atno 17321 bound_to 7965
  140.4184  144.2276  150.5887 LP  0  0  0  0  0  0  0  0  0  0  0  0  # atno 17342 bound_to 10162
  140.4898  143.2351  151.8835 LP  0  0  0  0  0  0  0  0  0  0  0  0  # atno 17343 bound_to 10162
  157.5976  131.0942  150.9014 LP  0  0  0  0  0  0  0  0  0  0  0  0  # atno 17370 bound_to 10713
  156.9178  130.5304  149.5279 LP  0  0  0  0  0  0  0  0  0  0  0  0  # atno 17371 bound_to 10713
  141.2199  133.7365  156.9067 LP  0  0  0  0  0  0  0  0  0  0  0  0  # atno 17394 bound_to 11000
  140.1539  134.9211  157.2628 LP  0  0  0  0  0  0  0  0  0  0  0  0  # atno 17395 bound_to 11000

$$$$
