AV-unprocessed.smi:101|AV-procd|sdf|926|dock10
  -GOLD-   2262017433D 1   1.00000     0.00000
 Structure written by MMmdl.
 44 46  0  0  0  0  0  0  0  0  1 V2000
  145.4461  139.3515  158.5157 C   0  0  0  0  0  0  0  0  0  0  0  0
  145.4559  140.4513  157.4669 C   0  0  0  0  0  0  0  0  0  0  0  0
  146.3696  140.4917  156.4634 C   0  0  0  0  0  0  0  0  0  0  0  0
  146.4031  141.4838  155.4924 N   0  0  0  0  0  0  0  0  0  0  0  0
  147.4335  141.4709  154.3865 C   0  0  1  0  0  0  0  0  0  0  0  0
  148.7078  141.5314  154.9570 O   0  0  0  0  0  0  0  0  0  0  0  0
  149.5398  140.5187  154.4014 C   0  0  1  0  0  0  0  0  0  0  0  0
  150.6128  140.1138  155.4182 C   0  0  0  0  0  0  0  0  0  0  0  0
  150.9495  141.2392  156.2122 O   0  0  0  0  0  0  0  0  0  0  0  0
  151.6661  141.0781  157.3412 C   0  0  0  0  0  0  0  0  0  0  0  0
  152.0841  139.9870  157.7340 O   0  0  0  0  0  0  0  0  0  0  0  0
  151.9016  142.3597  158.0669 C   0  0  0  0  0  0  0  0  0  0  0  0
  152.5575  142.3362  159.3198 C   0  0  0  0  0  0  0  0  0  0  0  0
  152.7939  143.5303  160.0285 C   0  0  0  0  0  0  0  0  0  0  0  0
  152.3766  144.7626  159.4929 C   0  0  0  0  0  0  0  0  0  0  0  0
  151.7227  144.7993  158.2477 C   0  0  0  0  0  0  0  0  0  0  0  0
  151.4859  143.6062  157.5374 C   0  0  0  0  0  0  0  0  0  0  0  0
  148.5527  139.3997  154.0762 C   0  0  2  0  0  0  0  0  0  0  0  0
  149.0553  138.4710  153.1340 O   0  0  0  0  0  0  0  0  0  0  0  0
  147.3310  140.1650  153.5804 C   0  0  2  0  0  0  0  0  0  0  0  0
  147.3717  140.4227  152.1884 O   0  0  0  0  0  0  0  0  0  0  0  0
  145.4248  142.4989  155.5069 C   0  0  0  0  0  0  0  0  0  0  0  0
  145.3678  143.3851  154.6552 O   0  0  0  0  0  0  0  0  0  0  0  0
  144.4901  142.4612  156.5400 N   0  0  0  0  0  0  0  0  0  0  0  0
  144.4316  141.4965  157.5488 C   0  0  0  0  0  0  0  0  0  0  0  0
  143.5575  141.5717  158.4107 O   0  0  0  0  0  0  0  0  0  0  0  0
  143.7918  143.1901  156.5580 H   0  0  0  0  0  0  0  0  0  0  0  0
  146.2498  138.6321  158.3558 H   0  0  0  0  0  0  0  0  0  0  0  0
  144.5008  138.8082  158.4892 H   0  0  0  0  0  0  0  0  0  0  0  0
  145.5703  139.7751  159.5129 H   0  0  0  0  0  0  0  0  0  0  0  0
  147.1045  139.7012  156.4210 H   0  0  0  0  0  0  0  0  0  0  0  0
  147.2753  142.3760  153.7965 H   0  0  0  0  0  0  0  0  0  0  0  0
  149.9920  140.8951  153.4819 H   0  0  0  0  0  0  0  0  0  0  0  0
  150.2587  139.2918  156.0422 H   0  0  0  0  0  0  0  0  0  0  0  0
  151.5072  139.7707  154.8966 H   0  0  0  0  0  0  0  0  0  0  0  0
  152.8869  141.4019  159.7513 H   0  0  0  0  0  0  0  0  0  0  0  0
  153.2961  143.4998  160.9842 H   0  0  0  0  0  0  0  0  0  0  0  0
  152.5572  145.6782  160.0365 H   0  0  0  0  0  0  0  0  0  0  0  0
  151.4008  145.7443  157.8356 H   0  0  0  0  0  0  0  0  0  0  0  0
  150.9804  143.6705  156.5848 H   0  0  0  0  0  0  0  0  0  0  0  0
  148.2905  138.8670  154.9917 H   0  0  0  0  0  0  0  0  0  0  0  0
  148.9909  138.8532  152.2721 H   0  0  0  0  0  0  0  0  0  0  0  0
  146.4044  139.6341  153.8036 H   0  0  0  0  0  0  0  0  0  0  0  0
  148.1557  140.0315  151.8338 H   0  0  0  0  0  0  0  0  0  0  0  0
  1  2  1  0  0  0  0
  1 28  1  0  0  0  0
  1 29  1  0  0  0  0
  1 30  1  0  0  0  0
  2 25  1  0  0  0  0
  2  3  2  0  0  0  0
  3  4  1  0  0  0  0
  3 31  1  0  0  0  0
  4  5  1  0  0  0  0
  4 22  1  0  0  0  0
  5 20  1  0  0  0  0
  5  6  1  0  0  0  0
  5 32  1  0  0  0  0
  6  7  1  0  0  0  0
  7  8  1  0  0  0  0
  7 18  1  0  0  0  0
  7 33  1  0  0  0  0
  8  9  1  0  0  0  0
  8 34  1  0  0  0  0
  8 35  1  0  0  0  0
  9 10  1  0  0  0  0
 10 11  2  0  0  0  0
 10 12  1  0  0  0  0
 12 17  1  0  0  0  0
 12 13  2  0  0  0  0
 13 14  1  0  0  0  0
 13 36  1  0  0  0  0
 14 15  2  0  0  0  0
 14 37  1  0  0  0  0
 15 16  1  0  0  0  0
 15 38  1  0  0  0  0
 16 17  2  0  0  0  0
 16 39  1  0  0  0  0
 17 40  1  0  0  0  0
 18 19  1  0  0  0  0
 18 20  1  0  0  0  0
 18 41  1  0  0  0  0
 19 42  1  0  0  0  0
 20 21  1  0  0  0  0
 20 43  1  0  0  0  0
 21 44  1  0  0  0  0
 22 23  2  0  0  0  0
 22 24  1  0  0  0  0
 24 27  1  0  0  0  0
 24 25  1  0  0  0  0
 25 26  2  0  0  0  0
M  END
> <s_m_source_file>
AV-unprocessed.smi

> <i_m_source_file_index>
101

> <i_lp_mmshare_version>
43012

> <i_f3d_flags>
0

> <s_epik_input>
Tz1jMVtuSF1jKD1PKW4oW2NIXWMxW0NIM10pW0NAQEhdMk9bQ0BIXShbQ0BASF0oW09IXSlbQ0BIXTJbT0hdKVtDSDJdT0MoPU8pYzNbY0hdW2NIXVtjSF1bY0hdW2NIXTM=

> <s_epik_cmdline>
J2VwaWtfcHl0aG9uJywgJy1waCcsICc3LjAnLCAnLXRuJywgJzgnLCAnLW1hJywgJzIwMCcsICctbWV0YWxfYmluZGluZycsICctaW1hZScsICc8aW5maWxlLm1hZT4nLCAnLW9tYWUnLCAnPG91dGZpbGUubWFlPic=

> <r_lp_tautomer_probability>
0.999537

> <r_epik_Ionization_Penalty>
0.00263537

> <r_epik_Ionization_Penalty_Charging>
0.00263428

> <r_epik_Ionization_Penalty_Neutral>
1.09111e-06

> <r_epik_State_Penalty>
0.00183335

> <r_epik_Charging_Adjusted_Penalty>
0.00446763

> <i_epik_Tot_Q>
0

> <i_epik_Tot_abs_Q>
0

> <r_epik_Metal_State_Penalty>
1.00528

> <b_epik_Metal_Only>
0

> <s_epik_Chemistry_Notes>
This compound has an ester and may undergo hydrolysis at high or low pH. This compound contains an acetal/aminal-like group ( X-CH(R)-Y where X, Y are N, S, or O) that may be acid/base labile, releasing an aldehyde.

> <s_lp_Force_Field>
OPLS_2005

> <r_lp_Energy>
34.5485

> <b_lp_Chiralities_Consistent>
1

> <s_lp_Variant>
AV-unprocessed.smi:101-14

> <Gold.Version>
5.8.1

> <Gold.Id.Protein>
6NUR|6NUR_protein|mol2

> <Gold.PLP.Fitness>
47.8645

> <Gold.PLP.PLP>
-42.7202

> <Gold.PLP.part.hbond>
-2.6163

> <Gold.PLP.part.metal>
0.0000

> <Gold.PLP.part.buried>
-6.2097

> <Gold.PLP.part.nonpolar>
-34.6633

> <Gold.PLP.part.repulsive>
0.3926

> <Gold.PLP.ligand.clash>
0.0000

> <Gold.PLP.ligand.torsion>
0.4487

> <Gold.PLP.Chemscore.Hbond>
2.0000

> <Gold.PLP.Chemscore.CHOScore>
0.0000

> <Gold.PLP.Chemscore.Metal>
0.0000

> <Gold.Chemscore.Hbonds>
donor molecule, donor type, donor heavy atom, donor atom, acceptor molecule, acceptor atom, score
      L1  H    19    42       P1  7957  0.96
      L1  H    21    44       P1  7957  1.00

> <Gold.PLP.Chemscore.Internal.Correction>
0.0417

> <Gold.Rescore>
     Score         DG    S(hbond)    S(metal)    S(lipo)     H(rot)  DE(clash)    DE(int)     intcor
     17.18     -18.16       2.84        0.00      99.80       3.32       0.57       0.41       ----

> <Gold.Chemscore.Fitness>
17.1773

> <Gold.Chemscore.DG>
-18.1647

> <Gold.Chemscore.ZeroCoef>
-5.4800

> <Gold.Chemscore.Hbond>
2.8444

> <Gold.Chemscore.Metal>
0.0000

> <Gold.Chemscore.Lipo>
99.7981

> <Gold.Chemscore.Internal_Hbond>
0.0000

> <Gold.Chemscore.DEClash>
0.5729

> <Gold.Chemscore.DEInternal>
0.4145

> <Gold.Chemscore.Rot>
3.3172

> <Gold.Chemscore.Internal.Correction>
   9.000000E+99

> <Gold.Chemscore.Hbonds>
donor molecule, donor type, donor heavy atom, donor atom, acceptor molecule, acceptor atom, score
      L1  H    19    42       P1  7957  0.84
      L1  H    21    44       P1  7957  0.95

> <Gold.Chemscore.Hbond.Weighted>
-9.5004

> <Gold.Chemscore.Metal.Weighted>
-0.0000

> <Gold.Chemscore.Lipo.Weighted>
-11.6764

> <Gold.Chemscore.Internal_Hbond.Weighted>
0.0000

> <Gold.Chemscore.DEClash.Weighted>
0.5729

> <Gold.Chemscore.DEInternal.Weighted>
0.4145

> <Gold.Chemscore.Rot.Weighted>
8.4920

> <Gold.Chemscore.Internal.Correction.Weighted>
   9.000000E+99

> <Gold.Protein.RotatedTorsions>
[ 6907 6896 6895 6894 ] final -163.57 input  -60.11 | X-H torsion
[ 7974 7965 7964 7962 ] final  -20.61 input  175.53 | X-H torsion
[ 8008 7997 7996 7995 ] final   59.13 input   59.86 | X-H torsion
[ 10167 10162 10161 10158 ] final  125.94 input  -65.29 | X-H torsion
[ 10718 10713 10712 10709 ] final -123.80 input   66.30 | X-H torsion
[ 10763 10752 10751 10750 ] final -130.65 input  -60.55 | X-H torsion
[ 11005 11000 10999 10996 ] final -109.57 input  -57.11 | X-H torsion

> <Gold.Protein.ActiveResidues>
 VAL166  LYS551  ARG553  GLY616  TRP617  ASP618  TYR619  PRO620  LYS621  CYS622 
 ASP623  PHE694  ASN695  SER759  ASP760  ASP761  ALA762  ILE779  LEU786  VAL792 
 PHE793  MET794  SER795  GLU796  ALA797  LYS798  CYS799  TRP800  GLU811  SER814 

> <Gold.Protein.RotatedAtoms>
  151.3982  133.3766  159.2728 H   0  0  0  0  0  0  0  0  0  0  0  0  # atno 6907 bound_to 6896
  150.9454  134.8860  159.7649 H   0  0  0  0  0  0  0  0  0  0  0  0  # atno 6908 bound_to 6896
  152.5089  134.3934  159.9444 H   0  0  0  0  0  0  0  0  0  0  0  0  # atno 6909 bound_to 6896
  146.1779  140.4226  142.8506 H   0  0  0  0  0  0  0  0  0  0  0  0  # atno 7974 bound_to 7965
  155.5613  140.3488  155.4492 H   0  0  0  0  0  0  0  0  0  0  0  0  # atno 8008 bound_to 7997
  156.0512  140.1318  157.0073 H   0  0  0  0  0  0  0  0  0  0  0  0  # atno 8009 bound_to 7997
  154.4435  140.1004  156.6364 H   0  0  0  0  0  0  0  0  0  0  0  0  # atno 8010 bound_to 7997
  139.5658  144.6910  151.3914 H   0  0  0  0  0  0  0  0  0  0  0  0  # atno 10167 bound_to 10162
  156.1533  130.6550  150.9945 H   0  0  0  0  0  0  0  0  0  0  0  0  # atno 10718 bound_to 10713
  154.8754  135.3856  154.4117 H   0  0  0  0  0  0  0  0  0  0  0  0  # atno 10763 bound_to 10752
  153.4831  135.7030  153.5932 H   0  0  0  0  0  0  0  0  0  0  0  0  # atno 10764 bound_to 10752
  153.4339  135.3872  155.2154 H   0  0  0  0  0  0  0  0  0  0  0  0  # atno 10765 bound_to 10752
  141.0840  133.9170  157.2226 H   0  0  0  0  0  0  0  0  0  0  0  0  # atno 11005 bound_to 11000
  144.8266  140.6638  143.6318 LP  0  0  0  0  0  0  0  0  0  0  0  0  # atno 17320 bound_to 7965
  145.4160  139.1572  143.4100 LP  0  0  0  0  0  0  0  0  0  0  0  0  # atno 17321 bound_to 7965
  140.6941  143.7791  150.7300 LP  0  0  0  0  0  0  0  0  0  0  0  0  # atno 17342 bound_to 10162
  140.1282  143.4550  152.2271 LP  0  0  0  0  0  0  0  0  0  0  0  0  # atno 17343 bound_to 10162
  157.6674  131.0868  150.7694 LP  0  0  0  0  0  0  0  0  0  0  0  0  # atno 17370 bound_to 10713
  156.7761  130.4844  149.5409 LP  0  0  0  0  0  0  0  0  0  0  0  0  # atno 17371 bound_to 10713
  139.9657  135.0142  156.9379 LP  0  0  0  0  0  0  0  0  0  0  0  0  # atno 17394 bound_to 11000
  140.5404  134.0726  155.7340 LP  0  0  0  0  0  0  0  0  0  0  0  0  # atno 17395 bound_to 11000

$$$$
