AV-unprocessed.smi:104|AV-procd|sdf|994|dock3
  -GOLD-   2262017573D 1   1.00000     0.00000
 Structure written by MMmdl.
 47 49  0  0  0  0  0  0  0  0  1 V2000
  146.1702  133.3789  150.7973 C   0  0  0  0  0  0  0  0  0  0  0  0
  146.3845  133.0322  152.2652 C   0  0  0  0  0  0  0  0  0  0  0  0
  145.4452  133.0035  153.0601 O   0  0  0  0  0  0  0  0  0  0  0  0
  147.6694  132.7706  152.5497 O   0  0  0  0  0  0  0  0  0  0  0  0
  148.0427  132.4063  153.8692 C   0  0  0  0  0  0  0  0  0  0  0  0
  149.5590  132.5958  154.0549 C   0  0  1  0  0  0  0  0  0  0  0  0
  149.8575  133.9613  153.7602 O   0  0  0  0  0  0  0  0  0  0  0  0
  150.4001  134.5957  154.8785 C   0  0  1  0  0  0  0  0  0  0  0  0
  149.8825  135.9989  154.9630 N   0  0  0  0  0  0  0  0  0  0  0  0
  148.5752  136.4206  155.0323 C   0  0  0  0  0  0  0  0  0  0  0  0
  147.1178  135.1956  155.0328 Br  0  0  0  0  0  0  0  0  0  0  0  0
  148.3627  137.7059  155.0712 N   0  0  0  0  0  0  0  0  0  0  0  0
  149.6481  138.2288  155.0091 C   0  0  0  0  0  0  0  0  0  0  0  0
  150.1742  139.5451  154.9917 C   0  0  0  0  0  0  0  0  0  0  0  0
  149.4046  140.6411  155.0491 N   0  0  0  0  0  0  0  0  0  0  0  0
  151.5155  139.7046  154.9083 N   0  0  0  0  0  0  0  0  0  0  0  0
  152.3052  138.6278  154.8455 C   0  0  0  0  0  0  0  0  0  0  0  0
  151.9607  137.3376  154.8542 N   0  0  0  0  0  0  0  0  0  0  0  0
  150.6075  137.1754  154.9414 C   0  0  0  0  0  0  0  0  0  0  0  0
  150.0361  133.7483  156.1041 C   0  0  1  0  0  0  0  0  0  0  0  0
  148.7310  134.0612  156.5918 O   0  0  0  0  0  0  0  0  0  0  0  0
  148.4037  133.8428  157.8779 C   0  0  0  0  0  0  0  0  0  0  0  0
  146.9519  134.1949  158.1717 C   0  0  0  0  0  0  0  0  0  0  0  0
  149.1569  133.4299  158.7594 O   0  0  0  0  0  0  0  0  0  0  0  0
  150.0846  132.3648  155.4846 C   0  0  1  0  0  0  0  0  0  0  0  0
  149.3658  131.4136  156.2634 O   0  0  0  0  0  0  0  0  0  0  0  0
  149.8075  131.0622  157.4829 C   0  0  0  0  0  0  0  0  0  0  0  0
  148.9416  129.9867  158.1247 C   0  0  0  0  0  0  0  0  0  0  0  0
  150.8010  131.5138  158.0522 O   0  0  0  0  0  0  0  0  0  0  0  0
  147.1227  133.5287  150.2879 H   0  0  0  0  0  0  0  0  0  0  0  0
  145.5844  134.2938  150.7076 H   0  0  0  0  0  0  0  0  0  0  0  0
  145.6337  132.5734  150.2957 H   0  0  0  0  0  0  0  0  0  0  0  0
  147.5020  133.0536  154.5604 H   0  0  0  0  0  0  0  0  0  0  0  0
  147.7534  131.3800  154.0985 H   0  0  0  0  0  0  0  0  0  0  0  0
  150.0943  131.9629  153.3462 H   0  0  0  0  0  0  0  0  0  0  0  0
  151.4771  134.6914  154.7386 H   0  0  0  0  0  0  0  0  0  0  0  0
  148.4005  140.5487  155.1078 H   0  0  0  0  0  0  0  0  0  0  0  0
  149.8292  141.5570  155.0330 H   0  0  0  0  0  0  0  0  0  0  0  0
  153.3645  138.8278  154.7789 H   0  0  0  0  0  0  0  0  0  0  0  0
  150.7976  133.8620  156.8767 H   0  0  0  0  0  0  0  0  0  0  0  0
  146.6645  135.1017  157.6387 H   0  0  0  0  0  0  0  0  0  0  0  0
  146.8096  134.3643  159.2394 H   0  0  0  0  0  0  0  0  0  0  0  0
  146.2950  133.3838  157.8579 H   0  0  0  0  0  0  0  0  0  0  0  0
  151.1365  132.0798  155.4234 H   0  0  0  0  0  0  0  0  0  0  0  0
  147.8851  130.2322  158.0161 H   0  0  0  0  0  0  0  0  0  0  0  0
  149.1678  129.8969  159.1874 H   0  0  0  0  0  0  0  0  0  0  0  0
  149.1246  129.0232  157.6492 H   0  0  0  0  0  0  0  0  0  0  0  0
  1  2  1  0  0  0  0
  1 30  1  0  0  0  0
  1 31  1  0  0  0  0
  1 32  1  0  0  0  0
  2  3  2  0  0  0  0
  2  4  1  0  0  0  0
  4  5  1  0  0  0  0
  5  6  1  0  0  0  0
  5 33  1  0  0  0  0
  5 34  1  0  0  0  0
  6 25  1  0  0  0  0
  6  7  1  0  0  0  0
  6 35  1  0  0  0  0
  7  8  1  0  0  0  0
  8  9  1  0  0  0  0
  8 20  1  0  0  0  0
  8 36  1  0  0  0  0
  9 19  1  0  0  0  0
  9 10  1  0  0  0  0
 10 11  1  0  0  0  0
 10 12  2  0  0  0  0
 12 13  1  0  0  0  0
 13 19  2  0  0  0  0
 13 14  1  0  0  0  0
 14 15  1  0  0  0  0
 14 16  2  0  0  0  0
 15 37  1  0  0  0  0
 15 38  1  0  0  0  0
 16 17  1  0  0  0  0
 17 18  2  0  0  0  0
 17 39  1  0  0  0  0
 18 19  1  0  0  0  0
 20 21  1  0  0  0  0
 20 25  1  0  0  0  0
 20 40  1  0  0  0  0
 21 22  1  0  0  0  0
 22 23  1  0  0  0  0
 22 24  2  0  0  0  0
 23 41  1  0  0  0  0
 23 42  1  0  0  0  0
 23 43  1  0  0  0  0
 25 26  1  0  0  0  0
 25 44  1  0  0  0  0
 26 27  1  0  0  0  0
 27 28  1  0  0  0  0
 27 29  2  0  0  0  0
 28 45  1  0  0  0  0
 28 46  1  0  0  0  0
 28 47  1  0  0  0  0
M  END
> <s_m_source_file>
AV-unprocessed.smi

> <i_m_source_file_index>
104

> <i_lp_mmshare_version>
43012

> <i_f3d_flags>
0

> <s_epik_input>
W0NIM11DKD1PKU9bQ0gyXVtDQEBIXTFPW0NASF0oW0NAQEhdKE9DKD1PKVtDSDNdKVtDQEhdMU9DKD1PKVtDSDNdKW4oYyhCciluMiljKGMyMyluW2NIXW5jM1tOSDJd

> <s_epik_cmdline>
J2VwaWtfcHl0aG9uJywgJy1waCcsICc3LjAnLCAnLXRuJywgJzgnLCAnLW1hJywgJzIwMCcsICctbWV0YWxfYmluZGluZycsICctaW1hZScsICc8aW5maWxlLm1hZT4nLCAnLW9tYWUnLCAnPG91dGZpbGUubWFlPic=

> <r_lp_tautomer_probability>
1

> <r_epik_Ionization_Penalty>
7.36622e-05

> <r_epik_Ionization_Penalty_Charging>
0

> <r_epik_Ionization_Penalty_Neutral>
7.36622e-05

> <r_epik_State_Penalty>
-0

> <r_epik_Charging_Adjusted_Penalty>
0

> <i_epik_Tot_Q>
0

> <i_epik_Tot_abs_Q>
0

> <r_epik_Metal_State_Penalty>
-0

> <b_epik_Metal_Only>
0

> <s_epik_Chemistry_Notes>
This compound has an ester and may undergo hydrolysis at high or low pH. This compound contains an acetal/aminal-like group ( X-CH(R)-Y where X, Y are N, S, or O) that may be acid/base labile, releasing an aldehyde.

> <s_lp_Force_Field>
OPLS_2005

> <r_lp_Energy>
22.6214

> <b_lp_Chiralities_Consistent>
1

> <s_lp_Variant>
AV-unprocessed.smi:104-2

> <Gold.Version>
5.8.1

> <Gold.Id.Protein>
6NUR|6NUR_protein|mol2

> <Gold.PLP.Fitness>
39.5204

> <Gold.PLP.PLP>
-31.3206

> <Gold.PLP.part.hbond>
-4.0000

> <Gold.PLP.part.metal>
0.0000

> <Gold.PLP.part.buried>
-3.6951

> <Gold.PLP.part.nonpolar>
-24.8535

> <Gold.PLP.part.repulsive>
0.9052

> <Gold.PLP.ligand.clash>
0.0000

> <Gold.PLP.ligand.torsion>
0.4974

> <Gold.PLP.Chemscore.Hbond>
2.9280

> <Gold.PLP.Chemscore.CHOScore>
0.0000

> <Gold.PLP.Chemscore.Metal>
0.0000

> <Gold.Chemscore.Hbonds>
donor molecule, donor type, donor heavy atom, donor atom, acceptor molecule, acceptor atom, score
      P1  H  6896  6908       L1    24  1.00
      P1  H  7989  7998       L1    16  1.00
      P1  H 10752 10765       L1    18  0.91

> <Gold.PLP.Chemscore.Internal.Correction>
0.4108

> <Gold.Rescore>
     Score         DG    S(hbond)    S(metal)    S(lipo)     H(rot)  DE(clash)    DE(int)     intcor
      3.35      -7.57       2.71        0.00      34.60       4.31       0.12       4.09       ----

> <Gold.Chemscore.Fitness>
3.3514

> <Gold.Chemscore.DG>
-7.5652

> <Gold.Chemscore.ZeroCoef>
-5.4800

> <Gold.Chemscore.Hbond>
2.7134

> <Gold.Chemscore.Metal>
0.0000

> <Gold.Chemscore.Lipo>
34.6002

> <Gold.Chemscore.Internal_Hbond>
0.0000

> <Gold.Chemscore.DEClash>
0.1219

> <Gold.Chemscore.DEInternal>
4.0919

> <Gold.Chemscore.Rot>
4.3070

> <Gold.Chemscore.Internal.Correction>
   9.000000E+99

> <Gold.Chemscore.Hbonds>
donor molecule, donor type, donor heavy atom, donor atom, acceptor molecule, acceptor atom, score
      P1  H  6896  6908       L1    24  1.00
      P1  H  7989  7998       L1    16  0.31
      P1  H 10752 10765       L1    18  0.75

> <Gold.Chemscore.Hbond.Weighted>
-9.0628

> <Gold.Chemscore.Metal.Weighted>
-0.0000

> <Gold.Chemscore.Lipo.Weighted>
-4.0482

> <Gold.Chemscore.Internal_Hbond.Weighted>
0.0000

> <Gold.Chemscore.DEClash.Weighted>
0.1219

> <Gold.Chemscore.DEInternal.Weighted>
4.0919

> <Gold.Chemscore.Rot.Weighted>
11.0259

> <Gold.Chemscore.Internal.Correction.Weighted>
   9.000000E+99

> <Gold.Protein.RotatedTorsions>
[ 6907 6896 6895 6894 ] final  133.44 input  -60.11 | X-H torsion
[ 7974 7965 7964 7962 ] final  -76.44 input  175.53 | X-H torsion
[ 8008 7997 7996 7995 ] final -139.45 input   59.86 | X-H torsion
[ 10167 10162 10161 10158 ] final  -66.26 input  -65.29 | X-H torsion
[ 10718 10713 10712 10709 ] final  -51.83 input   66.30 | X-H torsion
[ 10763 10752 10751 10750 ] final  175.00 input  -60.55 | X-H torsion
[ 11005 11000 10999 10996 ] final -114.46 input  -57.11 | X-H torsion

> <Gold.Protein.ActiveResidues>
 VAL166  LYS551  ARG553  GLY616  TRP617  ASP618  TYR619  PRO620  LYS621  CYS622 
 ASP623  PHE694  ASN695  SER759  ASP760  ASP761  ALA762  ILE779  LEU786  VAL792 
 PHE793  MET794  SER795  GLU796  ALA797  LYS798  CYS799  TRP800  GLU811  SER814 

> <Gold.Protein.RotatedAtoms>
  152.3219  133.5863  159.5750 H   0  0  0  0  0  0  0  0  0  0  0  0  # atno 6907 bound_to 6896
  150.7376  133.9998  159.3643 H   0  0  0  0  0  0  0  0  0  0  0  0  # atno 6908 bound_to 6896
  151.7881  135.0744  160.0434 H   0  0  0  0  0  0  0  0  0  0  0  0  # atno 6909 bound_to 6896
  145.6129  140.9382  143.1180 H   0  0  0  0  0  0  0  0  0  0  0  0  # atno 7974 bound_to 7965
  155.4451  140.0534  157.3007 H   0  0  0  0  0  0  0  0  0  0  0  0  # atno 8008 bound_to 7997
  154.4801  140.2078  155.9740 H   0  0  0  0  0  0  0  0  0  0  0  0  # atno 8009 bound_to 7997
  156.1193  140.3191  155.8189 H   0  0  0  0  0  0  0  0  0  0  0  0  # atno 8010 bound_to 7997
  140.5670  143.2315  151.6614 H   0  0  0  0  0  0  0  0  0  0  0  0  # atno 10167 bound_to 10162
  156.1675  130.4149  149.9697 H   0  0  0  0  0  0  0  0  0  0  0  0  # atno 10718 bound_to 10713
  154.4616  135.2768  155.1708 H   0  0  0  0  0  0  0  0  0  0  0  0  # atno 10763 bound_to 10752
  154.3494  135.6153  153.5639 H   0  0  0  0  0  0  0  0  0  0  0  0  # atno 10764 bound_to 10752
  152.9855  135.5807  154.4980 H   0  0  0  0  0  0  0  0  0  0  0  0  # atno 10765 bound_to 10752
  141.0550  133.9626  157.2769 H   0  0  0  0  0  0  0  0  0  0  0  0  # atno 11005 bound_to 11000
  144.7262  139.7867  143.7364 LP  0  0  0  0  0  0  0  0  0  0  0  0  # atno 17320 bound_to 7965
  146.1491  139.4568  143.0060 LP  0  0  0  0  0  0  0  0  0  0  0  0  # atno 17321 bound_to 7965
  139.5098  144.3564  152.0603 LP  0  0  0  0  0  0  0  0  0  0  0  0  # atno 17342 bound_to 10162
  140.2697  144.3977  150.6155 LP  0  0  0  0  0  0  0  0  0  0  0  0  # atno 17343 bound_to 10162
  156.7507  130.9114  151.3637 LP  0  0  0  0  0  0  0  0  0  0  0  0  # atno 17370 bound_to 10713
  157.6779  130.9112  150.0194 LP  0  0  0  0  0  0  0  0  0  0  0  0  # atno 17371 bound_to 10713
  139.9383  135.0194  156.8626 LP  0  0  0  0  0  0  0  0  0  0  0  0  # atno 17394 bound_to 11000
  140.5981  134.0198  155.7526 LP  0  0  0  0  0  0  0  0  0  0  0  0  # atno 17395 bound_to 11000

$$$$
