AV-unprocessed.smi:108|AV-procd|sdf|1030|dock7
  -GOLD-   2262018 33D 1   1.00000     0.00000
 Structure written by MMmdl.
 59 62  0  0  0  0  0  0  0  0  1 V2000
  150.2104  139.3338  158.4877 O   0  0  0  0  0  0  0  0  0  0  0  0
  150.1136  140.1172  157.5405 C   0  0  0  0  0  0  0  0  0  0  0  0
  151.0541  141.3402  157.4760 C   0  0  0  0  0  0  0  0  0  0  0  0
  151.9149  141.4862  158.6704 N   0  0  0  0  0  0  0  0  0  0  0  0
  151.7004  142.5928  159.5277 C   0  0  0  0  0  0  0  0  0  0  0  0
  150.8281  143.4291  159.2875 O   0  0  0  0  0  0  0  0  0  0  0  0
  152.5728  142.6612  160.6931 C   0  0  0  0  0  0  0  0  0  0  0  0
  152.4043  143.6443  161.5935 F   0  0  0  0  0  0  0  0  0  0  0  0
  153.5387  141.7414  160.8934 C   0  0  0  0  0  0  0  0  0  0  0  0
  153.7820  140.6983  160.0146 N   0  0  0  0  0  0  0  0  0  0  0  0
  154.8316  139.6285  160.2794 C   0  0  1  0  0  0  0  0  0  0  0  0
  156.2054  140.1780  160.6865 C   0  0  0  0  0  0  0  0  0  0  0  0
  156.1798  140.0941  162.2103 C   0  0  0  0  0  0  0  0  0  0  0  0
  154.8109  139.4928  162.5466 C   0  0  0  0  0  0  0  0  0  0  0  0
  154.4043  138.8460  161.3483 O   0  0  0  0  0  0  0  0  0  0  0  0
  152.9340  140.5298  158.8965 C   0  0  0  0  0  0  0  0  0  0  0  0
  153.0848  139.5761  158.1292 O   0  0  0  0  0  0  0  0  0  0  0  0
  149.1956  139.9425  156.5573 N   0  0  0  0  0  0  0  0  0  0  0  0
  148.2432  138.8199  156.6029 C   0  0  0  0  0  0  0  0  0  0  0  0
  148.9386  137.4447  156.6989 C   0  0  0  0  0  0  0  0  0  0  0  0
  148.5062  136.6287  157.9056 C   0  0  0  0  0  0  0  0  0  0  0  0
  147.8640  135.3843  157.7288 C   0  0  0  0  0  0  0  0  0  0  0  0
  147.4815  134.6202  158.8480 C   0  0  0  0  0  0  0  0  0  0  0  0
  147.7375  135.0982  160.1478 C   0  0  0  0  0  0  0  0  0  0  0  0
  148.3765  136.3403  160.3278 C   0  0  0  0  0  0  0  0  0  0  0  0
  148.7602  137.1047  159.2088 C   0  0  0  0  0  0  0  0  0  0  0  0
  149.0732  140.8298  155.3874 C   0  0  0  0  0  0  0  0  0  0  0  0
  147.7427  141.5666  155.2735 C   0  0  0  0  0  0  0  0  0  0  0  0
  146.8188  141.6023  156.3436 C   0  0  0  0  0  0  0  0  0  0  0  0
  145.5978  142.2902  156.2056 C   0  0  0  0  0  0  0  0  0  0  0  0
  145.2928  142.9521  155.0013 C   0  0  0  0  0  0  0  0  0  0  0  0
  146.2117  142.9280  153.9351 C   0  0  0  0  0  0  0  0  0  0  0  0
  147.4324  142.2389  154.0723 C   0  0  0  0  0  0  0  0  0  0  0  0
  151.6651  141.2798  156.5752 H   0  0  0  0  0  0  0  0  0  0  0  0
  150.4530  142.2390  157.3330 H   0  0  0  0  0  0  0  0  0  0  0  0
  154.1275  141.8400  161.7917 H   0  0  0  0  0  0  0  0  0  0  0  0
  154.8945  139.0488  159.3570 H   0  0  0  0  0  0  0  0  0  0  0  0
  156.9701  139.5052  160.2961 H   0  0  0  0  0  0  0  0  0  0  0  0
  156.4025  141.1694  160.2792 H   0  0  0  0  0  0  0  0  0  0  0  0
  156.9807  139.4424  162.5609 H   0  0  0  0  0  0  0  0  0  0  0  0
  156.3145  141.0683  162.6809 H   0  0  0  0  0  0  0  0  0  0  0  0
  154.8558  138.7918  163.3803 H   0  0  0  0  0  0  0  0  0  0  0  0
  154.0943  140.2736  162.8038 H   0  0  0  0  0  0  0  0  0  0  0  0
  147.5681  138.9373  157.4514 H   0  0  0  0  0  0  0  0  0  0  0  0
  147.5940  138.8450  155.7259 H   0  0  0  0  0  0  0  0  0  0  0  0
  148.7388  136.8705  155.7936 H   0  0  0  0  0  0  0  0  0  0  0  0
  150.0207  137.5765  156.7325 H   0  0  0  0  0  0  0  0  0  0  0  0
  147.6713  135.0083  156.7342 H   0  0  0  0  0  0  0  0  0  0  0  0
  146.9933  133.6669  158.7094 H   0  0  0  0  0  0  0  0  0  0  0  0
  147.4443  134.5117  161.0061 H   0  0  0  0  0  0  0  0  0  0  0  0
  148.5739  136.7063  161.3245 H   0  0  0  0  0  0  0  0  0  0  0  0
  149.2548  138.0542  159.3525 H   0  0  0  0  0  0  0  0  0  0  0  0
  149.8619  141.5826  155.3970 H   0  0  0  0  0  0  0  0  0  0  0  0
  149.2571  140.2659  154.4726 H   0  0  0  0  0  0  0  0  0  0  0  0
  147.0346  141.1042  157.2772 H   0  0  0  0  0  0  0  0  0  0  0  0
  144.8949  142.3099  157.0254 H   0  0  0  0  0  0  0  0  0  0  0  0
  144.3563  143.4798  154.8963 H   0  0  0  0  0  0  0  0  0  0  0  0
  145.9804  143.4381  153.0114 H   0  0  0  0  0  0  0  0  0  0  0  0
  148.1304  142.2256  153.2480 H   0  0  0  0  0  0  0  0  0  0  0  0
  1  2  2  0  0  0  0
  2  3  1  0  0  0  0
  2 18  1  0  0  0  0
  3  4  1  0  0  0  0
  3 34  1  0  0  0  0
  3 35  1  0  0  0  0
  4 16  1  0  0  0  0
  4  5  1  0  0  0  0
  5  6  2  0  0  0  0
  5  7  1  0  0  0  0
  7  8  1  0  0  0  0
  7  9  2  0  0  0  0
  9 10  1  0  0  0  0
  9 36  1  0  0  0  0
 10 11  1  0  0  0  0
 10 16  1  0  0  0  0
 11 15  1  0  0  0  0
 11 12  1  0  0  0  0
 11 37  1  0  0  0  0
 12 13  1  0  0  0  0
 12 38  1  0  0  0  0
 12 39  1  0  0  0  0
 13 14  1  0  0  0  0
 13 40  1  0  0  0  0
 13 41  1  0  0  0  0
 14 15  1  0  0  0  0
 14 42  1  0  0  0  0
 14 43  1  0  0  0  0
 16 17  2  0  0  0  0
 18 19  1  0  0  0  0
 18 27  1  0  0  0  0
 19 20  1  0  0  0  0
 19 44  1  0  0  0  0
 19 45  1  0  0  0  0
 20 21  1  0  0  0  0
 20 46  1  0  0  0  0
 20 47  1  0  0  0  0
 21 26  1  0  0  0  0
 21 22  2  0  0  0  0
 22 23  1  0  0  0  0
 22 48  1  0  0  0  0
 23 24  2  0  0  0  0
 23 49  1  0  0  0  0
 24 25  1  0  0  0  0
 24 50  1  0  0  0  0
 25 26  2  0  0  0  0
 25 51  1  0  0  0  0
 26 52  1  0  0  0  0
 27 28  1  0  0  0  0
 27 53  1  0  0  0  0
 27 54  1  0  0  0  0
 28 33  1  0  0  0  0
 28 29  2  0  0  0  0
 29 30  1  0  0  0  0
 29 55  1  0  0  0  0
 30 31  2  0  0  0  0
 30 56  1  0  0  0  0
 31 32  1  0  0  0  0
 31 57  1  0  0  0  0
 32 33  2  0  0  0  0
 32 58  1  0  0  0  0
 33 59  1  0  0  0  0
M  END
> <s_m_source_file>
AV-unprocessed.smi

> <i_m_source_file_index>
108

> <i_lp_mmshare_version>
43012

> <i_f3d_flags>
0

> <s_epik_input>
W2NIXTFbY0hdW2NIXVtjSF1bY0hdYzFbQ0gyXVtDSDJdTihbQ0gyXWMyW2NIXVtjSF1bY0hdW2NIXVtjSF0yKUMoPU8pW0NIMl1uM2MoPU8pYyhGKVtjSF1uKGMzPU8pW0NAQEhdNFtDSDJdW0NIMl1bQ0gyXU80

> <s_epik_cmdline>
J2VwaWtfcHl0aG9uJywgJy1waCcsICc3LjAnLCAnLXRuJywgJzgnLCAnLW1hJywgJzIwMCcsICctbWV0YWxfYmluZGluZycsICctaW1hZScsICc8aW5maWxlLm1hZT4nLCAnLW9tYWUnLCAnPG91dGZpbGUubWFlPic=

> <r_lp_tautomer_probability>
1

> <r_epik_Ionization_Penalty>
5.46209e-09

> <r_epik_Ionization_Penalty_Charging>
4.22697e-09

> <r_epik_Ionization_Penalty_Neutral>
1.23512e-09

> <r_epik_State_Penalty>
-0

> <r_epik_Charging_Adjusted_Penalty>
4.22697e-09

> <i_epik_Tot_Q>
0

> <i_epik_Tot_abs_Q>
0

> <r_epik_Metal_State_Penalty>
-0

> <b_epik_Metal_Only>
0

> <s_epik_Chemistry_Notes>
This compound contains an acetal/aminal-like group ( X-CH(R)-Y where X, Y are N, S, or O) that may be acid/base labile, releasing an aldehyde.

> <s_lp_Force_Field>
OPLS_2005

> <r_lp_Energy>
38.0932

> <b_lp_Chiralities_Consistent>
1

> <s_lp_Variant>
AV-unprocessed.smi:108-2

> <Gold.Version>
5.8.1

> <Gold.Id.Protein>
6NUR|6NUR_protein|mol2

> <Gold.PLP.Fitness>
53.5560

> <Gold.PLP.PLP>
-52.1660

> <Gold.PLP.part.hbond>
-1.0000

> <Gold.PLP.part.metal>
0.0000

> <Gold.PLP.part.buried>
-6.8294

> <Gold.PLP.part.nonpolar>
-44.6170

> <Gold.PLP.part.repulsive>
0.0622

> <Gold.PLP.ligand.clash>
0.0000

> <Gold.PLP.ligand.torsion>
0.9265

> <Gold.PLP.Chemscore.Hbond>
1.0000

> <Gold.PLP.Chemscore.CHOScore>
0.0000

> <Gold.PLP.Chemscore.Metal>
0.0000

> <Gold.Chemscore.Hbonds>
donor molecule, donor type, donor heavy atom, donor atom, acceptor molecule, acceptor atom, score
      P1  H  7997  8008       L1    17  1.00

> <Gold.PLP.Chemscore.Internal.Correction>
0.2430

> <Gold.Rescore>
     Score         DG    S(hbond)    S(metal)    S(lipo)     H(rot)  DE(clash)    DE(int)     intcor
      7.55     -14.27       0.86        0.00     100.27       2.28       2.07       4.65       ----

> <Gold.Chemscore.Fitness>
7.5479

> <Gold.Chemscore.DG>
-14.2676

> <Gold.Chemscore.ZeroCoef>
-5.4800

> <Gold.Chemscore.Hbond>
0.8628

> <Gold.Chemscore.Metal>
0.0000

> <Gold.Chemscore.Lipo>
100.2676

> <Gold.Chemscore.Internal_Hbond>
0.0000

> <Gold.Chemscore.DEClash>
2.0650

> <Gold.Chemscore.DEInternal>
4.6547

> <Gold.Chemscore.Rot>
2.2756

> <Gold.Chemscore.Internal.Correction>
   9.000000E+99

> <Gold.Chemscore.Hbonds>
donor molecule, donor type, donor heavy atom, donor atom, acceptor molecule, acceptor atom, score
      P1  H  7997  8008       L1    17  0.60

> <Gold.Chemscore.Hbond.Weighted>
-2.8817

> <Gold.Chemscore.Metal.Weighted>
-0.0000

> <Gold.Chemscore.Lipo.Weighted>
-11.7313

> <Gold.Chemscore.Internal_Hbond.Weighted>
0.0000

> <Gold.Chemscore.DEClash.Weighted>
2.0650

> <Gold.Chemscore.DEInternal.Weighted>
4.6547

> <Gold.Chemscore.Rot.Weighted>
5.8255

> <Gold.Chemscore.Internal.Correction.Weighted>
   9.000000E+99

> <Gold.Protein.RotatedTorsions>
[ 6907 6896 6895 6894 ] final   70.87 input  -60.11 | X-H torsion
[ 7974 7965 7964 7962 ] final  -56.98 input  175.53 | X-H torsion
[ 8008 7997 7996 7995 ] final  -76.68 input   59.86 | X-H torsion
[ 10167 10162 10161 10158 ] final  150.37 input  -65.29 | X-H torsion
[ 10718 10713 10712 10709 ] final  -60.13 input   66.30 | X-H torsion
[ 10763 10752 10751 10750 ] final -126.77 input  -60.55 | X-H torsion
[ 11005 11000 10999 10996 ] final  -58.29 input  -57.11 | X-H torsion

> <Gold.Protein.ActiveResidues>
 VAL166  LYS551  ARG553  GLY616  TRP617  ASP618  TYR619  PRO620  LYS621  CYS622 
 ASP623  PHE694  ASN695  SER759  ASP760  ASP761  ALA762  ILE779  LEU786  VAL792 
 PHE793  MET794  SER795  GLU796  ALA797  LYS798  CYS799  TRP800  GLU811  SER814 

> <Gold.Protein.RotatedAtoms>
  152.4776  134.4804  159.9663 H   0  0  0  0  0  0  0  0  0  0  0  0  # atno 6907 bound_to 6896
  151.4817  133.3539  159.2847 H   0  0  0  0  0  0  0  0  0  0  0  0  # atno 6908 bound_to 6896
  150.8825  134.8244  159.7296 H   0  0  0  0  0  0  0  0  0  0  0  0  # atno 6909 bound_to 6896
  145.8564  140.8316  142.9959 H   0  0  0  0  0  0  0  0  0  0  0  0  # atno 7974 bound_to 7965
  154.5527  140.0723  156.8693 H   0  0  0  0  0  0  0  0  0  0  0  0  # atno 8008 bound_to 7997
  155.2962  140.3381  155.4231 H   0  0  0  0  0  0  0  0  0  0  0  0  # atno 8009 bound_to 7997
  156.1975  140.1709  156.7954 H   0  0  0  0  0  0  0  0  0  0  0  0  # atno 8010 bound_to 7997
  139.4851  144.5528  151.7371 H   0  0  0  0  0  0  0  0  0  0  0  0  # atno 10167 bound_to 10162
  156.1012  130.4186  150.0811 H   0  0  0  0  0  0  0  0  0  0  0  0  # atno 10718 bound_to 10713
  154.8748  135.3984  154.3485 H   0  0  0  0  0  0  0  0  0  0  0  0  # atno 10763 bound_to 10752
  153.4274  135.7024  153.6258 H   0  0  0  0  0  0  0  0  0  0  0  0  # atno 10764 bound_to 10752
  153.4894  135.3751  155.2454 H   0  0  0  0  0  0  0  0  0  0  0  0  # atno 10765 bound_to 10752
  141.1201  133.6612  156.4898 H   0  0  0  0  0  0  0  0  0  0  0  0  # atno 11005 bound_to 11000
  144.6727  140.1030  143.7459 LP  0  0  0  0  0  0  0  0  0  0  0  0  # atno 17320 bound_to 7965
  145.9298  139.2599  143.1331 LP  0  0  0  0  0  0  0  0  0  0  0  0  # atno 17321 bound_to 7965
  140.5084  144.1062  150.5988 LP  0  0  0  0  0  0  0  0  0  0  0  0  # atno 17342 bound_to 10162
  140.3979  143.2718  151.9982 LP  0  0  0  0  0  0  0  0  0  0  0  0  # atno 17343 bound_to 10162
  156.8798  130.9552  151.3600 LP  0  0  0  0  0  0  0  0  0  0  0  0  # atno 17370 bound_to 10713
  157.6183  130.8635  149.9065 LP  0  0  0  0  0  0  0  0  0  0  0  0  # atno 17371 bound_to 10713
  140.4532  134.6909  157.5050 LP  0  0  0  0  0  0  0  0  0  0  0  0  # atno 17394 bound_to 11000
  140.0152  134.6631  155.9321 LP  0  0  0  0  0  0  0  0  0  0  0  0  # atno 17395 bound_to 11000

$$$$
