AV-unprocessed.smi:976|AV-procd|sdf|4303|dock5
  -GOLD-   22720 2213D 1   1.00000     0.00000
 Structure written by MMmdl.
 41 42  0  0  0  0  0  0  0  0  1 V2000
  149.2183  137.0654  158.7303 C   0  0  0  0  0  0  0  0  0  0  0  0
  147.6862  137.1717  158.7519 C   0  0  1  0  0  0  0  0  0  0  0  0
  147.2766  137.1975  160.1169 O   0  0  0  0  0  0  0  0  0  0  0  0
  147.4228  135.9709  160.8260 C   0  0  0  0  0  0  0  0  0  0  0  0
  146.8504  136.1308  162.2395 C   0  0  0  0  0  0  0  0  0  0  0  0
  146.7203  134.9288  162.7995 F   0  0  0  0  0  0  0  0  0  0  0  0
  147.6718  136.8652  162.9890 F   0  0  0  0  0  0  0  0  0  0  0  0
  145.6514  136.7105  162.1881 F   0  0  0  0  0  0  0  0  0  0  0  0
  147.2030  138.4364  158.0236 C   0  0  0  0  0  0  0  0  0  0  0  0
  146.2575  139.0807  158.4776 O   0  0  0  0  0  0  0  0  0  0  0  0
  147.8765  138.7585  156.9048 N   0  0  0  0  0  0  0  0  0  0  0  0
  147.6599  139.8614  156.0308 C   0  0  0  0  0  0  0  0  0  0  0  0
  146.3680  140.3814  155.7745 C   0  0  0  0  0  0  0  0  0  0  0  0
  146.2227  141.4403  154.8605 C   0  0  0  0  0  0  0  0  0  0  0  0
  147.3744  141.9354  154.2243 C   0  0  0  0  0  0  0  0  0  0  0  0
  148.6095  141.4418  154.4462 N   0  0  0  0  0  0  0  0  0  0  0  0
  148.7601  140.4237  155.3284 C   0  0  0  0  0  0  0  0  0  0  0  0
  150.0673  139.9458  155.5503 N   0  0  0  0  0  0  0  0  0  0  0  0
  150.7737  139.3757  154.4071 C   0  0  0  0  0  0  0  0  0  0  0  0
  152.0780  138.7092  154.8771 C   0  0  0  0  0  0  0  0  0  0  0  0
  152.8697  139.6560  155.5894 O   0  0  0  0  0  0  0  0  0  0  0  0
  152.2014  140.1537  156.7453 C   0  0  0  0  0  0  0  0  0  0  0  0
  150.8991  140.8576  156.3275 C   0  0  0  0  0  0  0  0  0  0  0  0
  149.6009  137.0522  157.7091 H   0  0  0  0  0  0  0  0  0  0  0  0
  149.5484  136.1473  159.2168 H   0  0  0  0  0  0  0  0  0  0  0  0
  149.6870  137.8999  159.2537 H   0  0  0  0  0  0  0  0  0  0  0  0
  147.2753  136.2835  158.2678 H   0  0  0  0  0  0  0  0  0  0  0  0
  146.9035  135.1592  160.3153 H   0  0  0  0  0  0  0  0  0  0  0  0
  148.4775  135.6979  160.8835 H   0  0  0  0  0  0  0  0  0  0  0  0
  148.6944  138.2013  156.7032 H   0  0  0  0  0  0  0  0  0  0  0  0
  145.4870  139.9743  156.2466 H   0  0  0  0  0  0  0  0  0  0  0  0
  145.2498  141.8571  154.6461 H   0  0  0  0  0  0  0  0  0  0  0  0
  147.3023  142.7453  153.5135 H   0  0  0  0  0  0  0  0  0  0  0  0
  150.1393  138.6442  153.9052 H   0  0  0  0  0  0  0  0  0  0  0  0
  151.0016  140.1606  153.6844 H   0  0  0  0  0  0  0  0  0  0  0  0
  151.8674  137.8461  155.5106 H   0  0  0  0  0  0  0  0  0  0  0  0
  152.6442  138.3455  154.0196 H   0  0  0  0  0  0  0  0  0  0  0  0
  151.9963  139.3377  157.4402 H   0  0  0  0  0  0  0  0  0  0  0  0
  152.8581  140.8542  157.2615 H   0  0  0  0  0  0  0  0  0  0  0  0
  151.1268  141.7355  155.7211 H   0  0  0  0  0  0  0  0  0  0  0  0
  150.3695  141.2113  157.2122 H   0  0  0  0  0  0  0  0  0  0  0  0
  1  2  1  0  0  0  0
  1 24  1  0  0  0  0
  1 25  1  0  0  0  0
  1 26  1  0  0  0  0
  2  3  1  0  0  0  0
  2  9  1  0  0  0  0
  2 27  1  0  0  0  0
  3  4  1  0  0  0  0
  4  5  1  0  0  0  0
  4 28  1  0  0  0  0
  4 29  1  0  0  0  0
  5  6  1  0  0  0  0
  5  7  1  0  0  0  0
  5  8  1  0  0  0  0
  9 10  2  0  0  0  0
  9 11  1  0  0  0  0
 11 12  1  0  0  0  0
 11 30  1  0  0  0  0
 12 17  1  0  0  0  0
 12 13  2  0  0  0  0
 13 14  1  0  0  0  0
 13 31  1  0  0  0  0
 14 15  2  0  0  0  0
 14 32  1  0  0  0  0
 15 16  1  0  0  0  0
 15 33  1  0  0  0  0
 16 17  2  0  0  0  0
 17 18  1  0  0  0  0
 18 23  1  0  0  0  0
 18 19  1  0  0  0  0
 19 20  1  0  0  0  0
 19 34  1  0  0  0  0
 19 35  1  0  0  0  0
 20 21  1  0  0  0  0
 20 36  1  0  0  0  0
 20 37  1  0  0  0  0
 21 22  1  0  0  0  0
 22 23  1  0  0  0  0
 22 38  1  0  0  0  0
 22 39  1  0  0  0  0
 23 40  1  0  0  0  0
 23 41  1  0  0  0  0
M  END
> <s_m_source_file>
AV-unprocessed.smi

> <i_m_source_file_index>
976

> <i_lp_mmshare_version>
43012

> <i_f3d_flags>
0

> <s_epik_input>
RkMoRikoRilbQ0gyXU9bQ0BASF0oW0NIM10pQyg9TylbTkhdYzFbY0hdW2NIXVtjSF1uYzFOMltDSDJdW0NIMl1PW0NIMl1bQ0gyXTI=

> <s_epik_cmdline>
J2VwaWtfcHl0aG9uJywgJy1waCcsICc3LjAnLCAnLXRuJywgJzgnLCAnLW1hJywgJzIwMCcsICctbWV0YWxfYmluZGluZycsICctaW1hZScsICc8aW5maWxlLm1hZT4nLCAnLW9tYWUnLCAnPG91dGZpbGUubWFlPic=

> <r_lp_tautomer_probability>
1

> <r_epik_Ionization_Penalty>
0.000443367

> <r_epik_Ionization_Penalty_Charging>
0

> <r_epik_Ionization_Penalty_Neutral>
0.000443367

> <r_epik_State_Penalty>
0.00027288

> <r_epik_Charging_Adjusted_Penalty>
0.00027288

> <i_epik_Tot_Q>
0

> <i_epik_Tot_abs_Q>
0

> <r_epik_Metal_State_Penalty>
-0

> <b_epik_Metal_Only>
0

> <s_lp_Force_Field>
OPLS_2005

> <r_lp_Energy>
26.1197

> <b_lp_Chiralities_Consistent>
1

> <s_lp_Variant>
AV-unprocessed.smi:976-2

> <Gold.Version>
5.8.1

> <Gold.Id.Protein>
6NUR|6NUR_protein|mol2

> <Gold.PLP.Fitness>
42.1494

> <Gold.PLP.PLP>
-38.4836

> <Gold.PLP.part.hbond>
-3.0000

> <Gold.PLP.part.metal>
0.0000

> <Gold.PLP.part.buried>
-2.6056

> <Gold.PLP.part.nonpolar>
-32.2150

> <Gold.PLP.part.repulsive>
0.2113

> <Gold.PLP.ligand.clash>
0.0000

> <Gold.PLP.ligand.torsion>
1.1679

> <Gold.PLP.Chemscore.Hbond>
1.9000

> <Gold.PLP.Chemscore.CHOScore>
0.0000

> <Gold.PLP.Chemscore.Metal>
0.0000

> <Gold.Chemscore.Hbonds>
donor molecule, donor type, donor heavy atom, donor atom, acceptor molecule, acceptor atom, score
      P1  H  6934  6947       L1     3  1.00
      P1  H  7997  8009       L1    21  0.95

> <Gold.PLP.Chemscore.Internal.Correction>
0.3016

> <Gold.Rescore>
     Score         DG    S(hbond)    S(metal)    S(lipo)     H(rot)  DE(clash)    DE(int)     intcor
     10.54     -13.68       1.76        0.00      62.38       1.95       0.70       2.44       ----

> <Gold.Chemscore.Fitness>
10.5382

> <Gold.Chemscore.DG>
-13.6784

> <Gold.Chemscore.ZeroCoef>
-5.4800

> <Gold.Chemscore.Hbond>
1.7632

> <Gold.Chemscore.Metal>
0.0000

> <Gold.Chemscore.Lipo>
62.3844

> <Gold.Chemscore.Internal_Hbond>
0.0000

> <Gold.Chemscore.DEClash>
0.7047

> <Gold.Chemscore.DEInternal>
2.4355

> <Gold.Chemscore.Rot>
1.9491

> <Gold.Chemscore.Internal.Correction>
   9.000000E+99

> <Gold.Chemscore.Hbonds>
donor molecule, donor type, donor heavy atom, donor atom, acceptor molecule, acceptor atom, score
      P1  H  6934  6947       L1     3  0.83
      P1  H  7997  8009       L1    21  0.22

> <Gold.Chemscore.Hbond.Weighted>
-5.8891

> <Gold.Chemscore.Metal.Weighted>
-0.0000

> <Gold.Chemscore.Lipo.Weighted>
-7.2990

> <Gold.Chemscore.Internal_Hbond.Weighted>
0.0000

> <Gold.Chemscore.DEClash.Weighted>
0.7047

> <Gold.Chemscore.DEInternal.Weighted>
2.4355

> <Gold.Chemscore.Rot.Weighted>
4.9897

> <Gold.Chemscore.Internal.Correction.Weighted>
   9.000000E+99

> <Gold.Protein.RotatedTorsions>
[ 6907 6896 6895 6894 ] final   78.41 input  -60.11 | X-H torsion
[ 7974 7965 7964 7962 ] final -162.71 input  175.53 | X-H torsion
[ 8008 7997 7996 7995 ] final -138.11 input   59.86 | X-H torsion
[ 10167 10162 10161 10158 ] final  -46.40 input  -65.29 | X-H torsion
[ 10718 10713 10712 10709 ] final  166.13 input   66.30 | X-H torsion
[ 10763 10752 10751 10750 ] final    1.14 input  -60.55 | X-H torsion
[ 11005 11000 10999 10996 ] final  -51.88 input  -57.11 | X-H torsion

> <Gold.Protein.ActiveResidues>
 VAL166  LYS551  ARG553  GLY616  TRP617  ASP618  TYR619  PRO620  LYS621  CYS622 
 ASP623  PHE694  ASN695  SER759  ASP760  ASP761  ALA762  ILE779  LEU786  VAL792 
 PHE793  MET794  SER795  GLU796  ALA797  LYS798  CYS799  TRP800  GLU811  SER814 

> <Gold.Protein.RotatedAtoms>
  152.5158  134.3668  159.9304 H   0  0  0  0  0  0  0  0  0  0  0  0  # atno 6907 bound_to 6896
  151.3622  133.3879  159.2698 H   0  0  0  0  0  0  0  0  0  0  0  0  # atno 6908 bound_to 6896
  150.9643  134.9045  159.7808 H   0  0  0  0  0  0  0  0  0  0  0  0  # atno 6909 bound_to 6896
  144.7349  140.3214  143.6170 H   0  0  0  0  0  0  0  0  0  0  0  0  # atno 7974 bound_to 7965
  155.4228  140.0520  157.3024 H   0  0  0  0  0  0  0  0  0  0  0  0  # atno 8008 bound_to 7997
  154.4895  140.2114  155.9540 H   0  0  0  0  0  0  0  0  0  0  0  0  # atno 8009 bound_to 7997
  156.1322  140.3170  155.8371 H   0  0  0  0  0  0  0  0  0  0  0  0  # atno 8010 bound_to 7997
  140.6819  143.2833  151.3777 H   0  0  0  0  0  0  0  0  0  0  0  0  # atno 10167 bound_to 10162
  157.0702  131.0364  151.2614 H   0  0  0  0  0  0  0  0  0  0  0  0  # atno 10718 bound_to 10713
  153.3118  135.6963  153.7109 H   0  0  0  0  0  0  0  0  0  0  0  0  # atno 10763 bound_to 10752
  153.5983  135.3467  155.2937 H   0  0  0  0  0  0  0  0  0  0  0  0  # atno 10764 bound_to 10752
  154.8577  135.4334  154.2258 H   0  0  0  0  0  0  0  0  0  0  0  0  # atno 10765 bound_to 10752
  141.0895  133.6635  156.3942 H   0  0  0  0  0  0  0  0  0  0  0  0  # atno 11005 bound_to 11000
  145.7565  139.1810  143.2291 LP  0  0  0  0  0  0  0  0  0  0  0  0  # atno 17320 bound_to 7965
  146.1020  140.7532  142.9544 LP  0  0  0  0  0  0  0  0  0  0  0  0  # atno 17321 bound_to 7965
  139.6147  144.1026  152.2334 LP  0  0  0  0  0  0  0  0  0  0  0  0  # atno 17342 bound_to 10162
  140.0452  144.5976  150.7380 LP  0  0  0  0  0  0  0  0  0  0  0  0  # atno 17343 bound_to 10162
  157.4884  130.7807  149.7483 LP  0  0  0  0  0  0  0  0  0  0  0  0  # atno 17370 bound_to 10713
  155.9952  130.3913  150.2826 LP  0  0  0  0  0  0  0  0  0  0  0  0  # atno 17371 bound_to 10713
  140.5286  134.6235  157.5342 LP  0  0  0  0  0  0  0  0  0  0  0  0  # atno 17394 bound_to 11000
  139.9718  134.7280  156.0027 LP  0  0  0  0  0  0  0  0  0  0  0  0  # atno 17395 bound_to 11000

$$$$
