AV-unprocessed.smi:3170|AV-procd|sdf|12109|dock2
  -GOLD-   2272017543D 1   1.00000     0.00000
 Structure written by MMmdl.
 35 36  0  0  0  0  0  0  0  0  1 V2000
  145.8492  136.8998  155.1043 O   0  0  0  0  0  0  0  0  0  0  0  0
  146.6390  136.7389  154.1739 C   0  0  0  0  0  0  0  0  0  0  0  0
  146.2724  136.4570  152.9164 N   0  0  0  0  0  0  0  0  0  0  0  0
  144.8950  136.3692  152.4404 C   0  0  0  0  0  0  0  0  0  0  0  0
  144.7963  135.8039  151.0090 C   0  0  0  0  0  0  0  0  0  0  0  0
  145.1291  134.3927  150.9478 N   0  0  0  0  0  0  0  0  0  0  0  0
  146.3377  133.7990  151.2857 C   0  0  0  0  0  0  0  0  0  0  0  0
  146.1892  132.4494  151.0571 C   0  0  0  0  0  0  0  0  0  0  0  0
  144.9051  132.1920  150.5822 N   0  0  0  0  0  0  0  0  0  0  0  0
  144.3352  133.3895  150.5476 C   0  0  0  0  0  0  0  0  0  0  0  0
  147.9684  136.8591  154.2866 N   0  0  0  0  0  0  0  0  0  0  0  0
  148.6700  137.2681  155.4984 C   0  0  0  0  0  0  0  0  0  0  0  0
  149.8816  138.1669  155.1824 C   0  0  2  0  0  0  0  0  0  0  0  0
  150.6738  138.6186  156.3939 C   0  0  0  0  0  0  0  0  0  0  0  0
  151.4440  139.8097  155.8337 C   0  0  0  0  0  0  0  0  0  0  0  0
  150.5931  140.3910  154.8495 O   0  0  0  0  0  0  0  0  0  0  0  0
  149.5139  139.5093  154.5510 C   0  0  0  0  0  0  0  0  0  0  0  0
  146.9986  136.3446  152.2241 H   0  0  0  0  0  0  0  0  0  0  0  0
  144.3392  135.7324  153.1290 H   0  0  0  0  0  0  0  0  0  0  0  0
  144.4295  137.3547  152.4872 H   0  0  0  0  0  0  0  0  0  0  0  0
  143.7832  135.9334  150.6274 H   0  0  0  0  0  0  0  0  0  0  0  0
  145.4530  136.3492  150.3299 H   0  0  0  0  0  0  0  0  0  0  0  0
  147.1801  134.3700  151.6472 H   0  0  0  0  0  0  0  0  0  0  0  0
  146.9023  131.6501  151.1953 H   0  0  0  0  0  0  0  0  0  0  0  0
  143.3190  133.5422  150.2142 H   0  0  0  0  0  0  0  0  0  0  0  0
  148.5327  136.7052  153.4637 H   0  0  0  0  0  0  0  0  0  0  0  0
  147.9822  137.7823  156.1717 H   0  0  0  0  0  0  0  0  0  0  0  0
  148.9955  136.3673  156.0193 H   0  0  0  0  0  0  0  0  0  0  0  0
  150.5576  137.6447  154.5031 H   0  0  0  0  0  0  0  0  0  0  0  0
  150.0024  138.9467  157.1889 H   0  0  0  0  0  0  0  0  0  0  0  0
  151.3274  137.8436  156.7957 H   0  0  0  0  0  0  0  0  0  0  0  0
  151.7165  140.5312  156.6042 H   0  0  0  0  0  0  0  0  0  0  0  0
  152.3596  139.4734  155.3455 H   0  0  0  0  0  0  0  0  0  0  0  0
  149.3498  139.4320  153.4759 H   0  0  0  0  0  0  0  0  0  0  0  0
  148.6072  139.9149  155.0022 H   0  0  0  0  0  0  0  0  0  0  0  0
  1  2  2  0  0  0  0
  2  3  1  0  0  0  0
  2 11  1  0  0  0  0
  3  4  1  0  0  0  0
  3 18  1  0  0  0  0
  4  5  1  0  0  0  0
  4 19  1  0  0  0  0
  4 20  1  0  0  0  0
  5  6  1  0  0  0  0
  5 21  1  0  0  0  0
  5 22  1  0  0  0  0
  6 10  1  0  0  0  0
  6  7  1  0  0  0  0
  7  8  2  0  0  0  0
  7 23  1  0  0  0  0
  8  9  1  0  0  0  0
  8 24  1  0  0  0  0
  9 10  2  0  0  0  0
 10 25  1  0  0  0  0
 11 12  1  0  0  0  0
 11 26  1  0  0  0  0
 12 13  1  0  0  0  0
 12 27  1  0  0  0  0
 12 28  1  0  0  0  0
 13 17  1  0  0  0  0
 13 14  1  0  0  0  0
 13 29  1  0  0  0  0
 14 15  1  0  0  0  0
 14 30  1  0  0  0  0
 14 31  1  0  0  0  0
 15 16  1  0  0  0  0
 15 32  1  0  0  0  0
 15 33  1  0  0  0  0
 16 17  1  0  0  0  0
 17 34  1  0  0  0  0
 17 35  1  0  0  0  0
M  END
> <s_m_source_file>
AV-unprocessed.smi

> <i_m_source_file_index>
3170

> <i_lp_mmshare_version>
43012

> <i_f3d_flags>
0

> <s_epik_input>
W0NIMl0xT1tDSDJdW0NIMl1bQ0BIXTFbQ0gyXVtOSF1DKD1PKVtOSF1bQ0gyXVtDSDJdbjJbY0hdW2NIXW5bY0hdMg==

> <s_epik_cmdline>
J2VwaWtfcHl0aG9uJywgJy1waCcsICc3LjAnLCAnLXRuJywgJzgnLCAnLW1hJywgJzIwMCcsICctbWV0YWxfYmluZGluZycsICctaW1hZScsICc8aW5maWxlLm1hZT4nLCAnLW9tYWUnLCAnPG91dGZpbGUubWFlPic=

> <r_lp_tautomer_probability>
1

> <r_epik_Ionization_Penalty>
0.621287

> <r_epik_Ionization_Penalty_Charging>
0.621234

> <r_epik_Ionization_Penalty_Neutral>
5.30999e-05

> <r_epik_State_Penalty>
0.637278

> <r_epik_Charging_Adjusted_Penalty>
1.25851

> <i_epik_Tot_Q>
0

> <i_epik_Tot_abs_Q>
0

> <r_epik_Metal_State_Penalty>
0.306756

> <b_epik_Metal_Only>
0

> <s_lp_Force_Field>
OPLS_2005

> <r_lp_Energy>
17.5777

> <b_lp_Chiralities_Consistent>
1

> <s_lp_Variant>
AV-unprocessed.smi:3170-3

> <Gold.Version>
5.8.1

> <Gold.Id.Protein>
6NUR|6NUR_protein|mol2

> <Gold.PLP.Fitness>
43.3945

> <Gold.PLP.PLP>
-26.1490

> <Gold.PLP.part.hbond>
-2.8454

> <Gold.PLP.part.metal>
0.0000

> <Gold.PLP.part.buried>
-3.1879

> <Gold.PLP.part.nonpolar>
-20.2747

> <Gold.PLP.part.repulsive>
0.2594

> <Gold.PLP.ligand.clash>
0.0000

> <Gold.PLP.ligand.torsion>
0.2333

> <Gold.PLP.Chemscore.Hbond>
2.8873

> <Gold.PLP.Chemscore.CHOScore>
3.0000

> <Gold.PLP.Chemscore.Metal>
0.0000

> <Gold.Chemscore.Hbonds>
donor molecule, donor type, donor heavy atom, donor atom, acceptor molecule, acceptor atom, score
      L1  H     3    18       P1  7948  0.96
      L1  H    11    26       P1  7948  1.00
      P1  H  7989  7998       L1    16  1.00
      L1  C     7    23       P1  7948  1.00
      L1  C     8    24       P1 10747  1.00
      L1  C    10    25       P1 10186  0.92

> <Gold.PLP.Chemscore.Internal.Correction>
0.0504

> <Gold.Rescore>
     Score         DG    S(hbond)    S(metal)    S(lipo)     H(rot)  DE(clash)    DE(int)     intcor
     14.69     -14.95       2.83        0.00      49.39       2.25       0.01       0.25       ----

> <Gold.Chemscore.Fitness>
14.6913

> <Gold.Chemscore.DG>
-14.9453

> <Gold.Chemscore.ZeroCoef>
-5.4800

> <Gold.Chemscore.Hbond>
2.8263

> <Gold.Chemscore.Metal>
0.0000

> <Gold.Chemscore.Lipo>
49.3894

> <Gold.Chemscore.Internal_Hbond>
0.0000

> <Gold.Chemscore.DEClash>
0.0064

> <Gold.Chemscore.DEInternal>
0.2476

> <Gold.Chemscore.Rot>
2.2474

> <Gold.Chemscore.Internal.Correction>
   9.000000E+99

> <Gold.Chemscore.Hbonds>
donor molecule, donor type, donor heavy atom, donor atom, acceptor molecule, acceptor atom, score
      L1  H     3    18       P1  7948  0.90
      L1  H    11    26       P1  7948  1.00
      P1  H  7989  7998       L1    16  0.56

> <Gold.Chemscore.Hbond.Weighted>
-9.4400

> <Gold.Chemscore.Metal.Weighted>
-0.0000

> <Gold.Chemscore.Lipo.Weighted>
-5.7786

> <Gold.Chemscore.Internal_Hbond.Weighted>
0.0000

> <Gold.Chemscore.DEClash.Weighted>
0.0064

> <Gold.Chemscore.DEInternal.Weighted>
0.2476

> <Gold.Chemscore.Rot.Weighted>
5.7532

> <Gold.Chemscore.Internal.Correction.Weighted>
   9.000000E+99

> <Gold.Protein.RotatedTorsions>
[ 6907 6896 6895 6894 ] final  120.90 input  -60.11 | X-H torsion
[ 7974 7965 7964 7962 ] final  -67.18 input  175.53 | X-H torsion
[ 8008 7997 7996 7995 ] final -134.07 input   59.86 | X-H torsion
[ 10167 10162 10161 10158 ] final   44.75 input  -65.29 | X-H torsion
[ 10718 10713 10712 10709 ] final  -94.84 input   66.30 | X-H torsion
[ 10763 10752 10751 10750 ] final   44.84 input  -60.55 | X-H torsion
[ 11005 11000 10999 10996 ] final  -74.28 input  -57.11 | X-H torsion

> <Gold.Protein.ActiveResidues>
 VAL166  LYS551  ARG553  GLY616  TRP617  ASP618  TYR619  PRO620  LYS621  CYS622 
 ASP623  PHE694  ASN695  SER759  ASP760  ASP761  ALA762  ILE779  LEU786  VAL792 
 PHE793  MET794  SER795  GLU796  ALA797  LYS798  CYS799  TRP800  GLU811  SER814 

> <Gold.Protein.RotatedAtoms>
  152.4363  133.7367  159.6617 H   0  0  0  0  0  0  0  0  0  0  0  0  # atno 6907 bound_to 6896
  150.8247  133.8181  159.3130 H   0  0  0  0  0  0  0  0  0  0  0  0  # atno 6908 bound_to 6896
  151.5853  135.1058  160.0078 H   0  0  0  0  0  0  0  0  0  0  0  0  # atno 6909 bound_to 6896
  145.7324  140.8991  143.0573 H   0  0  0  0  0  0  0  0  0  0  0  0  # atno 7974 bound_to 7965
  155.3560  140.0480  157.3046 H   0  0  0  0  0  0  0  0  0  0  0  0  # atno 8008 bound_to 7997
  154.5203  140.2222  155.8953 H   0  0  0  0  0  0  0  0  0  0  0  0  # atno 8009 bound_to 7997
  156.1681  140.3102  155.8931 H   0  0  0  0  0  0  0  0  0  0  0  0  # atno 8010 bound_to 7997
  140.3311  144.2587  150.6168 H   0  0  0  0  0  0  0  0  0  0  0  0  # atno 10167 bound_to 10162
  156.0033  130.5084  150.5986 H   0  0  0  0  0  0  0  0  0  0  0  0  # atno 10718 bound_to 10713
  152.9834  135.6058  154.3339 H   0  0  0  0  0  0  0  0  0  0  0  0  # atno 10763 bound_to 10752
  154.3041  135.2772  155.2599 H   0  0  0  0  0  0  0  0  0  0  0  0  # atno 10764 bound_to 10752
  154.4838  135.5910  153.6465 H   0  0  0  0  0  0  0  0  0  0  0  0  # atno 10765 bound_to 10752
  141.1633  133.6906  156.7341 H   0  0  0  0  0  0  0  0  0  0  0  0  # atno 11005 bound_to 11000
  144.6890  139.9349  143.7473 LP  0  0  0  0  0  0  0  0  0  0  0  0  # atno 17320 bound_to 7965
  146.0525  139.3525  143.0630 LP  0  0  0  0  0  0  0  0  0  0  0  0  # atno 17321 bound_to 7965
  140.5396  143.2226  151.8106 LP  0  0  0  0  0  0  0  0  0  0  0  0  # atno 17342 bound_to 10162
  139.4856  144.4617  151.9533 LP  0  0  0  0  0  0  0  0  0  0  0  0  # atno 17343 bound_to 10162
  157.3839  131.0785  151.1453 LP  0  0  0  0  0  0  0  0  0  0  0  0  # atno 17370 bound_to 10713
  157.2166  130.6462  149.5795 LP  0  0  0  0  0  0  0  0  0  0  0  0  # atno 17371 bound_to 10713
  140.2723  134.8382  157.3859 LP  0  0  0  0  0  0  0  0  0  0  0  0  # atno 17394 bound_to 11000
  140.1509  134.4850  155.7962 LP  0  0  0  0  0  0  0  0  0  0  0  0  # atno 17395 bound_to 11000

$$$$
