AV-unprocessed.smi:3335|AV-procd|sdf|12847|dock4
  -GOLD-   2272019233D 1   1.00000     0.00000
 Structure written by MMmdl.
 46 47  0  0  0  0  0  0  0  0  1 V2000
  143.4802  132.8058  150.9044 C   0  0  0  0  0  0  0  0  0  0  0  0
  144.8325  133.0821  151.4955 C   0  0  0  0  0  0  0  0  0  0  0  0
  145.9830  133.6021  150.8391 C   0  0  0  0  0  0  0  0  0  0  0  0
  147.0239  133.7222  151.6458 N   0  0  0  0  0  0  0  0  0  0  0  0
  146.5788  133.2913  152.8482 N   0  0  0  0  0  0  0  0  0  0  0  0
  147.4723  133.2449  154.0040 C   0  0  2  0  0  0  0  0  0  0  0  0
  148.6876  132.3253  153.7689 C   0  0  0  0  0  0  0  0  0  0  0  0
  146.7337  132.9535  155.3391 C   0  0  1  0  0  0  0  0  0  0  0  0
  146.3088  131.4753  155.4549 C   0  0  0  0  0  0  0  0  0  0  0  0
  147.5730  133.3683  156.4671 N   0  0  0  0  0  0  0  0  0  0  0  0
  146.8907  133.4474  157.7720 C   0  0  2  0  0  0  0  0  0  0  0  0
  145.6950  134.4057  157.6603 C   0  0  0  0  0  0  0  0  0  0  0  0
  147.8317  133.9315  158.8964 C   0  0  0  0  0  0  0  0  0  0  0  0
  149.0013  134.2024  158.6177 O   0  0  0  0  0  0  0  0  0  0  0  0
  147.3595  134.0409  160.1574 N   0  0  0  0  0  0  0  0  0  0  0  0
  148.1897  134.4539  161.2881 C   0  0  0  0  0  0  0  0  0  0  0  0
  147.3444  134.2092  162.5380 C   0  0  0  0  0  0  0  0  0  0  0  0
  145.9105  134.2937  162.0364 C   0  0  0  0  0  0  0  0  0  0  0  0
  145.9886  133.7836  160.5976 C   0  0  0  0  0  0  0  0  0  0  0  0
  145.2588  132.8944  152.7796 C   0  0  0  0  0  0  0  0  0  0  0  0
  143.5447  132.5702  149.8419 H   0  0  0  0  0  0  0  0  0  0  0  0
  142.8160  133.6643  151.0038 H   0  0  0  0  0  0  0  0  0  0  0  0
  142.9915  131.9611  151.3904 H   0  0  0  0  0  0  0  0  0  0  0  0
  146.0927  133.8916  149.8044 H   0  0  0  0  0  0  0  0  0  0  0  0
  147.8855  134.2506  154.0964 H   0  0  0  0  0  0  0  0  0  0  0  0
  149.3871  132.3831  154.6030 H   0  0  0  0  0  0  0  0  0  0  0  0
  149.2278  132.6172  152.8678 H   0  0  0  0  0  0  0  0  0  0  0  0
  148.3972  131.2805  153.6554 H   0  0  0  0  0  0  0  0  0  0  0  0
  145.8321  133.5677  155.3404 H   0  0  0  0  0  0  0  0  0  0  0  0
  145.8128  131.1405  154.5437 H   0  0  0  0  0  0  0  0  0  0  0  0
  145.6007  131.3221  156.2687 H   0  0  0  0  0  0  0  0  0  0  0  0
  147.1641  130.8207  155.6260 H   0  0  0  0  0  0  0  0  0  0  0  0
  148.0133  134.2468  156.2341 H   0  0  0  0  0  0  0  0  0  0  0  0
  146.4858  132.4626  158.0012 H   0  0  0  0  0  0  0  0  0  0  0  0
  145.1463  134.4672  158.6010 H   0  0  0  0  0  0  0  0  0  0  0  0
  144.9935  134.0674  156.8971 H   0  0  0  0  0  0  0  0  0  0  0  0
  146.0119  135.4150  157.3933 H   0  0  0  0  0  0  0  0  0  0  0  0
  149.1287  133.8996  161.3317 H   0  0  0  0  0  0  0  0  0  0  0  0
  148.4259  135.5142  161.1864 H   0  0  0  0  0  0  0  0  0  0  0  0
  147.5381  133.2060  162.9201 H   0  0  0  0  0  0  0  0  0  0  0  0
  147.5562  134.9184  163.3387 H   0  0  0  0  0  0  0  0  0  0  0  0
  145.2124  133.7240  162.6506 H   0  0  0  0  0  0  0  0  0  0  0  0
  145.5845  135.3347  162.0381 H   0  0  0  0  0  0  0  0  0  0  0  0
  145.2508  134.2812  159.9668 H   0  0  0  0  0  0  0  0  0  0  0  0
  145.8007  132.7093  160.5657 H   0  0  0  0  0  0  0  0  0  0  0  0
  144.7371  132.5098  153.6437 H   0  0  0  0  0  0  0  0  0  0  0  0
  1  2  1  0  0  0  0
  1 21  1  0  0  0  0
  1 22  1  0  0  0  0
  1 23  1  0  0  0  0
  2 20  2  0  0  0  0
  2  3  1  0  0  0  0
  3  4  2  0  0  0  0
  3 24  1  0  0  0  0
  4  5  1  0  0  0  0
  5  6  1  0  0  0  0
  5 20  1  0  0  0  0
  6  7  1  0  0  0  0
  6  8  1  0  0  0  0
  6 25  1  0  0  0  0
  7 26  1  0  0  0  0
  7 27  1  0  0  0  0
  7 28  1  0  0  0  0
  8  9  1  0  0  0  0
  8 10  1  0  0  0  0
  8 29  1  0  0  0  0
  9 30  1  0  0  0  0
  9 31  1  0  0  0  0
  9 32  1  0  0  0  0
 10 11  1  0  0  0  0
 10 33  1  0  0  0  0
 11 12  1  0  0  0  0
 11 13  1  0  0  0  0
 11 34  1  0  0  0  0
 12 35  1  0  0  0  0
 12 36  1  0  0  0  0
 12 37  1  0  0  0  0
 13 14  2  0  0  0  0
 13 15  1  0  0  0  0
 15 19  1  0  0  0  0
 15 16  1  0  0  0  0
 16 17  1  0  0  0  0
 16 38  1  0  0  0  0
 16 39  1  0  0  0  0
 17 18  1  0  0  0  0
 17 40  1  0  0  0  0
 17 41  1  0  0  0  0
 18 19  1  0  0  0  0
 18 42  1  0  0  0  0
 18 43  1  0  0  0  0
 19 44  1  0  0  0  0
 19 45  1  0  0  0  0
 20 46  1  0  0  0  0
M  END
> <s_m_source_file>
AV-unprocessed.smi

> <i_m_source_file_index>
3335

> <i_lp_mmshare_version>
43012

> <i_f3d_flags>
0

> <s_epik_input>
W0NIM11jMVtjSF1ubihbY0hdMSlbQ0BIXShbQ0gzXSlbQ0BIXShbQ0gzXSlbTkhdW0NASF0oW0NIM10pQyg9TylOMltDSDJdW0NIMl1bQ0gyXVtDSDJdMg==

> <s_epik_cmdline>
J2VwaWtfcHl0aG9uJywgJy1waCcsICc3LjAnLCAnLXRuJywgJzgnLCAnLW1hJywgJzIwMCcsICctbWV0YWxfYmluZGluZycsICctaW1hZScsICc8aW5maWxlLm1hZT4nLCAnLW9tYWUnLCAnPG91dGZpbGUubWFlPic=

> <r_lp_tautomer_probability>
1

> <r_epik_Ionization_Penalty>
0.918803

> <r_epik_Ionization_Penalty_Charging>
0

> <r_epik_Ionization_Penalty_Neutral>
0.918803

> <r_epik_State_Penalty>
0.958258

> <r_epik_Charging_Adjusted_Penalty>
0.958258

> <i_epik_Tot_Q>
0

> <i_epik_Tot_abs_Q>
0

> <r_epik_Metal_State_Penalty>
0.956786

> <b_epik_Metal_Only>
0

> <s_lp_Force_Field>
OPLS_2005

> <r_lp_Energy>
40.8069

> <b_lp_Chiralities_Consistent>
1

> <s_lp_Variant>
AV-unprocessed.smi:3335-11

> <Gold.Version>
5.8.1

> <Gold.Id.Protein>
6NUR|6NUR_protein|mol2

> <Gold.PLP.Fitness>
34.1225

> <Gold.PLP.PLP>
-25.6775

> <Gold.PLP.part.hbond>
-0.9929

> <Gold.PLP.part.metal>
0.0000

> <Gold.PLP.part.buried>
-4.2647

> <Gold.PLP.part.nonpolar>
-20.7660

> <Gold.PLP.part.repulsive>
1.0776

> <Gold.PLP.ligand.clash>
0.0000

> <Gold.PLP.ligand.torsion>
0.3517

> <Gold.PLP.Chemscore.Hbond>
1.0000

> <Gold.PLP.Chemscore.CHOScore>
1.9771

> <Gold.PLP.Chemscore.Metal>
0.0000

> <Gold.Chemscore.Hbonds>
donor molecule, donor type, donor heavy atom, donor atom, acceptor molecule, acceptor atom, score
      P1  H  6896  6908       L1    14  1.00
      L1  C     3    24       P1  7921  0.80
      L1  C    20    46       P1 10957  1.00

> <Gold.PLP.Chemscore.Internal.Correction>
0.2171

> <Gold.Rescore>
     Score         DG    S(hbond)    S(metal)    S(lipo)     H(rot)  DE(clash)    DE(int)     intcor
     12.31     -12.60       1.00        0.00      67.82       1.62       0.01       0.27       ----

> <Gold.Chemscore.Fitness>
12.3113

> <Gold.Chemscore.DG>
-12.5987

> <Gold.Chemscore.ZeroCoef>
-5.4800

> <Gold.Chemscore.Hbond>
0.9975

> <Gold.Chemscore.Metal>
0.0000

> <Gold.Chemscore.Lipo>
67.8217

> <Gold.Chemscore.Internal_Hbond>
0.0000

> <Gold.Chemscore.DEClash>
0.0141

> <Gold.Chemscore.DEInternal>
0.2733

> <Gold.Chemscore.Rot>
1.6204

> <Gold.Chemscore.Internal.Correction>
   9.000000E+99

> <Gold.Chemscore.Hbonds>
donor molecule, donor type, donor heavy atom, donor atom, acceptor molecule, acceptor atom, score
      P1  H  6896  6908       L1    14  0.99

> <Gold.Chemscore.Hbond.Weighted>
-3.3318

> <Gold.Chemscore.Metal.Weighted>
-0.0000

> <Gold.Chemscore.Lipo.Weighted>
-7.9351

> <Gold.Chemscore.Internal_Hbond.Weighted>
0.0000

> <Gold.Chemscore.DEClash.Weighted>
0.0141

> <Gold.Chemscore.DEInternal.Weighted>
0.2733

> <Gold.Chemscore.Rot.Weighted>
4.1482

> <Gold.Chemscore.Internal.Correction.Weighted>
   9.000000E+99

> <Gold.Protein.RotatedTorsions>
[ 6907 6896 6895 6894 ] final  157.74 input  -60.11 | X-H torsion
[ 7974 7965 7964 7962 ] final   53.46 input  175.53 | X-H torsion
[ 8008 7997 7996 7995 ] final  175.78 input   59.86 | X-H torsion
[ 10167 10162 10161 10158 ] final  -41.74 input  -65.29 | X-H torsion
[ 10718 10713 10712 10709 ] final  173.63 input   66.30 | X-H torsion
[ 10763 10752 10751 10750 ] final   86.63 input  -60.55 | X-H torsion
[ 11005 11000 10999 10996 ] final  -10.70 input  -57.11 | X-H torsion

> <Gold.Protein.ActiveResidues>
 VAL166  LYS551  ARG553  GLY616  TRP617  ASP618  TYR619  PRO620  LYS621  CYS622 
 ASP623  PHE694  ASN695  SER759  ASP760  ASP761  ALA762  ILE779  LEU786  VAL792 
 PHE793  MET794  SER795  GLU796  ALA797  LYS798  CYS799  TRP800  GLU811  SER814 

> <Gold.Protein.RotatedAtoms>
  152.0107  133.3860  159.4218 H   0  0  0  0  0  0  0  0  0  0  0  0  # atno 6907 bound_to 6896
  150.6900  134.3734  159.5011 H   0  0  0  0  0  0  0  0  0  0  0  0  # atno 6908 bound_to 6896
  152.1494  134.9000  160.0599 H   0  0  0  0  0  0  0  0  0  0  0  0  # atno 6909 bound_to 6896
  145.9709  139.4148  143.0190 H   0  0  0  0  0  0  0  0  0  0  0  0  # atno 7974 bound_to 7965
  156.0834  140.1400  156.9683 H   0  0  0  0  0  0  0  0  0  0  0  0  # atno 8008 bound_to 7997
  154.4598  140.0947  156.6911 H   0  0  0  0  0  0  0  0  0  0  0  0  # atno 8009 bound_to 7997
  155.5038  140.3451  155.4378 H   0  0  0  0  0  0  0  0  0  0  0  0  # atno 8010 bound_to 7997
  140.6993  143.3077  151.3109 H   0  0  0  0  0  0  0  0  0  0  0  0  # atno 10167 bound_to 10162
  156.9615  131.0062  151.2926 H   0  0  0  0  0  0  0  0  0  0  0  0  # atno 10718 bound_to 10713
  153.1590  135.4573  154.9744 H   0  0  0  0  0  0  0  0  0  0  0  0  # atno 10763 bound_to 10752
  154.7883  135.3211  154.7839 H   0  0  0  0  0  0  0  0  0  0  0  0  # atno 10764 bound_to 10752
  153.8332  135.6937  153.4866 H   0  0  0  0  0  0  0  0  0  0  0  0  # atno 10765 bound_to 10752
  140.7475  133.8619  155.9018 H   0  0  0  0  0  0  0  0  0  0  0  0  # atno 11005 bound_to 11000
  145.7907  140.9816  143.1050 LP  0  0  0  0  0  0  0  0  0  0  0  0  # atno 17320 bound_to 7965
  144.6837  139.9679  143.7481 LP  0  0  0  0  0  0  0  0  0  0  0  0  # atno 17321 bound_to 7965
  139.6489  144.0399  152.2612 LP  0  0  0  0  0  0  0  0  0  0  0  0  # atno 17342 bound_to 10162
  139.9929  144.6349  150.7798 LP  0  0  0  0  0  0  0  0  0  0  0  0  # atno 17343 bound_to 10162
  157.5654  130.8274  149.8321 LP  0  0  0  0  0  0  0  0  0  0  0  0  # atno 17370 bound_to 10713
  156.0320  130.3762  150.1662 LP  0  0  0  0  0  0  0  0  0  0  0  0  # atno 17371 bound_to 10713
  140.9781  134.1442  157.4519 LP  0  0  0  0  0  0  0  0  0  0  0  0  # atno 17394 bound_to 11000
  139.8794  135.0001  156.5992 LP  0  0  0  0  0  0  0  0  0  0  0  0  # atno 17395 bound_to 11000

$$$$
