AV-unprocessed.smi:387|AV-procd|sdf|2474|dock1
  -GOLD-   2262022413D 1   1.00000     0.00000
 Structure written by MMmdl.
 39 40  0  0  0  0  0  0  0  0  1 V2000
  146.8834  140.9216  153.1561 C   0  0  0  0  0  0  0  0  0  0  0  0
  146.9560  141.8941  154.3468 C   0  0  0  0  0  0  0  0  0  0  0  0
  146.3948  143.2639  153.9102 C   0  0  0  0  0  0  0  0  0  0  0  0
  146.1311  141.3166  155.5164 C   0  0  0  0  0  0  0  0  0  0  0  0
  148.3719  142.0092  154.7163 N   0  0  0  0  0  0  0  0  0  0  0  0
  149.2297  141.0319  155.0581 C   0  0  0  0  0  0  0  0  0  0  0  0
  148.9250  139.8394  155.1066 O   0  0  0  0  0  0  0  0  0  0  0  0
  150.6544  141.4961  155.3985 C   0  0  0  0  0  0  0  0  0  0  0  0
  151.0938  141.1127  156.7581 N   0  0  0  0  0  0  0  0  0  0  0  0
  151.2287  139.7346  157.0649 C   0  0  0  0  0  0  0  0  0  0  0  0
  151.0141  138.8704  156.2129 O   0  0  0  0  0  0  0  0  0  0  0  0
  151.6163  139.4315  158.4405 C   0  0  0  0  0  0  0  0  0  0  0  0
  151.7299  138.0560  158.7967 C   0  0  0  0  0  0  0  0  0  0  0  0
  151.8327  136.9346  159.0637 N   0  0  0  0  0  0  0  0  0  0  0  0
  151.8482  140.4181  159.3307 C   0  0  0  0  0  0  0  0  0  0  0  0
  151.7496  141.7523  159.0013 N   0  0  0  0  0  0  0  0  0  0  0  0
  151.8447  142.7788  160.0006 C   0  0  0  0  0  0  0  0  0  0  0  0
  152.8082  143.9358  159.8211 C   0  0  0  0  0  0  0  0  0  0  0  0
  153.0966  142.8661  160.8460 C   0  0  0  0  0  0  0  0  0  0  0  0
  151.3159  142.1346  157.7131 C   0  0  0  0  0  0  0  0  0  0  0  0
  151.1241  143.3198  157.4294 O   0  0  0  0  0  0  0  0  0  0  0  0
  145.8557  140.7832  152.8183 H   0  0  0  0  0  0  0  0  0  0  0  0
  147.2760  139.9389  153.4206 H   0  0  0  0  0  0  0  0  0  0  0  0
  147.4607  141.2882  152.3062 H   0  0  0  0  0  0  0  0  0  0  0  0
  146.9886  143.6981  153.1052 H   0  0  0  0  0  0  0  0  0  0  0  0
  146.3772  143.9813  154.7305 H   0  0  0  0  0  0  0  0  0  0  0  0
  145.3709  143.1702  153.5470 H   0  0  0  0  0  0  0  0  0  0  0  0
  145.0974  141.1393  155.2173 H   0  0  0  0  0  0  0  0  0  0  0  0
  146.1030  141.9907  156.3725 H   0  0  0  0  0  0  0  0  0  0  0  0
  146.5400  140.3653  155.8590 H   0  0  0  0  0  0  0  0  0  0  0  0
  148.7427  142.9484  154.7132 H   0  0  0  0  0  0  0  0  0  0  0  0
  151.3365  141.1030  154.6428 H   0  0  0  0  0  0  0  0  0  0  0  0
  150.7066  142.5777  155.2628 H   0  0  0  0  0  0  0  0  0  0  0  0
  152.1267  140.1550  160.3411 H   0  0  0  0  0  0  0  0  0  0  0  0
  150.9125  143.0154  160.5109 H   0  0  0  0  0  0  0  0  0  0  0  0
  153.4348  143.9520  158.9313 H   0  0  0  0  0  0  0  0  0  0  0  0
  152.4926  144.9110  160.1858 H   0  0  0  0  0  0  0  0  0  0  0  0
  152.9759  143.1294  161.8948 H   0  0  0  0  0  0  0  0  0  0  0  0
  153.9113  142.1773  160.6299 H   0  0  0  0  0  0  0  0  0  0  0  0
  1  2  1  0  0  0  0
  1 22  1  0  0  0  0
  1 23  1  0  0  0  0
  1 24  1  0  0  0  0
  2  3  1  0  0  0  0
  2  4  1  0  0  0  0
  2  5  1  0  0  0  0
  3 25  1  0  0  0  0
  3 26  1  0  0  0  0
  3 27  1  0  0  0  0
  4 28  1  0  0  0  0
  4 29  1  0  0  0  0
  4 30  1  0  0  0  0
  5  6  1  0  0  0  0
  5 31  1  0  0  0  0
  6  7  2  0  0  0  0
  6  8  1  0  0  0  0
  8  9  1  0  0  0  0
  8 32  1  0  0  0  0
  8 33  1  0  0  0  0
  9 20  1  0  0  0  0
  9 10  1  0  0  0  0
 10 11  2  0  0  0  0
 10 12  1  0  0  0  0
 12 13  1  0  0  0  0
 12 15  2  0  0  0  0
 13 14  3  0  0  0  0
 15 16  1  0  0  0  0
 15 34  1  0  0  0  0
 16 17  1  0  0  0  0
 16 20  1  0  0  0  0
 17 19  1  0  0  0  0
 17 18  1  0  0  0  0
 17 35  1  0  0  0  0
 18 19  1  0  0  0  0
 18 36  1  0  0  0  0
 18 37  1  0  0  0  0
 19 38  1  0  0  0  0
 19 39  1  0  0  0  0
 20 21  2  0  0  0  0
M  END
> <s_m_source_file>
AV-unprocessed.smi

> <i_m_source_file_index>
387

> <i_lp_mmshare_version>
43012

> <i_f3d_flags>
0

> <s_epik_input>
W0NIM11DKFtDSDNdKShbQ0gzXSlbTkhdQyg9TylbQ0gyXW4xYyg9TyljKEMjTilbY0hdbihjMT1PKVtDSF0yW0NIMl1bQ0gyXTI=

> <s_epik_cmdline>
J2VwaWtfcHl0aG9uJywgJy1waCcsICc3LjAnLCAnLXRuJywgJzgnLCAnLW1hJywgJzIwMCcsICctbWV0YWxfYmluZGluZycsICctaW1hZScsICc8aW5maWxlLm1hZT4nLCAnLW9tYWUnLCAnPG91dGZpbGUubWFlPic=

> <r_lp_tautomer_probability>
1

> <r_epik_Ionization_Penalty>
2.47136e-08

> <r_epik_Ionization_Penalty_Charging>
8.30431e-11

> <r_epik_Ionization_Penalty_Neutral>
2.46306e-08

> <r_epik_State_Penalty>
-0

> <r_epik_Charging_Adjusted_Penalty>
8.30431e-11

> <i_epik_Tot_Q>
0

> <i_epik_Tot_abs_Q>
0

> <r_epik_Metal_State_Penalty>
-0

> <b_epik_Metal_Only>
0

> <s_lp_Force_Field>
OPLS_2005

> <r_lp_Energy>
29.2267

> <b_lp_Chiralities_Consistent>
1

> <s_lp_Variant>
AV-unprocessed.smi:387-1

> <Gold.Version>
5.8.1

> <Gold.Id.Protein>
6NUR|6NUR_protein|mol2

> <Gold.PLP.Fitness>
42.1446

> <Gold.PLP.PLP>
-36.2618

> <Gold.PLP.part.hbond>
-2.0000

> <Gold.PLP.part.metal>
0.0000

> <Gold.PLP.part.buried>
-4.6733

> <Gold.PLP.part.nonpolar>
-30.7483

> <Gold.PLP.part.repulsive>
0.3749

> <Gold.PLP.ligand.clash>
0.0000

> <Gold.PLP.ligand.torsion>
0.1660

> <Gold.PLP.Chemscore.Hbond>
2.0000

> <Gold.PLP.Chemscore.CHOScore>
0.0000

> <Gold.PLP.Chemscore.Metal>
0.0000

> <Gold.Chemscore.Hbonds>
donor molecule, donor type, donor heavy atom, donor atom, acceptor molecule, acceptor atom, score
      L1  H     5    31       P1  8028  0.96
      P1  H  6896  6907       L1    14  1.00

> <Gold.PLP.Chemscore.Internal.Correction>
0.2148

> <Gold.Rescore>
     Score         DG    S(hbond)    S(metal)    S(lipo)     H(rot)  DE(clash)    DE(int)     intcor
     12.80     -16.05       1.97        0.00      72.96       1.78       0.26       2.99       ----

> <Gold.Chemscore.Fitness>
12.8009

> <Gold.Chemscore.DG>
-16.0466

> <Gold.Chemscore.ZeroCoef>
-5.4800

> <Gold.Chemscore.Hbond>
1.9688

> <Gold.Chemscore.Metal>
0.0000

> <Gold.Chemscore.Lipo>
72.9622

> <Gold.Chemscore.Internal_Hbond>
0.0000

> <Gold.Chemscore.DEClash>
0.2561

> <Gold.Chemscore.DEInternal>
2.9895

> <Gold.Chemscore.Rot>
1.7757

> <Gold.Chemscore.Internal.Correction>
   9.000000E+99

> <Gold.Chemscore.Hbonds>
donor molecule, donor type, donor heavy atom, donor atom, acceptor molecule, acceptor atom, score
      L1  H     5    31       P1  8028  0.89
      P1  H  6896  6907       L1    14  0.91

> <Gold.Chemscore.Hbond.Weighted>
-6.5758

> <Gold.Chemscore.Metal.Weighted>
-0.0000

> <Gold.Chemscore.Lipo.Weighted>
-8.5366

> <Gold.Chemscore.Internal_Hbond.Weighted>
0.0000

> <Gold.Chemscore.DEClash.Weighted>
0.2561

> <Gold.Chemscore.DEInternal.Weighted>
2.9895

> <Gold.Chemscore.Rot.Weighted>
4.5459

> <Gold.Chemscore.Internal.Correction.Weighted>
   9.000000E+99

> <Gold.Protein.RotatedTorsions>
[ 6907 6896 6895 6894 ] final   -3.65 input  -60.11 | X-H torsion
[ 7974 7965 7964 7962 ] final  100.08 input  175.53 | X-H torsion
[ 8008 7997 7996 7995 ] final -174.79 input   59.86 | X-H torsion
[ 10167 10162 10161 10158 ] final   13.48 input  -65.29 | X-H torsion
[ 10718 10713 10712 10709 ] final   -7.21 input   66.30 | X-H torsion
[ 10763 10752 10751 10750 ] final   -0.90 input  -60.55 | X-H torsion
[ 11005 11000 10999 10996 ] final -148.57 input  -57.11 | X-H torsion

> <Gold.Protein.ActiveResidues>
 VAL166  LYS551  ARG553  GLY616  TRP617  ASP618  TYR619  PRO620  LYS621  CYS622 
 ASP623  PHE694  ASN695  SER759  ASP760  ASP761  ALA762  ILE779  LEU786  VAL792 
 PHE793  MET794  SER795  GLU796  ALA797  LYS798  CYS799  TRP800  GLU811  SER814 

> <Gold.Protein.RotatedAtoms>
  151.5103  135.1065  159.9851 H   0  0  0  0  0  0  0  0  0  0  0  0  # atno 6907 bound_to 6896
  152.4664  133.7929  159.6922 H   0  0  0  0  0  0  0  0  0  0  0  0  # atno 6908 bound_to 6896
  150.8650  133.7524  159.3005 H   0  0  0  0  0  0  0  0  0  0  0  0  # atno 6909 bound_to 6896
  145.3903  139.2364  143.3355 H   0  0  0  0  0  0  0  0  0  0  0  0  # atno 7974 bound_to 7965
  155.9746  140.1169  157.0782 H   0  0  0  0  0  0  0  0  0  0  0  0  # atno 8008 bound_to 7997
  154.4165  140.1156  156.5420 H   0  0  0  0  0  0  0  0  0  0  0  0  # atno 8009 bound_to 7997
  155.6552  140.3473  155.4765 H   0  0  0  0  0  0  0  0  0  0  0  0  # atno 8010 bound_to 7997
  140.5999  143.8625  150.6955 H   0  0  0  0  0  0  0  0  0  0  0  0  # atno 10167 bound_to 10162
  156.7205  130.5149  149.5869 H   0  0  0  0  0  0  0  0  0  0  0  0  # atno 10718 bound_to 10713
  153.3378  135.6979  153.6892 H   0  0  0  0  0  0  0  0  0  0  0  0  # atno 10763 bound_to 10752
  153.5669  135.3524  155.2823 H   0  0  0  0  0  0  0  0  0  0  0  0  # atno 10764 bound_to 10752
  154.8631  135.4263  154.2583 H   0  0  0  0  0  0  0  0  0  0  0  0  # atno 10765 bound_to 10752
  140.7598  134.3311  157.5104 H   0  0  0  0  0  0  0  0  0  0  0  0  # atno 11005 bound_to 11000
  146.2800  140.4585  142.8780 LP  0  0  0  0  0  0  0  0  0  0  0  0  # atno 17320 bound_to 7965
  144.8444  140.6907  143.6208 LP  0  0  0  0  0  0  0  0  0  0  0  0  # atno 17321 bound_to 7965
  140.2168  143.3840  152.1674 LP  0  0  0  0  0  0  0  0  0  0  0  0  # atno 17342 bound_to 10162
  139.5284  144.7130  151.5145 LP  0  0  0  0  0  0  0  0  0  0  0  0  # atno 17343 bound_to 10162
  156.1598  130.6366  151.0703 LP  0  0  0  0  0  0  0  0  0  0  0  0  # atno 17370 bound_to 10713
  157.6900  131.0813  150.7135 LP  0  0  0  0  0  0  0  0  0  0  0  0  # atno 17371 bound_to 10713
  139.8773  134.9195  156.3228 LP  0  0  0  0  0  0  0  0  0  0  0  0  # atno 17394 bound_to 11000
  140.9673  133.7349  156.0485 LP  0  0  0  0  0  0  0  0  0  0  0  0  # atno 17395 bound_to 11000

$$$$
