AV-unprocessed.smi:654|AV-procd|sdf|3212|dock7
  -GOLD-   22720 0153D 1   1.00000     0.00000
 Structure written by MMmdl.
 47 49  0  0  0  0  0  0  0  0  1 V2000
  156.2188  139.8835  159.0470 O   0  0  0  0  0  0  0  0  0  0  0  0
  155.9780  139.9076  160.2547 C   0  0  0  0  0  0  0  0  0  0  0  0
  155.0070  140.6786  160.7717 N   0  0  0  0  0  0  0  0  0  0  0  0
  154.0794  141.4992  160.0000 C   0  0  0  0  0  0  0  0  0  0  0  0
  153.3153  142.5062  160.8815 C   0  0  0  0  0  0  0  0  0  0  0  0
  152.6468  143.6139  160.0846 C   0  0  0  0  0  0  0  0  0  0  0  0
  152.9169  143.7793  158.7108 C   0  0  0  0  0  0  0  0  0  0  0  0
  152.2880  144.8317  158.0180 C   0  0  0  0  0  0  0  0  0  0  0  0
  151.4121  145.6750  158.7307 C   0  0  0  0  0  0  0  0  0  0  0  0
  151.1452  145.5257  160.0460 N   0  0  0  0  0  0  0  0  0  0  0  0
  151.7513  144.5135  160.7024 C   0  0  0  0  0  0  0  0  0  0  0  0
  156.6713  139.1797  161.1674 N   0  0  0  0  0  0  0  0  0  0  0  0
  157.9638  138.5133  160.9450 C   0  0  0  0  0  0  0  0  0  0  0  0
  157.7259  137.0053  160.7971 C   0  0  0  0  0  0  0  0  0  0  0  0
  157.0278  136.3081  162.3258 S   0  0  0  0  0  0  0  0  0  0  0  0
  155.6347  137.4552  162.6540 C   0  0  0  0  0  0  0  0  0  0  0  0
  154.4570  137.1779  161.6803 C   0  0  0  0  0  0  0  0  0  0  0  0
  153.7740  135.8192  161.9174 C   0  0  0  0  0  0  0  0  0  0  0  0
  153.2983  135.6781  163.3690 C   0  0  0  0  0  0  0  0  0  0  0  0
  154.4598  135.8946  164.3473 C   0  0  0  0  0  0  0  0  0  0  0  0
  155.1419  137.2542  164.1094 C   0  0  0  0  0  0  0  0  0  0  0  0
  156.1496  138.9140  162.5160 C   0  0  0  0  0  0  0  0  0  0  0  0
  154.8732  140.6599  161.7721 H   0  0  0  0  0  0  0  0  0  0  0  0
  154.6663  142.0394  159.2567 H   0  0  0  0  0  0  0  0  0  0  0  0
  153.3825  140.8705  159.4437 H   0  0  0  0  0  0  0  0  0  0  0  0
  152.5588  141.9834  161.4675 H   0  0  0  0  0  0  0  0  0  0  0  0
  153.9988  142.9539  161.6042 H   0  0  0  0  0  0  0  0  0  0  0  0
  153.5976  143.1159  158.1977 H   0  0  0  0  0  0  0  0  0  0  0  0
  152.4733  144.9899  156.9659 H   0  0  0  0  0  0  0  0  0  0  0  0
  150.9132  146.4922  158.2308 H   0  0  0  0  0  0  0  0  0  0  0  0
  151.5227  144.4263  161.7546 H   0  0  0  0  0  0  0  0  0  0  0  0
  158.5028  138.8918  160.0763 H   0  0  0  0  0  0  0  0  0  0  0  0
  158.6290  138.7036  161.7884 H   0  0  0  0  0  0  0  0  0  0  0  0
  157.0525  136.8024  159.9639 H   0  0  0  0  0  0  0  0  0  0  0  0
  158.6632  136.4934  160.5793 H   0  0  0  0  0  0  0  0  0  0  0  0
  153.7093  137.9646  161.7904 H   0  0  0  0  0  0  0  0  0  0  0  0
  154.7891  137.2276  160.6438 H   0  0  0  0  0  0  0  0  0  0  0  0
  152.9264  135.7119  161.2402 H   0  0  0  0  0  0  0  0  0  0  0  0
  154.4616  135.0082  161.6754 H   0  0  0  0  0  0  0  0  0  0  0  0
  152.5104  136.4054  163.5688 H   0  0  0  0  0  0  0  0  0  0  0  0
  152.8579  134.6927  163.5238 H   0  0  0  0  0  0  0  0  0  0  0  0
  154.0922  135.8419  165.3725 H   0  0  0  0  0  0  0  0  0  0  0  0
  155.1843  135.0863  164.2430 H   0  0  0  0  0  0  0  0  0  0  0  0
  155.9739  137.3692  164.8051 H   0  0  0  0  0  0  0  0  0  0  0  0
  154.4305  138.0420  164.3621 H   0  0  0  0  0  0  0  0  0  0  0  0
  156.9374  139.1006  163.2475 H   0  0  0  0  0  0  0  0  0  0  0  0
  155.3559  139.6138  162.7823 H   0  0  0  0  0  0  0  0  0  0  0  0
  1  2  2  0  0  0  0
  2  3  1  0  0  0  0
  2 12  1  0  0  0  0
  3  4  1  0  0  0  0
  3 23  1  0  0  0  0
  4  5  1  0  0  0  0
  4 24  1  0  0  0  0
  4 25  1  0  0  0  0
  5  6  1  0  0  0  0
  5 26  1  0  0  0  0
  5 27  1  0  0  0  0
  6 11  1  0  0  0  0
  6  7  2  0  0  0  0
  7  8  1  0  0  0  0
  7 28  1  0  0  0  0
  8  9  2  0  0  0  0
  8 29  1  0  0  0  0
  9 10  1  0  0  0  0
  9 30  1  0  0  0  0
 10 11  2  0  0  0  0
 11 31  1  0  0  0  0
 12 22  1  0  0  0  0
 12 13  1  0  0  0  0
 13 14  1  0  0  0  0
 13 32  1  0  0  0  0
 13 33  1  0  0  0  0
 14 15  1  0  0  0  0
 14 34  1  0  0  0  0
 14 35  1  0  0  0  0
 15 16  1  0  0  0  0
 16 21  1  0  0  0  0
 16 17  1  0  0  0  0
 16 22  1  0  0  0  0
 17 18  1  0  0  0  0
 17 36  1  0  0  0  0
 17 37  1  0  0  0  0
 18 19  1  0  0  0  0
 18 38  1  0  0  0  0
 18 39  1  0  0  0  0
 19 20  1  0  0  0  0
 19 40  1  0  0  0  0
 19 41  1  0  0  0  0
 20 21  1  0  0  0  0
 20 42  1  0  0  0  0
 20 43  1  0  0  0  0
 21 44  1  0  0  0  0
 21 45  1  0  0  0  0
 22 46  1  0  0  0  0
 22 47  1  0  0  0  0
M  END
> <s_m_source_file>
AV-unprocessed.smi

> <i_m_source_file_index>
654

> <i_lp_mmshare_version>
43012

> <i_f3d_flags>
0

> <s_epik_input>
W2NIXTFuW2NIXVtjSF1bY0hdYzFbQ0gyXVtDSDJdW05IXUMoPU8pTihbQ0gyXTIpW0NIMl1bQ0gyXVNDMjNbQ0gyXVtDSDJdW0NIMl1bQ0gyXVtDSDJdMw==

> <s_epik_cmdline>
J2VwaWtfcHl0aG9uJywgJy1waCcsICc3LjAnLCAnLXRuJywgJzgnLCAnLW1hJywgJzIwMCcsICctbWV0YWxfYmluZGluZycsICctaW1hZScsICc8aW5maWxlLm1hZT4nLCAnLW9tYWUnLCAnPG91dGZpbGUubWFlPic=

> <r_epik_Ionization_Penalty>
0.0144586

> <r_epik_Ionization_Penalty_Charging>
0

> <r_epik_Ionization_Penalty_Neutral>
0.0144586

> <r_epik_State_Penalty>
0.0112665

> <r_epik_Charging_Adjusted_Penalty>
0.0112665

> <i_epik_Tot_Q>
0

> <i_epik_Tot_abs_Q>
0

> <r_epik_Metal_State_Penalty>
0.0109983

> <b_epik_Metal_Only>
0

> <s_lp_Force_Field>
OPLS_2005

> <r_lp_Energy>
31.4252

> <b_lp_Chiralities_Consistent>
1

> <s_lp_Variant>
AV-unprocessed.smi:654-1

> <Gold.Version>
5.8.1

> <Gold.Id.Protein>
6NUR|6NUR_protein|mol2

> <Gold.PLP.Fitness>
46.7226

> <Gold.PLP.PLP>
-42.1850

> <Gold.PLP.part.hbond>
-1.7938

> <Gold.PLP.part.metal>
0.0000

> <Gold.PLP.part.buried>
-2.4167

> <Gold.PLP.part.nonpolar>
-38.1873

> <Gold.PLP.part.repulsive>
0.2516

> <Gold.PLP.ligand.clash>
0.6656

> <Gold.PLP.ligand.torsion>
0.3514

> <Gold.PLP.Chemscore.Hbond>
1.0000

> <Gold.PLP.Chemscore.CHOScore>
0.9672

> <Gold.PLP.Chemscore.Metal>
0.0000

> <Gold.Chemscore.Hbonds>
donor molecule, donor type, donor heavy atom, donor atom, acceptor molecule, acceptor atom, score
      P1  H  7997  8010       L1     1  1.00

> <Gold.PLP.Chemscore.Internal.Correction>
0.0042

> <Gold.Rescore>
     Score         DG    S(hbond)    S(metal)    S(lipo)     H(rot)  DE(clash)    DE(int)     intcor
     19.96     -20.40       1.00        0.00     125.85       1.23       0.16       0.28       ----

> <Gold.Chemscore.Fitness>
19.9563

> <Gold.Chemscore.DG>
-20.4016

> <Gold.Chemscore.ZeroCoef>
-5.4800

> <Gold.Chemscore.Hbond>
0.9999

> <Gold.Chemscore.Metal>
0.0000

> <Gold.Chemscore.Lipo>
125.8531

> <Gold.Chemscore.Internal_Hbond>
0.0000

> <Gold.Chemscore.DEClash>
0.1605

> <Gold.Chemscore.DEInternal>
0.2848

> <Gold.Chemscore.Rot>
1.2276

> <Gold.Chemscore.Internal.Correction>
   9.000000E+99

> <Gold.Chemscore.Hbonds>
donor molecule, donor type, donor heavy atom, donor atom, acceptor molecule, acceptor atom, score
      P1  H  7997  8010       L1     1  0.99

> <Gold.Chemscore.Hbond.Weighted>
-3.3396

> <Gold.Chemscore.Metal.Weighted>
-0.0000

> <Gold.Chemscore.Lipo.Weighted>
-14.7248

> <Gold.Chemscore.Internal_Hbond.Weighted>
0.0000

> <Gold.Chemscore.DEClash.Weighted>
0.1605

> <Gold.Chemscore.DEInternal.Weighted>
0.2848

> <Gold.Chemscore.Rot.Weighted>
3.1427

> <Gold.Chemscore.Internal.Correction.Weighted>
   9.000000E+99

> <Gold.Protein.RotatedTorsions>
[ 6907 6896 6895 6894 ] final -168.44 input  -60.11 | X-H torsion
[ 7974 7965 7964 7962 ] final   81.63 input  175.53 | X-H torsion
[ 8008 7997 7996 7995 ] final  -38.12 input   59.86 | X-H torsion
[ 10167 10162 10161 10158 ] final   18.25 input  -65.29 | X-H torsion
[ 10718 10713 10712 10709 ] final  158.18 input   66.30 | X-H torsion
[ 10763 10752 10751 10750 ] final  -98.78 input  -60.55 | X-H torsion
[ 11005 11000 10999 10996 ] final  -56.41 input  -57.11 | X-H torsion

> <Gold.Protein.ActiveResidues>
 VAL166  LYS551  ARG553  GLY616  TRP617  ASP618  TYR619  PRO620  LYS621  CYS622 
 ASP623  PHE694  ASN695  SER759  ASP760  ASP761  ALA762  ILE779  LEU786  VAL792 
 PHE793  MET794  SER795  GLU796  ALA797  LYS798  CYS799  TRP800  GLU811  SER814 

> <Gold.Protein.RotatedAtoms>
  151.4756  133.3558  159.2829 H   0  0  0  0  0  0  0  0  0  0  0  0  # atno 6907 bound_to 6896
  150.8931  134.8339  159.7318 H   0  0  0  0  0  0  0  0  0  0  0  0  # atno 6908 bound_to 6896
  152.4835  134.4668  159.9674 H   0  0  0  0  0  0  0  0  0  0  0  0  # atno 6909 bound_to 6896
  145.6357  139.2414  143.2059 H   0  0  0  0  0  0  0  0  0  0  0  0  # atno 7974 bound_to 7965
  154.4042  140.1586  156.2648 H   0  0  0  0  0  0  0  0  0  0  0  0  # atno 8008 bound_to 7997
  155.9005  140.3433  155.6000 H   0  0  0  0  0  0  0  0  0  0  0  0  # atno 8009 bound_to 7997
  155.7454  140.0798  157.2217 H   0  0  0  0  0  0  0  0  0  0  0  0  # atno 8010 bound_to 7997
  140.5667  143.9238  150.6682 H   0  0  0  0  0  0  0  0  0  0  0  0  # atno 10167 bound_to 10162
  157.1813  131.0633  151.2130 H   0  0  0  0  0  0  0  0  0  0  0  0  # atno 10718 bound_to 10713
  154.7443  135.4997  153.9176 H   0  0  0  0  0  0  0  0  0  0  0  0  # atno 10763 bound_to 10752
  153.1075  135.6701  153.9568 H   0  0  0  0  0  0  0  0  0  0  0  0  # atno 10764 bound_to 10752
  153.9337  135.3075  155.3424 H   0  0  0  0  0  0  0  0  0  0  0  0  # atno 10765 bound_to 10752
  141.1119  133.6610  156.4615 H   0  0  0  0  0  0  0  0  0  0  0  0  # atno 11005 bound_to 11000
  146.1321  140.7171  142.9407 LP  0  0  0  0  0  0  0  0  0  0  0  0  # atno 17320 bound_to 7965
  144.7176  140.4265  143.7032 LP  0  0  0  0  0  0  0  0  0  0  0  0  # atno 17321 bound_to 7965
  140.2702  143.3461  152.1244 LP  0  0  0  0  0  0  0  0  0  0  0  0  # atno 17342 bound_to 10162
  139.5096  144.6871  151.5860 LP  0  0  0  0  0  0  0  0  0  0  0  0  # atno 17343 bound_to 10162
  157.3949  130.7302  149.6724 LP  0  0  0  0  0  0  0  0  0  0  0  0  # atno 17370 bound_to 10713
  155.9724  130.4136  150.4092 LP  0  0  0  0  0  0  0  0  0  0  0  0  # atno 17371 bound_to 10713
  140.4752  134.6716  157.5147 LP  0  0  0  0  0  0  0  0  0  0  0  0  # atno 17394 bound_to 11000
  140.0017  134.6825  155.9519 LP  0  0  0  0  0  0  0  0  0  0  0  0  # atno 17395 bound_to 11000

$$$$
