AV-unprocessed.smi:1740|AV-procd|sdf|7006|dock3
  -GOLD-   22720 8213D 1   1.00000     0.00000
 Structure written by MMmdl.
 51 53  0  0  0  0  0  0  0  0  1 V2000
  150.0438  143.5700  157.6515 N   0  0  0  0  0  0  0  0  0  0  0  0
  150.7682  142.6061  158.2245 C   0  0  0  0  0  0  0  0  0  0  0  0
  150.8728  142.5010  159.4447 O   0  0  0  0  0  0  0  0  0  0  0  0
  151.4724  141.6113  157.2935 C   0  0  0  0  0  0  0  0  0  0  0  0
  150.5611  140.8179  156.4373 N   0  0  0  0  0  0  0  0  0  0  0  0
  151.1993  139.5381  156.1109 C   0  0  0  0  0  0  0  0  0  0  0  0
  150.2339  138.6320  155.3272 C   0  0  0  0  0  0  0  0  0  0  0  0
  149.7607  139.3171  154.0353 C   0  0  0  0  0  0  0  0  0  0  0  0
  148.7512  138.5112  153.3560 N   0  0  0  0  0  0  0  0  0  0  0  0
  147.4616  138.4282  153.7114 C   0  0  0  0  0  0  0  0  0  0  0  0
  146.9774  139.0342  154.6675 O   0  0  0  0  0  0  0  0  0  0  0  0
  146.7892  137.5913  152.9041 N   0  0  0  0  0  0  0  0  0  0  0  0
  145.4204  137.2085  152.9825 C   0  0  0  0  0  0  0  0  0  0  0  0
  144.4455  138.0610  153.5561 C   0  0  0  0  0  0  0  0  0  0  0  0
  143.0959  137.6689  153.5486 C   0  0  0  0  0  0  0  0  0  0  0  0
  142.7642  136.4416  152.9515 C   0  0  0  0  0  0  0  0  0  0  0  0
  143.6775  135.6256  152.3884 N   0  0  0  0  0  0  0  0  0  0  0  0
  144.9856  135.9830  152.4011 C   0  0  0  0  0  0  0  0  0  0  0  0
  145.9014  135.0797  151.8148 N   0  0  0  0  0  0  0  0  0  0  0  0
  146.3016  133.9127  152.5961 C   0  0  0  0  0  0  0  0  0  0  0  0
  146.4328  132.7515  151.6050 C   0  0  0  0  0  0  0  0  0  0  0  0
  146.6302  133.4461  150.2613 C   0  0  0  0  0  0  0  0  0  0  0  0
  145.7687  134.6966  150.4129 C   0  0  0  0  0  0  0  0  0  0  0  0
  149.1820  140.6942  154.3864 C   0  0  0  0  0  0  0  0  0  0  0  0
  150.1827  141.5278  155.2062 C   0  0  0  0  0  0  0  0  0  0  0  0
  149.5636  144.2448  158.2289 H   0  0  0  0  0  0  0  0  0  0  0  0
  149.9775  143.6213  156.6455 H   0  0  0  0  0  0  0  0  0  0  0  0
  152.1951  142.1395  156.6684 H   0  0  0  0  0  0  0  0  0  0  0  0
  152.0488  140.9376  157.9290 H   0  0  0  0  0  0  0  0  0  0  0  0
  152.1117  139.7035  155.5349 H   0  0  0  0  0  0  0  0  0  0  0  0
  151.4928  139.0271  157.0289 H   0  0  0  0  0  0  0  0  0  0  0  0
  150.7270  137.6878  155.0933 H   0  0  0  0  0  0  0  0  0  0  0  0
  149.3765  138.3855  155.9559 H   0  0  0  0  0  0  0  0  0  0  0  0
  150.6158  139.4623  153.3718 H   0  0  0  0  0  0  0  0  0  0  0  0
  149.0595  137.9763  152.5572 H   0  0  0  0  0  0  0  0  0  0  0  0
  147.3394  137.0911  152.2212 H   0  0  0  0  0  0  0  0  0  0  0  0
  144.7077  139.0181  153.9804 H   0  0  0  0  0  0  0  0  0  0  0  0
  142.3327  138.3002  153.9788 H   0  0  0  0  0  0  0  0  0  0  0  0
  141.7376  136.1080  152.9191 H   0  0  0  0  0  0  0  0  0  0  0  0
  147.2674  134.1151  153.0601 H   0  0  0  0  0  0  0  0  0  0  0  0
  145.5873  133.6816  153.3878 H   0  0  0  0  0  0  0  0  0  0  0  0
  147.2449  132.0689  151.8570 H   0  0  0  0  0  0  0  0  0  0  0  0
  145.5048  132.1783  151.5869 H   0  0  0  0  0  0  0  0  0  0  0  0
  147.6772  133.7255  150.1360 H   0  0  0  0  0  0  0  0  0  0  0  0
  146.3380  132.8281  149.4120 H   0  0  0  0  0  0  0  0  0  0  0  0
  144.7333  134.4526  150.1715 H   0  0  0  0  0  0  0  0  0  0  0  0
  146.0966  135.4980  149.7504 H   0  0  0  0  0  0  0  0  0  0  0  0
  148.9170  141.2306  153.4746 H   0  0  0  0  0  0  0  0  0  0  0  0
  148.2585  140.5777  154.9560 H   0  0  0  0  0  0  0  0  0  0  0  0
  149.7129  142.4840  155.4362 H   0  0  0  0  0  0  0  0  0  0  0  0
  151.0704  141.7476  154.6104 H   0  0  0  0  0  0  0  0  0  0  0  0
  1  2  1  0  0  0  0
  1 26  1  0  0  0  0
  1 27  1  0  0  0  0
  2  3  2  0  0  0  0
  2  4  1  0  0  0  0
  4  5  1  0  0  0  0
  4 28  1  0  0  0  0
  4 29  1  0  0  0  0
  5 25  1  0  0  0  0
  5  6  1  0  0  0  0
  6  7  1  0  0  0  0
  6 30  1  0  0  0  0
  6 31  1  0  0  0  0
  7  8  1  0  0  0  0
  7 32  1  0  0  0  0
  7 33  1  0  0  0  0
  8  9  1  0  0  0  0
  8 24  1  0  0  0  0
  8 34  1  0  0  0  0
  9 10  1  0  0  0  0
  9 35  1  0  0  0  0
 10 11  2  0  0  0  0
 10 12  1  0  0  0  0
 12 13  1  0  0  0  0
 12 36  1  0  0  0  0
 13 18  1  0  0  0  0
 13 14  2  0  0  0  0
 14 15  1  0  0  0  0
 14 37  1  0  0  0  0
 15 16  2  0  0  0  0
 15 38  1  0  0  0  0
 16 17  1  0  0  0  0
 16 39  1  0  0  0  0
 17 18  2  0  0  0  0
 18 19  1  0  0  0  0
 19 23  1  0  0  0  0
 19 20  1  0  0  0  0
 20 21  1  0  0  0  0
 20 40  1  0  0  0  0
 20 41  1  0  0  0  0
 21 22  1  0  0  0  0
 21 42  1  0  0  0  0
 21 43  1  0  0  0  0
 22 23  1  0  0  0  0
 22 44  1  0  0  0  0
 22 45  1  0  0  0  0
 23 46  1  0  0  0  0
 23 47  1  0  0  0  0
 24 25  1  0  0  0  0
 24 48  1  0  0  0  0
 24 49  1  0  0  0  0
 25 50  1  0  0  0  0
 25 51  1  0  0  0  0
M  END
> <s_m_source_file>
AV-unprocessed.smi

> <i_m_source_file_index>
1740

> <i_lp_mmshare_version>
43012

> <i_f3d_flags>
0

> <s_epik_input>
W05IMl1DKD1PKVtDSDJdTjFbQ0gyXVtDSDJdW0NIXShbQ0gyXVtDSDJdMSlbTkhdQyg9TylbTkhdYzJbY0hdW2NIXVtjSF1uYzJOM1tDSDJdW0NIMl1bQ0gyXVtDSDJdMw==

> <s_epik_cmdline>
J2VwaWtfcHl0aG9uJywgJy1waCcsICc3LjAnLCAnLXRuJywgJzgnLCAnLW1hJywgJzIwMCcsICctbWV0YWxfYmluZGluZycsICctaW1hZScsICc8aW5maWxlLm1hZT4nLCAnLW9tYWUnLCAnPG91dGZpbGUubWFlPic=

> <r_lp_tautomer_probability>
1

> <r_epik_Ionization_Penalty>
0.268698

> <r_epik_Ionization_Penalty_Charging>
0

> <r_epik_Ionization_Penalty_Neutral>
0.268698

> <r_epik_State_Penalty>
0.247497

> <r_epik_Charging_Adjusted_Penalty>
0.247497

> <i_epik_Tot_Q>
0

> <i_epik_Tot_abs_Q>
0

> <r_epik_Metal_State_Penalty>
0.244805

> <b_epik_Metal_Only>
0

> <s_lp_Force_Field>
OPLS_2005

> <r_lp_Energy>
39.8984

> <b_lp_Chiralities_Consistent>
1

> <s_lp_Variant>
AV-unprocessed.smi:1740-1

> <Gold.Version>
5.8.1

> <Gold.Id.Protein>
6NUR|6NUR_protein|mol2

> <Gold.PLP.Fitness>
39.2838

> <Gold.PLP.PLP>
-32.9525

> <Gold.PLP.part.hbond>
-5.3974

> <Gold.PLP.part.metal>
0.0000

> <Gold.PLP.part.buried>
-3.4508

> <Gold.PLP.part.nonpolar>
-23.9041

> <Gold.PLP.part.repulsive>
0.3965

> <Gold.PLP.ligand.clash>
0.0000

> <Gold.PLP.ligand.torsion>
0.9408

> <Gold.PLP.Chemscore.Hbond>
2.6240

> <Gold.PLP.Chemscore.CHOScore>
0.0000

> <Gold.PLP.Chemscore.Metal>
0.0000

> <Gold.Chemscore.Hbonds>
donor molecule, donor type, donor heavy atom, donor atom, acceptor molecule, acceptor atom, score
      L1  H     1    27       P1  8028  0.53
      L1  H     9    35       P1  7948  0.83
      L1  H    12    36       P1  7948  0.94

> <Gold.PLP.Chemscore.Internal.Correction>
0.3408

> <Gold.Rescore>
     Score         DG    S(hbond)    S(metal)    S(lipo)     H(rot)  DE(clash)    DE(int)     intcor
     13.94     -17.63       2.66        0.00      75.32       2.16       0.07       3.63       ----

> <Gold.Chemscore.Fitness>
13.9363

> <Gold.Chemscore.DG>
-17.6338

> <Gold.Chemscore.ZeroCoef>
-5.4800

> <Gold.Chemscore.Hbond>
2.6586

> <Gold.Chemscore.Metal>
0.0000

> <Gold.Chemscore.Lipo>
75.3211

> <Gold.Chemscore.Internal_Hbond>
0.0000

> <Gold.Chemscore.DEClash>
0.0650

> <Gold.Chemscore.DEInternal>
3.6324

> <Gold.Chemscore.Rot>
2.1635

> <Gold.Chemscore.Internal.Correction>
   9.000000E+99

> <Gold.Chemscore.Hbonds>
donor molecule, donor type, donor heavy atom, donor atom, acceptor molecule, acceptor atom, score
      L1  H     1    27       P1  8028  0.54
      L1  H     9    35       P1  7948  0.82
      L1  H    12    36       P1  7948  0.91

> <Gold.Chemscore.Hbond.Weighted>
-8.8797

> <Gold.Chemscore.Metal.Weighted>
-0.0000

> <Gold.Chemscore.Lipo.Weighted>
-8.8126

> <Gold.Chemscore.Internal_Hbond.Weighted>
0.0000

> <Gold.Chemscore.DEClash.Weighted>
0.0650

> <Gold.Chemscore.DEInternal.Weighted>
3.6324

> <Gold.Chemscore.Rot.Weighted>
5.5385

> <Gold.Chemscore.Internal.Correction.Weighted>
   9.000000E+99

> <Gold.Protein.RotatedTorsions>
[ 6907 6896 6895 6894 ] final   15.68 input  -60.11 | X-H torsion
[ 7974 7965 7964 7962 ] final   14.19 input  175.53 | X-H torsion
[ 8008 7997 7996 7995 ] final   68.31 input   59.86 | X-H torsion
[ 10167 10162 10161 10158 ] final -164.00 input  -65.29 | X-H torsion
[ 10718 10713 10712 10709 ] final  -50.71 input   66.30 | X-H torsion
[ 10763 10752 10751 10750 ] final -164.95 input  -60.55 | X-H torsion
[ 11005 11000 10999 10996 ] final  139.77 input  -57.11 | X-H torsion

> <Gold.Protein.ActiveResidues>
 VAL166  LYS551  ARG553  GLY616  TRP617  ASP618  TYR619  PRO620  LYS621  CYS622 
 ASP623  PHE694  ASN695  SER759  ASP760  ASP761  ALA762  ILE779  LEU786  VAL792 
 PHE793  MET794  SER795  GLU796  ALA797  LYS798  CYS799  TRP800  GLU811  SER814 

> <Gold.Protein.RotatedAtoms>
  151.8219  135.0649  160.0425 H   0  0  0  0  0  0  0  0  0  0  0  0  # atno 6907 bound_to 6896
  152.2944  133.5589  159.5586 H   0  0  0  0  0  0  0  0  0  0  0  0  # atno 6908 bound_to 6896
  150.7244  134.0298  159.3771 H   0  0  0  0  0  0  0  0  0  0  0  0  # atno 6909 bound_to 6896
  146.2311  139.9078  142.8529 H   0  0  0  0  0  0  0  0  0  0  0  0  # atno 7974 bound_to 7965
  155.7064  140.3495  155.4955 H   0  0  0  0  0  0  0  0  0  0  0  0  # atno 8008 bound_to 7997
  155.9395  140.1099  157.1089 H   0  0  0  0  0  0  0  0  0  0  0  0  # atno 8009 bound_to 7997
  154.4100  140.1215  156.4895 H   0  0  0  0  0  0  0  0  0  0  0  0  # atno 8010 bound_to 7997
  139.6281  144.0493  152.1992 H   0  0  0  0  0  0  0  0  0  0  0  0  # atno 10167 bound_to 10162
  156.1775  130.4150  149.9555 H   0  0  0  0  0  0  0  0  0  0  0  0  # atno 10718 bound_to 10713
  154.6979  135.2982  154.9384 H   0  0  0  0  0  0  0  0  0  0  0  0  # atno 10763 bound_to 10752
  154.0326  135.6668  153.4786 H   0  0  0  0  0  0  0  0  0  0  0  0  # atno 10764 bound_to 10752
  153.0659  135.5088  154.8107 H   0  0  0  0  0  0  0  0  0  0  0  0  # atno 10765 bound_to 10752
  140.0278  134.9366  157.0604 H   0  0  0  0  0  0  0  0  0  0  0  0  # atno 11005 bound_to 11000
  145.2259  140.9954  143.4018 LP  0  0  0  0  0  0  0  0  0  0  0  0  # atno 17320 bound_to 7965
  144.9571  139.4020  143.6374 LP  0  0  0  0  0  0  0  0  0  0  0  0  # atno 17321 bound_to 7965
  140.0151  144.6195  150.7614 LP  0  0  0  0  0  0  0  0  0  0  0  0  # atno 17342 bound_to 10162
  140.7423  143.2830  151.3544 LP  0  0  0  0  0  0  0  0  0  0  0  0  # atno 17343 bound_to 10162
  156.7336  130.9052  151.3627 LP  0  0  0  0  0  0  0  0  0  0  0  0  # atno 17370 bound_to 10713
  157.6846  130.9173  150.0353 LP  0  0  0  0  0  0  0  0  0  0  0  0  # atno 17371 bound_to 10713
  140.4276  134.1814  155.7167 LP  0  0  0  0  0  0  0  0  0  0  0  0  # atno 17394 bound_to 11000
  141.1813  133.8407  157.1246 LP  0  0  0  0  0  0  0  0  0  0  0  0  # atno 17395 bound_to 11000

$$$$
