AV-unprocessed.smi:3132|AV-procd|sdf|11935|dock5
  -GOLD-   2272017323D 1   1.00000     0.00000
 Structure written by MMmdl.
 33 34  0  0  0  0  0  0  0  0  1 V2000
  151.6376  139.7586  155.4914 C   0  0  0  0  0  0  0  0  0  0  0  0
  150.7580  140.6856  156.3444 C   0  0  2  0  0  0  0  0  0  0  0  0
  150.0449  141.7419  155.4794 C   0  0  0  0  0  0  0  0  0  0  0  0
  148.9719  141.1718  154.6849 N   0  0  0  0  0  0  0  0  0  0  0  0
  147.9160  141.8509  154.0907 C   0  0  0  0  0  0  0  0  0  0  0  0
  147.1515  140.9034  153.4484 C   0  0  0  0  0  0  0  0  0  0  0  0
  147.7163  139.6432  153.6299 N   0  0  0  0  0  0  0  0  0  0  0  0
  148.7909  139.8819  154.3706 C   0  0  0  0  0  0  0  0  0  0  0  0
  151.5720  141.3433  157.3640 N   0  0  0  0  0  0  0  0  0  0  0  0
  151.1062  142.0849  158.3815 C   0  0  0  0  0  0  0  0  0  0  0  0
  149.9061  142.2770  158.5780 O   0  0  0  0  0  0  0  0  0  0  0  0
  152.1467  142.7265  159.3108 C   0  0  1  0  0  0  0  0  0  0  0  0
  152.1734  144.2663  159.2608 C   0  0  0  0  0  0  0  0  0  0  0  0
  151.9267  144.6876  160.6994 C   0  0  0  0  0  0  0  0  0  0  0  0
  152.3413  143.4530  161.4871 C   0  0  0  0  0  0  0  0  0  0  0  0
  151.8647  142.3975  160.6708 O   0  0  0  0  0  0  0  0  0  0  0  0
  151.0448  139.2428  154.7355 H   0  0  0  0  0  0  0  0  0  0  0  0
  152.1201  138.9968  156.1046 H   0  0  0  0  0  0  0  0  0  0  0  0
  152.4202  140.3169  154.9762 H   0  0  0  0  0  0  0  0  0  0  0  0
  149.9941  140.0752  156.8299 H   0  0  0  0  0  0  0  0  0  0  0  0
  149.6359  142.5384  156.1028 H   0  0  0  0  0  0  0  0  0  0  0  0
  150.7549  142.2117  154.7975 H   0  0  0  0  0  0  0  0  0  0  0  0
  147.7973  142.9212  154.1744 H   0  0  0  0  0  0  0  0  0  0  0  0
  146.2459  141.0306  152.8736 H   0  0  0  0  0  0  0  0  0  0  0  0
  149.4608  139.0993  154.6956 H   0  0  0  0  0  0  0  0  0  0  0  0
  152.5736  141.2427  157.2820 H   0  0  0  0  0  0  0  0  0  0  0  0
  153.1325  142.3330  159.0580 H   0  0  0  0  0  0  0  0  0  0  0  0
  153.1532  144.6080  158.9252 H   0  0  0  0  0  0  0  0  0  0  0  0
  151.4287  144.7023  158.5933 H   0  0  0  0  0  0  0  0  0  0  0  0
  152.4809  145.5819  160.9849 H   0  0  0  0  0  0  0  0  0  0  0  0
  150.8643  144.8815  160.8519 H   0  0  0  0  0  0  0  0  0  0  0  0
  153.4267  143.3898  161.5789 H   0  0  0  0  0  0  0  0  0  0  0  0
  151.9040  143.4208  162.4850 H   0  0  0  0  0  0  0  0  0  0  0  0
  1  2  1  0  0  0  0
  1 17  1  0  0  0  0
  1 18  1  0  0  0  0
  1 19  1  0  0  0  0
  2  3  1  0  0  0  0
  2  9  1  0  0  0  0
  2 20  1  0  0  0  0
  3  4  1  0  0  0  0
  3 21  1  0  0  0  0
  3 22  1  0  0  0  0
  4  8  1  0  0  0  0
  4  5  1  0  0  0  0
  5  6  2  0  0  0  0
  5 23  1  0  0  0  0
  6  7  1  0  0  0  0
  6 24  1  0  0  0  0
  7  8  2  0  0  0  0
  8 25  1  0  0  0  0
  9 10  1  0  0  0  0
  9 26  1  0  0  0  0
 10 11  2  0  0  0  0
 10 12  1  0  0  0  0
 12 16  1  0  0  0  0
 12 13  1  0  0  0  0
 12 27  1  0  0  0  0
 13 14  1  0  0  0  0
 13 28  1  0  0  0  0
 13 29  1  0  0  0  0
 14 15  1  0  0  0  0
 14 30  1  0  0  0  0
 14 31  1  0  0  0  0
 15 16  1  0  0  0  0
 15 32  1  0  0  0  0
 15 33  1  0  0  0  0
M  END
> <s_m_source_file>
AV-unprocessed.smi

> <i_m_source_file_index>
3132

> <i_lp_mmshare_version>
43012

> <i_f3d_flags>
0

> <s_epik_input>
W2NIXTFuW2NIXVtjSF1uMVtDSDJdW0NAQEhdKFtDSDNdKVtOSF1DKD1PKVtDQEBIXTJbQ0gyXVtDSDJdW0NIMl1PMg==

> <s_epik_cmdline>
J2VwaWtfcHl0aG9uJywgJy1waCcsICc3LjAnLCAnLXRuJywgJzgnLCAnLW1hJywgJzIwMCcsICctbWV0YWxfYmluZGluZycsICctaW1hZScsICc8aW5maWxlLm1hZT4nLCAnLW9tYWUnLCAnPG91dGZpbGUubWFlPic=

> <r_lp_tautomer_probability>
1

> <r_epik_Ionization_Penalty>
0.630322

> <r_epik_Ionization_Penalty_Charging>
0.630322

> <r_epik_Ionization_Penalty_Neutral>
3.82652e-08

> <r_epik_State_Penalty>
0.647117

> <r_epik_Charging_Adjusted_Penalty>
1.27744

> <i_epik_Tot_Q>
0

> <i_epik_Tot_abs_Q>
0

> <r_epik_Metal_State_Penalty>
0.309095

> <b_epik_Metal_Only>
0

> <s_lp_Force_Field>
OPLS_2005

> <r_lp_Energy>
19.804

> <b_lp_Chiralities_Consistent>
1

> <s_lp_Variant>
AV-unprocessed.smi:3132-7

> <Gold.Version>
5.8.1

> <Gold.Id.Protein>
6NUR|6NUR_protein|mol2

> <Gold.PLP.Fitness>
42.9160

> <Gold.PLP.PLP>
-38.4079

> <Gold.PLP.part.hbond>
-1.0713

> <Gold.PLP.part.metal>
0.0000

> <Gold.PLP.part.buried>
-4.5239

> <Gold.PLP.part.nonpolar>
-33.5663

> <Gold.PLP.part.repulsive>
0.3891

> <Gold.PLP.ligand.clash>
0.0000

> <Gold.PLP.ligand.torsion>
0.4792

> <Gold.PLP.Chemscore.Hbond>
0.0000

> <Gold.PLP.Chemscore.CHOScore>
1.8165

> <Gold.PLP.Chemscore.Metal>
0.0000

> <Gold.Chemscore.Hbonds>
donor molecule, donor type, donor heavy atom, donor atom, acceptor molecule, acceptor atom, score
      L1  C     5    23       P1  8028  1.00
      L1  C     6    24       P1 10175  0.73

> <Gold.PLP.Chemscore.Internal.Correction>
0.0169

> <Gold.Rescore>
     Score         DG    S(hbond)    S(metal)    S(lipo)     H(rot)  DE(clash)    DE(int)     intcor
     10.58     -10.83       0.00        0.00      86.46       1.86       0.02       0.22       ----

> <Gold.Chemscore.Fitness>
10.5813

> <Gold.Chemscore.DG>
-10.8254

> <Gold.Chemscore.ZeroCoef>
-5.4800

> <Gold.Chemscore.Hbond>
0.0000

> <Gold.Chemscore.Metal>
0.0000

> <Gold.Chemscore.Lipo>
86.4641

> <Gold.Chemscore.Internal_Hbond>
0.0000

> <Gold.Chemscore.DEClash>
0.0230

> <Gold.Chemscore.DEInternal>
0.2211

> <Gold.Chemscore.Rot>
1.8636

> <Gold.Chemscore.Internal.Correction>
   9.000000E+99

> <Gold.Chemscore.Hbond.Weighted>
-0.0000

> <Gold.Chemscore.Metal.Weighted>
-0.0000

> <Gold.Chemscore.Lipo.Weighted>
-10.1163

> <Gold.Chemscore.Internal_Hbond.Weighted>
0.0000

> <Gold.Chemscore.DEClash.Weighted>
0.0230

> <Gold.Chemscore.DEInternal.Weighted>
0.2211

> <Gold.Chemscore.Rot.Weighted>
4.7709

> <Gold.Chemscore.Internal.Correction.Weighted>
   9.000000E+99

> <Gold.Protein.RotatedTorsions>
[ 6907 6896 6895 6894 ] final -117.36 input  -60.11 | X-H torsion
[ 7974 7965 7964 7962 ] final -120.85 input  175.53 | X-H torsion
[ 8008 7997 7996 7995 ] final  -86.77 input   59.86 | X-H torsion
[ 10167 10162 10161 10158 ] final  167.09 input  -65.29 | X-H torsion
[ 10718 10713 10712 10709 ] final  -14.79 input   66.30 | X-H torsion
[ 10763 10752 10751 10750 ] final  158.28 input  -60.55 | X-H torsion
[ 11005 11000 10999 10996 ] final   17.34 input  -57.11 | X-H torsion

> <Gold.Protein.ActiveResidues>
 VAL166  LYS551  ARG553  GLY616  TRP617  ASP618  TYR619  PRO620  LYS621  CYS622 
 ASP623  PHE694  ASN695  SER759  ASP760  ASP761  ALA762  ILE779  LEU786  VAL792 
 PHE793  MET794  SER795  GLU796  ALA797  LYS798  CYS799  TRP800  GLU811  SER814 

> <Gold.Protein.RotatedAtoms>
  150.8130  133.8388  159.3173 H   0  0  0  0  0  0  0  0  0  0  0  0  # atno 6907 bound_to 6896
  151.6168  135.1034  160.0102 H   0  0  0  0  0  0  0  0  0  0  0  0  # atno 6908 bound_to 6896
  152.4222  133.7094  159.6527 H   0  0  0  0  0  0  0  0  0  0  0  0  # atno 6909 bound_to 6896
  145.0468  140.8188  143.4233 H   0  0  0  0  0  0  0  0  0  0  0  0  # atno 7974 bound_to 7965
  154.6557  140.0574  157.0005 H   0  0  0  0  0  0  0  0  0  0  0  0  # atno 8008 bound_to 7997
  155.1304  140.3256  155.4457 H   0  0  0  0  0  0  0  0  0  0  0  0  # atno 8009 bound_to 7997
  156.2596  140.1982  156.6424 H   0  0  0  0  0  0  0  0  0  0  0  0  # atno 8010 bound_to 7997
  139.4938  144.3958  151.9465 H   0  0  0  0  0  0  0  0  0  0  0  0  # atno 10167 bound_to 10162
  156.6109  130.4849  149.6202 H   0  0  0  0  0  0  0  0  0  0  0  0  # atno 10718 bound_to 10713
  154.2136  135.2785  155.2949 H   0  0  0  0  0  0  0  0  0  0  0  0  # atno 10763 bound_to 10752
  154.5758  135.5604  153.7142 H   0  0  0  0  0  0  0  0  0  0  0  0  # atno 10764 bound_to 10752
  153.0058  135.6332  154.2276 H   0  0  0  0  0  0  0  0  0  0  0  0  # atno 10765 bound_to 10752
  140.4371  134.1360  155.7686 H   0  0  0  0  0  0  0  0  0  0  0  0  # atno 11005 bound_to 11000
  145.1577  139.2476  143.5407 LP  0  0  0  0  0  0  0  0  0  0  0  0  # atno 17320 bound_to 7965
  146.3514  140.1296  142.8597 LP  0  0  0  0  0  0  0  0  0  0  0  0  # atno 17321 bound_to 7965
  140.3397  144.3219  150.5970 LP  0  0  0  0  0  0  0  0  0  0  0  0  # atno 17342 bound_to 10162
  140.5576  143.2196  151.7820 LP  0  0  0  0  0  0  0  0  0  0  0  0  # atno 17343 bound_to 10162
  156.2391  130.6840  151.1538 LP  0  0  0  0  0  0  0  0  0  0  0  0  # atno 17370 bound_to 10713
  157.7254  131.0653  150.5953 LP  0  0  0  0  0  0  0  0  0  0  0  0  # atno 17371 bound_to 10713
  141.1721  133.8587  157.1537 LP  0  0  0  0  0  0  0  0  0  0  0  0  # atno 17394 bound_to 11000
  140.0095  134.9994  157.0364 LP  0  0  0  0  0  0  0  0  0  0  0  0  # atno 17395 bound_to 11000

$$$$
