AV-unprocessed.smi:2098|AV-procd|sdf|8567|dock5
  -GOLD-   2272011293D 1   1.00000     0.00000
 Structure written by MMmdl.
 37 39  0  0  0  0  0  0  0  0  2 V2000
  155.4418  139.7507  158.8876 O   0  0  0  0  0  0  0  0  0  0  0  0
  155.0025  140.4721  160.0218 C   0  0  2  0  0  0  0  0  0  0  0  0
  155.3457  139.6575  161.2790 C   0  0  0  0  0  0  0  0  0  0  0  0
  155.0497  138.2885  161.0359 O   0  0  0  0  0  0  0  0  0  0  0  0
  155.3808  137.3666  162.0059 C   0  0  0  0  0  0  0  0  0  0  0  0
  155.6918  136.0620  161.5690 C   0  0  0  0  0  0  0  0  0  0  0  0
  156.0436  135.0573  162.4909 C   0  0  0  0  0  0  0  0  0  0  0  0
  156.0867  135.3493  163.8666 C   0  0  0  0  0  0  0  0  0  0  0  0
  156.4247  134.3848  164.7547 F   0  0  0  0  0  0  0  0  0  0  0  0
  155.7781  136.6460  164.3170 C   0  0  0  0  0  0  0  0  0  0  0  0
  155.4271  137.6512  163.3946 C   0  0  0  0  0  0  0  0  0  0  0  0
  153.4872  140.7310  159.9047 C   0  0  0  0  0  0  0  0  0  0  0  0
  153.0545  141.9389  160.6225 N   0  0  0  0  0  0  0  0  0  0  0  0
  153.2171  142.2740  161.9311 C   0  0  0  0  0  0  0  0  0  0  0  0
  152.6370  143.4913  162.1201 N   0  3  0  0  0  0  0  0  0  0  0  0
  152.0967  143.9427  160.9142 C   0  0  0  0  0  0  0  0  0  0  0  0
  151.4127  145.1145  160.6053 C   0  0  0  0  0  0  0  0  0  0  0  0
  150.9962  145.2700  159.2668 C   0  0  0  0  0  0  0  0  0  0  0  0
  151.2636  144.2839  158.2951 C   0  0  0  0  0  0  0  0  0  0  0  0
  151.9561  143.0990  158.6201 C   0  0  0  0  0  0  0  0  0  0  0  0
  152.3631  142.9512  159.9459 C   0  0  0  0  0  0  0  0  0  0  0  0
  155.2950  138.8301  159.0446 H   0  0  0  0  0  0  0  0  0  0  0  0
  155.5225  141.4305  160.0538 H   0  0  0  0  0  0  0  0  0  0  0  0
  156.4139  139.7467  161.4832 H   0  0  0  0  0  0  0  0  0  0  0  0
  154.8065  140.0394  162.1480 H   0  0  0  0  0  0  0  0  0  0  0  0
  155.6612  135.8288  160.5147 H   0  0  0  0  0  0  0  0  0  0  0  0
  156.2807  134.0630  162.1421 H   0  0  0  0  0  0  0  0  0  0  0  0
  155.8111  136.8716  165.3726 H   0  0  0  0  0  0  0  0  0  0  0  0
  155.1987  138.6333  163.7792 H   0  0  0  0  0  0  0  0  0  0  0  0
  153.1740  140.7971  158.8625 H   0  0  0  0  0  0  0  0  0  0  0  0
  152.9353  139.8941  160.3348 H   0  0  0  0  0  0  0  0  0  0  0  0
  153.7149  141.6806  162.6843 H   0  0  0  0  0  0  0  0  0  0  0  0
  151.2083  145.8723  161.3474 H   0  0  0  0  0  0  0  0  0  0  0  0
  150.4629  146.1645  158.9791 H   0  0  0  0  0  0  0  0  0  0  0  0
  150.9319  144.4395  157.2787 H   0  0  0  0  0  0  0  0  0  0  0  0
  152.1604  142.3534  157.8660 H   0  0  0  0  0  0  0  0  0  0  0  0
  152.6133  143.9760  163.0081 H   0  0  0  0  0  0  0  0  0  0  0  0
  1  2  1  0  0  0  0
  1 22  1  0  0  0  0
  2  3  1  0  0  0  0
  2 12  1  0  0  0  0
  2 23  1  0  0  0  0
  3  4  1  0  0  0  0
  3 24  1  0  0  0  0
  3 25  1  0  0  0  0
  4  5  1  0  0  0  0
  5 11  1  0  0  0  0
  5  6  2  0  0  0  0
  6  7  1  0  0  0  0
  6 26  1  0  0  0  0
  7  8  2  0  0  0  0
  7 27  1  0  0  0  0
  8  9  1  0  0  0  0
  8 10  1  0  0  0  0
 10 11  2  0  0  0  0
 10 28  1  0  0  0  0
 11 29  1  0  0  0  0
 12 13  1  0  0  0  0
 12 30  1  0  0  0  0
 12 31  1  0  0  0  0
 13 21  1  0  0  0  0
 13 14  1  0  0  0  0
 14 15  2  0  0  0  0
 14 32  1  0  0  0  0
 15 16  1  0  0  0  0
 15 37  1  0  0  0  0
 16 21  2  0  0  0  0
 16 17  1  0  0  0  0
 17 18  2  0  0  0  0
 17 33  1  0  0  0  0
 18 19  1  0  0  0  0
 18 34  1  0  0  0  0
 19 20  2  0  0  0  0
 19 35  1  0  0  0  0
 20 21  1  0  0  0  0
 20 36  1  0  0  0  0
M  CHG  1  15   1
M  END
> <s_m_source_file>
AV-unprocessed.smi

> <i_m_source_file_index>
2098

> <i_lp_mmshare_version>
43012

> <i_f3d_flags>
0

> <s_epik_input>
W2NIXTFbY0hdW2NIXVtjSF1jKGMxMiluKFtjSF1uMilbQ0gyXVtDQEhdKFtPSF0pW0NIMl1PYzNbY0hdW2NIXWMoRilbY0hdW2NIXTM=

> <s_epik_cmdline>
J2VwaWtfcHl0aG9uJywgJy1waCcsICc3LjAnLCAnLXRuJywgJzgnLCAnLW1hJywgJzIwMCcsICctbWV0YWxfYmluZGluZycsICctaW1hZScsICc8aW5maWxlLm1hZT4nLCAnLW9tYWUnLCAnPG91dGZpbGUubWFlPic=

> <r_lp_tautomer_probability>
1

> <r_epik_Ionization_Penalty>
1.3832

> <r_epik_Ionization_Penalty_Charging>
1.38319

> <r_epik_Ionization_Penalty_Neutral>
2.3993e-06

> <r_epik_State_Penalty>
1.46389

> <r_epik_Charging_Adjusted_Penalty>
2.84709

> <i_epik_Tot_Q>
1

> <i_epik_Tot_abs_Q>
1

> <r_epik_Metal_State_Penalty>
5.50438

> <b_epik_Metal_Only>
0

> <s_lp_Force_Field>
OPLS_2005

> <r_lp_Energy>
20.4389

> <b_lp_Chiralities_Consistent>
1

> <s_lp_Variant>
AV-unprocessed.smi:2098-3

> <Gold.Version>
5.8.1

> <Gold.Id.Protein>
6NUR|6NUR_protein|mol2

> <Gold.PLP.Fitness>
60.2671

> <Gold.PLP.PLP>
-58.9925

> <Gold.PLP.part.hbond>
-1.2774

> <Gold.PLP.part.metal>
0.0000

> <Gold.PLP.part.buried>
-4.6300

> <Gold.PLP.part.nonpolar>
-52.6233

> <Gold.PLP.part.repulsive>
0.0863

> <Gold.PLP.ligand.clash>
0.0000

> <Gold.PLP.ligand.torsion>
0.8721

> <Gold.PLP.Chemscore.Hbond>
1.0000

> <Gold.PLP.Chemscore.CHOScore>
0.0000

> <Gold.PLP.Chemscore.Metal>
0.0000

> <Gold.Chemscore.Hbonds>
donor molecule, donor type, donor heavy atom, donor atom, acceptor molecule, acceptor atom, score
      P1  H  7997  8008       L1     1  1.00

> <Gold.PLP.Chemscore.Internal.Correction>
0.0188

> <Gold.Rescore>
     Score         DG    S(hbond)    S(metal)    S(lipo)     H(rot)  DE(clash)    DE(int)     intcor
     17.37     -18.48       0.92        0.00     138.71       2.46       0.08       1.04       ----

> <Gold.Chemscore.Fitness>
17.3657

> <Gold.Chemscore.DG>
-18.4776

> <Gold.Chemscore.ZeroCoef>
-5.4800

> <Gold.Chemscore.Hbond>
0.9170

> <Gold.Chemscore.Metal>
0.0000

> <Gold.Chemscore.Lipo>
138.7053

> <Gold.Chemscore.Internal_Hbond>
0.0000

> <Gold.Chemscore.DEClash>
0.0757

> <Gold.Chemscore.DEInternal>
1.0361

> <Gold.Chemscore.Rot>
2.4584

> <Gold.Chemscore.Internal.Correction>
   9.000000E+99

> <Gold.Chemscore.Hbonds>
donor molecule, donor type, donor heavy atom, donor atom, acceptor molecule, acceptor atom, score
      P1  H  7997  8008       L1     1  0.66

> <Gold.Chemscore.Hbond.Weighted>
-3.0626

> <Gold.Chemscore.Metal.Weighted>
-0.0000

> <Gold.Chemscore.Lipo.Weighted>
-16.2285

> <Gold.Chemscore.Internal_Hbond.Weighted>
0.0000

> <Gold.Chemscore.DEClash.Weighted>
0.0757

> <Gold.Chemscore.DEInternal.Weighted>
1.0361

> <Gold.Chemscore.Rot.Weighted>
6.2936

> <Gold.Chemscore.Internal.Correction.Weighted>
   9.000000E+99

> <Gold.Protein.RotatedTorsions>
[ 6907 6896 6895 6894 ] final  -77.20 input  -60.11 | X-H torsion
[ 7974 7965 7964 7962 ] final -110.90 input  175.53 | X-H torsion
[ 8008 7997 7996 7995 ] final -130.18 input   59.86 | X-H torsion
[ 10167 10162 10161 10158 ] final   76.70 input  -65.29 | X-H torsion
[ 10718 10713 10712 10709 ] final  -77.84 input   66.30 | X-H torsion
[ 10763 10752 10751 10750 ] final   78.86 input  -60.55 | X-H torsion
[ 11005 11000 10999 10996 ] final -174.24 input  -57.11 | X-H torsion

> <Gold.Protein.ActiveResidues>
 VAL166  LYS551  ARG553  GLY616  TRP617  ASP618  TYR619  PRO620  LYS621  CYS622 
 ASP623  PHE694  ASN695  SER759  ASP760  ASP761  ALA762  ILE779  LEU786  VAL792 
 PHE793  MET794  SER795  GLU796  ALA797  LYS798  CYS799  TRP800  GLU811  SER814 

> <Gold.Protein.RotatedAtoms>
  150.7005  134.4458  159.5312 H   0  0  0  0  0  0  0  0  0  0  0  0  # atno 6907 bound_to 6896
  152.2159  134.8455  160.0501 H   0  0  0  0  0  0  0  0  0  0  0  0  # atno 6908 bound_to 6896
  151.9323  133.3579  159.3972 H   0  0  0  0  0  0  0  0  0  0  0  0  # atno 6909 bound_to 6896
  145.1626  140.8886  143.3582 H   0  0  0  0  0  0  0  0  0  0  0  0  # atno 7974 bound_to 7965
  155.2915  140.0448  157.3023 H   0  0  0  0  0  0  0  0  0  0  0  0  # atno 8008 bound_to 7997
  154.5539  140.2325  155.8409 H   0  0  0  0  0  0  0  0  0  0  0  0  # atno 8009 bound_to 7997
  156.1990  140.3030  155.9494 H   0  0  0  0  0  0  0  0  0  0  0  0  # atno 8010 bound_to 7997
  139.9894  144.5768  150.7831 H   0  0  0  0  0  0  0  0  0  0  0  0  # atno 10167 bound_to 10162
  156.0134  130.4502  150.3406 H   0  0  0  0  0  0  0  0  0  0  0  0  # atno 10718 bound_to 10713
  153.0907  135.4861  154.8684 H   0  0  0  0  0  0  0  0  0  0  0  0  # atno 10763 bound_to 10752
  154.7265  135.3051  154.8964 H   0  0  0  0  0  0  0  0  0  0  0  0  # atno 10764 bound_to 10752
  153.9613  135.6812  153.4798 H   0  0  0  0  0  0  0  0  0  0  0  0  # atno 10765 bound_to 10752
  140.4767  134.6114  157.4903 H   0  0  0  0  0  0  0  0  0  0  0  0  # atno 11005 bound_to 11000
  145.0315  139.3336  143.6022 LP  0  0  0  0  0  0  0  0  0  0  0  0  # atno 17320 bound_to 7965
  146.3480  139.9655  142.8712 LP  0  0  0  0  0  0  0  0  0  0  0  0  # atno 17321 bound_to 7965
  140.7460  143.2884  151.3398 LP  0  0  0  0  0  0  0  0  0  0  0  0  # atno 17342 bound_to 10162
  139.6351  144.0646  152.2509 LP  0  0  0  0  0  0  0  0  0  0  0  0  # atno 17343 bound_to 10162
  157.1502  131.0319  151.2888 LP  0  0  0  0  0  0  0  0  0  0  0  0  # atno 17370 bound_to 10713
  157.4399  130.7538  149.7060 LP  0  0  0  0  0  0  0  0  0  0  0  0  # atno 17371 bound_to 10713
  139.9851  134.7074  155.9788 LP  0  0  0  0  0  0  0  0  0  0  0  0  # atno 17394 bound_to 11000
  141.1551  133.6544  156.4135 LP  0  0  0  0  0  0  0  0  0  0  0  0  # atno 17395 bound_to 11000

$$$$
