AV-unprocessed.smi:1683|AV-procd|sdf|6752|dock9
  -GOLD-   22720 7513D 1   1.00000     0.00000
 Structure written by MMmdl.
 37 38  0  0  0  0  0  0  0  0  2 V2000
  144.3820  136.5436  151.8336 O   0  0  0  0  0  0  0  0  0  0  0  0
  145.5976  136.3514  151.8055 C   0  0  0  0  0  0  0  0  0  0  0  0
  146.5022  137.2619  152.1927 N   0  0  0  0  0  0  0  0  0  0  0  0
  146.1916  138.5940  152.7018 C   0  0  0  0  0  0  0  0  0  0  0  0
  147.4748  139.3609  153.0612 C   0  0  1  0  0  0  0  0  0  0  0  0
  147.2567  140.8053  153.5157 C   0  0  0  0  0  0  0  0  0  0  0  0
  148.4834  141.1292  154.3800 C   0  0  0  0  0  0  0  0  0  0  0  0
  149.1433  139.8381  154.6929 N   0  3  1  0  0  0  0  0  0  0  0  0
  149.6186  139.6839  156.0894 C   0  0  0  0  0  0  0  0  0  0  0  0
  150.9530  140.4067  156.3425 C   0  0  0  0  0  0  0  0  0  0  0  0
  151.3330  140.1922  157.6011 F   0  0  0  0  0  0  0  0  0  0  0  0
  151.8918  139.9298  155.5251 F   0  0  0  0  0  0  0  0  0  0  0  0
  150.8328  141.7204  156.1546 F   0  0  0  0  0  0  0  0  0  0  0  0
  148.2391  138.7628  154.2408 C   0  0  0  0  0  0  0  0  0  0  0  0
  146.1902  135.2200  151.3894 N   0  0  0  0  0  0  0  0  0  0  0  0
  145.5582  134.0412  150.9178 C   0  0  0  0  0  0  0  0  0  0  0  0
  146.2116  132.7937  150.7244 C   0  0  0  0  0  0  0  0  0  0  0  0
  145.3714  131.8717  150.2761 N   0  0  0  0  0  0  0  0  0  0  0  0
  144.1879  132.5188  150.1814 N   0  0  0  0  0  0  0  0  0  0  0  0
  144.2538  133.8411  150.5616 C   0  0  0  0  0  0  0  0  0  0  0  0
  143.3532  132.0498  149.8592 H   0  0  0  0  0  0  0  0  0  0  0  0
  147.4790  137.0145  152.1295 H   0  0  0  0  0  0  0  0  0  0  0  0
  145.6257  139.1320  151.9405 H   0  0  0  0  0  0  0  0  0  0  0  0
  145.5519  138.5379  153.5843 H   0  0  0  0  0  0  0  0  0  0  0  0
  148.1397  139.3683  152.1953 H   0  0  0  0  0  0  0  0  0  0  0  0
  147.1414  141.4954  152.6791 H   0  0  0  0  0  0  0  0  0  0  0  0
  146.3551  140.8731  154.1263 H   0  0  0  0  0  0  0  0  0  0  0  0
  149.1888  141.7616  153.8401 H   0  0  0  0  0  0  0  0  0  0  0  0
  148.1789  141.6657  155.2797 H   0  0  0  0  0  0  0  0  0  0  0  0
  148.8527  140.0233  156.7884 H   0  0  0  0  0  0  0  0  0  0  0  0
  149.7644  138.6202  156.2840 H   0  0  0  0  0  0  0  0  0  0  0  0
  147.5467  138.5040  155.0443 H   0  0  0  0  0  0  0  0  0  0  0  0
  148.7925  137.8636  153.9681 H   0  0  0  0  0  0  0  0  0  0  0  0
  147.1990  135.1971  151.4140 H   0  0  0  0  0  0  0  0  0  0  0  0
  147.2460  132.5318  150.8917 H   0  0  0  0  0  0  0  0  0  0  0  0
  143.3920  134.4918  150.5424 H   0  0  0  0  0  0  0  0  0  0  0  0
  149.9557  139.7825  154.0950 H   0  0  0  0  0  0  0  0  0  0  0  0
  1  2  2  0  0  0  0
  2  3  1  0  0  0  0
  2 15  1  0  0  0  0
  3  4  1  0  0  0  0
  3 22  1  0  0  0  0
  4  5  1  0  0  0  0
  4 23  1  0  0  0  0
  4 24  1  0  0  0  0
  5 14  1  0  0  0  0
  5  6  1  0  0  0  0
  5 25  1  0  0  0  0
  6  7  1  0  0  0  0
  6 26  1  0  0  0  0
  6 27  1  0  0  0  0
  7  8  1  0  0  0  0
  7 28  1  0  0  0  0
  7 29  1  0  0  0  0
  8  9  1  0  0  0  0
  8 14  1  0  0  0  0
  8 37  1  0  0  0  0
  9 10  1  0  0  0  0
  9 30  1  0  0  0  0
  9 31  1  0  0  0  0
 10 11  1  0  0  0  0
 10 12  1  0  0  0  0
 10 13  1  0  0  0  0
 14 32  1  0  0  0  0
 14 33  1  0  0  0  0
 15 16  1  0  0  0  0
 15 34  1  0  0  0  0
 16 20  2  0  0  0  0
 16 17  1  0  0  0  0
 17 18  2  0  0  0  0
 17 35  1  0  0  0  0
 18 19  1  0  0  0  0
 19 21  1  0  0  0  0
 19 20  1  0  0  0  0
 20 36  1  0  0  0  0
M  CHG  1   8   1
M  END
> <s_m_source_file>
AV-unprocessed.smi

> <i_m_source_file_index>
1683

> <i_lp_mmshare_version>
43012

> <i_f3d_flags>
0

> <s_epik_input>
W2NIXTFbbkhdbltjSF1jMVtOSF1DKD1PKVtOSF1bQ0gyXVtDQEBIXTJbQ0gyXVtDSDJdTihbQ0gyXTIpW0NIMl1DKEYpKEYpRg==

> <s_epik_cmdline>
J2VwaWtfcHl0aG9uJywgJy1waCcsICc3LjAnLCAnLXRuJywgJzgnLCAnLW1hJywgJzIwMCcsICctbWV0YWxfYmluZGluZycsICctaW1hZScsICc8aW5maWxlLm1hZT4nLCAnLW9tYWUnLCAnPG91dGZpbGUubWFlPic=

> <r_lp_tautomer_probability>
0.5

> <r_epik_Ionization_Penalty>
0.641865

> <r_epik_Ionization_Penalty_Charging>
0.64182

> <r_epik_Ionization_Penalty_Neutral>
4.50685e-05

> <r_epik_State_Penalty>
0.65957

> <r_epik_Charging_Adjusted_Penalty>
1.30139

> <i_epik_Tot_Q>
1

> <i_epik_Tot_abs_Q>
1

> <r_epik_Metal_State_Penalty>
0.659571

> <b_epik_Metal_Only>
0

> <s_lp_Force_Field>
OPLS_2005

> <r_lp_Energy>
31.2098

> <b_lp_Chiralities_Consistent>
1

> <s_lp_Variant>
AV-unprocessed.smi:1683-6

> <Gold.Version>
5.8.1

> <Gold.Id.Protein>
6NUR|6NUR_protein|mol2

> <Gold.PLP.Fitness>
43.5332

> <Gold.PLP.PLP>
-31.9973

> <Gold.PLP.part.hbond>
-2.0000

> <Gold.PLP.part.metal>
0.0000

> <Gold.PLP.part.buried>
-4.3027

> <Gold.PLP.part.nonpolar>
-28.4754

> <Gold.PLP.part.repulsive>
2.2306

> <Gold.PLP.ligand.clash>
0.0000

> <Gold.PLP.ligand.torsion>
0.2742

> <Gold.PLP.Chemscore.Hbond>
1.9516

> <Gold.PLP.Chemscore.CHOScore>
1.9229

> <Gold.PLP.Chemscore.Metal>
0.0000

> <Gold.Chemscore.Hbonds>
donor molecule, donor type, donor heavy atom, donor atom, acceptor molecule, acceptor atom, score
      L1  H     3    22       P1  7948  1.00
      L1  H    15    34       P1  7948  0.95
      L1  C    17    35       P1 10747  1.00
      L1  C    20    36       P1 10186  0.89

> <Gold.PLP.Chemscore.Internal.Correction>
0.4608

> <Gold.Rescore>
     Score         DG    S(hbond)    S(metal)    S(lipo)     H(rot)  DE(clash)    DE(int)     intcor
     12.06     -14.14       1.95        0.00      57.93       1.81       0.04       2.04       ----

> <Gold.Chemscore.Fitness>
12.0561

> <Gold.Chemscore.DG>
-14.1359

> <Gold.Chemscore.ZeroCoef>
-5.4800

> <Gold.Chemscore.Hbond>
1.9509

> <Gold.Chemscore.Metal>
0.0000

> <Gold.Chemscore.Lipo>
57.9276

> <Gold.Chemscore.Internal_Hbond>
0.0000

> <Gold.Chemscore.DEClash>
0.0383

> <Gold.Chemscore.DEInternal>
2.0415

> <Gold.Chemscore.Rot>
1.8116

> <Gold.Chemscore.Internal.Correction>
   9.000000E+99

> <Gold.Chemscore.Hbonds>
donor molecule, donor type, donor heavy atom, donor atom, acceptor molecule, acceptor atom, score
      L1  H     3    22       P1  7948  1.00
      L1  H    15    34       P1  7948  0.73

> <Gold.Chemscore.Hbond.Weighted>
-6.5162

> <Gold.Chemscore.Metal.Weighted>
-0.0000

> <Gold.Chemscore.Lipo.Weighted>
-6.7775

> <Gold.Chemscore.Internal_Hbond.Weighted>
0.0000

> <Gold.Chemscore.DEClash.Weighted>
0.0383

> <Gold.Chemscore.DEInternal.Weighted>
2.0415

> <Gold.Chemscore.Rot.Weighted>
4.6378

> <Gold.Chemscore.Internal.Correction.Weighted>
   9.000000E+99

> <Gold.Protein.RotatedTorsions>
[ 6907 6896 6895 6894 ] final  -67.46 input  -60.11 | X-H torsion
[ 7974 7965 7964 7962 ] final  -73.43 input  175.53 | X-H torsion
[ 8008 7997 7996 7995 ] final -153.70 input   59.86 | X-H torsion
[ 10167 10162 10161 10158 ] final -145.65 input  -65.29 | X-H torsion
[ 10718 10713 10712 10709 ] final   78.75 input   66.30 | X-H torsion
[ 10763 10752 10751 10750 ] final   50.43 input  -60.55 | X-H torsion
[ 11005 11000 10999 10996 ] final  -11.10 input  -57.11 | X-H torsion

> <Gold.Protein.ActiveResidues>
 VAL166  LYS551  ARG553  GLY616  TRP617  ASP618  TYR619  PRO620  LYS621  CYS622 
 ASP623  PHE694  ASN695  SER759  ASP760  ASP761  ALA762  ILE779  LEU786  VAL792 
 PHE793  MET794  SER795  GLU796  ALA797  LYS798  CYS799  TRP800  GLU811  SER814 

> <Gold.Protein.RotatedAtoms>
  150.7408  134.5878  159.5971 H   0  0  0  0  0  0  0  0  0  0  0  0  # atno 6907 bound_to 6896
  152.3274  134.7300  160.0307 H   0  0  0  0  0  0  0  0  0  0  0  0  # atno 6908 bound_to 6896
  151.7795  133.3312  159.3504 H   0  0  0  0  0  0  0  0  0  0  0  0  # atno 6909 bound_to 6896
  145.6522  140.9279  143.0978 H   0  0  0  0  0  0  0  0  0  0  0  0  # atno 7974 bound_to 7965
  155.6749  140.0737  157.2506 H   0  0  0  0  0  0  0  0  0  0  0  0  # atno 8008 bound_to 7997
  154.4116  140.1692  156.1971 H   0  0  0  0  0  0  0  0  0  0  0  0  # atno 8009 bound_to 7997
  155.9584  140.3372  155.6472 H   0  0  0  0  0  0  0  0  0  0  0  0  # atno 8010 bound_to 7997
  139.7786  143.8134  152.2635 H   0  0  0  0  0  0  0  0  0  0  0  0  # atno 10167 bound_to 10162
  157.6755  130.9882  150.1832 H   0  0  0  0  0  0  0  0  0  0  0  0  # atno 10718 bound_to 10713
  152.9785  135.5879  154.4251 H   0  0  0  0  0  0  0  0  0  0  0  0  # atno 10763 bound_to 10752
  154.3871  135.2767  155.2179 H   0  0  0  0  0  0  0  0  0  0  0  0  # atno 10764 bound_to 10752
  154.4067  135.6091  153.5983 H   0  0  0  0  0  0  0  0  0  0  0  0  # atno 10765 bound_to 10752
  140.7518  133.8586  155.9051 H   0  0  0  0  0  0  0  0  0  0  0  0  # atno 11005 bound_to 11000
  144.7118  139.8341  143.7412 LP  0  0  0  0  0  0  0  0  0  0  0  0  # atno 17320 bound_to 7965
  146.1194  139.4210  143.0238 LP  0  0  0  0  0  0  0  0  0  0  0  0  # atno 17321 bound_to 7965
  139.8189  144.7304  150.9598 LP  0  0  0  0  0  0  0  0  0  0  0  0  # atno 17342 bound_to 10162
  140.7817  143.4178  151.0890 LP  0  0  0  0  0  0  0  0  0  0  0  0  # atno 17343 bound_to 10162
  156.2560  130.3705  149.8181 LP  0  0  0  0  0  0  0  0  0  0  0  0  # atno 17370 bound_to 10713
  156.5940  130.8518  151.3415 LP  0  0  0  0  0  0  0  0  0  0  0  0  # atno 17371 bound_to 10713
  140.9744  134.1488  157.4549 LP  0  0  0  0  0  0  0  0  0  0  0  0  # atno 17394 bound_to 11000
  139.8786  134.9989  156.5928 LP  0  0  0  0  0  0  0  0  0  0  0  0  # atno 17395 bound_to 11000

$$$$
