AV-unprocessed.smi:711|AV-procd|sdf|3467|dock8
  -GOLD-   22720 0453D 1   1.00000     0.00000
 Structure written by MMmdl.
 28 29  0  0  0  0  0  0  0  0  2 V2000
  151.8369  132.4550  157.4678 O   0  0  0  0  0  0  0  0  0  0  0  0
  151.0984  132.5368  156.4874 C   0  0  0  0  0  0  0  0  0  0  0  0
  150.6378  133.7299  156.0097 N   0  5  0  0  0  0  0  0  0  0  0  0
  149.8188  133.8422  154.9186 C   0  0  0  0  0  0  0  0  0  0  0  0
  149.4169  134.9315  154.5093 O   0  0  0  0  0  0  0  0  0  0  0  0
  149.4380  132.7058  154.2633 N   0  0  0  0  0  0  0  0  0  0  0  0
  148.5601  132.7271  153.0844 C   0  0  0  0  0  0  0  0  0  0  0  0
  147.1296  132.2528  153.4170 C   0  0  1  0  0  0  0  0  0  0  0  0
  146.6243  133.0277  154.4868 O   0  0  0  0  0  0  0  0  0  0  0  0
  146.2334  132.3465  152.1881 C   0  0  0  0  0  0  0  0  0  0  0  0
  146.0042  133.5936  151.5637 C   0  0  0  0  0  0  0  0  0  0  0  0
  145.1886  133.6785  150.4189 C   0  0  0  0  0  0  0  0  0  0  0  0
  144.5994  132.5163  149.8869 C   0  0  0  0  0  0  0  0  0  0  0  0
  143.8164  132.5965  148.7851 F   0  0  0  0  0  0  0  0  0  0  0  0
  144.8283  131.2697  150.4992 C   0  0  0  0  0  0  0  0  0  0  0  0
  145.6445  131.1822  151.6441 C   0  0  0  0  0  0  0  0  0  0  0  0
  145.8625  129.9716  152.2124 F   0  0  0  0  0  0  0  0  0  0  0  0
  149.8799  131.4514  154.7174 C   0  0  0  0  0  0  0  0  0  0  0  0
  150.6844  131.3212  155.7898 C   0  0  0  0  0  0  0  0  0  0  0  0
  151.2096  129.7652  156.3268 Cl  0  0  0  0  0  0  0  0  0  0  0  0
  148.5457  133.6977  152.5851 H   0  0  0  0  0  0  0  0  0  0  0  0
  148.9968  132.0486  152.3496 H   0  0  0  0  0  0  0  0  0  0  0  0
  147.1513  131.2164  153.7550 H   0  0  0  0  0  0  0  0  0  0  0  0
  146.4879  132.4608  155.2301 H   0  0  0  0  0  0  0  0  0  0  0  0
  146.4576  134.4914  151.9580 H   0  0  0  0  0  0  0  0  0  0  0  0
  145.0177  134.6353  149.9480 H   0  0  0  0  0  0  0  0  0  0  0  0
  144.3795  130.3777  150.0880 H   0  0  0  0  0  0  0  0  0  0  0  0
  149.5217  130.6081  154.1446 H   0  0  0  0  0  0  0  0  0  0  0  0
  1  2  2  0  0  0  0
  2 19  1  0  0  0  0
  2  3  1  0  0  0  0
  3  4  1  0  0  0  0
  4  5  2  0  0  0  0
  4  6  1  0  0  0  0
  6  7  1  0  0  0  0
  6 18  1  0  0  0  0
  7  8  1  0  0  0  0
  7 21  1  0  0  0  0
  7 22  1  0  0  0  0
  8  9  1  0  0  0  0
  8 10  1  0  0  0  0
  8 23  1  0  0  0  0
  9 24  1  0  0  0  0
 10 16  1  0  0  0  0
 10 11  2  0  0  0  0
 11 12  1  0  0  0  0
 11 25  1  0  0  0  0
 12 13  2  0  0  0  0
 12 26  1  0  0  0  0
 13 14  1  0  0  0  0
 13 15  1  0  0  0  0
 15 16  2  0  0  0  0
 15 27  1  0  0  0  0
 16 17  1  0  0  0  0
 18 19  2  0  0  0  0
 18 28  1  0  0  0  0
 19 20  1  0  0  0  0
M  CHG  1   3  -1
M  END
> <s_m_source_file>
AV-unprocessed.smi

> <i_m_source_file_index>
711

> <i_lp_mmshare_version>
43012

> <i_f3d_flags>
0

> <s_epik_input>
Tz1jMVtuSF1jKD1PKW4oW2NIXWMxQ2wpW0NIMl1bQ0BIXShbT0hdKWMyW2NIXVtjSF1jKEYpW2NIXWMyRg==

> <s_epik_cmdline>
J2VwaWtfcHl0aG9uJywgJy1waCcsICc3LjAnLCAnLXRuJywgJzgnLCAnLW1hJywgJzIwMCcsICctbWV0YWxfYmluZGluZycsICctaW1hZScsICc8aW5maWxlLm1hZT4nLCAnLW9tYWUnLCAnPG91dGZpbGUubWFlPic=

> <r_epik_Ionization_Penalty>
1.7979

> <r_epik_Ionization_Penalty_Charging>
3.23819e-08

> <r_epik_Ionization_Penalty_Neutral>
1.7979

> <r_epik_State_Penalty>
1.91135

> <r_epik_Charging_Adjusted_Penalty>
1.91135

> <i_epik_Tot_Q>
-1

> <i_epik_Tot_abs_Q>
1

> <r_epik_Metal_State_Penalty>
0.014155

> <b_epik_Metal_Only>
0

> <s_lp_Force_Field>
OPLS_2005

> <r_lp_Energy>
21.7913

> <b_lp_Chiralities_Consistent>
1

> <s_lp_Variant>
AV-unprocessed.smi:711-4

> <Gold.Version>
5.8.1

> <Gold.Id.Protein>
6NUR|6NUR_protein|mol2

> <Gold.PLP.Fitness>
41.6152

> <Gold.PLP.PLP>
-39.0510

> <Gold.PLP.part.hbond>
-1.0000

> <Gold.PLP.part.metal>
0.0000

> <Gold.PLP.part.buried>
-6.2995

> <Gold.PLP.part.nonpolar>
-32.8469

> <Gold.PLP.part.repulsive>
0.5089

> <Gold.PLP.ligand.clash>
0.0000

> <Gold.PLP.ligand.torsion>
0.1869

> <Gold.PLP.Chemscore.Hbond>
0.9760

> <Gold.PLP.Chemscore.CHOScore>
0.0000

> <Gold.PLP.Chemscore.Metal>
0.0000

> <Gold.Chemscore.Hbonds>
donor molecule, donor type, donor heavy atom, donor atom, acceptor molecule, acceptor atom, score
      P1  H  6896  6908       L1     1  0.96

> <Gold.PLP.Chemscore.Internal.Correction>
0.0100

> <Gold.Rescore>
     Score         DG    S(hbond)    S(metal)    S(lipo)     H(rot)  DE(clash)    DE(int)     intcor
     11.35     -11.70       0.98        0.00      76.03       2.32       0.11       0.24       ----

> <Gold.Chemscore.Fitness>
11.3530

> <Gold.Chemscore.DG>
-11.7014

> <Gold.Chemscore.ZeroCoef>
-5.4800

> <Gold.Chemscore.Hbond>
0.9750

> <Gold.Chemscore.Metal>
0.0000

> <Gold.Chemscore.Lipo>
76.0252

> <Gold.Chemscore.Internal_Hbond>
0.0000

> <Gold.Chemscore.DEClash>
0.1132

> <Gold.Chemscore.DEInternal>
0.2352

> <Gold.Chemscore.Rot>
2.3164

> <Gold.Chemscore.Internal.Correction>
   9.000000E+99

> <Gold.Chemscore.Hbonds>
donor molecule, donor type, donor heavy atom, donor atom, acceptor molecule, acceptor atom, score
      P1  H  6896  6908       L1     1  0.86

> <Gold.Chemscore.Hbond.Weighted>
-3.2566

> <Gold.Chemscore.Metal.Weighted>
-0.0000

> <Gold.Chemscore.Lipo.Weighted>
-8.8950

> <Gold.Chemscore.Internal_Hbond.Weighted>
0.0000

> <Gold.Chemscore.DEClash.Weighted>
0.1132

> <Gold.Chemscore.DEInternal.Weighted>
0.2352

> <Gold.Chemscore.Rot.Weighted>
5.9301

> <Gold.Chemscore.Internal.Correction.Weighted>
   9.000000E+99

> <Gold.Protein.RotatedTorsions>
[ 6907 6896 6895 6894 ] final   48.10 input  -60.11 | X-H torsion
[ 7974 7965 7964 7962 ] final  -25.24 input  175.53 | X-H torsion
[ 8008 7997 7996 7995 ] final   10.94 input   59.86 | X-H torsion
[ 10167 10162 10161 10158 ] final  -61.29 input  -65.29 | X-H torsion
[ 10718 10713 10712 10709 ] final   73.62 input   66.30 | X-H torsion
[ 10763 10752 10751 10750 ] final   83.79 input  -60.55 | X-H torsion
[ 11005 11000 10999 10996 ] final   73.07 input  -57.11 | X-H torsion

> <Gold.Protein.ActiveResidues>
 VAL166  LYS551  ARG553  GLY616  TRP617  ASP618  TYR619  PRO620  LYS621  CYS622 
 ASP623  PHE694  ASN695  SER759  ASP760  ASP761  ALA762  ILE779  LEU786  VAL792 
 PHE793  MET794  SER795  GLU796  ALA797  LYS798  CYS799  TRP800  GLU811  SER814 

> <Gold.Protein.RotatedAtoms>
  152.2756  134.7885  160.0405 H   0  0  0  0  0  0  0  0  0  0  0  0  # atno 6907 bound_to 6896
  151.8482  133.3430  159.3673 H   0  0  0  0  0  0  0  0  0  0  0  0  # atno 6908 bound_to 6896
  150.7169  134.5253  159.5718 H   0  0  0  0  0  0  0  0  0  0  0  0  # atno 6909 bound_to 6896
  146.1503  140.4860  142.8614 H   0  0  0  0  0  0  0  0  0  0  0  0  # atno 7974 bound_to 7965
  154.8001  140.2850  155.5928 H   0  0  0  0  0  0  0  0  0  0  0  0  # atno 8008 bound_to 7997
  156.2976  140.2588  156.2797 H   0  0  0  0  0  0  0  0  0  0  0  0  # atno 8009 bound_to 7997
  154.9568  140.0378  157.2160 H   0  0  0  0  0  0  0  0  0  0  0  0  # atno 8010 bound_to 7997
  140.6015  143.2363  151.5917 H   0  0  0  0  0  0  0  0  0  0  0  0  # atno 10167 bound_to 10162
  157.6556  130.9637  150.1095 H   0  0  0  0  0  0  0  0  0  0  0  0  # atno 10718 bound_to 10713
  153.1323  135.4678  154.9368 H   0  0  0  0  0  0  0  0  0  0  0  0  # atno 10763 bound_to 10752
  154.7675  135.3149  154.8259 H   0  0  0  0  0  0  0  0  0  0  0  0  # atno 10764 bound_to 10752
  153.8799  135.6895  153.4821 H   0  0  0  0  0  0  0  0  0  0  0  0  # atno 10765 bound_to 10752
  139.9458  134.7315  156.0983 H   0  0  0  0  0  0  0  0  0  0  0  0  # atno 11005 bound_to 11000
  144.7896  140.6006  143.6550 LP  0  0  0  0  0  0  0  0  0  0  0  0  # atno 17320 bound_to 7965
  145.4838  139.1493  143.3747 LP  0  0  0  0  0  0  0  0  0  0  0  0  # atno 17321 bound_to 7965
  139.5295  144.2959  152.1114 LP  0  0  0  0  0  0  0  0  0  0  0  0  # atno 17342 bound_to 10162
  140.2141  144.4533  150.6372 LP  0  0  0  0  0  0  0  0  0  0  0  0  # atno 17343 bound_to 10162
  156.1995  130.3659  149.8806 LP  0  0  0  0  0  0  0  0  0  0  0  0  # atno 17370 bound_to 10713
  156.6713  130.8821  151.3562 LP  0  0  0  0  0  0  0  0  0  0  0  0  # atno 17371 bound_to 10713
  141.1108  133.6644  156.2974 LP  0  0  0  0  0  0  0  0  0  0  0  0  # atno 17394 bound_to 11000
  140.5838  134.5719  157.5485 LP  0  0  0  0  0  0  0  0  0  0  0  0  # atno 17395 bound_to 11000

$$$$
