#       Name:                AV-unprocessed.smi:1304
#       Creating user name   scv26
#       Creation time:       Fri Mar 27 04:59:19 2020


#       File generated by GOLD software.
#

@<TRIPOS>MOLECULE
AV-unprocessed.smi:1304
    54    55     1
SMALL
NO_CHARGES


@<TRIPOS>ATOM
      1 ****        -3.7306  -1.2814   0.7254 C.3            1 S1                 0.0000
      2 ****        -2.2091  -1.0499   0.7596 C.3            1 S1                 0.0000
      3 ****        -1.6091  -0.3442  -0.4951 C.3            1 S1                 0.0000
      4 ****        -2.1509   1.1100  -0.5143 C.3            1 S1                 0.0000
      5 ****        -0.0573  -0.3004  -0.3688 C.3            1 S1                 0.0000
      6 ****         0.3973   0.4291   0.8115 N.am           1 S1                 0.0000
      7 ****         1.6636   0.8127   1.0246 C.2            1 S1                 0.0000
      8 ****         2.5748   0.5867   0.2272 O.2            1 S1                 0.0000
      9 ****         1.9220   1.5744   2.3329 C.3            1 S1                 0.0000
     10 ****         3.3495   1.8180   2.6004 N.am           1 S1                 0.0000
     11 ****         3.8684   3.0693   2.2121 C.2            1 S1                 0.0000
     12 ****         5.1571   3.3935   2.4016 C.2            1 S1                 0.0000
     13 ****         6.0217   2.4185   3.0232 C.2            1 S1                 0.0000
     14 ****         5.5366   1.2173   3.3955 C.2            1 S1                 0.0000
     15 ****         4.1286   0.8581   3.1887 C.2            1 S1                 0.0000
     16 ****         3.6773  -0.2381   3.5221 O.2            1 S1                 0.0000
     17 ****        -2.0226  -1.0764  -1.7482 N.4            1 S1                 1.0000
     18 ****        -1.7565  -0.3750  -3.0365 C.3            1 S1                 0.0000
     19 ****        -2.3935  -1.1395  -4.2098 C.3            1 S1                 0.0000
     20 ****        -1.9016  -2.4717  -4.2438 O.3            1 S1                 0.0000
     21 ****        -2.2266  -3.1819  -3.0574 C.3            1 S1                 0.0000
     22 ****        -1.5685  -2.4923  -1.8519 C.3            1 S1                 0.0000
     23 ****        -4.0607  -1.7732   1.6405 H              1 S1                 0.0000
     24 ****        -4.0269  -1.9185  -0.1079 H              1 S1                 0.0000
     25 ****        -4.2820  -0.3447   0.6467 H              1 S1                 0.0000
     26 ****        -1.9874  -0.4624   1.6513 H              1 S1                 0.0000
     27 ****        -1.7115  -2.0031   0.9365 H              1 S1                 0.0000
     28 ****        -2.0683   1.5856   0.4636 H              1 S1                 0.0000
     29 ****        -3.2020   1.1480  -0.8011 H              1 S1                 0.0000
     30 ****        -1.5968   1.7431  -1.2078 H              1 S1                 0.0000
     31 ****         0.3586  -1.3060  -0.3029 H              1 S1                 0.0000
     32 ****         0.3814   0.1632  -1.2531 H              1 S1                 0.0000
     33 ****        -0.2943   0.6518   1.5126 H              1 S1                 0.0000
     34 ****         1.3783   2.5193   2.2913 H              1 S1                 0.0000
     35 ****         1.4715   1.0230   3.1604 H              1 S1                 0.0000
     36 ****         3.1584   3.7382   1.7479 H              1 S1                 0.0000
     37 ****         5.5380   4.3560   2.0931 H              1 S1                 0.0000
     38 ****         7.0632   2.6526   3.1882 H              1 S1                 0.0000
     39 ****         6.1994   0.4998   3.8567 H              1 S1                 0.0000
     40 ****        -2.1708   0.6314  -3.0407 H              1 S1                 0.0000
     41 ****        -0.6827  -0.2831  -3.2012 H              1 S1                 0.0000
     42 ****        -3.4817  -1.1427  -4.1269 H              1 S1                 0.0000
     43 ****        -2.1489  -0.6503  -5.1528 H              1 S1                 0.0000
     44 ****        -3.3093  -3.2391  -2.9332 H              1 S1                 0.0000
     45 ****        -1.8618  -4.2050  -3.1494 H              1 S1                 0.0000
     46 ****        -0.4854  -2.5353  -1.9681 H              1 S1                 0.0000
     47 ****        -1.8191  -3.0607  -0.9585 H              1 S1                 0.0000
     48 ****        -3.0295  -1.1268  -1.6859 H              1 S1                 0.0000
     49 ****         2.3847   0.0968  -0.6235 LP             1 S1                 0.0000
     50 ****         3.5047   0.8932   0.4306 LP             1 S1                 0.0000
     51 ****         2.7127  -0.4503   3.3653 LP             1 S1                 0.0000
     52 ****         4.2754  -0.9159   3.9497 LP             1 S1                 0.0000
     53 ****        -0.9070  -2.4474  -4.3449 LP             1 S1                 0.0000
     54 ****        -2.3047  -2.9461  -5.0263 LP             1 S1                 0.0000
@<TRIPOS>BOND
    1    1    2 1     
    2    1   23 1     
    3    1   24 1     
    4    1   25 1     
    5    2    3 1     
    6    2   26 1     
    7    2   27 1     
    8    3    4 1     
    9    3    5 1     
   10    3   17 1     
   11    4   28 1     
   12    4   29 1     
   13    4   30 1     
   14    5    6 1     
   15    5   31 1     
   16    5   32 1     
   17    6    7 am    
   18    6   33 1     
   19    7    8 2     
   20    7    9 1     
   21    9   10 1     
   22    9   34 1     
   23    9   35 1     
   24   10   15 am    
   25   10   11 1     
   26   11   12 2     
   27   11   36 1     
   28   12   13 1     
   29   12   37 1     
   30   13   14 2     
   31   13   38 1     
   32   14   15 1     
   33   14   39 1     
   34   15   16 2     
   35   17   22 1     
   36   17   18 1     
   37   17   48 1     
   38   18   19 1     
   39   18   40 1     
   40   18   41 1     
   41   19   20 1     
   42   19   42 1     
   43   19   43 1     
   44   20   21 1     
   45   21   22 1     
   46   21   44 1     
   47   21   45 1     
   48   22   46 1     
   49   22   47 1     
   50    8   49 1     
   51    8   50 1     
   52   16   51 1     
   53   16   52 1     
   54   20   53 1     
   55   20   54 1     
@<TRIPOS>SUBSTRUCTURE
      1 S1             1
@<TRIPOS>SET
LONE_PAIRS      STATIC     ATOMS    <user>   **** ""
6 49 50 51 52 53 54
DONOR_HYDROGENS      STATIC     ATOMS    <user>   **** ""
2 33 48
ATOM$BLUE        STATIC     ATOMS    COLORGROUP SYSTEM
6 49 50 51 52 53 54
ATOM$RED        STATIC     ATOMS    COLORGROUP SYSTEM
2 33 48
