AV-unprocessed.smi:1006|AV-procd|sdf|4393|dock1
  -GOLD-   22720 2323D 1   1.00000     0.00000
 Structure written by MMmdl.
 46 48  0  0  0  0  0  0  0  0  2 V2000
  149.0523  132.9761  152.7371 C   0  0  0  0  0  0  0  0  0  0  0  0
  149.7516  133.5770  153.9380 C   0  0  0  0  0  0  0  0  0  0  0  0
  150.4619  132.7813  154.8605 C   0  0  0  0  0  0  0  0  0  0  0  0
  151.0692  133.4492  155.9381 C   0  0  0  0  0  0  0  0  0  0  0  0
  151.7962  132.7516  156.8991 N   0  0  0  0  0  0  0  0  0  0  0  0
  150.9722  134.7845  156.0808 N   0  0  0  0  0  0  0  0  0  0  0  0
  150.2810  135.4828  155.1698 C   0  0  0  0  0  0  0  0  0  0  0  0
  150.1436  137.2558  155.3385 S   0  0  0  0  0  0  0  0  0  0  0  0
  151.6617  137.8297  154.5177 C   0  0  0  0  0  0  0  0  0  0  0  0
  152.5528  138.6963  155.4266 C   0  0  1  0  0  0  0  0  0  0  0  0
  153.6172  139.2306  154.6662 O   0  0  0  0  0  0  0  0  0  0  0  0
  151.7995  139.8753  156.0775 C   0  0  0  0  0  0  0  0  0  0  0  0
  152.2385  140.1434  157.4359 N   0  0  0  0  0  0  0  0  0  0  0  0
  152.8736  139.2920  158.2639 C   0  0  0  0  0  0  0  0  0  0  0  0
  153.1718  139.7356  159.4817 N   0  0  0  0  0  0  0  0  0  0  0  0
  152.6730  141.0263  159.4392 C   0  0  0  0  0  0  0  0  0  0  0  0
  152.6555  142.0362  160.4260 C   0  0  0  0  0  0  0  0  0  0  0  0
  152.0721  143.2965  160.1641 C   0  0  0  0  0  0  0  0  0  0  0  0
  152.0695  144.3505  161.2571 C   0  0  0  0  0  0  0  0  0  0  0  0
  151.4972  143.5634  158.8956 C   0  0  0  0  0  0  0  0  0  0  0  0
  150.8589  144.9072  158.5924 C   0  0  0  0  0  0  0  0  0  0  0  0
  151.5139  142.5689  157.8958 C   0  0  0  0  0  0  0  0  0  0  0  0
  152.0903  141.3159  158.1710 C   0  0  0  0  0  0  0  0  0  0  0  0
  149.6753  134.9205  154.1142 N   0  3  0  0  0  0  0  0  0  0  0  0
  149.5613  132.0701  152.4071 H   0  0  0  0  0  0  0  0  0  0  0  0
  149.0360  133.6778  151.9022 H   0  0  0  0  0  0  0  0  0  0  0  0
  148.0235  132.7191  152.9905 H   0  0  0  0  0  0  0  0  0  0  0  0
  150.5361  131.7096  154.7428 H   0  0  0  0  0  0  0  0  0  0  0  0
  151.9108  131.7491  156.8545 H   0  0  0  0  0  0  0  0  0  0  0  0
  152.2655  133.2318  157.6539 H   0  0  0  0  0  0  0  0  0  0  0  0
  152.2222  136.9656  154.1591 H   0  0  0  0  0  0  0  0  0  0  0  0
  151.3552  138.4059  153.6453 H   0  0  0  0  0  0  0  0  0  0  0  0
  152.9813  138.0707  156.2105 H   0  0  0  0  0  0  0  0  0  0  0  0
  153.5972  138.8400  153.8057 H   0  0  0  0  0  0  0  0  0  0  0  0
  151.9355  140.7825  155.4871 H   0  0  0  0  0  0  0  0  0  0  0  0
  150.7269  139.6771  156.0975 H   0  0  0  0  0  0  0  0  0  0  0  0
  153.1251  138.2872  157.9570 H   0  0  0  0  0  0  0  0  0  0  0  0
  153.0915  141.8317  161.3928 H   0  0  0  0  0  0  0  0  0  0  0  0
  152.5696  145.2574  160.9163 H   0  0  0  0  0  0  0  0  0  0  0  0
  152.5880  144.0000  162.1502 H   0  0  0  0  0  0  0  0  0  0  0  0
  151.0476  144.6031  161.5407 H   0  0  0  0  0  0  0  0  0  0  0  0
  150.4154  144.9213  157.5962 H   0  0  0  0  0  0  0  0  0  0  0  0
  151.6039  145.7018  158.6398 H   0  0  0  0  0  0  0  0  0  0  0  0
  150.0699  145.1285  159.3114 H   0  0  0  0  0  0  0  0  0  0  0  0
  151.0792  142.7592  156.9257 H   0  0  0  0  0  0  0  0  0  0  0  0
  149.1601  135.4922  153.4446 H   0  0  0  0  0  0  0  0  0  0  0  0
  1  2  1  0  0  0  0
  1 25  1  0  0  0  0
  1 26  1  0  0  0  0
  1 27  1  0  0  0  0
  2 24  1  0  0  0  0
  2  3  2  0  0  0  0
  3  4  1  0  0  0  0
  3 28  1  0  0  0  0
  4  5  1  0  0  0  0
  4  6  2  0  0  0  0
  5 29  1  0  0  0  0
  5 30  1  0  0  0  0
  6  7  1  0  0  0  0
  7  8  1  0  0  0  0
  7 24  2  0  0  0  0
  8  9  1  0  0  0  0
  9 10  1  0  0  0  0
  9 31  1  0  0  0  0
  9 32  1  0  0  0  0
 10 11  1  0  0  0  0
 10 12  1  0  0  0  0
 10 33  1  0  0  0  0
 11 34  1  0  0  0  0
 12 13  1  0  0  0  0
 12 35  1  0  0  0  0
 12 36  1  0  0  0  0
 13 23  1  0  0  0  0
 13 14  1  0  0  0  0
 14 15  2  0  0  0  0
 14 37  1  0  0  0  0
 15 16  1  0  0  0  0
 16 23  2  0  0  0  0
 16 17  1  0  0  0  0
 17 18  2  0  0  0  0
 17 38  1  0  0  0  0
 18 19  1  0  0  0  0
 18 20  1  0  0  0  0
 19 39  1  0  0  0  0
 19 40  1  0  0  0  0
 19 41  1  0  0  0  0
 20 21  1  0  0  0  0
 20 22  2  0  0  0  0
 21 42  1  0  0  0  0
 21 43  1  0  0  0  0
 21 44  1  0  0  0  0
 22 23  1  0  0  0  0
 22 45  1  0  0  0  0
 24 46  1  0  0  0  0
M  CHG  1  24   1
M  END
> <s_m_source_file>
AV-unprocessed.smi

> <i_m_source_file_index>
1006

> <i_lp_mmshare_version>
43012

> <i_f3d_flags>
0

> <s_epik_input>
W0NIM11jMVtjSF1jKFtOSDJdKW5jKG4xKVNbQ0gyXVtDQEhdKFtPSF0pW0NIMl1uKFtjSF1uMiljKGMyMylbY0hdYyhbQ0gzXSljKFtjSF0zKVtDSDNd

> <s_epik_cmdline>
J2VwaWtfcHl0aG9uJywgJy1waCcsICc3LjAnLCAnLXRuJywgJzgnLCAnLW1hJywgJzIwMCcsICctbWV0YWxfYmluZGluZycsICctaW1hZScsICc8aW5maWxlLm1hZT4nLCAnLW9tYWUnLCAnPG91dGZpbGUubWFlPic=

> <r_lp_tautomer_probability>
0.999762

> <r_epik_Ionization_Penalty>
0.549885

> <r_epik_Ionization_Penalty_Charging>
0.440405

> <r_epik_Ionization_Penalty_Neutral>
0.10948

> <r_epik_State_Penalty>
0.546419

> <r_epik_Charging_Adjusted_Penalty>
0.986823

> <i_epik_Tot_Q>
1

> <i_epik_Tot_abs_Q>
1

> <r_epik_Metal_State_Penalty>
0.699827

> <b_epik_Metal_Only>
0

> <s_lp_Force_Field>
OPLS_2005

> <r_lp_Energy>
7.78967

> <b_lp_Chiralities_Consistent>
1

> <s_lp_Variant>
AV-unprocessed.smi:1006-4

> <Gold.Version>
5.8.1

> <Gold.Id.Protein>
6NUR|6NUR_protein|mol2

> <Gold.PLP.Fitness>
55.9751

> <Gold.PLP.PLP>
-50.5782

> <Gold.PLP.part.hbond>
-2.0000

> <Gold.PLP.part.metal>
0.0000

> <Gold.PLP.part.buried>
-6.8903

> <Gold.PLP.part.nonpolar>
-41.7689

> <Gold.PLP.part.repulsive>
0.1677

> <Gold.PLP.ligand.clash>
0.0000

> <Gold.PLP.ligand.torsion>
1.5531

> <Gold.PLP.Chemscore.Hbond>
2.7920

> <Gold.PLP.Chemscore.CHOScore>
0.0000

> <Gold.PLP.Chemscore.Metal>
0.0000

> <Gold.Chemscore.Hbonds>
donor molecule, donor type, donor heavy atom, donor atom, acceptor molecule, acceptor atom, score
      L1  H    24    46       P1  7948  2.00
      P1  H  7997  8008       L1    11  1.00

> <Gold.PLP.Chemscore.Internal.Correction>
0.1272

> <Gold.Rescore>
     Score         DG    S(hbond)    S(metal)    S(lipo)     H(rot)  DE(clash)    DE(int)     intcor
     16.91     -18.46       1.67        0.00     126.45       2.89       0.09       1.46       ----

> <Gold.Chemscore.Fitness>
16.9062

> <Gold.Chemscore.DG>
-18.4610

> <Gold.Chemscore.ZeroCoef>
-5.4800

> <Gold.Chemscore.Hbond>
1.6720

> <Gold.Chemscore.Metal>
0.0000

> <Gold.Chemscore.Lipo>
126.4542

> <Gold.Chemscore.Internal_Hbond>
0.0000

> <Gold.Chemscore.DEClash>
0.0937

> <Gold.Chemscore.DEInternal>
1.4611

> <Gold.Chemscore.Rot>
2.8901

> <Gold.Chemscore.Internal.Correction>
   9.000000E+99

> <Gold.Chemscore.Hbonds>
donor molecule, donor type, donor heavy atom, donor atom, acceptor molecule, acceptor atom, score
      L1  H    24    46       P1  7948  0.47
      P1  H  7997  8008       L1    11  0.74

> <Gold.Chemscore.Hbond.Weighted>
-5.5845

> <Gold.Chemscore.Metal.Weighted>
-0.0000

> <Gold.Chemscore.Lipo.Weighted>
-14.7951

> <Gold.Chemscore.Internal_Hbond.Weighted>
0.0000

> <Gold.Chemscore.DEClash.Weighted>
0.0937

> <Gold.Chemscore.DEInternal.Weighted>
1.4611

> <Gold.Chemscore.Rot.Weighted>
7.3986

> <Gold.Chemscore.Internal.Correction.Weighted>
   9.000000E+99

> <Gold.Protein.RotatedTorsions>
[ 6907 6896 6895 6894 ] final -144.56 input  -60.11 | X-H torsion
[ 7974 7965 7964 7962 ] final   42.67 input  175.53 | X-H torsion
[ 8008 7997 7996 7995 ] final   -0.15 input   59.86 | X-H torsion
[ 10167 10162 10161 10158 ] final  145.72 input  -65.29 | X-H torsion
[ 10718 10713 10712 10709 ] final  -42.05 input   66.30 | X-H torsion
[ 10763 10752 10751 10750 ] final  -44.13 input  -60.55 | X-H torsion
[ 11005 11000 10999 10996 ] final   76.99 input  -57.11 | X-H torsion

> <Gold.Protein.ActiveResidues>
 VAL166  LYS551  ARG553  GLY616  TRP617  ASP618  TYR619  PRO620  LYS621  CYS622 
 ASP623  PHE694  ASN695  SER759  ASP760  ASP761  ALA762  ILE779  LEU786  VAL792 
 PHE793  MET794  SER795  GLU796  ALA797  LYS798  CYS799  TRP800  GLU811  SER814 

> <Gold.Protein.RotatedAtoms>
  151.1157  133.5140  159.2603 H   0  0  0  0  0  0  0  0  0  0  0  0  # atno 6907 bound_to 6896
  151.1917  135.0405  159.8845 H   0  0  0  0  0  0  0  0  0  0  0  0  # atno 6908 bound_to 6896
  152.5453  134.0996  159.8365 H   0  0  0  0  0  0  0  0  0  0  0  0  # atno 6909 bound_to 6896
  146.0720  139.5273  142.9591 H   0  0  0  0  0  0  0  0  0  0  0  0  # atno 7974 bound_to 7965
  154.6613  140.2591  155.7105 H   0  0  0  0  0  0  0  0  0  0  0  0  # atno 8008 bound_to 7997
  156.2620  140.2848  156.1008 H   0  0  0  0  0  0  0  0  0  0  0  0  # atno 8009 bound_to 7997
  155.1304  140.0378  157.2763 H   0  0  0  0  0  0  0  0  0  0  0  0  # atno 8010 bound_to 7997
  139.4920  144.5881  151.6737 H   0  0  0  0  0  0  0  0  0  0  0  0  # atno 10167 bound_to 10162
  156.2638  130.4199  149.8513 H   0  0  0  0  0  0  0  0  0  0  0  0  # atno 10718 bound_to 10713
  154.0070  135.6686  153.4763 H   0  0  0  0  0  0  0  0  0  0  0  0  # atno 10763 bound_to 10752
  153.0637  135.5013  154.8148 H   0  0  0  0  0  0  0  0  0  0  0  0  # atno 10764 bound_to 10752
  154.7018  135.3080  154.9293 H   0  0  0  0  0  0  0  0  0  0  0  0  # atno 10765 bound_to 10752
  139.9274  134.7647  156.1466 H   0  0  0  0  0  0  0  0  0  0  0  0  # atno 11005 bound_to 11000
  145.6374  141.0291  143.1830 LP  0  0  0  0  0  0  0  0  0  0  0  0  # atno 17320 bound_to 7965
  144.7238  139.7943  143.7372 LP  0  0  0  0  0  0  0  0  0  0  0  0  # atno 17321 bound_to 7965
  140.5502  144.0438  150.6124 LP  0  0  0  0  0  0  0  0  0  0  0  0  # atno 17342 bound_to 10162
  140.3489  143.2975  152.0508 LP  0  0  0  0  0  0  0  0  0  0  0  0  # atno 17343 bound_to 10162
  156.6019  130.8550  151.3434 LP  0  0  0  0  0  0  0  0  0  0  0  0  # atno 17370 bound_to 10713
  157.7260  130.9623  150.1638 LP  0  0  0  0  0  0  0  0  0  0  0  0  # atno 17371 bound_to 10713
  141.0840  133.6742  156.2397 LP  0  0  0  0  0  0  0  0  0  0  0  0  # atno 17394 bound_to 11000
  140.6298  134.5275  157.5558 LP  0  0  0  0  0  0  0  0  0  0  0  0  # atno 17395 bound_to 11000

$$$$
