#       Name:                AV-unprocessed.smi:2895
#       Creating user name   scv26
#       Creation time:       Fri Mar 27 16:00:48 2020


#       File generated by GOLD software.
#

@<TRIPOS>MOLECULE
AV-unprocessed.smi:2895
    56    59     1
SMALL
NO_CHARGES


@<TRIPOS>ATOM
      1 ****         1.5067   1.3704  -1.7159 O.2            1 S1                 0.0000
      2 ****         1.0679   0.4287  -1.0533 C.2            1 S1                 0.0000
      3 ****         1.8786  -0.5256  -0.5612 N.am           1 S1                 0.0000
      4 ****         3.3258  -0.5724  -0.7340 C.3            1 S1                 0.0000
      5 ****         3.7131  -1.1724  -2.0950 C.3            1 S1                 0.0000
      6 ****         5.2167  -1.2424  -2.2805 C.ar           1 S1                 0.0000
      7 ****         5.9075  -0.1976  -2.9334 C.ar           1 S1                 0.0000
      8 ****         7.3058  -0.2900  -3.0895 C.ar           1 S1                 0.0000
      9 ****         7.9662  -1.3689  -2.6145 N.pl3          1 S1                 1.0000
     10 ****         7.3439  -2.3881  -1.9822 C.ar           1 S1                 0.0000
     11 ****         5.9466  -2.3511  -1.7977 C.ar           1 S1                 0.0000
     12 ****        -0.2488   0.2851  -0.7425 N.am           1 S1                 0.0000
     13 ****        -0.7667  -0.8359   0.0772 C.3            1 S1                 0.0000
     14 ****        -2.2672  -1.1208  -0.1058 C.3            1 S1                 0.0000
     15 ****        -3.0857   0.1121  -0.0541 N.4            1 S1                 1.0000
     16 ****        -3.1405   0.7983   1.2758 C.3            1 S1                 0.0000
     17 ****        -4.1895   1.9416   1.3052 C.3            1 S1                 0.0000
     18 ****        -5.0603   1.6033   2.5262 C.3            1 S1                 0.0000
     19 ****        -4.2457   1.8012   3.8160 C.3            1 S1                 0.0000
     20 ****        -3.2717   0.6107   3.7813 C.3            1 S1                 0.0000
     21 ****        -3.6289  -0.0891   2.4550 C.3            1 S1                 0.0000
     22 ****        -5.1429   0.0869   2.4220 C.3            1 S1                 0.0000
     23 ****        -2.6650   0.9957  -1.1666 C.3            1 S1                 0.0000
     24 ****        -1.1759   1.3850  -1.0862 C.3            1 S1                 0.0000
     25 ****         1.4616  -1.2661  -0.0159 H              1 S1                 0.0000
     26 ****         3.7500   0.4269  -0.6215 H              1 S1                 0.0000
     27 ****         3.7421  -1.1775   0.0719 H              1 S1                 0.0000
     28 ****         3.2970  -2.1759  -2.1942 H              1 S1                 0.0000
     29 ****         3.2839  -0.5814  -2.9054 H              1 S1                 0.0000
     30 ****         5.3749   0.6643  -3.3093 H              1 S1                 0.0000
     31 ****         7.9112   0.4608  -3.5760 H              1 S1                 0.0000
     32 ****         7.9774  -3.1958  -1.6456 H              1 S1                 0.0000
     33 ****         5.4438  -3.1624  -1.2915 H              1 S1                 0.0000
     34 ****        -0.2445  -1.7681  -0.1437 H              1 S1                 0.0000
     35 ****        -0.5619  -0.6103   1.1247 H              1 S1                 0.0000
     36 ****        -2.4180  -1.5816  -1.0833 H              1 S1                 0.0000
     37 ****        -2.6080  -1.8719   0.6029 H              1 S1                 0.0000
     38 ****        -2.1508   1.1928   1.5082 H              1 S1                 0.0000
     39 ****        -3.7280   2.9269   1.3828 H              1 S1                 0.0000
     40 ****        -4.8197   1.9415   0.4151 H              1 S1                 0.0000
     41 ****        -6.0219   2.1172   2.5326 H              1 S1                 0.0000
     42 ****        -3.7302   2.7623   3.8360 H              1 S1                 0.0000
     43 ****        -4.8880   1.7461   4.6961 H              1 S1                 0.0000
     44 ****        -2.2277   0.9231   3.8245 H              1 S1                 0.0000
     45 ****        -3.4527  -0.0531   4.6278 H              1 S1                 0.0000
     46 ****        -3.2917  -1.1230   2.4511 H              1 S1                 0.0000
     47 ****        -5.6515  -0.3776   3.2687 H              1 S1                 0.0000
     48 ****        -5.6004  -0.2616   1.4945 H              1 S1                 0.0000
     49 ****        -2.8424   0.4668  -2.1041 H              1 S1                 0.0000
     50 ****        -3.2814   1.8922  -1.2226 H              1 S1                 0.0000
     51 ****        -1.0485   2.1674  -0.3368 H              1 S1                 0.0000
     52 ****        -0.9099   1.8413  -2.0415 H              1 S1                 0.0000
     53 ****        -4.0346  -0.1703  -0.2548 H              1 S1                 0.0000
     54 ****         8.9779  -1.4156  -2.7385 H              1 S1                 0.0000
     55 ****         2.4874   1.4385  -1.8994 LP             1 S1                 0.0000
     56 ****         0.8822   2.0664  -2.0701 LP             1 S1                 0.0000
@<TRIPOS>BOND
    1    1    2 2     
    2    2    3 am    
    3    2   12 am    
    4    3    4 1     
    5    3   25 1     
    6    4    5 1     
    7    4   26 1     
    8    4   27 1     
    9    5    6 1     
   10    5   28 1     
   11    5   29 1     
   12    6   11 ar    
   13    6    7 ar    
   14    7    8 ar    
   15    7   30 1     
   16    8    9 ar    
   17    8   31 1     
   18    9   10 ar    
   19    9   54 1     
   20   10   11 ar    
   21   10   32 1     
   22   11   33 1     
   23   12   24 1     
   24   12   13 1     
   25   13   14 1     
   26   13   34 1     
   27   13   35 1     
   28   14   15 1     
   29   14   36 1     
   30   14   37 1     
   31   15   16 1     
   32   15   23 1     
   33   15   53 1     
   34   16   21 1     
   35   16   17 1     
   36   16   38 1     
   37   17   18 1     
   38   17   39 1     
   39   17   40 1     
   40   18   22 1     
   41   18   19 1     
   42   18   41 1     
   43   19   20 1     
   44   19   42 1     
   45   19   43 1     
   46   20   21 1     
   47   20   44 1     
   48   20   45 1     
   49   21   22 1     
   50   21   46 1     
   51   22   47 1     
   52   22   48 1     
   53   23   24 1     
   54   23   49 1     
   55   23   50 1     
   56   24   51 1     
   57   24   52 1     
   58    1   55 1     
   59    1   56 1     
@<TRIPOS>SUBSTRUCTURE
      1 S1             1
@<TRIPOS>SET
LONE_PAIRS      STATIC     ATOMS    <user>   **** ""
2 55 56
DONOR_HYDROGENS      STATIC     ATOMS    <user>   **** ""
3 25 54 53
ATOM$BLUE        STATIC     ATOMS    COLORGROUP SYSTEM
2 55 56
ATOM$RED        STATIC     ATOMS    COLORGROUP SYSTEM
3 25 54 53
