AV-unprocessed.smi:1753|AV-procd|sdf|7063|dock3
  -GOLD-   22720 8283D 1   1.00000     0.00000
 Structure written by MMmdl.
 37 38  0  0  0  0  0  0  0  0  1 V2000
  143.5646  132.4094  150.6206 C   0  0  0  0  0  0  0  0  0  0  0  0
  144.8268  132.6112  151.4060 C   0  0  0  0  0  0  0  0  0  0  0  0
  145.5374  133.8263  151.6282 C   0  0  0  0  0  0  0  0  0  0  0  0
  146.5919  133.4227  152.4013 C   0  0  0  0  0  0  0  0  0  0  0  0
  147.6061  134.1686  152.9153 N   0  0  0  0  0  0  0  0  0  0  0  0
  148.0778  134.1963  154.1741 C   0  0  0  0  0  0  0  0  0  0  0  0
  147.6610  133.5118  155.1086 O   0  0  0  0  0  0  0  0  0  0  0  0
  149.0834  135.0755  154.2924 N   0  0  0  0  0  0  0  0  0  0  0  0
  149.8234  135.3599  155.5185 C   0  0  0  0  0  0  0  0  0  0  0  0
  150.0474  136.8711  155.7184 C   0  0  1  0  0  0  0  0  0  0  0  0
  150.6979  137.1903  157.0784 C   0  0  0  0  0  0  0  0  0  0  0  0
  151.1155  138.6640  157.0877 C   0  0  0  0  0  0  0  0  0  0  0  0
  151.6229  139.0410  155.3696 S   0  0  0  0  0  0  0  0  0  0  0  0
  150.8772  140.2173  154.8974 O   0  0  0  0  0  0  0  0  0  0  0  0
  153.0888  138.9813  155.2668 O   0  0  0  0  0  0  0  0  0  0  0  0
  150.9120  137.5238  154.6255 C   0  0  0  0  0  0  0  0  0  0  0  0
  146.4957  132.0630  152.6090 N   0  0  0  0  0  0  0  0  0  0  0  0
  147.3577  131.1651  153.3535 C   0  0  0  0  0  0  0  0  0  0  0  0
  145.4011  131.5675  151.9930 N   0  0  0  0  0  0  0  0  0  0  0  0
  143.3023  133.3068  150.0597 H   0  0  0  0  0  0  0  0  0  0  0  0
  142.7282  132.1731  151.2784 H   0  0  0  0  0  0  0  0  0  0  0  0
  143.6702  131.5921  149.9066 H   0  0  0  0  0  0  0  0  0  0  0  0
  145.2956  134.8156  151.2706 H   0  0  0  0  0  0  0  0  0  0  0  0
  148.0605  134.7847  152.2577 H   0  0  0  0  0  0  0  0  0  0  0  0
  149.3588  135.5920  153.4697 H   0  0  0  0  0  0  0  0  0  0  0  0
  149.2415  134.9646  156.3516 H   0  0  0  0  0  0  0  0  0  0  0  0
  150.7754  134.8261  155.5349 H   0  0  0  0  0  0  0  0  0  0  0  0
  149.0755  137.3671  155.7058 H   0  0  0  0  0  0  0  0  0  0  0  0
  150.0309  136.9615  157.9101 H   0  0  0  0  0  0  0  0  0  0  0  0
  151.5878  136.5717  157.2043 H   0  0  0  0  0  0  0  0  0  0  0  0
  150.2696  139.3045  157.3382 H   0  0  0  0  0  0  0  0  0  0  0  0
  151.9313  138.8747  157.7792 H   0  0  0  0  0  0  0  0  0  0  0  0
  151.7411  136.8747  154.3414 H   0  0  0  0  0  0  0  0  0  0  0  0
  150.3470  137.7752  153.7278 H   0  0  0  0  0  0  0  0  0  0  0  0
  148.2331  131.6938  153.7303 H   0  0  0  0  0  0  0  0  0  0  0  0
  147.6906  130.3533  152.7058 H   0  0  0  0  0  0  0  0  0  0  0  0
  146.8088  130.7458  154.1971 H   0  0  0  0  0  0  0  0  0  0  0  0
  1  2  1  0  0  0  0
  1 20  1  0  0  0  0
  1 21  1  0  0  0  0
  1 22  1  0  0  0  0
  2 19  2  0  0  0  0
  2  3  1  0  0  0  0
  3  4  2  0  0  0  0
  3 23  1  0  0  0  0
  4  5  1  0  0  0  0
  4 17  1  0  0  0  0
  5  6  1  0  0  0  0
  5 24  1  0  0  0  0
  6  7  2  0  0  0  0
  6  8  1  0  0  0  0
  8  9  1  0  0  0  0
  8 25  1  0  0  0  0
  9 10  1  0  0  0  0
  9 26  1  0  0  0  0
  9 27  1  0  0  0  0
 10 16  1  0  0  0  0
 10 11  1  0  0  0  0
 10 28  1  0  0  0  0
 11 12  1  0  0  0  0
 11 29  1  0  0  0  0
 11 30  1  0  0  0  0
 12 13  1  0  0  0  0
 12 31  1  0  0  0  0
 12 32  1  0  0  0  0
 13 14  2  0  0  0  0
 13 15  2  0  0  0  0
 13 16  1  0  0  0  0
 16 33  1  0  0  0  0
 16 34  1  0  0  0  0
 17 18  1  0  0  0  0
 17 19  1  0  0  0  0
 18 35  1  0  0  0  0
 18 36  1  0  0  0  0
 18 37  1  0  0  0  0
M  END
> <s_m_source_file>
AV-unprocessed.smi

> <i_m_source_file_index>
1753

> <i_lp_mmshare_version>
43012

> <i_f3d_flags>
0

> <s_epik_input>
W0NIM11jMVtjSF1jKG4objEpW0NIM10pW05IXUMoPU8pW05IXVtDSDJdW0NAQEhdKFtDSDJdMilbQ0gyXVtDSDJdUzIoPU8pPU8=

> <s_epik_cmdline>
J2VwaWtfcHl0aG9uJywgJy1waCcsICc3LjAnLCAnLXRuJywgJzgnLCAnLW1hJywgJzIwMCcsICctbWV0YWxfYmluZGluZycsICctaW1hZScsICc8aW5maWxlLm1hZT4nLCAnLW9tYWUnLCAnPG91dGZpbGUubWFlPic=

> <r_lp_tautomer_probability>
1

> <r_epik_Ionization_Penalty>
9.06651e-05

> <r_epik_Ionization_Penalty_Charging>
0

> <r_epik_Ionization_Penalty_Neutral>
9.06651e-05

> <r_epik_State_Penalty>
-0

> <r_epik_Charging_Adjusted_Penalty>
0

> <i_epik_Tot_Q>
0

> <i_epik_Tot_abs_Q>
0

> <r_epik_Metal_State_Penalty>
-0

> <b_epik_Metal_Only>
0

> <s_lp_Force_Field>
OPLS_2005

> <r_lp_Energy>
6.63642

> <b_lp_Chiralities_Consistent>
1

> <s_lp_Variant>
AV-unprocessed.smi:1753-2

> <Gold.Version>
5.8.1

> <Gold.Id.Protein>
6NUR|6NUR_protein|mol2

> <Gold.PLP.Fitness>
39.4483

> <Gold.PLP.PLP>
-28.6824

> <Gold.PLP.part.hbond>
-4.0000

> <Gold.PLP.part.metal>
0.0000

> <Gold.PLP.part.buried>
-4.1538

> <Gold.PLP.part.nonpolar>
-20.1214

> <Gold.PLP.part.repulsive>
0.2802

> <Gold.PLP.ligand.clash>
0.0000

> <Gold.PLP.ligand.torsion>
0.5440

> <Gold.PLP.Chemscore.Hbond>
3.9500

> <Gold.PLP.Chemscore.CHOScore>
0.0000

> <Gold.PLP.Chemscore.Metal>
0.0000

> <Gold.Chemscore.Hbonds>
donor molecule, donor type, donor heavy atom, donor atom, acceptor molecule, acceptor atom, score
      L1  H     5    24       P1  7948  1.00
      L1  H     8    25       P1  7948  1.00
      P1  H  7989  7998       L1    14  1.00
      P1  H  7997  8009       L1    15  1.00

> <Gold.PLP.Chemscore.Internal.Correction>
0.0040

> <Gold.Rescore>
     Score         DG    S(hbond)    S(metal)    S(lipo)     H(rot)  DE(clash)    DE(int)     intcor
     19.29     -20.17       3.83        0.00      44.90       1.31       0.06       0.82       ----

> <Gold.Chemscore.Fitness>
19.2894

> <Gold.Chemscore.DG>
-20.1666

> <Gold.Chemscore.ZeroCoef>
-5.4800

> <Gold.Chemscore.Hbond>
3.8269

> <Gold.Chemscore.Metal>
0.0000

> <Gold.Chemscore.Lipo>
44.8990

> <Gold.Chemscore.Internal_Hbond>
0.0000

> <Gold.Chemscore.DEClash>
0.0580

> <Gold.Chemscore.DEInternal>
0.8193

> <Gold.Chemscore.Rot>
1.3080

> <Gold.Chemscore.Internal.Correction>
   9.000000E+99

> <Gold.Chemscore.Hbonds>
donor molecule, donor type, donor heavy atom, donor atom, acceptor molecule, acceptor atom, score
      L1  H     5    24       P1  7948  0.44
      L1  H     8    25       P1  7948  0.28
      P1  H  7989  7998       L1    14  0.74
      P1  H  7997  8009       L1    15  0.99

> <Gold.Chemscore.Hbond.Weighted>
-12.7820

> <Gold.Chemscore.Metal.Weighted>
-0.0000

> <Gold.Chemscore.Lipo.Weighted>
-5.2532

> <Gold.Chemscore.Internal_Hbond.Weighted>
0.0000

> <Gold.Chemscore.DEClash.Weighted>
0.0580

> <Gold.Chemscore.DEInternal.Weighted>
0.8193

> <Gold.Chemscore.Rot.Weighted>
3.3485

> <Gold.Chemscore.Internal.Correction.Weighted>
   9.000000E+99

> <Gold.Protein.RotatedTorsions>
[ 6907 6896 6895 6894 ] final  131.12 input  -60.11 | X-H torsion
[ 7974 7965 7964 7962 ] final  -44.91 input  175.53 | X-H torsion
[ 8008 7997 7996 7995 ] final -143.59 input   59.86 | X-H torsion
[ 10167 10162 10161 10158 ] final -145.10 input  -65.29 | X-H torsion
[ 10718 10713 10712 10709 ] final -137.69 input   66.30 | X-H torsion
[ 10763 10752 10751 10750 ] final   15.78 input  -60.55 | X-H torsion
[ 11005 11000 10999 10996 ] final   59.33 input  -57.11 | X-H torsion

> <Gold.Protein.ActiveResidues>
 VAL166  LYS551  ARG553  GLY616  TRP617  ASP618  TYR619  PRO620  LYS621  CYS622 
 ASP623  PHE694  ASN695  SER759  ASP760  ASP761  ALA762  ILE779  LEU786  VAL792 
 PHE793  MET794  SER795  GLU796  ALA797  LYS798  CYS799  TRP800  GLU811  SER814 

> <Gold.Protein.RotatedAtoms>
  152.3458  133.6120  159.5908 H   0  0  0  0  0  0  0  0  0  0  0  0  # atno 6907 bound_to 6896
  150.7506  133.9652  159.3537 H   0  0  0  0  0  0  0  0  0  0  0  0  # atno 6908 bound_to 6896
  151.7510  135.0833  160.0382 H   0  0  0  0  0  0  0  0  0  0  0  0  # atno 6909 bound_to 6896
  145.9873  140.7219  142.9334 H   0  0  0  0  0  0  0  0  0  0  0  0  # atno 7974 bound_to 7965
  155.5130  140.0585  157.2920 H   0  0  0  0  0  0  0  0  0  0  0  0  # atno 8008 bound_to 7997
  154.4545  140.1966  156.0368 H   0  0  0  0  0  0  0  0  0  0  0  0  # atno 8009 bound_to 7997
  156.0771  140.3252  155.7651 H   0  0  0  0  0  0  0  0  0  0  0  0  # atno 8010 bound_to 7997
  139.7837  143.8065  152.2642 H   0  0  0  0  0  0  0  0  0  0  0  0  # atno 10167 bound_to 10162
  156.2910  130.7375  151.1400 H   0  0  0  0  0  0  0  0  0  0  0  0  # atno 10718 bound_to 10713
  153.1493  135.6775  153.8907 H   0  0  0  0  0  0  0  0  0  0  0  0  # atno 10763 bound_to 10752
  153.8339  135.3114  155.3422 H   0  0  0  0  0  0  0  0  0  0  0  0  # atno 10764 bound_to 10752
  154.7849  135.4867  154.0011 H   0  0  0  0  0  0  0  0  0  0  0  0  # atno 10765 bound_to 10752
  140.0311  134.6010  155.9505 H   0  0  0  0  0  0  0  0  0  0  0  0  # atno 11005 bound_to 11000
  144.6878  140.3010  143.7263 LP  0  0  0  0  0  0  0  0  0  0  0  0  # atno 17320 bound_to 7965
  145.7681  139.1848  143.2228 LP  0  0  0  0  0  0  0  0  0  0  0  0  # atno 17321 bound_to 7965
  139.8135  144.7326  150.9666 LP  0  0  0  0  0  0  0  0  0  0  0  0  # atno 17342 bound_to 10162
  140.7819  143.4228  151.0815 LP  0  0  0  0  0  0  0  0  0  0  0  0  # atno 17343 bound_to 10162
  157.7342  131.0584  150.5536 LP  0  0  0  0  0  0  0  0  0  0  0  0  # atno 17370 bound_to 10713
  156.5652  130.4266  149.6044 LP  0  0  0  0  0  0  0  0  0  0  0  0  # atno 17371 bound_to 10713
  141.1832  133.6550  156.5105 LP  0  0  0  0  0  0  0  0  0  0  0  0  # atno 17394 bound_to 11000
  140.4223  134.7176  157.4897 LP  0  0  0  0  0  0  0  0  0  0  0  0  # atno 17395 bound_to 11000

$$$$
