#       Name:                AV-unprocessed.smi:1247
#       Creating user name   scv26
#       Creation time:       Fri Mar 27 04:35:33 2020


#       File generated by GOLD software.
#

@<TRIPOS>MOLECULE
AV-unprocessed.smi:1247
    52    53     1
SMALL
NO_CHARGES


@<TRIPOS>ATOM
      1 ****        -5.6337   4.5991   1.0408 C.3            1 S1                 0.0000
      2 ****        -5.1789   3.1772   0.8939 C.2            1 S1                 0.0000
      3 ****        -3.8508   2.6676   0.9764 C.2            1 S1                 0.0000
      4 ****        -4.0273   1.3274   0.7634 C.2            1 S1                 0.0000
      5 ****        -3.0931   0.3398   0.7265 N.am           1 S1                 0.0000
      6 ****        -1.7587   0.4398   0.8598 C.2            1 S1                 0.0000
      7 ****        -1.1366   1.4843   1.0544 O.2            1 S1                 0.0000
      8 ****        -1.1685  -0.7592   0.7493 N.am           1 S1                 0.0000
      9 ****         0.2686  -0.9925   0.8328 C.3            1 S1                 0.0000
     10 ****         0.9701  -0.6461  -0.4941 C.3            1 S1                 0.0000
     11 ****         2.4278  -0.7479  -0.4667 N.3            1 S1                 0.0000
     12 ****         2.8950  -2.1227  -0.3164 C.3            1 S1                 0.0000
     13 ****         4.4323  -2.2062  -0.2772 C.3            1 S1                 0.0000
     14 ****         4.9309  -3.6536  -0.2131 C.3            1 S1                 0.0000
     15 ****         4.9737  -1.6040  -1.4515 O.3            1 S1                 0.0000
     16 ****         4.5497  -0.2625  -1.6977 C.3            1 S1                 0.0000
     17 ****         5.2277   0.7359  -0.7440 C.3            1 S1                 0.0000
     18 ****         3.0106  -0.1787  -1.6775 C.3            1 S1                 0.0000
     19 ****        -5.3705   1.0810   0.5754 N.pl3          1 S1                 0.0000
     20 ****        -6.0623  -0.1657   0.3108 C.3            1 S1                 0.0000
     21 ****        -6.0773   2.2290   0.6542 N.2            1 S1                 0.0000
     22 ****        -4.7973   5.2583   1.2741 H              1 S1                 0.0000
     23 ****        -6.3661   4.6973   1.8424 H              1 S1                 0.0000
     24 ****        -6.0939   4.9606   0.1210 H              1 S1                 0.0000
     25 ****        -2.9374   3.2131   1.1598 H              1 S1                 0.0000
     26 ****        -3.4556  -0.5888   0.5681 H              1 S1                 0.0000
     27 ****        -1.7526  -1.5674   0.5922 H              1 S1                 0.0000
     28 ****         0.6941  -0.4124   1.6536 H              1 S1                 0.0000
     29 ****         0.4132  -2.0426   1.0850 H              1 S1                 0.0000
     30 ****         0.5713  -1.2727  -1.2932 H              1 S1                 0.0000
     31 ****         0.7012   0.3780  -0.7567 H              1 S1                 0.0000
     32 ****         2.5032  -2.5558   0.6032 H              1 S1                 0.0000
     33 ****         2.5157  -2.7336  -1.1372 H              1 S1                 0.0000
     34 ****         4.8023  -1.6789   0.6026 H              1 S1                 0.0000
     35 ****         4.5592  -4.1580   0.6792 H              1 S1                 0.0000
     36 ****         6.0202  -3.6886  -0.1848 H              1 S1                 0.0000
     37 ****         4.6020  -4.2235  -1.0827 H              1 S1                 0.0000
     38 ****         4.8848  -0.0159  -2.7055 H              1 S1                 0.0000
     39 ****         4.9804   1.7618  -1.0179 H              1 S1                 0.0000
     40 ****         6.3125   0.6357  -0.7833 H              1 S1                 0.0000
     41 ****         4.9157   0.5920   0.2901 H              1 S1                 0.0000
     42 ****         2.6191  -0.7063  -2.5488 H              1 S1                 0.0000
     43 ****         2.7026   0.8619  -1.7872 H              1 S1                 0.0000
     44 ****        -5.4574  -1.0132   0.6332 H              1 S1                 0.0000
     45 ****        -6.2582  -0.2541  -0.7581 H              1 S1                 0.0000
     46 ****        -7.0097  -0.1888   0.8506 H              1 S1                 0.0000
     47 ****        -1.6273   2.3527   1.1255 LP             1 S1                 0.0000
     48 ****        -0.1405   1.4643   1.1413 LP             1 S1                 0.0000
     49 ****         2.7267  -0.2297   0.3347 LP             1 S1                 0.0000
     50 ****         4.7061  -2.1621  -2.2369 LP             1 S1                 0.0000
     51 ****         5.9702  -1.6030  -1.3674 LP             1 S1                 0.0000
     52 ****        -7.0658   2.3411   0.5536 LP             1 S1                 0.0000
@<TRIPOS>BOND
    1    1    2 1     
    2    1   22 1     
    3    1   23 1     
    4    1   24 1     
    5    2   21 2     
    6    2    3 1     
    7    3    4 2     
    8    3   25 1     
    9    4    5 1     
   10    4   19 1     
   11    5    6 am    
   12    5   26 1     
   13    6    7 2     
   14    6    8 am    
   15    8    9 1     
   16    8   27 1     
   17    9   10 1     
   18    9   28 1     
   19    9   29 1     
   20   10   11 1     
   21   10   30 1     
   22   10   31 1     
   23   11   18 1     
   24   11   12 1     
   25   12   13 1     
   26   12   32 1     
   27   12   33 1     
   28   13   14 1     
   29   13   15 1     
   30   13   34 1     
   31   14   35 1     
   32   14   36 1     
   33   14   37 1     
   34   15   16 1     
   35   16   17 1     
   36   16   18 1     
   37   16   38 1     
   38   17   39 1     
   39   17   40 1     
   40   17   41 1     
   41   18   42 1     
   42   18   43 1     
   43   19   20 1     
   44   19   21 1     
   45   20   44 1     
   46   20   45 1     
   47   20   46 1     
   48    7   47 1     
   49    7   48 1     
   50   11   49 1     
   51   15   50 1     
   52   15   51 1     
   53   21   52 1     
@<TRIPOS>SUBSTRUCTURE
      1 S1             1
@<TRIPOS>SET
LONE_PAIRS      STATIC     ATOMS    <user>   **** ""
6 47 48 49 50 51 52
DONOR_HYDROGENS      STATIC     ATOMS    <user>   **** ""
2 26 27
ATOM$BLUE        STATIC     ATOMS    COLORGROUP SYSTEM
6 47 48 49 50 51 52
ATOM$RED        STATIC     ATOMS    COLORGROUP SYSTEM
2 26 27
