AV-unprocessed.smi:3032|AV-procd|sdf|11566|dock1
  -GOLD-   2272016533D 1   1.00000     0.00000
 Structure written by MMmdl.
 37 38  0  0  0  0  0  0  0  0  1 V2000
  153.4794  141.3133  159.9049 C   0  0  0  0  0  0  0  0  0  0  0  0
  152.3992  142.1430  159.1964 C   0  0  1  0  0  0  0  0  0  0  0  0
  152.8881  143.5754  158.9083 C   0  0  0  0  0  0  0  0  0  0  0  0
  151.8146  144.4044  158.1859 C   0  0  0  0  0  0  0  0  0  0  0  0
  151.3578  143.7150  156.8910 C   0  0  0  0  0  0  0  0  0  0  0  0
  150.8461  142.2870  157.1722 C   0  0  1  0  0  0  0  0  0  0  0  0
  150.4138  141.5864  155.8781 C   0  0  0  0  0  0  0  0  0  0  0  0
  151.0548  140.6264  155.4499 O   0  0  0  0  0  0  0  0  0  0  0  0
  149.3084  142.0607  155.2811 N   0  0  0  0  0  0  0  0  0  0  0  0
  148.6646  141.4784  154.1055 C   0  0  0  0  0  0  0  0  0  0  0  0
  147.3785  140.7109  154.4683 C   0  0  0  0  0  0  0  0  0  0  0  0
  147.0087  139.6420  153.4877 C   0  0  0  0  0  0  0  0  0  0  0  0
  146.7575  138.3667  153.8065 N   0  0  0  0  0  0  0  0  0  0  0  0
  146.4235  137.7436  152.6141 N   0  0  0  0  0  0  0  0  0  0  0  0
  146.5069  138.7035  151.6918 C   0  0  0  0  0  0  0  0  0  0  0  0
  146.8683  139.8966  152.1773 N   0  0  0  0  0  0  0  0  0  0  0  0
  151.9314  141.4612  157.8958 C   0  0  0  0  0  0  0  0  0  0  0  0
  146.9925  140.7686  151.6843 H   0  0  0  0  0  0  0  0  0  0  0  0
  154.3637  141.1966  159.2778 H   0  0  0  0  0  0  0  0  0  0  0  0
  153.1113  140.3166  160.1493 H   0  0  0  0  0  0  0  0  0  0  0  0
  153.7920  141.7865  160.8361 H   0  0  0  0  0  0  0  0  0  0  0  0
  151.5423  142.2090  159.8684 H   0  0  0  0  0  0  0  0  0  0  0  0
  153.1647  144.0700  159.8399 H   0  0  0  0  0  0  0  0  0  0  0  0
  153.7913  143.5412  158.2974 H   0  0  0  0  0  0  0  0  0  0  0  0
  150.9583  144.5491  158.8457 H   0  0  0  0  0  0  0  0  0  0  0  0
  152.2029  145.3980  157.9606 H   0  0  0  0  0  0  0  0  0  0  0  0
  150.5747  144.3092  156.4182 H   0  0  0  0  0  0  0  0  0  0  0  0
  152.1917  143.6867  156.1874 H   0  0  0  0  0  0  0  0  0  0  0  0
  149.9784  142.3612  157.8303 H   0  0  0  0  0  0  0  0  0  0  0  0
  148.8526  142.8582  155.7000 H   0  0  0  0  0  0  0  0  0  0  0  0
  148.4245  142.2854  153.4134 H   0  0  0  0  0  0  0  0  0  0  0  0
  149.3531  140.8192  153.5742 H   0  0  0  0  0  0  0  0  0  0  0  0
  147.4881  140.2581  155.4547 H   0  0  0  0  0  0  0  0  0  0  0  0
  146.5458  141.4107  154.5463 H   0  0  0  0  0  0  0  0  0  0  0  0
  146.3002  138.5327  150.6456 H   0  0  0  0  0  0  0  0  0  0  0  0
  152.7886  141.3130  157.2366 H   0  0  0  0  0  0  0  0  0  0  0  0
  151.5461  140.4663  158.1239 H   0  0  0  0  0  0  0  0  0  0  0  0
  1  2  1  0  0  0  0
  1 19  1  0  0  0  0
  1 20  1  0  0  0  0
  1 21  1  0  0  0  0
  2 17  1  0  0  0  0
  2  3  1  0  0  0  0
  2 22  1  0  0  0  0
  3  4  1  0  0  0  0
  3 23  1  0  0  0  0
  3 24  1  0  0  0  0
  4  5  1  0  0  0  0
  4 25  1  0  0  0  0
  4 26  1  0  0  0  0
  5  6  1  0  0  0  0
  5 27  1  0  0  0  0
  5 28  1  0  0  0  0
  6  7  1  0  0  0  0
  6 17  1  0  0  0  0
  6 29  1  0  0  0  0
  7  8  2  0  0  0  0
  7  9  1  0  0  0  0
  9 10  1  0  0  0  0
  9 30  1  0  0  0  0
 10 11  1  0  0  0  0
 10 31  1  0  0  0  0
 10 32  1  0  0  0  0
 11 12  1  0  0  0  0
 11 33  1  0  0  0  0
 11 34  1  0  0  0  0
 12 16  1  0  0  0  0
 12 13  2  0  0  0  0
 13 14  1  0  0  0  0
 14 15  2  0  0  0  0
 15 16  1  0  0  0  0
 15 35  1  0  0  0  0
 16 18  1  0  0  0  0
 17 36  1  0  0  0  0
 17 37  1  0  0  0  0
M  END
> <s_m_source_file>
AV-unprocessed.smi

> <i_m_source_file_index>
3032

> <i_lp_mmshare_version>
43012

> <i_f3d_flags>
0

> <s_epik_input>
W0NIM11bQ0BASF0xW0NIMl1bQ0gyXVtDSDJdW0NASF0oW0NIMl0xKUMoPU8pW05IXVtDSDJdW0NIMl1jMm5uW2NIXVtuSF0y

> <s_epik_cmdline>
J2VwaWtfcHl0aG9uJywgJy1waCcsICc3LjAnLCAnLXRuJywgJzgnLCAnLW1hJywgJzIwMCcsICctbWV0YWxfYmluZGluZycsICctaW1hZScsICc8aW5maWxlLm1hZT4nLCAnLW9tYWUnLCAnPG91dGZpbGUubWFlPic=

> <r_lp_tautomer_probability>
0.0517155

> <r_epik_Ionization_Penalty>
0.00149837

> <r_epik_Ionization_Penalty_Charging>
0

> <r_epik_Ionization_Penalty_Neutral>
0.00149837

> <r_epik_State_Penalty>
2.1109

> <r_epik_Charging_Adjusted_Penalty>
2.1109

> <i_epik_Tot_Q>
0

> <i_epik_Tot_abs_Q>
0

> <r_epik_Metal_State_Penalty>
2.23635

> <b_epik_Metal_Only>
0

> <s_lp_Force_Field>
OPLS_2005

> <r_lp_Energy>
11.6052

> <b_lp_Chiralities_Consistent>
1

> <s_lp_Variant>
AV-unprocessed.smi:3032-10

> <Gold.Version>
5.8.1

> <Gold.Id.Protein>
6NUR|6NUR_protein|mol2

> <Gold.PLP.Fitness>
44.5980

> <Gold.PLP.PLP>
-38.1037

> <Gold.PLP.part.hbond>
-3.3308

> <Gold.PLP.part.metal>
0.0000

> <Gold.PLP.part.buried>
-2.5936

> <Gold.PLP.part.nonpolar>
-34.0706

> <Gold.PLP.part.repulsive>
1.1620

> <Gold.PLP.ligand.clash>
0.0000

> <Gold.PLP.ligand.torsion>
0.4690

> <Gold.PLP.Chemscore.Hbond>
1.6757

> <Gold.PLP.Chemscore.CHOScore>
0.7942

> <Gold.PLP.Chemscore.Metal>
0.0000

> <Gold.Chemscore.Hbonds>
donor molecule, donor type, donor heavy atom, donor atom, acceptor molecule, acceptor atom, score
      L1  H     9    30       P1  8028  0.82
      P1  H  7989  7998       L1     8  0.84
      L1  C    15    35       P1 10171  0.77

> <Gold.PLP.Chemscore.Internal.Correction>
0.0225

> <Gold.Rescore>
     Score         DG    S(hbond)    S(metal)    S(lipo)     H(rot)  DE(clash)    DE(int)     intcor
     14.04     -15.24       1.58        0.00      87.50       2.25       0.72       0.48       ----

> <Gold.Chemscore.Fitness>
14.0350

> <Gold.Chemscore.DG>
-15.2372

> <Gold.Chemscore.ZeroCoef>
-5.4800

> <Gold.Chemscore.Hbond>
1.5807

> <Gold.Chemscore.Metal>
0.0000

> <Gold.Chemscore.Lipo>
87.5033

> <Gold.Chemscore.Internal_Hbond>
0.0000

> <Gold.Chemscore.DEClash>
0.7236

> <Gold.Chemscore.DEInternal>
0.4785

> <Gold.Chemscore.Rot>
2.2501

> <Gold.Chemscore.Internal.Correction>
   9.000000E+99

> <Gold.Chemscore.Hbonds>
donor molecule, donor type, donor heavy atom, donor atom, acceptor molecule, acceptor atom, score
      L1  H     9    30       P1  8028  0.81
      P1  H  7989  7998       L1     8  0.65

> <Gold.Chemscore.Hbond.Weighted>
-5.2796

> <Gold.Chemscore.Metal.Weighted>
-0.0000

> <Gold.Chemscore.Lipo.Weighted>
-10.2379

> <Gold.Chemscore.Internal_Hbond.Weighted>
0.0000

> <Gold.Chemscore.DEClash.Weighted>
0.7236

> <Gold.Chemscore.DEInternal.Weighted>
0.4785

> <Gold.Chemscore.Rot.Weighted>
5.7603

> <Gold.Chemscore.Internal.Correction.Weighted>
   9.000000E+99

> <Gold.Protein.RotatedTorsions>
[ 6907 6896 6895 6894 ] final -157.33 input  -60.11 | X-H torsion
[ 7974 7965 7964 7962 ] final   60.00 input  175.53 | X-H torsion
[ 8008 7997 7996 7995 ] final   58.23 input   59.86 | X-H torsion
[ 10167 10162 10161 10158 ] final  143.19 input  -65.29 | X-H torsion
[ 10718 10713 10712 10709 ] final   70.17 input   66.30 | X-H torsion
[ 10763 10752 10751 10750 ] final -168.29 input  -60.55 | X-H torsion
[ 11005 11000 10999 10996 ] final   27.23 input  -57.11 | X-H torsion

> <Gold.Protein.ActiveResidues>
 VAL166  LYS551  ARG553  GLY616  TRP617  ASP618  TYR619  PRO620  LYS621  CYS622 
 ASP623  PHE694  ASN695  SER759  ASP760  ASP761  ALA762  ILE779  LEU786  VAL792 
 PHE793  MET794  SER795  GLU796  ALA797  LYS798  CYS799  TRP800  GLU811  SER814 

> <Gold.Protein.RotatedAtoms>
  151.3013  133.4121  159.2639 H   0  0  0  0  0  0  0  0  0  0  0  0  # atno 6907 bound_to 6896
  151.0193  134.9457  159.8061 H   0  0  0  0  0  0  0  0  0  0  0  0  # atno 6908 bound_to 6896
  152.5320  134.2976  159.9119 H   0  0  0  0  0  0  0  0  0  0  0  0  # atno 6909 bound_to 6896
  145.9009  139.3580  143.0593 H   0  0  0  0  0  0  0  0  0  0  0  0  # atno 7974 bound_to 7965
  155.5466  140.3485  155.4459 H   0  0  0  0  0  0  0  0  0  0  0  0  # atno 8008 bound_to 7997
  156.0613  140.1341  156.9963 H   0  0  0  0  0  0  0  0  0  0  0  0  # atno 8009 bound_to 7997
  154.4481  140.0984  156.6506 H   0  0  0  0  0  0  0  0  0  0  0  0  # atno 8010 bound_to 7997
  139.4976  144.6057  151.6383 H   0  0  0  0  0  0  0  0  0  0  0  0  # atno 10167 bound_to 10162
  157.6385  130.9463  150.0613 H   0  0  0  0  0  0  0  0  0  0  0  0  # atno 10718 bound_to 10713
  154.6644  135.2929  154.9825 H   0  0  0  0  0  0  0  0  0  0  0  0  # atno 10763 bound_to 10752
  154.0873  135.6596  153.4851 H   0  0  0  0  0  0  0  0  0  0  0  0  # atno 10764 bound_to 10752
  153.0448  135.5211  154.7610 H   0  0  0  0  0  0  0  0  0  0  0  0  # atno 10765 bound_to 10752
  140.3285  134.2464  155.7706 H   0  0  0  0  0  0  0  0  0  0  0  0  # atno 11005 bound_to 11000
  145.8792  140.9373  143.0610 LP  0  0  0  0  0  0  0  0  0  0  0  0  # atno 17320 bound_to 7965
  144.6736  140.0757  143.7471 LP  0  0  0  0  0  0  0  0  0  0  0  0  # atno 17321 bound_to 7965
  140.5718  144.0095  150.6221 LP  0  0  0  0  0  0  0  0  0  0  0  0  # atno 17342 bound_to 10162
  140.3215  143.3134  152.0779 LP  0  0  0  0  0  0  0  0  0  0  0  0  # atno 17343 bound_to 10162
  156.1645  130.3644  149.9252 LP  0  0  0  0  0  0  0  0  0  0  0  0  # atno 17370 bound_to 10713
  156.7242  130.9018  151.3620 LP  0  0  0  0  0  0  0  0  0  0  0  0  # atno 17371 bound_to 10713
  141.2069  133.7820  157.0149 LP  0  0  0  0  0  0  0  0  0  0  0  0  # atno 17394 bound_to 11000
  140.0881  134.9609  157.1732 LP  0  0  0  0  0  0  0  0  0  0  0  0  # atno 17395 bound_to 11000

$$$$
