AV-unprocessed.smi:2855|AV-procd|sdf|10987|dock9
  -GOLD-   2272015443D 1   1.00000     0.00000
 Structure written by MMmdl.
 46 47  0  0  0  0  0  0  0  0  2 V2000
  152.8215  144.7317  158.3050 C   0  0  0  0  0  0  0  0  0  0  0  0
  151.6958  144.1144  159.1540 C   0  0  2  0  0  0  0  0  0  0  0  0
  152.2271  143.1770  160.2541 C   0  0  0  0  0  0  0  0  0  0  0  0
  152.7371  141.8389  159.6932 C   0  0  0  0  0  0  0  0  0  0  0  0
  151.6569  141.1120  158.8575 C   0  0  2  0  0  0  0  0  0  0  0  0
  152.1069  139.7079  158.3516 C   0  0  0  0  0  0  0  0  0  0  0  0
  150.9193  138.7626  158.1021 C   0  0  0  0  0  0  0  0  0  0  0  0
  153.1669  139.0282  159.2381 C   0  0  0  0  0  0  0  0  0  0  0  0
  151.1393  142.0492  157.7319 C   0  0  1  0  0  0  0  0  0  0  0  0
  150.0568  141.4116  156.9857 N   0  0  0  0  0  0  0  0  0  0  0  0
  150.1986  140.6765  155.8725 C   0  0  0  0  0  0  0  0  0  0  0  0
  151.2752  140.5094  155.2984 O   0  0  0  0  0  0  0  0  0  0  0  0
  148.9184  140.0451  155.3130 C   0  0  0  0  0  0  0  0  0  0  0  0
  147.8546  141.0402  155.1078 N   0  0  0  0  0  0  0  0  0  0  0  0
  147.5375  141.3991  153.7860 C   0  0  0  0  0  0  0  0  0  0  0  0
  146.5734  142.2964  153.5056 C   0  0  0  0  0  0  0  0  0  0  0  0
  145.8489  142.9014  154.6164 C   0  0  0  0  0  0  0  0  0  0  0  0
  144.9684  143.7259  154.3793 O   0  0  0  0  0  0  0  0  0  0  0  0
  146.1899  142.5166  155.8810 N   0  5  0  0  0  0  0  0  0  0  0  0
  147.1719  141.6018  156.1514 C   0  0  0  0  0  0  0  0  0  0  0  0
  147.4633  141.2680  157.3008 O   0  0  0  0  0  0  0  0  0  0  0  0
  150.6362  143.3919  158.3004 C   0  0  0  0  0  0  0  0  0  0  0  0
  153.3904  143.9770  157.7627 H   0  0  0  0  0  0  0  0  0  0  0  0
  153.5225  145.2852  158.9302 H   0  0  0  0  0  0  0  0  0  0  0  0
  152.4180  145.4293  157.5707 H   0  0  0  0  0  0  0  0  0  0  0  0
  151.1977  144.9479  159.6508 H   0  0  0  0  0  0  0  0  0  0  0  0
  153.0187  143.6704  160.8190 H   0  0  0  0  0  0  0  0  0  0  0  0
  151.4275  142.9770  160.9687 H   0  0  0  0  0  0  0  0  0  0  0  0
  153.6269  142.0154  159.0892 H   0  0  0  0  0  0  0  0  0  0  0  0
  153.0561  141.2167  160.5285 H   0  0  0  0  0  0  0  0  0  0  0  0
  150.8119  140.9375  159.5262 H   0  0  0  0  0  0  0  0  0  0  0  0
  152.5673  139.8448  157.3729 H   0  0  0  0  0  0  0  0  0  0  0  0
  150.4385  138.4576  159.0313 H   0  0  0  0  0  0  0  0  0  0  0  0
  151.2476  137.8549  157.5948 H   0  0  0  0  0  0  0  0  0  0  0  0
  150.1651  139.2328  157.4708 H   0  0  0  0  0  0  0  0  0  0  0  0
  152.7883  138.8216  160.2388 H   0  0  0  0  0  0  0  0  0  0  0  0
  154.0647  139.6379  159.3354 H   0  0  0  0  0  0  0  0  0  0  0  0
  153.4776  138.0767  158.8057 H   0  0  0  0  0  0  0  0  0  0  0  0
  151.9702  142.2624  157.0593 H   0  0  0  0  0  0  0  0  0  0  0  0
  149.1298  141.4910  157.3776 H   0  0  0  0  0  0  0  0  0  0  0  0
  149.1292  139.5242  154.3769 H   0  0  0  0  0  0  0  0  0  0  0  0
  148.5915  139.2688  156.0057 H   0  0  0  0  0  0  0  0  0  0  0  0
  148.1156  140.9005  153.0220 H   0  0  0  0  0  0  0  0  0  0  0  0
  146.3400  142.5591  152.4844 H   0  0  0  0  0  0  0  0  0  0  0  0
  149.7537  143.2107  158.9161 H   0  0  0  0  0  0  0  0  0  0  0  0
  150.3074  144.0431  157.4894 H   0  0  0  0  0  0  0  0  0  0  0  0
  1  2  1  0  0  0  0
  1 23  1  0  0  0  0
  1 24  1  0  0  0  0
  1 25  1  0  0  0  0
  2 22  1  0  0  0  0
  2  3  1  0  0  0  0
  2 26  1  0  0  0  0
  3  4  1  0  0  0  0
  3 27  1  0  0  0  0
  3 28  1  0  0  0  0
  4  5  1  0  0  0  0
  4 29  1  0  0  0  0
  4 30  1  0  0  0  0
  5  6  1  0  0  0  0
  5  9  1  0  0  0  0
  5 31  1  0  0  0  0
  6  7  1  0  0  0  0
  6  8  1  0  0  0  0
  6 32  1  0  0  0  0
  7 33  1  0  0  0  0
  7 34  1  0  0  0  0
  7 35  1  0  0  0  0
  8 36  1  0  0  0  0
  8 37  1  0  0  0  0
  8 38  1  0  0  0  0
  9 10  1  0  0  0  0
  9 22  1  0  0  0  0
  9 39  1  0  0  0  0
 10 11  1  0  0  0  0
 10 40  1  0  0  0  0
 11 12  2  0  0  0  0
 11 13  1  0  0  0  0
 13 14  1  0  0  0  0
 13 41  1  0  0  0  0
 13 42  1  0  0  0  0
 14 20  1  0  0  0  0
 14 15  1  0  0  0  0
 15 16  2  0  0  0  0
 15 43  1  0  0  0  0
 16 17  1  0  0  0  0
 16 44  1  0  0  0  0
 17 18  2  0  0  0  0
 17 19  1  0  0  0  0
 19 20  1  0  0  0  0
 20 21  2  0  0  0  0
 22 45  1  0  0  0  0
 22 46  1  0  0  0  0
M  CHG  1  19  -1
M  END
> <s_m_source_file>
AV-unprocessed.smi

> <i_m_source_file_index>
2855

> <i_lp_mmshare_version>
43012

> <i_f3d_flags>
0

> <s_epik_input>
W0NIM11bQ0BASF0xW0NIMl1bQ0gyXVtDQEBIXShbQ0hdKFtDSDNdKVtDSDNdKVtDQEhdKFtDSDJdMSlbTkhdQyg9TylbQ0gyXW4yW2NIXVtjSF1jKD1PKVtuSF1jMj1P

> <s_epik_cmdline>
J2VwaWtfcHl0aG9uJywgJy1waCcsICc3LjAnLCAnLXRuJywgJzgnLCAnLW1hJywgJzIwMCcsICctbWV0YWxfYmluZGluZycsICctaW1hZScsICc8aW5maWxlLm1hZT4nLCAnLW9tYWUnLCAnPG91dGZpbGUubWFlPic=

> <r_lp_tautomer_probability>
0.999537

> <r_epik_Ionization_Penalty>
3.12102

> <r_epik_Ionization_Penalty_Charging>
2.9581e-08

> <r_epik_Ionization_Penalty_Neutral>
3.12102

> <r_epik_State_Penalty>
3.12011

> <r_epik_Charging_Adjusted_Penalty>
3.12011

> <i_epik_Tot_Q>
-1

> <i_epik_Tot_abs_Q>
1

> <r_epik_Metal_State_Penalty>
0.463583

> <b_epik_Metal_Only>
1

> <s_lp_Force_Field>
OPLS_2005

> <r_lp_Energy>
25.3875

> <b_lp_Chiralities_Consistent>
1

> <s_lp_Variant>
AV-unprocessed.smi:2855-11

> <Gold.Version>
5.8.1

> <Gold.Id.Protein>
6NUR|6NUR_protein|mol2

> <Gold.PLP.Fitness>
45.6617

> <Gold.PLP.PLP>
-42.1526

> <Gold.PLP.part.hbond>
-1.0000

> <Gold.PLP.part.metal>
0.0000

> <Gold.PLP.part.buried>
-8.2235

> <Gold.PLP.part.nonpolar>
-33.8657

> <Gold.PLP.part.repulsive>
0.4669

> <Gold.PLP.ligand.clash>
0.0000

> <Gold.PLP.ligand.torsion>
1.1423

> <Gold.PLP.Chemscore.Hbond>
0.9120

> <Gold.PLP.Chemscore.CHOScore>
1.0000

> <Gold.PLP.Chemscore.Metal>
0.0000

> <Gold.Chemscore.Hbonds>
donor molecule, donor type, donor heavy atom, donor atom, acceptor molecule, acceptor atom, score
      P1  H  7989  7998       L1    12  0.91
      L1  C    15    43       P1  7957  1.00

> <Gold.PLP.Chemscore.Internal.Correction>
0.0576

> <Gold.Rescore>
     Score         DG    S(hbond)    S(metal)    S(lipo)     H(rot)  DE(clash)    DE(int)     intcor
     14.92     -16.47       0.92        0.00     107.29       1.81       0.01       1.54       ----

> <Gold.Chemscore.Fitness>
14.9159

> <Gold.Chemscore.DG>
-16.4651

> <Gold.Chemscore.ZeroCoef>
-5.4800

> <Gold.Chemscore.Hbond>
0.9178

> <Gold.Chemscore.Metal>
0.0000

> <Gold.Chemscore.Lipo>
107.2928

> <Gold.Chemscore.Internal_Hbond>
0.0000

> <Gold.Chemscore.DEClash>
0.0075

> <Gold.Chemscore.DEInternal>
1.5417

> <Gold.Chemscore.Rot>
1.8100

> <Gold.Chemscore.Internal.Correction>
   9.000000E+99

> <Gold.Chemscore.Hbonds>
donor molecule, donor type, donor heavy atom, donor atom, acceptor molecule, acceptor atom, score
      P1  H  7989  7998       L1    12  0.88

> <Gold.Chemscore.Hbond.Weighted>
-3.0653

> <Gold.Chemscore.Metal.Weighted>
-0.0000

> <Gold.Chemscore.Lipo.Weighted>
-12.5533

> <Gold.Chemscore.Internal_Hbond.Weighted>
0.0000

> <Gold.Chemscore.DEClash.Weighted>
0.0075

> <Gold.Chemscore.DEInternal.Weighted>
1.5417

> <Gold.Chemscore.Rot.Weighted>
4.6335

> <Gold.Chemscore.Internal.Correction.Weighted>
   9.000000E+99

> <Gold.Protein.RotatedTorsions>
[ 6907 6896 6895 6894 ] final  158.14 input  -60.11 | X-H torsion
[ 7974 7965 7964 7962 ] final  162.84 input  175.53 | X-H torsion
[ 8008 7997 7996 7995 ] final -169.82 input   59.86 | X-H torsion
[ 10167 10162 10161 10158 ] final  -50.42 input  -65.29 | X-H torsion
[ 10718 10713 10712 10709 ] final   30.95 input   66.30 | X-H torsion
[ 10763 10752 10751 10750 ] final   50.90 input  -60.55 | X-H torsion
[ 11005 11000 10999 10996 ] final -147.07 input  -57.11 | X-H torsion

> <Gold.Protein.ActiveResidues>
 VAL166  LYS551  ARG553  GLY616  TRP617  ASP618  TYR619  PRO620  LYS621  CYS622 
 ASP623  PHE694  ASN695  SER759  ASP760  ASP761  ALA762  ILE779  LEU786  VAL792 
 PHE793  MET794  SER795  GLU796  ALA797  LYS798  CYS799  TRP800  GLU811  SER814 

> <Gold.Protein.RotatedAtoms>
  152.0048  133.3839  159.4195 H   0  0  0  0  0  0  0  0  0  0  0  0  # atno 6907 bound_to 6896
  150.6906  134.3795  159.5037 H   0  0  0  0  0  0  0  0  0  0  0  0  # atno 6908 bound_to 6896
  152.1547  134.8960  160.0596 H   0  0  0  0  0  0  0  0  0  0  0  0  # atno 6909 bound_to 6896
  144.7618  139.8097  143.6330 H   0  0  0  0  0  0  0  0  0  0  0  0  # atno 7974 bound_to 7965
  155.9101  140.1056  157.1285 H   0  0  0  0  0  0  0  0  0  0  0  0  # atno 8008 bound_to 7997
  154.4038  140.1276  156.4611 H   0  0  0  0  0  0  0  0  0  0  0  0  # atno 8009 bound_to 7997
  155.7320  140.3468  155.5066 H   0  0  0  0  0  0  0  0  0  0  0  0  # atno 8010 bound_to 7997
  140.6638  143.2658  151.4356 H   0  0  0  0  0  0  0  0  0  0  0  0  # atno 10167 bound_to 10162
  157.2663  130.7186  149.6480 H   0  0  0  0  0  0  0  0  0  0  0  0  # atno 10718 bound_to 10713
  152.9784  135.5863  154.4328 H   0  0  0  0  0  0  0  0  0  0  0  0  # atno 10763 bound_to 10752
  154.3939  135.2768  155.2140 H   0  0  0  0  0  0  0  0  0  0  0  0  # atno 10764 bound_to 10752
  154.4000  135.6106  153.5946 H   0  0  0  0  0  0  0  0  0  0  0  0  # atno 10765 bound_to 10752
  140.7755  134.3140  157.5062 H   0  0  0  0  0  0  0  0  0  0  0  0  # atno 11005 bound_to 11000
  146.1687  139.4829  142.9941 LP  0  0  0  0  0  0  0  0  0  0  0  0  # atno 17320 bound_to 7965
  145.6597  141.0243  143.1716 LP  0  0  0  0  0  0  0  0  0  0  0  0  # atno 17321 bound_to 7965
  139.5880  144.1561  152.2053 LP  0  0  0  0  0  0  0  0  0  0  0  0  # atno 17342 bound_to 10162
  140.0906  144.5623  150.7057 LP  0  0  0  0  0  0  0  0  0  0  0  0  # atno 17343 bound_to 10162
  155.9663  130.4382  150.5206 LP  0  0  0  0  0  0  0  0  0  0  0  0  # atno 17370 bound_to 10713
  157.3121  131.0665  151.1993 LP  0  0  0  0  0  0  0  0  0  0  0  0  # atno 17371 bound_to 10713
  139.8749  134.9287  156.3456 LP  0  0  0  0  0  0  0  0  0  0  0  0  # atno 17394 bound_to 11000
  140.9533  133.7436  156.0301 LP  0  0  0  0  0  0  0  0  0  0  0  0  # atno 17395 bound_to 11000

$$$$
