AV-unprocessed.smi:39|AV-procd|sdf|361|dock2
  -GOLD-   2262016203D 1   1.00000     0.00000
 Structure written by MMmdl.
 31 32  0  0  0  0  0  0  0  0  4 V2000
  151.3428  144.8238  158.2742 C   0  0  0  0  0  0  0  0  0  0  0  0
  151.6083  143.3307  158.1931 C   0  0  0  0  0  0  0  0  0  0  0  0
  151.1540  142.5713  157.1718 C   0  0  0  0  0  0  0  0  0  0  0  0
  151.3966  141.2103  157.0942 N   0  0  0  0  0  0  0  0  0  0  0  0
  150.9379  140.4249  155.8814 C   0  0  1  0  0  0  0  0  0  0  0  0
  149.8154  139.4217  156.1702 C   0  0  0  0  0  0  0  0  0  0  0  0
  149.1838  139.3315  154.7925 C   0  0  1  0  0  0  0  0  0  0  0  0
  147.8090  138.8204  154.7928 N   0  0  0  0  0  0  0  0  0  0  0  0
  147.2231  138.8110  153.7024 N   0  3  0  0  0  0  0  0  0  0  0  0
  146.6862  138.6779  152.7078 N   0  5  0  0  0  0  0  0  0  0  0  0
  149.3315  140.7742  154.2663 C   0  0  1  0  0  0  0  0  0  0  0  0
  148.1385  141.7442  154.4244 C   0  0  0  0  0  0  0  0  0  0  0  0
  148.3489  142.9949  153.8016 O   0  0  0  0  0  0  0  0  0  0  0  0
  150.4709  141.3269  154.9255 O   0  0  0  0  0  0  0  0  0  0  0  0
  152.2380  140.6026  158.0671 C   0  0  0  0  0  0  0  0  0  0  0  0
  152.5281  139.4133  157.9369 O   0  0  0  0  0  0  0  0  0  0  0  0
  152.6863  141.3564  159.1117 N   0  5  0  0  0  0  0  0  0  0  0  0
  152.4021  142.6834  159.2426 C   0  0  0  0  0  0  0  0  0  0  0  0
  152.7943  143.3455  160.2033 O   0  0  0  0  0  0  0  0  0  0  0  0
  151.7997  139.9028  155.4671 H   0  0  0  0  0  0  0  0  0  0  0  0
  149.8191  138.6921  154.1753 H   0  0  0  0  0  0  0  0  0  0  0  0
  149.5705  140.7293  153.2030 H   0  0  0  0  0  0  0  0  0  0  0  0
  150.7463  145.1667  157.4283 H   0  0  0  0  0  0  0  0  0  0  0  0
  152.2818  145.3778  158.2719 H   0  0  0  0  0  0  0  0  0  0  0  0
  150.8011  145.0652  159.1893 H   0  0  0  0  0  0  0  0  0  0  0  0
  150.5999  143.0565  156.3849 H   0  0  0  0  0  0  0  0  0  0  0  0
  150.2201  138.4761  156.5315 H   0  0  0  0  0  0  0  0  0  0  0  0
  149.1029  139.8016  156.8995 H   0  0  0  0  0  0  0  0  0  0  0  0
  147.2300  141.2935  154.0245 H   0  0  0  0  0  0  0  0  0  0  0  0
  147.9563  141.9301  155.4830 H   0  0  0  0  0  0  0  0  0  0  0  0
  148.9215  143.5102  154.3486 H   0  0  0  0  0  0  0  0  0  0  0  0
  1  2  1  0  0  0  0
  1 23  1  0  0  0  0
  1 24  1  0  0  0  0
  1 25  1  0  0  0  0
  2 18  1  0  0  0  0
  2  3  2  0  0  0  0
  3  4  1  0  0  0  0
  3 26  1  0  0  0  0
  4  5  1  0  0  0  0
  4 15  1  0  0  0  0
  5 20  1  0  0  0  0
  5 14  1  0  0  0  0
  5  6  1  0  0  0  0
  6  7  1  0  0  0  0
  6 27  1  0  0  0  0
  6 28  1  0  0  0  0
  7 21  1  0  0  0  0
  7  8  1  0  0  0  0
  7 11  1  0  0  0  0
  8  9  2  0  0  0  0
  9 10  2  0  0  0  0
 11 22  1  0  0  0  0
 11 12  1  0  0  0  0
 11 14  1  0  0  0  0
 12 13  1  0  0  0  0
 12 29  1  0  0  0  0
 12 30  1  0  0  0  0
 13 31  1  0  0  0  0
 15 16  2  0  0  0  0
 15 17  1  0  0  0  0
 17 18  1  0  0  0  0
 18 19  2  0  0  0  0
M  CHG  1   9   1
M  CHG  1  10  -1
M  CHG  1  17  -1
M  END
> <s_m_source_file>
AV-unprocessed.smi

> <i_m_source_file_index>
39

> <i_lp_mmshare_version>
43012

> <i_f3d_flags>
0

> <s_epik_input>
Tz1jMVtuSF1jKD1PKW4oW2NIXWMxW0NIM10pW0NASF0yW0NIMl1bQ0BIXShOPVtOK109W04tXSlbQ0BIXShPMilbQ0gyXVtPSF0=

> <s_epik_cmdline>
J2VwaWtfcHl0aG9uJywgJy1waCcsICc3LjAnLCAnLXRuJywgJzgnLCAnLW1hJywgJzIwMCcsICctbWV0YWxfYmluZGluZycsICctaW1hZScsICc8aW5maWxlLm1hZT4nLCAnLW9tYWUnLCAnPG91dGZpbGUubWFlPic=

> <r_lp_tautomer_probability>
0.999537

> <r_epik_Ionization_Penalty>
3.6393

> <r_epik_Ionization_Penalty_Charging>
9.76484e-08

> <r_epik_Ionization_Penalty_Neutral>
3.6393

> <r_epik_State_Penalty>
3.63887

> <r_epik_Charging_Adjusted_Penalty>
3.63887

> <i_epik_Tot_Q>
-1

> <i_epik_Tot_abs_Q>
3

> <r_epik_Metal_State_Penalty>
0.225911

> <b_epik_Metal_Only>
1

> <s_epik_Chemistry_Notes>
This compound contains an acetal/aminal-like group ( X-CH(R)-Y where X, Y are N, S, or O) that may be acid/base labile, releasing an aldehyde.

> <s_lp_Force_Field>
OPLS_2005

> <r_lp_Energy>
41.1751

> <b_lp_Chiralities_Consistent>
1

> <s_lp_Variant>
AV-unprocessed.smi:39-11

> <Gold.Version>
5.8.1

> <Gold.Id.Protein>
6NUR|6NUR_protein|mol2

> <Gold.PLP.Fitness>
39.3337

> <Gold.PLP.PLP>
-30.5828

> <Gold.PLP.part.hbond>
-5.0000

> <Gold.PLP.part.metal>
0.0000

> <Gold.PLP.part.buried>
-2.3096

> <Gold.PLP.part.nonpolar>
-23.8504

> <Gold.PLP.part.repulsive>
0.6993

> <Gold.PLP.ligand.clash>
0.0000

> <Gold.PLP.ligand.torsion>
0.3059

> <Gold.PLP.Chemscore.Hbond>
2.0910

> <Gold.PLP.Chemscore.CHOScore>
1.0000

> <Gold.PLP.Chemscore.Metal>
0.0000

> <Gold.Chemscore.Hbonds>
donor molecule, donor type, donor heavy atom, donor atom, acceptor molecule, acceptor atom, score
      L1  H    13    31       P1  8028  0.82
      P1  H  7989  7998       L1    14  0.33
      P1  H  7997  8008       L1    16  0.10
      L1  C     3    26       P1  8028  1.00

> <Gold.PLP.Chemscore.Internal.Correction>
0.0899

> <Gold.Rescore>
     Score         DG    S(hbond)    S(metal)    S(lipo)     H(rot)  DE(clash)    DE(int)     intcor
     10.14     -10.72       1.80        0.00      52.70       2.72       0.37       0.21       ----

> <Gold.Chemscore.Fitness>
10.1357

> <Gold.Chemscore.DG>
-10.7166

> <Gold.Chemscore.ZeroCoef>
-5.4800

> <Gold.Chemscore.Hbond>
1.8029

> <Gold.Chemscore.Metal>
0.0000

> <Gold.Chemscore.Lipo>
52.7010

> <Gold.Chemscore.Internal_Hbond>
0.0000

> <Gold.Chemscore.DEClash>
0.3740

> <Gold.Chemscore.DEInternal>
0.2070

> <Gold.Chemscore.Rot>
2.7153

> <Gold.Chemscore.Internal.Correction>
   9.000000E+99

> <Gold.Chemscore.Hbonds>
donor molecule, donor type, donor heavy atom, donor atom, acceptor molecule, acceptor atom, score
      L1  H    13    31       P1  8028  0.81
      P1  H  7989  7998       L1    14  0.01

> <Gold.Chemscore.Hbond.Weighted>
-6.0218

> <Gold.Chemscore.Metal.Weighted>
-0.0000

> <Gold.Chemscore.Lipo.Weighted>
-6.1660

> <Gold.Chemscore.Internal_Hbond.Weighted>
0.0000

> <Gold.Chemscore.DEClash.Weighted>
0.3740

> <Gold.Chemscore.DEInternal.Weighted>
0.2070

> <Gold.Chemscore.Rot.Weighted>
6.9512

> <Gold.Chemscore.Internal.Correction.Weighted>
   9.000000E+99

> <Gold.Protein.RotatedTorsions>
[ 6907 6896 6895 6894 ] final    0.03 input  -60.11 | X-H torsion
[ 7974 7965 7964 7962 ] final  126.21 input  175.53 | X-H torsion
[ 8008 7997 7996 7995 ] final  -88.53 input   59.86 | X-H torsion
[ 10167 10162 10161 10158 ] final   -9.90 input  -65.29 | X-H torsion
[ 10718 10713 10712 10709 ] final -171.48 input   66.30 | X-H torsion
[ 10763 10752 10751 10750 ] final  172.46 input  -60.55 | X-H torsion
[ 11005 11000 10999 10996 ] final  126.23 input  -57.11 | X-H torsion

> <Gold.Protein.ActiveResidues>
 VAL166  LYS551  ARG553  GLY616  TRP617  ASP618  TYR619  PRO620  LYS621  CYS622 
 ASP623  PHE694  ASN695  SER759  ASP760  ASP761  ALA762  ILE779  LEU786  VAL792 
 PHE793  MET794  SER795  GLU796  ALA797  LYS798  CYS799  TRP800  GLU811  SER814 

> <Gold.Protein.RotatedAtoms>
  151.5699  135.1063  159.9992 H   0  0  0  0  0  0  0  0  0  0  0  0  # atno 6907 bound_to 6896
  152.4406  133.7437  159.6665 H   0  0  0  0  0  0  0  0  0  0  0  0  # atno 6908 bound_to 6896
  150.8311  133.8021  159.3122 H   0  0  0  0  0  0  0  0  0  0  0  0  # atno 6909 bound_to 6896
  145.0643  139.3780  143.4990 H   0  0  0  0  0  0  0  0  0  0  0  0  # atno 7974 bound_to 7965
  154.6759  140.0552  157.0215 H   0  0  0  0  0  0  0  0  0  0  0  0  # atno 8008 bound_to 7997
  155.1021  140.3230  155.4525 H   0  0  0  0  0  0  0  0  0  0  0  0  # atno 8009 bound_to 7997
  156.2676  140.2029  156.6146 H   0  0  0  0  0  0  0  0  0  0  0  0  # atno 8010 bound_to 7997
  140.7100  143.5807  150.8995 H   0  0  0  0  0  0  0  0  0  0  0  0  # atno 10167 bound_to 10162
  156.7415  130.9344  151.3110 H   0  0  0  0  0  0  0  0  0  0  0  0  # atno 10718 bound_to 10713
  154.4264  135.2759  155.1942 H   0  0  0  0  0  0  0  0  0  0  0  0  # atno 10763 bound_to 10752
  154.3866  135.6075  153.5823 H   0  0  0  0  0  0  0  0  0  0  0  0  # atno 10764 bound_to 10752
  152.9834  135.5893  154.4568 H   0  0  0  0  0  0  0  0  0  0  0  0  # atno 10765 bound_to 10752
  139.9445  134.9631  156.8676 H   0  0  0  0  0  0  0  0  0  0  0  0  # atno 11005 bound_to 11000
  146.3526  140.0356  142.8647 LP  0  0  0  0  0  0  0  0  0  0  0  0  # atno 17320 bound_to 7965
  145.1371  140.9550  143.4510 LP  0  0  0  0  0  0  0  0  0  0  0  0  # atno 17321 bound_to 7965
  139.9533  143.6247  152.3023 LP  0  0  0  0  0  0  0  0  0  0  0  0  # atno 17342 bound_to 10162
  139.6774  144.7658  151.1671 LP  0  0  0  0  0  0  0  0  0  0  0  0  # atno 17343 bound_to 10162
  157.6816  130.9146  150.0282 LP  0  0  0  0  0  0  0  0  0  0  0  0  # atno 17370 bound_to 10713
  156.1461  130.3642  149.9508 LP  0  0  0  0  0  0  0  0  0  0  0  0  # atno 17371 bound_to 10713
  140.5868  134.0300  155.7484 LP  0  0  0  0  0  0  0  0  0  0  0  0  # atno 17394 bound_to 11000
  141.1092  133.9645  157.2942 LP  0  0  0  0  0  0  0  0  0  0  0  0  # atno 17395 bound_to 11000

$$$$
