AV-unprocessed.smi:686|AV-procd|sdf|3342|dock10
  -GOLD-   22720 0313D 1   1.00000     0.00000
 Structure written by MMmdl.
 41 42  0  0  0  0  0  0  0  0  2 V2000
  149.7206  132.1212  154.9343 C   0  0  0  0  0  0  0  0  0  0  0  0
  149.2022  133.2494  154.0323 C   0  0  1  0  0  0  0  0  0  0  0  0
  148.1662  132.7850  153.0066 C   0  0  0  0  0  0  0  0  0  0  0  0
  147.3754  133.9899  152.6865 N   0  3  1  0  0  0  0  0  0  0  0  0
  146.0926  133.7418  151.9692 C   0  0  0  0  0  0  0  0  0  0  0  0
  146.2798  132.7610  150.7964 C   0  0  0  0  0  0  0  0  0  0  0  0
  145.4784  135.0557  151.4504 C   0  0  0  0  0  0  0  0  0  0  0  0
  147.2457  134.7164  153.9684 C   0  0  0  0  0  0  0  0  0  0  0  0
  148.5054  134.3921  154.7934 C   0  0  2  0  0  0  0  0  0  0  0  0
  149.4001  135.5511  154.8983 N   0  0  0  0  0  0  0  0  0  0  0  0
  150.2954  135.8496  156.3464 S   0  0  0  0  0  0  0  0  0  0  0  0
  149.9289  134.8210  157.3327 O   0  0  0  0  0  0  0  0  0  0  0  0
  151.7017  136.0411  155.9615 O   0  0  0  0  0  0  0  0  0  0  0  0
  149.6251  137.4752  156.9025 C   0  0  0  0  0  0  0  0  0  0  0  0
  149.8883  138.5130  155.8497 C   0  0  0  0  0  0  0  0  0  0  0  0
  148.9658  139.1166  154.9512 C   0  0  0  0  0  0  0  0  0  0  0  0
  149.7426  139.9726  154.2252 C   0  0  0  0  0  0  0  0  0  0  0  0
  151.0337  139.9095  154.6386 O   0  0  0  0  0  0  0  0  0  0  0  0
  151.1167  138.9753  155.6774 N   0  0  0  0  0  0  0  0  0  0  0  0
  148.9130  131.6689  155.5108 H   0  0  0  0  0  0  0  0  0  0  0  0
  150.4635  132.4957  155.6391 H   0  0  0  0  0  0  0  0  0  0  0  0
  150.1903  131.3334  154.3445 H   0  0  0  0  0  0  0  0  0  0  0  0
  150.0473  133.6544  153.4720 H   0  0  0  0  0  0  0  0  0  0  0  0
  148.6402  132.3567  152.1228 H   0  0  0  0  0  0  0  0  0  0  0  0
  147.5118  132.0279  153.4428 H   0  0  0  0  0  0  0  0  0  0  0  0
  145.3890  133.2942  152.6731 H   0  0  0  0  0  0  0  0  0  0  0  0
  145.3460  132.6241  150.2502 H   0  0  0  0  0  0  0  0  0  0  0  0
  146.5910  131.7728  151.1350 H   0  0  0  0  0  0  0  0  0  0  0  0
  147.0254  133.1251  150.0884 H   0  0  0  0  0  0  0  0  0  0  0  0
  144.5643  134.8647  150.8872 H   0  0  0  0  0  0  0  0  0  0  0  0
  146.1685  135.5820  150.7897 H   0  0  0  0  0  0  0  0  0  0  0  0
  145.2112  135.7312  152.2631 H   0  0  0  0  0  0  0  0  0  0  0  0
  147.1027  135.7834  153.8005 H   0  0  0  0  0  0  0  0  0  0  0  0
  146.3679  134.3523  154.5051 H   0  0  0  0  0  0  0  0  0  0  0  0
  148.2195  134.0736  155.7971 H   0  0  0  0  0  0  0  0  0  0  0  0
  149.9260  135.7593  154.0492 H   0  0  0  0  0  0  0  0  0  0  0  0
  148.5579  137.3639  157.0935 H   0  0  0  0  0  0  0  0  0  0  0  0
  150.1016  137.7460  157.8441 H   0  0  0  0  0  0  0  0  0  0  0  0
  147.9041  138.9454  154.8518 H   0  0  0  0  0  0  0  0  0  0  0  0
  149.5352  140.6614  153.4196 H   0  0  0  0  0  0  0  0  0  0  0  0
  147.9550  134.5614  152.0886 H   0  0  0  0  0  0  0  0  0  0  0  0
  1  2  1  0  0  0  0
  1 20  1  0  0  0  0
  1 21  1  0  0  0  0
  1 22  1  0  0  0  0
  2  9  1  0  0  0  0
  2  3  1  0  0  0  0
  2 23  1  0  0  0  0
  3  4  1  0  0  0  0
  3 24  1  0  0  0  0
  3 25  1  0  0  0  0
  4  5  1  0  0  0  0
  4  8  1  0  0  0  0
  4 41  1  0  0  0  0
  5  6  1  0  0  0  0
  5  7  1  0  0  0  0
  5 26  1  0  0  0  0
  6 27  1  0  0  0  0
  6 28  1  0  0  0  0
  6 29  1  0  0  0  0
  7 30  1  0  0  0  0
  7 31  1  0  0  0  0
  7 32  1  0  0  0  0
  8  9  1  0  0  0  0
  8 33  1  0  0  0  0
  8 34  1  0  0  0  0
  9 10  1  0  0  0  0
  9 35  1  0  0  0  0
 10 11  1  0  0  0  0
 10 36  1  0  0  0  0
 11 12  2  0  0  0  0
 11 13  2  0  0  0  0
 11 14  1  0  0  0  0
 14 15  1  0  0  0  0
 14 37  1  0  0  0  0
 14 38  1  0  0  0  0
 15 19  2  0  0  0  0
 15 16  1  0  0  0  0
 16 17  2  0  0  0  0
 16 39  1  0  0  0  0
 17 18  1  0  0  0  0
 17 40  1  0  0  0  0
 18 19  1  0  0  0  0
M  CHG  1   4   1
M  END
> <s_m_source_file>
AV-unprocessed.smi

> <i_m_source_file_index>
686

> <i_lp_mmshare_version>
43012

> <i_f3d_flags>
0

> <s_epik_input>
W0NIM11bQ0BASF0xW0NIMl1OKFtDSF0oW0NIM10pW0NIM10pW0NIMl1bQ0BIXTFbTkhdUyg9TykoPU8pW0NIMl1jMltjSF1bY0hdb24y

> <s_epik_cmdline>
J2VwaWtfcHl0aG9uJywgJy1waCcsICc3LjAnLCAnLXRuJywgJzgnLCAnLW1hJywgJzIwMCcsICctbWV0YWxfYmluZGluZycsICctaW1hZScsICc8aW5maWxlLm1hZT4nLCAnLW9tYWUnLCAnPG91dGZpbGUubWFlPic=

> <r_epik_Ionization_Penalty>
0.00200818

> <r_epik_Ionization_Penalty_Charging>
0.000701289

> <r_epik_Ionization_Penalty_Neutral>
0.00130689

> <r_epik_State_Penalty>
0.00131314

> <r_epik_Charging_Adjusted_Penalty>
0.00201443

> <i_epik_Tot_Q>
1

> <i_epik_Tot_abs_Q>
1

> <r_epik_Metal_State_Penalty>
0.310831

> <b_epik_Metal_Only>
0

> <s_lp_Force_Field>
OPLS_2005

> <r_lp_Energy>
19.8293

> <b_lp_Chiralities_Consistent>
1

> <s_lp_Variant>
AV-unprocessed.smi:686-6

> <Gold.Version>
5.8.1

> <Gold.Id.Protein>
6NUR|6NUR_protein|mol2

> <Gold.PLP.Fitness>
41.9258

> <Gold.PLP.PLP>
-27.7116

> <Gold.PLP.part.hbond>
-4.6109

> <Gold.PLP.part.metal>
0.0000

> <Gold.PLP.part.buried>
-3.6205

> <Gold.PLP.part.nonpolar>
-20.3729

> <Gold.PLP.part.repulsive>
0.1064

> <Gold.PLP.ligand.clash>
0.0000

> <Gold.PLP.ligand.torsion>
0.8801

> <Gold.PLP.Chemscore.Hbond>
4.4454

> <Gold.PLP.Chemscore.CHOScore>
0.8244

> <Gold.PLP.Chemscore.Metal>
0.0000

> <Gold.Chemscore.Hbonds>
donor molecule, donor type, donor heavy atom, donor atom, acceptor molecule, acceptor atom, score
      L1  H     4    41       P1  7948  1.98
      L1  H    10    36       P1  7948  0.03
      P1  H  6896  6907       L1    12  0.36
      P1  H  7989  7998       L1    18  0.85
      P1  H 10752 10763       L1    13  1.00
      L1  C    17    40       P1  7957  0.87

> <Gold.PLP.Chemscore.Internal.Correction>
0.1651

> <Gold.Rescore>
     Score         DG    S(hbond)    S(metal)    S(lipo)     H(rot)  DE(clash)    DE(int)     intcor
     16.74     -17.92       3.40        0.00      51.12       1.91       0.00       1.19       ----

> <Gold.Chemscore.Fitness>
16.7381

> <Gold.Chemscore.DG>
-17.9242

> <Gold.Chemscore.ZeroCoef>
-5.4800

> <Gold.Chemscore.Hbond>
3.4003

> <Gold.Chemscore.Metal>
0.0000

> <Gold.Chemscore.Lipo>
51.1178

> <Gold.Chemscore.Internal_Hbond>
0.0000

> <Gold.Chemscore.DEClash>
0.0000

> <Gold.Chemscore.DEInternal>
1.1861

> <Gold.Chemscore.Rot>
1.9115

> <Gold.Chemscore.Internal.Correction>
   9.000000E+99

> <Gold.Chemscore.Hbonds>
donor molecule, donor type, donor heavy atom, donor atom, acceptor molecule, acceptor atom, score
      L1  H     4    41       P1  7948  0.24
      L1  H    10    36       P1  7948  0.01
      P1  H  6896  6907       L1    12  0.35
      P1  H  7989  7998       L1    18  0.14
      P1  H 10752 10763       L1    13  1.00

> <Gold.Chemscore.Hbond.Weighted>
-11.3569

> <Gold.Chemscore.Metal.Weighted>
-0.0000

> <Gold.Chemscore.Lipo.Weighted>
-5.9808

> <Gold.Chemscore.Internal_Hbond.Weighted>
0.0000

> <Gold.Chemscore.DEClash.Weighted>
0.0000

> <Gold.Chemscore.DEInternal.Weighted>
1.1861

> <Gold.Chemscore.Rot.Weighted>
4.8935

> <Gold.Chemscore.Internal.Correction.Weighted>
   9.000000E+99

> <Gold.Protein.RotatedTorsions>
[ 6907 6896 6895 6894 ] final -101.40 input  -60.11 | X-H torsion
[ 7974 7965 7964 7962 ] final -148.14 input  175.53 | X-H torsion
[ 8008 7997 7996 7995 ] final -116.52 input   59.86 | X-H torsion
[ 10167 10162 10161 10158 ] final -115.71 input  -65.29 | X-H torsion
[ 10718 10713 10712 10709 ] final  103.36 input   66.30 | X-H torsion
[ 10763 10752 10751 10750 ] final   83.49 input  -60.55 | X-H torsion
[ 11005 11000 10999 10996 ] final   73.49 input  -57.11 | X-H torsion

> <Gold.Protein.ActiveResidues>
 VAL166  LYS551  ARG553  GLY616  TRP617  ASP618  TYR619  PRO620  LYS621  CYS622 
 ASP623  PHE694  ASN695  SER759  ASP760  ASP761  ALA762  ILE779  LEU786  VAL792 
 PHE793  MET794  SER795  GLU796  ALA797  LYS798  CYS799  TRP800  GLU811  SER814 

> <Gold.Protein.RotatedAtoms>
  150.7153  134.0740  159.3874 H   0  0  0  0  0  0  0  0  0  0  0  0  # atno 6907 bound_to 6896
  151.8722  135.0483  160.0490 H   0  0  0  0  0  0  0  0  0  0  0  0  # atno 6908 bound_to 6896
  152.2634  133.5281  159.5432 H   0  0  0  0  0  0  0  0  0  0  0  0  # atno 6909 bound_to 6896
  144.8048  140.5236  143.5682 H   0  0  0  0  0  0  0  0  0  0  0  0  # atno 7974 bound_to 7965
  155.0691  140.0393  157.2602 H   0  0  0  0  0  0  0  0  0  0  0  0  # atno 8008 bound_to 7997
  154.6997  140.2671  155.6707 H   0  0  0  0  0  0  0  0  0  0  0  0  # atno 8009 bound_to 7997
  156.2756  140.2743  156.1604 H   0  0  0  0  0  0  0  0  0  0  0  0  # atno 8010 bound_to 7997
  140.0871  143.4734  152.1892 H   0  0  0  0  0  0  0  0  0  0  0  0  # atno 10167 bound_to 10162
  157.6775  131.0777  150.5544 H   0  0  0  0  0  0  0  0  0  0  0  0  # atno 10718 bound_to 10713
  153.1295  135.4689  154.9327 H   0  0  0  0  0  0  0  0  0  0  0  0  # atno 10763 bound_to 10752
  154.7651  135.3142  154.8303 H   0  0  0  0  0  0  0  0  0  0  0  0  # atno 10764 bound_to 10752
  153.8849  135.6890  153.4818 H   0  0  0  0  0  0  0  0  0  0  0  0  # atno 10765 bound_to 10752
  139.9437  134.7351  156.1033 H   0  0  0  0  0  0  0  0  0  0  0  0  # atno 11005 bound_to 11000
  145.5464  139.1476  143.3418 LP  0  0  0  0  0  0  0  0  0  0  0  0  # atno 17320 bound_to 7965
  146.2338  140.5603  142.8964 LP  0  0  0  0  0  0  0  0  0  0  0  0  # atno 17321 bound_to 7965
  139.5746  144.7480  151.3800 LP  0  0  0  0  0  0  0  0  0  0  0  0  # atno 17342 bound_to 10162
  140.7048  143.7542  150.7463 LP  0  0  0  0  0  0  0  0  0  0  0  0  # atno 17343 bound_to 10162
  156.5848  130.4313  149.5962 LP  0  0  0  0  0  0  0  0  0  0  0  0  # atno 17370 bound_to 10713
  156.2632  130.6974  151.1749 LP  0  0  0  0  0  0  0  0  0  0  0  0  # atno 17371 bound_to 10713
  141.1081  133.6653  156.2912 LP  0  0  0  0  0  0  0  0  0  0  0  0  # atno 17394 bound_to 11000
  140.5887  134.5673  157.5495 LP  0  0  0  0  0  0  0  0  0  0  0  0  # atno 17395 bound_to 11000

$$$$
