AV-unprocessed.smi:1304|AV-procd|sdf|5430|dock3
  -GOLD-   22720 4593D 1   1.00000     0.00000
 Structure written by MMmdl.
 47 48  0  0  0  0  0  0  0  0  1 V2000
  147.3911  138.5305  154.7105 C   0  0  0  0  0  0  0  0  0  0  0  0
  146.6457  139.8763  154.7045 C   0  0  0  0  0  0  0  0  0  0  0  0
  147.5452  141.1425  154.8941 C   0  0  2  0  0  0  0  0  0  0  0  0
  148.6250  141.0894  153.7805 C   0  0  0  0  0  0  0  0  0  0  0  0
  148.2788  141.0297  156.2697 C   0  0  0  0  0  0  0  0  0  0  0  0
  149.2562  142.0886  156.4868 N   0  0  0  0  0  0  0  0  0  0  0  0
  150.3959  141.9706  157.1844 C   0  0  0  0  0  0  0  0  0  0  0  0
  150.7174  140.9357  157.7665 O   0  0  0  0  0  0  0  0  0  0  0  0
  151.3337  143.1896  157.2371 C   0  0  0  0  0  0  0  0  0  0  0  0
  151.6374  143.6706  158.5980 N   0  0  0  0  0  0  0  0  0  0  0  0
  151.2740  144.9975  158.9034 C   0  0  0  0  0  0  0  0  0  0  0  0
  151.5277  145.5453  160.1023 C   0  0  0  0  0  0  0  0  0  0  0  0
  152.1907  144.7350  161.0963 C   0  0  0  0  0  0  0  0  0  0  0  0
  152.5451  143.4656  160.8142 C   0  0  0  0  0  0  0  0  0  0  0  0
  152.2756  142.8648  159.5029 C   0  0  0  0  0  0  0  0  0  0  0  0
  152.6137  141.7131  159.2301 O   0  0  0  0  0  0  0  0  0  0  0  0
  146.7360  142.3967  154.8375 N   0  0  0  0  0  0  0  0  0  0  0  0
  146.1527  142.7026  153.5239 C   0  0  0  0  0  0  0  0  0  0  0  0
  145.4343  144.0627  153.5039 C   0  0  0  0  0  0  0  0  0  0  0  0
  144.4342  144.0936  154.5138 O   0  0  0  0  0  0  0  0  0  0  0  0
  144.9729  143.8735  155.8108 C   0  0  0  0  0  0  0  0  0  0  0  0
  145.6796  142.5083  155.8527 C   0  0  0  0  0  0  0  0  0  0  0  0
  146.6862  137.7042  154.6204 H   0  0  0  0  0  0  0  0  0  0  0  0
  147.9513  138.3834  155.6338 H   0  0  0  0  0  0  0  0  0  0  0  0
  148.0882  138.4515  153.8766 H   0  0  0  0  0  0  0  0  0  0  0  0
  146.0834  139.9427  153.7729 H   0  0  0  0  0  0  0  0  0  0  0  0
  145.8619  139.8474  155.4601 H   0  0  0  0  0  0  0  0  0  0  0  0
  149.1881  140.1560  153.8123 H   0  0  0  0  0  0  0  0  0  0  0  0
  149.3529  141.8948  153.8754 H   0  0  0  0  0  0  0  0  0  0  0  0
  148.1919  141.1506  152.7828 H   0  0  0  0  0  0  0  0  0  0  0  0
  147.5718  141.0938  157.0969 H   0  0  0  0  0  0  0  0  0  0  0  0
  148.7732  140.0608  156.3567 H   0  0  0  0  0  0  0  0  0  0  0  0
  149.0653  142.9751  156.0429 H   0  0  0  0  0  0  0  0  0  0  0  0
  152.2562  142.9272  156.7173 H   0  0  0  0  0  0  0  0  0  0  0  0
  150.8943  143.9917  156.6416 H   0  0  0  0  0  0  0  0  0  0  0  0
  150.7894  145.5375  158.1027 H   0  0  0  0  0  0  0  0  0  0  0  0
  151.2465  146.5660  160.3166 H   0  0  0  0  0  0  0  0  0  0  0  0
  152.4043  145.1485  162.0710 H   0  0  0  0  0  0  0  0  0  0  0  0
  153.0411  142.8745  161.5700 H   0  0  0  0  0  0  0  0  0  0  0  0
  146.9187  142.7331  152.7520 H   0  0  0  0  0  0  0  0  0  0  0  0
  145.4421  141.9273  153.2372 H   0  0  0  0  0  0  0  0  0  0  0  0
  146.1436  144.8773  153.6582 H   0  0  0  0  0  0  0  0  0  0  0  0
  144.9642  144.2270  152.5343 H   0  0  0  0  0  0  0  0  0  0  0  0
  145.6663  144.6761  156.0673 H   0  0  0  0  0  0  0  0  0  0  0  0
  144.1646  143.9033  156.5415 H   0  0  0  0  0  0  0  0  0  0  0  0
  144.9349  141.7250  155.7126 H   0  0  0  0  0  0  0  0  0  0  0  0
  146.0841  142.3877  156.8553 H   0  0  0  0  0  0  0  0  0  0  0  0
  1  2  1  0  0  0  0
  1 23  1  0  0  0  0
  1 24  1  0  0  0  0
  1 25  1  0  0  0  0
  2  3  1  0  0  0  0
  2 26  1  0  0  0  0
  2 27  1  0  0  0  0
  3  4  1  0  0  0  0
  3  5  1  0  0  0  0
  3 17  1  0  0  0  0
  4 28  1  0  0  0  0
  4 29  1  0  0  0  0
  4 30  1  0  0  0  0
  5  6  1  0  0  0  0
  5 31  1  0  0  0  0
  5 32  1  0  0  0  0
  6  7  1  0  0  0  0
  6 33  1  0  0  0  0
  7  8  2  0  0  0  0
  7  9  1  0  0  0  0
  9 10  1  0  0  0  0
  9 34  1  0  0  0  0
  9 35  1  0  0  0  0
 10 15  1  0  0  0  0
 10 11  1  0  0  0  0
 11 12  2  0  0  0  0
 11 36  1  0  0  0  0
 12 13  1  0  0  0  0
 12 37  1  0  0  0  0
 13 14  2  0  0  0  0
 13 38  1  0  0  0  0
 14 15  1  0  0  0  0
 14 39  1  0  0  0  0
 15 16  2  0  0  0  0
 17 22  1  0  0  0  0
 17 18  1  0  0  0  0
 18 19  1  0  0  0  0
 18 40  1  0  0  0  0
 18 41  1  0  0  0  0
 19 20  1  0  0  0  0
 19 42  1  0  0  0  0
 19 43  1  0  0  0  0
 20 21  1  0  0  0  0
 21 22  1  0  0  0  0
 21 44  1  0  0  0  0
 21 45  1  0  0  0  0
 22 46  1  0  0  0  0
 22 47  1  0  0  0  0
M  END
> <s_m_source_file>
AV-unprocessed.smi

> <i_m_source_file_index>
1304

> <i_lp_mmshare_version>
43012

> <i_f3d_flags>
0

> <s_epik_input>
W0NIMl0xW0NIMl1PW0NIMl1bQ0gyXU4xW0NAQF0oW0NIM10pKFtDSDJdW0NIM10pW0NIMl1bTkhdQyg9TylbQ0gyXW4yW2NIXVtjSF1bY0hdW2NIXWMyPU8=

> <s_epik_cmdline>
J2VwaWtfcHl0aG9uJywgJy1waCcsICc3LjAnLCAnLXRuJywgJzgnLCAnLW1hJywgJzIwMCcsICctbWV0YWxfYmluZGluZycsICctaW1hZScsICc8aW5maWxlLm1hZT4nLCAnLW9tYWUnLCAnPG91dGZpbGUubWFlPic=

> <r_lp_tautomer_probability>
1

> <r_epik_Ionization_Penalty>
0.318667

> <r_epik_Ionization_Penalty_Charging>
3.55364e-07

> <r_epik_Ionization_Penalty_Neutral>
0.318667

> <r_epik_State_Penalty>
0.313095

> <r_epik_Charging_Adjusted_Penalty>
0.313095

> <i_epik_Tot_Q>
0

> <i_epik_Tot_abs_Q>
0

> <r_epik_Metal_State_Penalty>
0.313065

> <b_epik_Metal_Only>
0

> <s_lp_Force_Field>
OPLS_2005

> <r_lp_Energy>
51.8872

> <b_lp_Chiralities_Consistent>
1

> <s_lp_Variant>
AV-unprocessed.smi:1304-2

> <Gold.Version>
5.8.1

> <Gold.Id.Protein>
6NUR|6NUR_protein|mol2

> <Gold.PLP.Fitness>
45.7945

> <Gold.PLP.PLP>
-43.2039

> <Gold.PLP.part.hbond>
-1.0000

> <Gold.PLP.part.metal>
0.0000

> <Gold.PLP.part.buried>
-5.9142

> <Gold.PLP.part.nonpolar>
-35.8985

> <Gold.PLP.part.repulsive>
0.3740

> <Gold.PLP.ligand.clash>
0.0000

> <Gold.PLP.ligand.torsion>
0.2601

> <Gold.PLP.Chemscore.Hbond>
1.0000

> <Gold.PLP.Chemscore.CHOScore>
0.0000

> <Gold.PLP.Chemscore.Metal>
0.0000

> <Gold.Chemscore.Hbonds>
donor molecule, donor type, donor heavy atom, donor atom, acceptor molecule, acceptor atom, score
      L1  H     6    33       P1  8028  1.00

> <Gold.PLP.Chemscore.Internal.Correction>
0.1108

> <Gold.Rescore>
     Score         DG    S(hbond)    S(metal)    S(lipo)     H(rot)  DE(clash)    DE(int)     intcor
     13.32     -15.76       1.00        0.00     102.11       1.95       0.67       1.77       ----

> <Gold.Chemscore.Fitness>
13.3177

> <Gold.Chemscore.DG>
-15.7642

> <Gold.Chemscore.ZeroCoef>
-5.4800

> <Gold.Chemscore.Hbond>
0.9979

> <Gold.Chemscore.Metal>
0.0000

> <Gold.Chemscore.Lipo>
102.1112

> <Gold.Chemscore.Internal_Hbond>
0.0000

> <Gold.Chemscore.DEClash>
0.6732

> <Gold.Chemscore.DEInternal>
1.7733

> <Gold.Chemscore.Rot>
1.9515

> <Gold.Chemscore.Internal.Correction>
   9.000000E+99

> <Gold.Chemscore.Hbonds>
donor molecule, donor type, donor heavy atom, donor atom, acceptor molecule, acceptor atom, score
      L1  H     6    33       P1  8028  1.00

> <Gold.Chemscore.Hbond.Weighted>
-3.3330

> <Gold.Chemscore.Metal.Weighted>
-0.0000

> <Gold.Chemscore.Lipo.Weighted>
-11.9470

> <Gold.Chemscore.Internal_Hbond.Weighted>
0.0000

> <Gold.Chemscore.DEClash.Weighted>
0.6732

> <Gold.Chemscore.DEInternal.Weighted>
1.7733

> <Gold.Chemscore.Rot.Weighted>
4.9958

> <Gold.Chemscore.Internal.Correction.Weighted>
   9.000000E+99

> <Gold.Protein.RotatedTorsions>
[ 6907 6896 6895 6894 ] final -125.56 input  -60.11 | X-H torsion
[ 7974 7965 7964 7962 ] final   44.18 input  175.53 | X-H torsion
[ 8008 7997 7996 7995 ] final -168.14 input   59.86 | X-H torsion
[ 10167 10162 10161 10158 ] final  135.22 input  -65.29 | X-H torsion
[ 10718 10713 10712 10709 ] final  159.80 input   66.30 | X-H torsion
[ 10763 10752 10751 10750 ] final -112.99 input  -60.55 | X-H torsion
[ 11005 11000 10999 10996 ] final  157.61 input  -57.11 | X-H torsion

> <Gold.Protein.ActiveResidues>
 VAL166  LYS551  ARG553  GLY616  TRP617  ASP618  TYR619  PRO620  LYS621  CYS622 
 ASP623  PHE694  ASN695  SER759  ASP760  ASP761  ALA762  ILE779  LEU786  VAL792 
 PHE793  MET794  SER795  GLU796  ALA797  LYS798  CYS799  TRP800  GLU811  SER814 

> <Gold.Protein.RotatedAtoms>
  150.8880  133.7281  159.2912 H   0  0  0  0  0  0  0  0  0  0  0  0  # atno 6907 bound_to 6896
  151.4841  135.1052  159.9795 H   0  0  0  0  0  0  0  0  0  0  0  0  # atno 6908 bound_to 6896
  152.4802  133.8189  159.7098 H   0  0  0  0  0  0  0  0  0  0  0  0  # atno 6909 bound_to 6896
  146.0591  139.5103  142.9670 H   0  0  0  0  0  0  0  0  0  0  0  0  # atno 7974 bound_to 7965
  155.8873  140.1019  157.1443 H   0  0  0  0  0  0  0  0  0  0  0  0  # atno 8008 bound_to 7997
  154.4011  140.1317  156.4335 H   0  0  0  0  0  0  0  0  0  0  0  0  # atno 8009 bound_to 7997
  155.7574  140.3464  155.5183 H   0  0  0  0  0  0  0  0  0  0  0  0  # atno 8010 bound_to 7997
  139.5225  144.6528  151.5252 H   0  0  0  0  0  0  0  0  0  0  0  0  # atno 10167 bound_to 10162
  157.1592  131.0583  151.2241 H   0  0  0  0  0  0  0  0  0  0  0  0  # atno 10718 bound_to 10713
  154.8376  135.4470  154.1280 H   0  0  0  0  0  0  0  0  0  0  0  0  # atno 10763 bound_to 10752
  153.2498  135.6925  153.7698 H   0  0  0  0  0  0  0  0  0  0  0  0  # atno 10764 bound_to 10752
  153.7014  135.3371  155.3201 H   0  0  0  0  0  0  0  0  0  0  0  0  # atno 10765 bound_to 10752
  140.1786  134.8492  157.2776 H   0  0  0  0  0  0  0  0  0  0  0  0  # atno 11005 bound_to 11000
  145.6592  141.0244  143.1718 LP  0  0  0  0  0  0  0  0  0  0  0  0  # atno 17320 bound_to 7965
  144.7164  139.8181  143.7397 LP  0  0  0  0  0  0  0  0  0  0  0  0  # atno 17321 bound_to 7965
  140.6340  143.9021  150.6630 LP  0  0  0  0  0  0  0  0  0  0  0  0  # atno 17342 bound_to 10162
  140.2334  143.3718  152.1547 LP  0  0  0  0  0  0  0  0  0  0  0  0  # atno 17343 bound_to 10162
  157.4148  130.7405  149.6867 LP  0  0  0  0  0  0  0  0  0  0  0  0  # atno 17370 bound_to 10713
  155.9757  130.4086  150.3833 LP  0  0  0  0  0  0  0  0  0  0  0  0  # atno 17371 bound_to 10713
  140.2294  134.3928  155.7529 LP  0  0  0  0  0  0  0  0  0  0  0  0  # atno 17394 bound_to 11000
  141.2222  133.7207  156.8616 LP  0  0  0  0  0  0  0  0  0  0  0  0  # atno 17395 bound_to 11000

$$$$
