AV-unprocessed.smi:265|AV-procd|sdf|2024|dock4
  -GOLD-   2262021223D 1   1.00000     0.00000
 Structure written by MMmdl.
 52 56  0  0  0  0  0  0  0  0  1 V2000
  145.9013  134.9976  151.6489 C   0  0  0  0  0  0  0  0  0  0  0  0
  145.2040  133.6279  151.6076 C   0  0  1  0  0  0  0  0  0  0  0  0
  144.2004  133.5995  150.5931 O   0  0  0  0  0  0  0  0  0  0  0  0
  144.4216  132.5053  149.7136 C   0  0  0  0  0  0  0  0  0  0  0  0
  145.2081  131.5000  150.5444 C   0  0  0  0  0  0  0  0  0  0  0  0
  146.1107  132.3972  151.3788 C   0  0  1  0  0  0  0  0  0  0  0  0
  147.2446  132.7426  150.5981 O   0  0  0  0  0  0  0  0  0  0  0  0
  146.5973  131.7523  152.6981 C   0  0  0  0  0  0  0  0  0  0  0  0
  147.3490  132.6639  153.5470 N   0  0  0  0  0  0  0  0  0  0  0  0
  148.6965  132.6054  153.8219 C   0  0  0  0  0  0  0  0  0  0  0  0
  149.1425  133.5367  154.6194 N   0  0  0  0  0  0  0  0  0  0  0  0
  148.0204  134.3056  154.9048 C   0  0  0  0  0  0  0  0  0  0  0  0
  147.7897  135.4628  155.7005 C   0  0  0  0  0  0  0  0  0  0  0  0
  148.7825  136.0907  156.3798 N   0  0  0  0  0  0  0  0  0  0  0  0
  148.4125  136.8710  157.5601 C   0  0  0  0  0  0  0  0  0  0  0  0
  149.6485  137.1710  158.4219 C   0  0  0  0  0  0  0  0  0  0  0  0
  150.7730  137.8271  157.6036 C   0  0  2  0  0  0  0  0  0  0  0  0
  150.3937  139.1396  157.2100 O   0  0  0  0  0  0  0  0  0  0  0  0
  151.4495  139.8864  156.6032 C   0  0  0  0  0  0  0  0  0  0  0  0
  152.1645  139.0939  155.4930 C   0  0  0  0  0  0  0  0  0  0  0  0
  152.8829  139.6801  154.6867 O   0  0  0  0  0  0  0  0  0  0  0  0
  152.0104  137.7602  155.4687 N   0  0  0  0  0  0  0  0  0  0  0  0
  151.0805  137.0255  156.3200 C   0  0  2  0  0  0  0  0  0  0  0  0
  149.7950  136.7120  155.5285 C   0  0  0  0  0  0  0  0  0  0  0  0
  146.5166  135.9382  155.7584 N   0  0  0  0  0  0  0  0  0  0  0  0
  145.5388  135.3340  155.0767 C   0  0  0  0  0  0  0  0  0  0  0  0
  145.6112  134.2579  154.2912 N   0  0  0  0  0  0  0  0  0  0  0  0
  146.8828  133.7684  154.2385 C   0  0  0  0  0  0  0  0  0  0  0  0
  151.6644  137.8925  158.2304 H   0  0  0  0  0  0  0  0  0  0  0  0
  151.5548  136.0835  156.5992 H   0  0  0  0  0  0  0  0  0  0  0  0
  146.6778  135.0191  152.4138 H   0  0  0  0  0  0  0  0  0  0  0  0
  145.1868  135.7877  151.8797 H   0  0  0  0  0  0  0  0  0  0  0  0
  146.3620  135.2439  150.6917 H   0  0  0  0  0  0  0  0  0  0  0  0
  144.6665  133.4942  152.5473 H   0  0  0  0  0  0  0  0  0  0  0  0
  143.4836  132.0981  149.3358 H   0  0  0  0  0  0  0  0  0  0  0  0
  145.0125  132.8462  148.8625 H   0  0  0  0  0  0  0  0  0  0  0  0
  144.5173  130.9562  151.1899 H   0  0  0  0  0  0  0  0  0  0  0  0
  145.7468  130.7692  149.9396 H   0  0  0  0  0  0  0  0  0  0  0  0
  147.7361  131.9553  150.4210 H   0  0  0  0  0  0  0  0  0  0  0  0
  145.7456  131.3795  153.2688 H   0  0  0  0  0  0  0  0  0  0  0  0
  147.2259  130.8860  152.4885 H   0  0  0  0  0  0  0  0  0  0  0  0
  149.3415  131.8404  153.4144 H   0  0  0  0  0  0  0  0  0  0  0  0
  147.9424  137.8032  157.2435 H   0  0  0  0  0  0  0  0  0  0  0  0
  147.6797  136.3259  158.1569 H   0  0  0  0  0  0  0  0  0  0  0  0
  149.3740  137.8087  159.2627 H   0  0  0  0  0  0  0  0  0  0  0  0
  150.0173  136.2385  158.8510 H   0  0  0  0  0  0  0  0  0  0  0  0
  151.0403  140.8100  156.1934 H   0  0  0  0  0  0  0  0  0  0  0  0
  152.1797  140.1655  157.3638 H   0  0  0  0  0  0  0  0  0  0  0  0
  152.5094  137.2343  154.7660 H   0  0  0  0  0  0  0  0  0  0  0  0
  150.0417  136.0802  154.6759 H   0  0  0  0  0  0  0  0  0  0  0  0
  149.3751  137.6318  155.1186 H   0  0  0  0  0  0  0  0  0  0  0  0
  144.5586  135.7768  155.1741 H   0  0  0  0  0  0  0  0  0  0  0  0
  1  2  1  0  0  0  0
  1 31  1  0  0  0  0
  1 32  1  0  0  0  0
  1 33  1  0  0  0  0
  2  6  1  0  0  0  0
  2  3  1  0  0  0  0
  2 34  1  0  0  0  0
  3  4  1  0  0  0  0
  4  5  1  0  0  0  0
  4 35  1  0  0  0  0
  4 36  1  0  0  0  0
  5  6  1  0  0  0  0
  5 37  1  0  0  0  0
  5 38  1  0  0  0  0
  6  7  1  0  0  0  0
  6  8  1  0  0  0  0
  7 39  1  0  0  0  0
  8  9  1  0  0  0  0
  8 40  1  0  0  0  0
  8 41  1  0  0  0  0
  9 28  1  0  0  0  0
  9 10  1  0  0  0  0
 10 11  2  0  0  0  0
 10 42  1  0  0  0  0
 11 12  1  0  0  0  0
 12 28  2  0  0  0  0
 12 13  1  0  0  0  0
 13 14  1  0  0  0  0
 13 25  2  0  0  0  0
 14 24  1  0  0  0  0
 14 15  1  0  0  0  0
 15 16  1  0  0  0  0
 15 43  1  0  0  0  0
 15 44  1  0  0  0  0
 16 17  1  0  0  0  0
 16 45  1  0  0  0  0
 16 46  1  0  0  0  0
 17 29  1  0  0  0  0
 17 23  1  0  0  0  0
 17 18  1  0  0  0  0
 18 19  1  0  0  0  0
 19 20  1  0  0  0  0
 19 47  1  0  0  0  0
 19 48  1  0  0  0  0
 20 21  2  0  0  0  0
 20 22  1  0  0  0  0
 22 23  1  0  0  0  0
 22 49  1  0  0  0  0
 23 30  1  0  0  0  0
 23 24  1  0  0  0  0
 24 50  1  0  0  0  0
 24 51  1  0  0  0  0
 25 26  1  0  0  0  0
 26 27  2  0  0  0  0
 26 52  1  0  0  0  0
 27 28  1  0  0  0  0
M  END
> <s_m_source_file>
AV-unprocessed.smi

> <i_m_source_file_index>
265

> <i_lp_mmshare_version>
43012

> <i_f3d_flags>
0

> <s_epik_input>
W0NIMl0xW0NIMl1PW0NAQEhdKFtDSDNdKVtDQEBdMShbT0hdKVtDSDJdbihbY0hdbjIpYyhjMjMpbltjSF1uYzNOKFtDSDJdW0NIMl00KVtDSDJdW0NAQEhdKFtDQEhdNDUpW05IXUMoPU8pW0NIMl1PNQ==

> <s_epik_cmdline>
J2VwaWtfcHl0aG9uJywgJy1waCcsICc3LjAnLCAnLXRuJywgJzgnLCAnLW1hJywgJzIwMCcsICctbWV0YWxfYmluZGluZycsICctaW1hZScsICc8aW5maWxlLm1hZT4nLCAnLW9tYWUnLCAnPG91dGZpbGUubWFlPic=

> <r_lp_tautomer_probability>
1

> <r_epik_Ionization_Penalty>
0.00221504

> <r_epik_Ionization_Penalty_Charging>
0

> <r_epik_Ionization_Penalty_Neutral>
0.00221504

> <r_epik_State_Penalty>
-0

> <r_epik_Charging_Adjusted_Penalty>
0

> <i_epik_Tot_Q>
0

> <i_epik_Tot_abs_Q>
0

> <r_epik_Metal_State_Penalty>
-0

> <b_epik_Metal_Only>
0

> <s_lp_Force_Field>
OPLS_2005

> <r_lp_Energy>
44.7189

> <b_lp_Chiralities_Consistent>
1

> <s_lp_Variant>
AV-unprocessed.smi:265-10

> <Gold.Version>
5.8.1

> <Gold.Id.Protein>
6NUR|6NUR_protein|mol2

> <Gold.PLP.Fitness>
39.8774

> <Gold.PLP.PLP>
-33.3829

> <Gold.PLP.part.hbond>
-2.9694

> <Gold.PLP.part.metal>
0.0000

> <Gold.PLP.part.buried>
-7.4578

> <Gold.PLP.part.nonpolar>
-24.2840

> <Gold.PLP.part.repulsive>
0.5464

> <Gold.PLP.ligand.clash>
0.0000

> <Gold.PLP.ligand.torsion>
0.4830

> <Gold.PLP.Chemscore.Hbond>
2.3650

> <Gold.PLP.Chemscore.CHOScore>
0.0000

> <Gold.PLP.Chemscore.Metal>
0.0000

> <Gold.Chemscore.Hbonds>
donor molecule, donor type, donor heavy atom, donor atom, acceptor molecule, acceptor atom, score
      L1  H     7    39       P1 10747  1.00
      P1  H  7989  7998       L1    21  0.39
      P1  H  7997  8008       L1    21  0.99

> <Gold.PLP.Chemscore.Internal.Correction>
0.3654

> <Gold.Rescore>
     Score         DG    S(hbond)    S(metal)    S(lipo)     H(rot)  DE(clash)    DE(int)     intcor
     11.64     -14.85       2.12        0.00      68.60       2.25       0.02       3.20       ----

> <Gold.Chemscore.Fitness>
11.6353

> <Gold.Chemscore.DG>
-14.8513

> <Gold.Chemscore.ZeroCoef>
-5.4800

> <Gold.Chemscore.Hbond>
2.1235

> <Gold.Chemscore.Metal>
0.0000

> <Gold.Chemscore.Lipo>
68.6048

> <Gold.Chemscore.Internal_Hbond>
0.0000

> <Gold.Chemscore.DEClash>
0.0163

> <Gold.Chemscore.DEInternal>
3.1997

> <Gold.Chemscore.Rot>
2.2453

> <Gold.Chemscore.Internal.Correction>
   9.000000E+99

> <Gold.Chemscore.Hbonds>
donor molecule, donor type, donor heavy atom, donor atom, acceptor molecule, acceptor atom, score
      L1  H     7    39       P1 10747  1.00
      P1  H  7989  7998       L1    21  0.26
      P1  H  7997  8008       L1    21  0.37

> <Gold.Chemscore.Hbond.Weighted>
-7.0924

> <Gold.Chemscore.Metal.Weighted>
-0.0000

> <Gold.Chemscore.Lipo.Weighted>
-8.0268

> <Gold.Chemscore.Internal_Hbond.Weighted>
0.0000

> <Gold.Chemscore.DEClash.Weighted>
0.0163

> <Gold.Chemscore.DEInternal.Weighted>
3.1997

> <Gold.Chemscore.Rot.Weighted>
5.7479

> <Gold.Chemscore.Internal.Correction.Weighted>
   9.000000E+99

> <Gold.Protein.RotatedTorsions>
[ 6907 6896 6895 6894 ] final  -87.60 input  -60.11 | X-H torsion
[ 7974 7965 7964 7962 ] final  107.63 input  175.53 | X-H torsion
[ 8008 7997 7996 7995 ] final  -11.44 input   59.86 | X-H torsion
[ 10167 10162 10161 10158 ] final   -3.23 input  -65.29 | X-H torsion
[ 10718 10713 10712 10709 ] final   34.93 input   66.30 | X-H torsion
[ 10763 10752 10751 10750 ] final   76.50 input  -60.55 | X-H torsion
[ 11005 11000 10999 10996 ] final  -86.79 input  -57.11 | X-H torsion

> <Gold.Protein.ActiveResidues>
 VAL166  LYS551  ARG553  GLY616  TRP617  ASP618  TYR619  PRO620  LYS621  CYS622 
 ASP623  PHE694  ASN695  SER759  ASP760  ASP761  ALA762  ILE779  LEU786  VAL792 
 PHE793  MET794  SER795  GLU796  ALA797  LYS798  CYS799  TRP800  GLU811  SER814 

> <Gold.Protein.RotatedAtoms>
  150.6866  134.2871  159.4650 H   0  0  0  0  0  0  0  0  0  0  0  0  # atno 6907 bound_to 6896
  152.0779  134.9488  160.0583 H   0  0  0  0  0  0  0  0  0  0  0  0  # atno 6908 bound_to 6896
  152.0852  133.4138  159.4556 H   0  0  0  0  0  0  0  0  0  0  0  0  # atno 6909 bound_to 6896
  145.2911  139.2600  143.3864 H   0  0  0  0  0  0  0  0  0  0  0  0  # atno 7974 bound_to 7965
  154.5465  140.2302  155.8555 H   0  0  0  0  0  0  0  0  0  0  0  0  # atno 8008 bound_to 7997
  156.1907  140.3077  155.9289 H   0  0  0  0  0  0  0  0  0  0  0  0  # atno 8009 bound_to 7997
  155.3154  140.0438  157.3027 H   0  0  0  0  0  0  0  0  0  0  0  0  # atno 8010 bound_to 7997
  140.6882  143.6564  150.8304 H   0  0  0  0  0  0  0  0  0  0  0  0  # atno 10167 bound_to 10162
  157.3164  130.7426  149.6757 H   0  0  0  0  0  0  0  0  0  0  0  0  # atno 10718 bound_to 10713
  153.0730  135.4949  154.8345 H   0  0  0  0  0  0  0  0  0  0  0  0  # atno 10763 bound_to 10752
  154.7049  135.3008  154.9288 H   0  0  0  0  0  0  0  0  0  0  0  0  # atno 10764 bound_to 10752
  154.0000  135.6767  153.4811 H   0  0  0  0  0  0  0  0  0  0  0  0  # atno 10765 bound_to 10752
  141.1625  133.7474  156.9212 H   0  0  0  0  0  0  0  0  0  0  0  0  # atno 11005 bound_to 11000
  146.3184  140.3403  142.8647 LP  0  0  0  0  0  0  0  0  0  0  0  0  # atno 17320 bound_to 7965
  144.9172  140.7826  143.5771 LP  0  0  0  0  0  0  0  0  0  0  0  0  # atno 17321 bound_to 7965
  140.0274  143.5479  152.2775 LP  0  0  0  0  0  0  0  0  0  0  0  0  # atno 17342 bound_to 10162
  139.6259  144.7637  151.2639 LP  0  0  0  0  0  0  0  0  0  0  0  0  # atno 17343 bound_to 10162
  155.9682  130.4236  150.4569 LP  0  0  0  0  0  0  0  0  0  0  0  0  # atno 17370 bound_to 10713
  157.2577  131.0560  151.2340 LP  0  0  0  0  0  0  0  0  0  0  0  0  # atno 17371 bound_to 10713
  140.1450  134.9268  157.2517 LP  0  0  0  0  0  0  0  0  0  0  0  0  # atno 17394 bound_to 11000
  140.2791  134.3371  155.7349 LP  0  0  0  0  0  0  0  0  0  0  0  0  # atno 17395 bound_to 11000

$$$$
