AV-unprocessed.smi:372|AV-procd|sdf|2445|dock6
  -GOLD-   2262022383D 1   1.00000     0.00000
 Structure written by MMmdl.
 22 23  0  0  0  0  0  0  0  0  2 V2000
  149.8955  139.7570  157.4038 C   0  0  0  0  0  0  0  0  0  0  0  0
  150.9629  140.6821  156.7847 C   0  0  1  0  0  0  0  0  0  0  0  0
  151.2045  141.9330  157.6513 C   0  0  0  0  0  0  0  0  0  0  0  0
  152.4301  142.1516  158.3298 C   0  0  0  0  0  0  0  0  0  0  0  0
  152.5817  143.3160  159.1067 C   0  0  0  0  0  0  0  0  0  0  0  0
  151.5108  144.2246  159.1879 C   0  0  0  0  0  0  0  0  0  0  0  0
  150.3290  143.9245  158.4851 C   0  0  0  0  0  0  0  0  0  0  0  0
  150.1740  142.8105  157.7399 N   0  0  0  0  0  0  0  0  0  0  0  0
  152.1703  139.9125  156.5506 N   0  0  0  0  0  0  0  0  0  0  0  0
  152.5014  139.8901  155.2616 C   0  0  0  0  0  0  0  0  0  0  0  0
  153.5108  139.3131  154.8640 O   0  0  0  0  0  0  0  0  0  0  0  0
  151.5887  140.5637  154.5371 N   0  5  0  0  0  0  0  0  0  0  0  0
  150.6148  141.0583  155.3326 C   0  0  0  0  0  0  0  0  0  0  0  0
  149.5959  141.6798  155.0308 O   0  0  0  0  0  0  0  0  0  0  0  0
  148.9419  140.2715  157.5275 H   0  0  0  0  0  0  0  0  0  0  0  0
  150.2078  139.4031  158.3866 H   0  0  0  0  0  0  0  0  0  0  0  0
  149.7131  138.8802  156.7807 H   0  0  0  0  0  0  0  0  0  0  0  0
  153.2504  141.4529  158.2650 H   0  0  0  0  0  0  0  0  0  0  0  0
  153.5055  143.5082  159.6321 H   0  0  0  0  0  0  0  0  0  0  0  0
  151.5927  145.1282  159.7734 H   0  0  0  0  0  0  0  0  0  0  0  0
  149.4843  144.5965  158.5236 H   0  0  0  0  0  0  0  0  0  0  0  0
  152.7035  139.4799  157.2900 H   0  0  0  0  0  0  0  0  0  0  0  0
  1  2  1  0  0  0  0
  1 15  1  0  0  0  0
  1 16  1  0  0  0  0
  1 17  1  0  0  0  0
  2 13  1  0  0  0  0
  2  3  1  0  0  0  0
  2  9  1  0  0  0  0
  3  8  1  0  0  0  0
  3  4  2  0  0  0  0
  4  5  1  0  0  0  0
  4 18  1  0  0  0  0
  5  6  2  0  0  0  0
  5 19  1  0  0  0  0
  6  7  1  0  0  0  0
  6 20  1  0  0  0  0
  7  8  2  0  0  0  0
  7 21  1  0  0  0  0
  9 10  1  0  0  0  0
  9 22  1  0  0  0  0
 10 11  2  0  0  0  0
 10 12  1  0  0  0  0
 12 13  1  0  0  0  0
 13 14  2  0  0  0  0
M  CHG  1  12  -1
M  END
> <s_m_source_file>
AV-unprocessed.smi

> <i_m_source_file_index>
372

> <i_lp_mmshare_version>
43012

> <i_f3d_flags>
0

> <s_epik_input>
Tz1DMVtOSF1DKD1PKVtOSF1bQ0BAXTEoW0NIM10pYzJbY0hdW2NIXVtjSF1bY0hdbjI=

> <s_epik_cmdline>
J2VwaWtfcHl0aG9uJywgJy1waCcsICc3LjAnLCAnLXRuJywgJzgnLCAnLW1hJywgJzIwMCcsICctbWV0YWxfYmluZGluZycsICctaW1hZScsICc8aW5maWxlLm1hZT4nLCAnLW9tYWUnLCAnPG91dGZpbGUubWFlPic=

> <r_epik_Ionization_Penalty>
1.82492

> <r_epik_Ionization_Penalty_Charging>
1.82122

> <r_epik_Ionization_Penalty_Neutral>
0.00370144

> <r_epik_State_Penalty>
1.71448

> <r_epik_Charging_Adjusted_Penalty>
3.5357

> <i_epik_Tot_Q>
-1

> <i_epik_Tot_abs_Q>
1

> <r_epik_Metal_State_Penalty>
0.405927

> <b_epik_Metal_Only>
0

> <s_lp_Force_Field>
OPLS_2005

> <r_lp_Energy>
9.53623

> <b_lp_Chiralities_Consistent>
1

> <s_lp_Variant>
AV-unprocessed.smi:372-3

> <Gold.Version>
5.8.1

> <Gold.Id.Protein>
6NUR|6NUR_protein|mol2

> <Gold.PLP.Fitness>
34.1105

> <Gold.PLP.PLP>
-25.3528

> <Gold.PLP.part.hbond>
-2.0000

> <Gold.PLP.part.metal>
0.0000

> <Gold.PLP.part.buried>
-5.0103

> <Gold.PLP.part.nonpolar>
-19.1399

> <Gold.PLP.part.repulsive>
0.4279

> <Gold.PLP.ligand.clash>
0.0000

> <Gold.PLP.ligand.torsion>
0.1499

> <Gold.PLP.Chemscore.Hbond>
1.9920

> <Gold.PLP.Chemscore.CHOScore>
1.0000

> <Gold.PLP.Chemscore.Metal>
0.0000

> <Gold.Chemscore.Hbonds>
donor molecule, donor type, donor heavy atom, donor atom, acceptor molecule, acceptor atom, score
      P1  H  7997  8008       L1    11  0.80
      L1  C     7    21       P1  8028  0.01
      L1  C     7    21       P1  8029  1.00

> <Gold.PLP.Chemscore.Internal.Correction>
0.0815

> <Gold.Rescore>
     Score         DG    S(hbond)    S(metal)    S(lipo)     H(rot)  DE(clash)    DE(int)     intcor
     13.25     -14.36       1.62        0.00      51.59       1.00       0.04       1.07       ----

> <Gold.Chemscore.Fitness>
13.2513

> <Gold.Chemscore.DG>
-14.3601

> <Gold.Chemscore.ZeroCoef>
-5.4800

> <Gold.Chemscore.Hbond>
1.6181

> <Gold.Chemscore.Metal>
0.0000

> <Gold.Chemscore.Lipo>
51.5865

> <Gold.Chemscore.Internal_Hbond>
0.0000

> <Gold.Chemscore.DEClash>
0.0402

> <Gold.Chemscore.DEInternal>
1.0685

> <Gold.Chemscore.Rot>
1.0000

> <Gold.Chemscore.Internal.Correction>
   9.000000E+99

> <Gold.Chemscore.Hbonds>
donor molecule, donor type, donor heavy atom, donor atom, acceptor molecule, acceptor atom, score
      P1  H  7989  7998       L1    12  0.02
      P1  H  7997  8008       L1    11  0.12

> <Gold.Chemscore.Hbond.Weighted>
-5.4045

> <Gold.Chemscore.Metal.Weighted>
-0.0000

> <Gold.Chemscore.Lipo.Weighted>
-6.0356

> <Gold.Chemscore.Internal_Hbond.Weighted>
0.0000

> <Gold.Chemscore.DEClash.Weighted>
0.0402

> <Gold.Chemscore.DEInternal.Weighted>
1.0685

> <Gold.Chemscore.Rot.Weighted>
2.5600

> <Gold.Chemscore.Internal.Correction.Weighted>
   9.000000E+99

> <Gold.Protein.RotatedTorsions>
[ 6907 6896 6895 6894 ] final  142.97 input  -60.11 | X-H torsion
[ 7974 7965 7964 7962 ] final -165.79 input  175.53 | X-H torsion
[ 8008 7997 7996 7995 ] final   -3.67 input   59.86 | X-H torsion
[ 10167 10162 10161 10158 ] final  136.09 input  -65.29 | X-H torsion
[ 10718 10713 10712 10709 ] final  128.83 input   66.30 | X-H torsion
[ 10763 10752 10751 10750 ] final  -84.23 input  -60.55 | X-H torsion
[ 11005 11000 10999 10996 ] final   46.81 input  -57.11 | X-H torsion

> <Gold.Protein.ActiveResidues>
 VAL166  LYS551  ARG553  GLY616  TRP617  ASP618  TYR619  PRO620  LYS621  CYS622 
 ASP623  PHE694  ASN695  SER759  ASP760  ASP761  ALA762  ILE779  LEU786  VAL792 
 PHE793  MET794  SER795  GLU796  ALA797  LYS798  CYS799  TRP800  GLU811  SER814 

> <Gold.Protein.RotatedAtoms>
  152.2122  133.4919  159.5115 H   0  0  0  0  0  0  0  0  0  0  0  0  # atno 6907 bound_to 6896
  150.6993  134.1453  159.4129 H   0  0  0  0  0  0  0  0  0  0  0  0  # atno 6908 bound_to 6896
  151.9372  135.0229  160.0584 H   0  0  0  0  0  0  0  0  0  0  0  0  # atno 6909 bound_to 6896
  144.7261  140.2761  143.6243 H   0  0  0  0  0  0  0  0  0  0  0  0  # atno 7974 bound_to 7965
  154.6224  140.2503  155.7533 H   0  0  0  0  0  0  0  0  0  0  0  0  # atno 8008 bound_to 7997
  156.2434  140.2924  156.0458 H   0  0  0  0  0  0  0  0  0  0  0  0  # atno 8009 bound_to 7997
  155.1875  140.0390  157.2884 H   0  0  0  0  0  0  0  0  0  0  0  0  # atno 8010 bound_to 7997
  139.5193  144.6483  151.5377 H   0  0  0  0  0  0  0  0  0  0  0  0  # atno 10167 bound_to 10162
  157.5209  131.1098  150.9155 H   0  0  0  0  0  0  0  0  0  0  0  0  # atno 10718 bound_to 10713
  154.5970  135.5528  153.7336 H   0  0  0  0  0  0  0  0  0  0  0  0  # atno 10763 bound_to 10752
  153.0139  135.6357  154.1768 H   0  0  0  0  0  0  0  0  0  0  0  0  # atno 10764 bound_to 10752
  154.1708  135.2892  155.3061 H   0  0  0  0  0  0  0  0  0  0  0  0  # atno 10765 bound_to 10752
  140.1335  134.4675  155.8503 H   0  0  0  0  0  0  0  0  0  0  0  0  # atno 11005 bound_to 11000
  145.7995  139.1958  143.2056 LP  0  0  0  0  0  0  0  0  0  0  0  0  # atno 17320 bound_to 7965
  146.0689  140.7891  142.9698 LP  0  0  0  0  0  0  0  0  0  0  0  0  # atno 17321 bound_to 7965
  140.6277  143.9137  150.6578 LP  0  0  0  0  0  0  0  0  0  0  0  0  # atno 17342 bound_to 10162
  140.2431  143.3649  152.1470 LP  0  0  0  0  0  0  0  0  0  0  0  0  # atno 17343 bound_to 10162
  156.9766  130.5511  149.5293 LP  0  0  0  0  0  0  0  0  0  0  0  0  # atno 17370 bound_to 10713
  156.0352  130.5441  150.8637 LP  0  0  0  0  0  0  0  0  0  0  0  0  # atno 17371 bound_to 10713
  141.2174  133.6805  156.7114 LP  0  0  0  0  0  0  0  0  0  0  0  0  # atno 17394 bound_to 11000
  140.2812  134.8315  157.3934 LP  0  0  0  0  0  0  0  0  0  0  0  0  # atno 17395 bound_to 11000

$$$$
