AV-unprocessed.smi:153|AV-procd|sdf|1258|dock3
  -GOLD-   2262018503D 1   1.00000     0.00000
 Structure written by MMmdl.
 59 62  0  0  0  0  0  0  0  0  1 V2000
  147.7113  132.9452  161.3769 C   0  0  0  0  0  0  0  0  0  0  0  0
  147.7301  134.3862  161.9091 C   0  0  2  0  0  0  0  0  0  0  0  0
  146.5699  134.5833  162.7114 O   0  0  0  0  0  0  0  0  0  0  0  0
  146.2544  135.9638  162.7049 C   0  0  0  0  0  0  0  0  0  0  0  0
  146.4655  136.3323  161.2446 C   0  0  0  0  0  0  0  0  0  0  0  0
  147.7075  135.5306  160.8558 C   0  0  1  0  0  0  0  0  0  0  0  0
  148.8418  136.3482  161.0883 O   0  0  0  0  0  0  0  0  0  0  0  0
  147.7201  135.0991  159.3649 C   0  0  0  0  0  0  0  0  0  0  0  0
  148.3335  136.0832  158.4850 N   0  0  0  0  0  0  0  0  0  0  0  0
  147.9327  137.3859  158.3028 C   0  0  0  0  0  0  0  0  0  0  0  0
  148.6552  138.0755  157.4644 N   0  0  0  0  0  0  0  0  0  0  0  0
  149.6287  137.1840  157.0229 C   0  0  0  0  0  0  0  0  0  0  0  0
  150.7316  137.2667  156.1162 C   0  0  0  0  0  0  0  0  0  0  0  0
  151.1012  138.3961  155.4412 N   0  0  0  0  0  0  0  0  0  0  0  0
  151.7097  138.2609  154.1229 C   0  0  0  0  0  0  0  0  0  0  0  0
  150.4800  139.6822  155.7677 C   0  0  0  0  0  0  0  0  0  0  0  0
  151.1081  140.3493  157.0122 C   0  0  2  0  0  0  0  0  0  0  0  0
  150.4972  139.8051  158.1652 O   0  0  0  0  0  0  0  0  0  0  0  0
  150.8584  141.8727  157.0275 C   0  0  0  0  0  0  0  0  0  0  0  0
  151.8385  142.6620  157.7750 N   0  0  0  0  0  0  0  0  0  0  0  0
  151.8225  142.3065  159.1902 C   0  0  0  0  0  0  0  0  0  0  0  0
  152.8406  143.1259  160.0020 C   0  0  0  0  0  0  0  0  0  0  0  0
  152.5746  144.5144  159.8345 O   0  0  0  0  0  0  0  0  0  0  0  0
  152.6220  144.9200  158.4708 C   0  0  0  0  0  0  0  0  0  0  0  0
  151.6086  144.1023  157.6512 C   0  0  0  0  0  0  0  0  0  0  0  0
  151.4510  136.1259  155.9285 N   0  0  0  0  0  0  0  0  0  0  0  0
  151.1437  135.0015  156.5789 C   0  0  0  0  0  0  0  0  0  0  0  0
  150.1639  134.7904  157.4564 N   0  0  0  0  0  0  0  0  0  0  0  0
  149.4239  135.9184  157.6484 C   0  0  0  0  0  0  0  0  0  0  0  0
  148.5851  132.7390  160.7589 H   0  0  0  0  0  0  0  0  0  0  0  0
  146.8177  132.7458  160.7858 H   0  0  0  0  0  0  0  0  0  0  0  0
  147.7204  132.2326  162.2018 H   0  0  0  0  0  0  0  0  0  0  0  0
  148.5953  134.4954  162.5662 H   0  0  0  0  0  0  0  0  0  0  0  0
  145.2352  136.1471  163.0453 H   0  0  0  0  0  0  0  0  0  0  0  0
  146.9433  136.5072  163.3537 H   0  0  0  0  0  0  0  0  0  0  0  0
  145.6026  135.9873  160.6739 H   0  0  0  0  0  0  0  0  0  0  0  0
  146.5622  137.4068  161.0822 H   0  0  0  0  0  0  0  0  0  0  0  0
  149.4482  135.8726  161.6353 H   0  0  0  0  0  0  0  0  0  0  0  0
  148.2486  134.1526  159.2429 H   0  0  0  0  0  0  0  0  0  0  0  0
  146.7031  134.9334  159.0089 H   0  0  0  0  0  0  0  0  0  0  0  0
  147.0858  137.8146  158.8189 H   0  0  0  0  0  0  0  0  0  0  0  0
  152.7527  137.9566  154.2124 H   0  0  0  0  0  0  0  0  0  0  0  0
  151.6897  139.2077  153.5824 H   0  0  0  0  0  0  0  0  0  0  0  0
  151.1766  137.5259  153.5188 H   0  0  0  0  0  0  0  0  0  0  0  0
  150.5626  140.3362  154.8988 H   0  0  0  0  0  0  0  0  0  0  0  0
  149.4063  139.5455  155.9052 H   0  0  0  0  0  0  0  0  0  0  0  0
  152.1740  140.1302  157.0482 H   0  0  0  0  0  0  0  0  0  0  0  0
  149.6804  139.4035  157.9117 H   0  0  0  0  0  0  0  0  0  0  0  0
  150.8333  142.2433  156.0014 H   0  0  0  0  0  0  0  0  0  0  0  0
  149.8578  142.0531  157.4239 H   0  0  0  0  0  0  0  0  0  0  0  0
  150.8240  142.4646  159.6010 H   0  0  0  0  0  0  0  0  0  0  0  0
  152.0437  141.2450  159.3071 H   0  0  0  0  0  0  0  0  0  0  0  0
  152.7718  142.8746  161.0605 H   0  0  0  0  0  0  0  0  0  0  0  0
  153.8600  142.9014  159.6838 H   0  0  0  0  0  0  0  0  0  0  0  0
  152.3906  145.9832  158.4071 H   0  0  0  0  0  0  0  0  0  0  0  0
  153.6316  144.7868  158.0792 H   0  0  0  0  0  0  0  0  0  0  0  0
  151.6754  144.4165  156.6110 H   0  0  0  0  0  0  0  0  0  0  0  0
  150.5985  144.3461  157.9846 H   0  0  0  0  0  0  0  0  0  0  0  0
  151.7754  134.1511  156.3680 H   0  0  0  0  0  0  0  0  0  0  0  0
  1  2  1  0  0  0  0
  1 30  1  0  0  0  0
  1 31  1  0  0  0  0
  1 32  1  0  0  0  0
  2  6  1  0  0  0  0
  2  3  1  0  0  0  0
  2 33  1  0  0  0  0
  3  4  1  0  0  0  0
  4  5  1  0  0  0  0
  4 34  1  0  0  0  0
  4 35  1  0  0  0  0
  5  6  1  0  0  0  0
  5 36  1  0  0  0  0
  5 37  1  0  0  0  0
  6  7  1  0  0  0  0
  6  8  1  0  0  0  0
  7 38  1  0  0  0  0
  8  9  1  0  0  0  0
  8 39  1  0  0  0  0
  8 40  1  0  0  0  0
  9 29  1  0  0  0  0
  9 10  1  0  0  0  0
 10 11  2  0  0  0  0
 10 41  1  0  0  0  0
 11 12  1  0  0  0  0
 12 29  2  0  0  0  0
 12 13  1  0  0  0  0
 13 14  1  0  0  0  0
 13 26  2  0  0  0  0
 14 15  1  0  0  0  0
 14 16  1  0  0  0  0
 15 42  1  0  0  0  0
 15 43  1  0  0  0  0
 15 44  1  0  0  0  0
 16 17  1  0  0  0  0
 16 45  1  0  0  0  0
 16 46  1  0  0  0  0
 17 18  1  0  0  0  0
 17 19  1  0  0  0  0
 17 47  1  0  0  0  0
 18 48  1  0  0  0  0
 19 20  1  0  0  0  0
 19 49  1  0  0  0  0
 19 50  1  0  0  0  0
 20 25  1  0  0  0  0
 20 21  1  0  0  0  0
 21 22  1  0  0  0  0
 21 51  1  0  0  0  0
 21 52  1  0  0  0  0
 22 23  1  0  0  0  0
 22 53  1  0  0  0  0
 22 54  1  0  0  0  0
 23 24  1  0  0  0  0
 24 25  1  0  0  0  0
 24 55  1  0  0  0  0
 24 56  1  0  0  0  0
 25 57  1  0  0  0  0
 25 58  1  0  0  0  0
 26 27  1  0  0  0  0
 27 28  2  0  0  0  0
 27 59  1  0  0  0  0
 28 29  1  0  0  0  0
M  END
> <s_m_source_file>
AV-unprocessed.smi

> <i_m_source_file_index>
153

> <i_lp_mmshare_version>
43012

> <i_f3d_flags>
0

> <s_epik_input>
W0NIMl0xW0NIMl1PW0NAQEhdKFtDSDNdKVtDQEBdMShbT0hdKVtDSDJdbihbY0hdbjIpYyhjMjMpbltjSF1uYzNOKFtDSDNdKVtDSDJdW0NASF0oW09IXSlbQ0gyXU40W0NIMl1bQ0gyXU9bQ0gyXVtDSDJdNA==

> <s_epik_cmdline>
J2VwaWtfcHl0aG9uJywgJy1waCcsICc3LjAnLCAnLXRuJywgJzgnLCAnLW1hJywgJzIwMCcsICctbWV0YWxfYmluZGluZycsICctaW1hZScsICc8aW5maWxlLm1hZT4nLCAnLW9tYWUnLCAnPG91dGZpbGUubWFlPic=

> <r_lp_tautomer_probability>
1

> <r_epik_Ionization_Penalty>
0.424123

> <r_epik_Ionization_Penalty_Charging>
0

> <r_epik_Ionization_Penalty_Neutral>
0.424123

> <r_epik_State_Penalty>
0.421495

> <r_epik_Charging_Adjusted_Penalty>
0.421495

> <i_epik_Tot_Q>
0

> <i_epik_Tot_abs_Q>
0

> <r_epik_Metal_State_Penalty>
0.421223

> <b_epik_Metal_Only>
0

> <s_lp_Force_Field>
OPLS_2005

> <r_lp_Energy>
56.4475

> <b_lp_Chiralities_Consistent>
1

> <s_lp_Variant>
AV-unprocessed.smi:153-9

> <Gold.Version>
5.8.1

> <Gold.Id.Protein>
6NUR|6NUR_protein|mol2

> <Gold.PLP.Fitness>
47.8065

> <Gold.PLP.PLP>
-42.5866

> <Gold.PLP.part.hbond>
-3.0000

> <Gold.PLP.part.metal>
0.0000

> <Gold.PLP.part.buried>
-5.4383

> <Gold.PLP.part.nonpolar>
-35.3747

> <Gold.PLP.part.repulsive>
0.1093

> <Gold.PLP.ligand.clash>
0.3940

> <Gold.PLP.ligand.torsion>
1.4497

> <Gold.PLP.Chemscore.Hbond>
2.5200

> <Gold.PLP.Chemscore.CHOScore>
0.0000

> <Gold.PLP.Chemscore.Metal>
0.0000

> <Gold.Chemscore.Hbonds>
donor molecule, donor type, donor heavy atom, donor atom, acceptor molecule, acceptor atom, score
      P1  H  6896  6907       L1    28  0.68
      P1  H  6931  6943       L1     7  0.86
      P1  H 10752 10765       L1    26  1.00

> <Gold.PLP.Chemscore.Internal.Correction>
0.9532

> <Gold.Rescore>
     Score         DG    S(hbond)    S(metal)    S(lipo)     H(rot)  DE(clash)    DE(int)     intcor
      8.72     -13.69       1.08        0.00     116.25       3.52       0.49       4.48       ----

> <Gold.Chemscore.Fitness>
8.7180

> <Gold.Chemscore.DG>
-13.6911

> <Gold.Chemscore.ZeroCoef>
-5.4800

> <Gold.Chemscore.Hbond>
1.0820

> <Gold.Chemscore.Metal>
0.0000

> <Gold.Chemscore.Lipo>
116.2474

> <Gold.Chemscore.Internal_Hbond>
0.0000

> <Gold.Chemscore.DEClash>
0.4919

> <Gold.Chemscore.DEInternal>
4.4811

> <Gold.Chemscore.Rot>
3.5170

> <Gold.Chemscore.Internal.Correction>
   9.000000E+99

> <Gold.Chemscore.Hbonds>
donor molecule, donor type, donor heavy atom, donor atom, acceptor molecule, acceptor atom, score
      P1  H  6896  6907       L1    28  0.35
      P1  H  6931  6943       L1     7  0.19
      P1  H 10752 10765       L1    26  0.25

> <Gold.Chemscore.Hbond.Weighted>
-3.6137

> <Gold.Chemscore.Metal.Weighted>
-0.0000

> <Gold.Chemscore.Lipo.Weighted>
-13.6009

> <Gold.Chemscore.Internal_Hbond.Weighted>
0.0000

> <Gold.Chemscore.DEClash.Weighted>
0.4919

> <Gold.Chemscore.DEInternal.Weighted>
4.4811

> <Gold.Chemscore.Rot.Weighted>
9.0036

> <Gold.Chemscore.Internal.Correction.Weighted>
   9.000000E+99

> <Gold.Protein.RotatedTorsions>
[ 6907 6896 6895 6894 ] final  -99.78 input  -60.11 | X-H torsion
[ 7974 7965 7964 7962 ] final -138.40 input  175.53 | X-H torsion
[ 8008 7997 7996 7995 ] final  -99.07 input   59.86 | X-H torsion
[ 10167 10162 10161 10158 ] final -165.89 input  -65.29 | X-H torsion
[ 10718 10713 10712 10709 ] final -128.77 input   66.30 | X-H torsion
[ 10763 10752 10751 10750 ] final -158.32 input  -60.55 | X-H torsion
[ 11005 11000 10999 10996 ] final -179.70 input  -57.11 | X-H torsion

> <Gold.Protein.ActiveResidues>
 VAL166  LYS551  ARG553  GLY616  TRP617  ASP618  TYR619  PRO620  LYS621  CYS622 
 ASP623  PHE694  ASN695  SER759  ASP760  ASP761  ALA762  ILE779  LEU786  VAL792 
 PHE793  MET794  SER795  GLU796  ALA797  LYS798  CYS799  TRP800  GLU811  SER814 

> <Gold.Protein.RotatedAtoms>
  150.7092  134.0987  159.3957 H   0  0  0  0  0  0  0  0  0  0  0  0  # atno 6907 bound_to 6896
  151.8973  135.0390  160.0512 H   0  0  0  0  0  0  0  0  0  0  0  0  # atno 6908 bound_to 6896
  152.2442  133.5125  159.5324 H   0  0  0  0  0  0  0  0  0  0  0  0  # atno 6909 bound_to 6896
  144.8761  140.6440  143.5235 H   0  0  0  0  0  0  0  0  0  0  0  0  # atno 7974 bound_to 7965
  154.8098  140.0450  157.1334 H   0  0  0  0  0  0  0  0  0  0  0  0  # atno 8008 bound_to 7997
  154.9382  140.3049  155.5114 H   0  0  0  0  0  0  0  0  0  0  0  0  # atno 8009 bound_to 7997
  156.2970  140.2310  156.4448 H   0  0  0  0  0  0  0  0  0  0  0  0  # atno 8010 bound_to 7997
  139.6152  144.0735  152.1880 H   0  0  0  0  0  0  0  0  0  0  0  0  # atno 10167 bound_to 10162
  156.1983  130.6840  151.0508 H   0  0  0  0  0  0  0  0  0  0  0  0  # atno 10718 bound_to 10713
  154.7566  135.3106  154.8458 H   0  0  0  0  0  0  0  0  0  0  0  0  # atno 10763 bound_to 10752
  153.9230  135.6793  153.4751 H   0  0  0  0  0  0  0  0  0  0  0  0  # atno 10764 bound_to 10752
  153.1164  135.4842  154.9052 H   0  0  0  0  0  0  0  0  0  0  0  0  # atno 10765 bound_to 10752
  140.4157  134.6651  157.4637 H   0  0  0  0  0  0  0  0  0  0  0  0  # atno 11005 bound_to 11000
  145.4039  139.1592  143.4162 LP  0  0  0  0  0  0  0  0  0  0  0  0  # atno 17320 bound_to 7965
  146.2964  140.4138  142.8720 LP  0  0  0  0  0  0  0  0  0  0  0  0  # atno 17321 bound_to 7965
  140.0363  144.6042  150.7447 LP  0  0  0  0  0  0  0  0  0  0  0  0  # atno 17342 bound_to 10162
  140.7346  143.2730  151.3828 LP  0  0  0  0  0  0  0  0  0  0  0  0  # atno 17343 bound_to 10162
  157.6970  131.0790  150.6937 LP  0  0  0  0  0  0  0  0  0  0  0  0  # atno 17370 bound_to 10713
  156.6994  130.4619  149.5577 LP  0  0  0  0  0  0  0  0  0  0  0  0  # atno 17371 bound_to 10713
  140.0236  134.6511  155.9205 LP  0  0  0  0  0  0  0  0  0  0  0  0  # atno 17394 bound_to 11000
  141.1804  133.6545  156.4996 LP  0  0  0  0  0  0  0  0  0  0  0  0  # atno 17395 bound_to 11000

$$$$
