AV-unprocessed.smi:1015|AV-procd|sdf|4435|dock5
  -GOLD-   22720 2393D 1   1.00000     0.00000
 Structure written by MMmdl.
 43 44  0  0  0  0  0  0  0  0  2 V2000
  145.7261  143.7898  160.4778 C   0  0  0  0  0  0  0  0  0  0  0  0
  146.4713  142.6400  160.1167 O   0  0  0  0  0  0  0  0  0  0  0  0
  147.1798  142.8108  158.9003 C   0  0  0  0  0  0  0  0  0  0  0  0
  146.4156  142.0956  157.7754 C   0  0  0  0  0  0  0  0  0  0  0  0
  147.1264  142.1613  156.4729 N   0  3  2  0  0  0  0  0  0  0  0  0
  146.2199  141.8987  155.3256 C   0  0  0  0  0  0  0  0  0  0  0  0
  146.9426  142.0984  153.9800 C   0  0  0  0  0  0  0  0  0  0  0  0
  148.2167  141.2404  153.8678 C   0  0  2  0  0  0  0  0  0  0  0  0
  147.8926  139.7464  153.6291 C   0  0  0  0  0  0  0  0  0  0  0  0
  149.0895  138.9140  153.6919 N   0  0  0  0  0  0  0  0  0  0  0  0
  149.4998  138.2206  154.7660 C   0  0  0  0  0  0  0  0  0  0  0  0
  148.8601  138.1472  155.8148 O   0  0  0  0  0  0  0  0  0  0  0  0
  150.8609  137.5355  154.6528 C   0  0  0  0  0  0  0  0  0  0  0  0
  151.7087  137.9082  155.7696 N   0  0  0  0  0  0  0  0  0  0  0  0
  152.1147  139.1039  156.2023 C   0  0  0  0  0  0  0  0  0  0  0  0
  152.8624  139.0019  157.2904 N   0  0  0  0  0  0  0  0  0  0  0  0
  152.9047  137.6362  157.5164 N   0  0  0  0  0  0  0  0  0  0  0  0
  152.2210  136.9820  156.6182 N   0  0  0  0  0  0  0  0  0  0  0  0
  149.1043  141.5156  155.1004 C   0  0  0  0  0  0  0  0  0  0  0  0
  148.3416  141.3060  156.4193 C   0  0  0  0  0  0  0  0  0  0  0  0
  145.2056  143.6086  161.4181 H   0  0  0  0  0  0  0  0  0  0  0  0
  144.9787  144.0289  159.7203 H   0  0  0  0  0  0  0  0  0  0  0  0
  146.3760  144.6551  160.6142 H   0  0  0  0  0  0  0  0  0  0  0  0
  147.3215  143.8692  158.6807 H   0  0  0  0  0  0  0  0  0  0  0  0
  148.1740  142.3714  158.9965 H   0  0  0  0  0  0  0  0  0  0  0  0
  146.2322  141.0533  158.0402 H   0  0  0  0  0  0  0  0  0  0  0  0
  145.4351  142.5652  157.6845 H   0  0  0  0  0  0  0  0  0  0  0  0
  145.8171  140.8879  155.4007 H   0  0  0  0  0  0  0  0  0  0  0  0
  145.3675  142.5777  155.3714 H   0  0  0  0  0  0  0  0  0  0  0  0
  146.2642  141.8788  153.1548 H   0  0  0  0  0  0  0  0  0  0  0  0
  147.2104  143.1509  153.8768 H   0  0  0  0  0  0  0  0  0  0  0  0
  148.7645  141.5839  152.9890 H   0  0  0  0  0  0  0  0  0  0  0  0
  147.1335  139.3914  154.3266 H   0  0  0  0  0  0  0  0  0  0  0  0
  147.4624  139.6223  152.6350 H   0  0  0  0  0  0  0  0  0  0  0  0
  149.6782  138.9059  152.8714 H   0  0  0  0  0  0  0  0  0  0  0  0
  150.7392  136.4511  154.6389 H   0  0  0  0  0  0  0  0  0  0  0  0
  151.3522  137.8197  153.7213 H   0  0  0  0  0  0  0  0  0  0  0  0
  151.8557  140.0409  155.7312 H   0  0  0  0  0  0  0  0  0  0  0  0
  150.0050  140.9023  155.0847 H   0  0  0  0  0  0  0  0  0  0  0  0
  149.4558  142.5475  155.0603 H   0  0  0  0  0  0  0  0  0  0  0  0
  149.0089  141.5431  157.2467 H   0  0  0  0  0  0  0  0  0  0  0  0
  148.0607  140.2587  156.5371 H   0  0  0  0  0  0  0  0  0  0  0  0
  147.4362  143.1174  156.3702 H   0  0  0  0  0  0  0  0  0  0  0  0
  1  2  1  0  0  0  0
  1 21  1  0  0  0  0
  1 22  1  0  0  0  0
  1 23  1  0  0  0  0
  2  3  1  0  0  0  0
  3  4  1  0  0  0  0
  3 24  1  0  0  0  0
  3 25  1  0  0  0  0
  4  5  1  0  0  0  0
  4 26  1  0  0  0  0
  4 27  1  0  0  0  0
  5 20  1  0  0  0  0
  5  6  1  0  0  0  0
  5 43  1  0  0  0  0
  6  7  1  0  0  0  0
  6 28  1  0  0  0  0
  6 29  1  0  0  0  0
  7  8  1  0  0  0  0
  7 30  1  0  0  0  0
  7 31  1  0  0  0  0
  8  9  1  0  0  0  0
  8 19  1  0  0  0  0
  8 32  1  0  0  0  0
  9 10  1  0  0  0  0
  9 33  1  0  0  0  0
  9 34  1  0  0  0  0
 10 11  1  0  0  0  0
 10 35  1  0  0  0  0
 11 12  2  0  0  0  0
 11 13  1  0  0  0  0
 13 14  1  0  0  0  0
 13 36  1  0  0  0  0
 13 37  1  0  0  0  0
 14 18  1  0  0  0  0
 14 15  1  0  0  0  0
 15 16  2  0  0  0  0
 15 38  1  0  0  0  0
 16 17  1  0  0  0  0
 17 18  2  0  0  0  0
 19 20  1  0  0  0  0
 19 39  1  0  0  0  0
 19 40  1  0  0  0  0
 20 41  1  0  0  0  0
 20 42  1  0  0  0  0
M  CHG  1   5   1
M  END
> <s_m_source_file>
AV-unprocessed.smi

> <i_m_source_file_index>
1015

> <i_lp_mmshare_version>
43012

> <i_f3d_flags>
0

> <s_epik_input>
W0NIM11PW0NIMl1bQ0gyXU4xW0NIMl1bQ0gyXVtDSF0oW0NIMl1bQ0gyXTEpW0NIMl1bTkhdQyg9TylbQ0gyXW4yW2NIXW5ubjI=

> <s_epik_cmdline>
J2VwaWtfcHl0aG9uJywgJy1waCcsICc3LjAnLCAnLXRuJywgJzgnLCAnLW1hJywgJzIwMCcsICctbWV0YWxfYmluZGluZycsICctaW1hZScsICc8aW5maWxlLm1hZT4nLCAnLW9tYWUnLCAnPG91dGZpbGUubWFlPic=

> <r_lp_tautomer_probability>
1

> <r_epik_Ionization_Penalty>
0.0104119

> <r_epik_Ionization_Penalty_Charging>
0.0104107

> <r_epik_Ionization_Penalty_Neutral>
1.19574e-06

> <r_epik_State_Penalty>
0.00795975

> <r_epik_Charging_Adjusted_Penalty>
0.0183705

> <i_epik_Tot_Q>
1

> <i_epik_Tot_abs_Q>
1

> <r_epik_Metal_State_Penalty>
0.00795975

> <b_epik_Metal_Only>
0

> <s_lp_Force_Field>
OPLS_2005

> <r_lp_Energy>
22.9597

> <b_lp_Chiralities_Consistent>
1

> <s_lp_Variant>
AV-unprocessed.smi:1015-2

> <Gold.Version>
5.8.1

> <Gold.Id.Protein>
6NUR|6NUR_protein|mol2

> <Gold.PLP.Fitness>
48.9417

> <Gold.PLP.PLP>
-32.9895

> <Gold.PLP.part.hbond>
-6.7447

> <Gold.PLP.part.metal>
0.0000

> <Gold.PLP.part.buried>
-2.8422

> <Gold.PLP.part.nonpolar>
-25.7219

> <Gold.PLP.part.repulsive>
0.1481

> <Gold.PLP.ligand.clash>
0.0000

> <Gold.PLP.ligand.torsion>
0.6979

> <Gold.PLP.Chemscore.Hbond>
5.7628

> <Gold.PLP.Chemscore.CHOScore>
0.0000

> <Gold.PLP.Chemscore.Metal>
0.0000

> <Gold.Chemscore.Hbonds>
donor molecule, donor type, donor heavy atom, donor atom, acceptor molecule, acceptor atom, score
      L1  H     5    43       P1  8028  0.52
      L1  H    10    35       P1  7957  0.62
      P1  H  6933  6944       L1     2  0.01
      P1  H  6934  6946       L1     2  1.00
      P1  H  7997  8009       L1    16  0.90
      P1  H 10752 10765       L1    18  0.21

> <Gold.PLP.Chemscore.Internal.Correction>
0.0597

> <Gold.Rescore>
     Score         DG    S(hbond)    S(metal)    S(lipo)     H(rot)  DE(clash)    DE(int)     intcor
     15.37     -16.16       3.85        0.00      51.21       3.19       0.13       0.66       ----

> <Gold.Chemscore.Fitness>
15.3678

> <Gold.Chemscore.DG>
-16.1596

> <Gold.Chemscore.ZeroCoef>
-5.4800

> <Gold.Chemscore.Hbond>
3.8508

> <Gold.Chemscore.Metal>
0.0000

> <Gold.Chemscore.Lipo>
51.2116

> <Gold.Chemscore.Internal_Hbond>
0.0000

> <Gold.Chemscore.DEClash>
0.1272

> <Gold.Chemscore.DEInternal>
0.6646

> <Gold.Chemscore.Rot>
3.1928

> <Gold.Chemscore.Internal.Correction>
   9.000000E+99

> <Gold.Chemscore.Hbonds>
donor molecule, donor type, donor heavy atom, donor atom, acceptor molecule, acceptor atom, score
      L1  H     5    43       P1  8028  0.01
      L1  H    10    35       P1  7957  0.53
      P1  H  6934  6946       L1     2  0.49
      P1  H  7997  8009       L1    16  0.18
      P1  H 10752 10765       L1    18  0.05

> <Gold.Chemscore.Hbond.Weighted>
-12.8615

> <Gold.Chemscore.Metal.Weighted>
-0.0000

> <Gold.Chemscore.Lipo.Weighted>
-5.9918

> <Gold.Chemscore.Internal_Hbond.Weighted>
0.0000

> <Gold.Chemscore.DEClash.Weighted>
0.1272

> <Gold.Chemscore.DEInternal.Weighted>
0.6646

> <Gold.Chemscore.Rot.Weighted>
8.1737

> <Gold.Chemscore.Internal.Correction.Weighted>
   9.000000E+99

> <Gold.Protein.RotatedTorsions>
[ 6907 6896 6895 6894 ] final  148.05 input  -60.11 | X-H torsion
[ 7974 7965 7964 7962 ] final -132.00 input  175.53 | X-H torsion
[ 8008 7997 7996 7995 ] final  179.35 input   59.86 | X-H torsion
[ 10167 10162 10161 10158 ] final  -83.49 input  -65.29 | X-H torsion
[ 10718 10713 10712 10709 ] final -123.09 input   66.30 | X-H torsion
[ 10763 10752 10751 10750 ] final -148.67 input  -60.55 | X-H torsion
[ 11005 11000 10999 10996 ] final  142.88 input  -57.11 | X-H torsion

> <Gold.Protein.ActiveResidues>
 VAL166  LYS551  ARG553  GLY616  TRP617  ASP618  TYR619  PRO620  LYS621  CYS622 
 ASP623  PHE694  ASN695  SER759  ASP760  ASP761  ALA762  ILE779  LEU786  VAL792 
 PHE793  MET794  SER795  GLU796  ALA797  LYS798  CYS799  TRP800  GLU811  SER814 

> <Gold.Protein.RotatedAtoms>
  152.1466  133.4496  159.4792 H   0  0  0  0  0  0  0  0  0  0  0  0  # atno 6907 bound_to 6896
  150.6891  134.2240  159.4417 H   0  0  0  0  0  0  0  0  0  0  0  0  # atno 6908 bound_to 6896
  152.0134  134.9863  160.0619 H   0  0  0  0  0  0  0  0  0  0  0  0  # atno 6909 bound_to 6896
  144.9326  140.7146  143.4896 H   0  0  0  0  0  0  0  0  0  0  0  0  # atno 7974 bound_to 7965
  156.0444  140.1311  157.0120 H   0  0  0  0  0  0  0  0  0  0  0  0  # atno 8008 bound_to 7997
  154.4405  140.1023  156.6355 H   0  0  0  0  0  0  0  0  0  0  0  0  # atno 8009 bound_to 7997
  155.5618  140.3465  155.4495 H   0  0  0  0  0  0  0  0  0  0  0  0  # atno 8010 bound_to 7997
  140.4222  143.2580  151.8874 H   0  0  0  0  0  0  0  0  0  0  0  0  # atno 10167 bound_to 10162
  156.1472  130.6509  150.9861 H   0  0  0  0  0  0  0  0  0  0  0  0  # atno 10718 bound_to 10713
  154.8220  135.3328  154.7010 H   0  0  0  0  0  0  0  0  0  0  0  0  # atno 10763 bound_to 10752
  153.7641  135.6930  153.4924 H   0  0  0  0  0  0  0  0  0  0  0  0  # atno 10764 bound_to 10752
  153.2089  135.4489  155.0305 H   0  0  0  0  0  0  0  0  0  0  0  0  # atno 10765 bound_to 10752
  140.0510  134.9255  157.1017 H   0  0  0  0  0  0  0  0  0  0  0  0  # atno 11005 bound_to 11000
  145.3117  139.1816  143.4635 LP  0  0  0  0  0  0  0  0  0  0  0  0  # atno 17320 bound_to 7965
  146.3253  140.3123  142.8627 LP  0  0  0  0  0  0  0  0  0  0  0  0  # atno 17321 bound_to 7965
  139.4783  144.5425  151.8507 LP  0  0  0  0  0  0  0  0  0  0  0  0  # atno 17342 bound_to 10162
  140.4521  144.1841  150.5898 LP  0  0  0  0  0  0  0  0  0  0  0  0  # atno 17343 bound_to 10162
  157.6627  131.0878  150.7801 LP  0  0  0  0  0  0  0  0  0  0  0  0  # atno 17370 bound_to 10713
  156.7872  130.4878  149.5391 LP  0  0  0  0  0  0  0  0  0  0  0  0  # atno 17371 bound_to 10713
  140.3917  134.2177  155.7166 LP  0  0  0  0  0  0  0  0  0  0  0  0  # atno 17394 bound_to 11000
  141.1930  133.8160  157.0815 LP  0  0  0  0  0  0  0  0  0  0  0  0  # atno 17395 bound_to 11000

$$$$
