AV-unprocessed.smi:1995|AV-procd|sdf|8076|dock7
  -GOLD-   2272010283D 1   1.00000     0.00000
 Structure written by MMmdl.
 42 43  0  0  0  0  0  0  0  0  1 V2000
  147.0758  140.9641  152.8842 C   0  0  0  0  0  0  0  0  0  0  0  0
  147.0259  139.4642  153.2289 C   0  0  0  0  0  0  0  0  0  0  0  0
  147.3066  139.1059  154.7231 C   0  0  1  0  0  0  0  0  0  0  0  0
  146.4838  140.1098  155.5748 C   0  0  0  0  0  0  0  0  0  0  0  0
  146.7672  137.6633  154.9927 C   0  0  0  0  0  0  0  0  0  0  0  0
  146.9163  136.7503  153.8585 N   0  0  0  0  0  0  0  0  0  0  0  0
  145.9835  135.8978  153.4093 C   0  0  0  0  0  0  0  0  0  0  0  0
  144.8676  135.7810  153.9156 O   0  0  0  0  0  0  0  0  0  0  0  0
  146.4285  135.2084  152.3462 N   0  0  0  0  0  0  0  0  0  0  0  0
  145.7287  134.2385  151.5861 C   0  0  0  0  0  0  0  0  0  0  0  0
  144.3947  134.2329  151.6184 N   0  0  0  0  0  0  0  0  0  0  0  0
  143.8545  133.2179  150.8233 C   0  0  0  0  0  0  0  0  0  0  0  0
  144.8002  132.4539  150.1857 C   0  0  0  0  0  0  0  0  0  0  0  0
  146.4196  132.9795  150.5590 S   0  0  0  0  0  0  0  0  0  0  0  0
  148.7589  139.2273  155.0383 N   0  0  0  0  0  0  0  0  0  0  0  0
  149.2677  140.6016  155.1302 C   0  0  0  0  0  0  0  0  0  0  0  0
  150.7296  140.6436  155.6067 C   0  0  0  0  0  0  0  0  0  0  0  0
  151.5410  139.8688  154.7320 O   0  0  0  0  0  0  0  0  0  0  0  0
  151.1154  138.5137  154.6537 C   0  0  0  0  0  0  0  0  0  0  0  0
  149.6560  138.4547  154.1703 C   0  0  0  0  0  0  0  0  0  0  0  0
  146.8825  141.1179  151.8225 H   0  0  0  0  0  0  0  0  0  0  0  0
  148.0513  141.3986  153.1018 H   0  0  0  0  0  0  0  0  0  0  0  0
  146.3256  141.5312  153.4344 H   0  0  0  0  0  0  0  0  0  0  0  0
  146.0413  139.0978  152.9365 H   0  0  0  0  0  0  0  0  0  0  0  0
  147.7171  138.9313  152.5764 H   0  0  0  0  0  0  0  0  0  0  0  0
  145.4640  140.2219  155.2054 H   0  0  0  0  0  0  0  0  0  0  0  0
  146.9344  141.1025  155.5758 H   0  0  0  0  0  0  0  0  0  0  0  0
  146.3998  139.7905  156.6138 H   0  0  0  0  0  0  0  0  0  0  0  0
  147.3097  137.2035  155.8179 H   0  0  0  0  0  0  0  0  0  0  0  0
  145.7233  137.6881  155.3060 H   0  0  0  0  0  0  0  0  0  0  0  0
  147.8026  136.7760  153.3759 H   0  0  0  0  0  0  0  0  0  0  0  0
  147.3695  135.4054  152.0388 H   0  0  0  0  0  0  0  0  0  0  0  0
  142.7814  133.1098  150.7684 H   0  0  0  0  0  0  0  0  0  0  0  0
  144.6428  131.6172  149.5213 H   0  0  0  0  0  0  0  0  0  0  0  0
  149.2046  141.0939  154.1600 H   0  0  0  0  0  0  0  0  0  0  0  0
  148.6745  141.1937  155.8240 H   0  0  0  0  0  0  0  0  0  0  0  0
  151.0962  141.6701  155.6150 H   0  0  0  0  0  0  0  0  0  0  0  0
  150.8149  140.2651  156.6266 H   0  0  0  0  0  0  0  0  0  0  0  0
  151.7654  137.9761  153.9632 H   0  0  0  0  0  0  0  0  0  0  0  0
  151.2187  138.0345  155.6286 H   0  0  0  0  0  0  0  0  0  0  0  0
  149.3611  137.4073  154.1363 H   0  0  0  0  0  0  0  0  0  0  0  0
  149.6115  138.8299  153.1480 H   0  0  0  0  0  0  0  0  0  0  0  0
  1  2  1  0  0  0  0
  1 21  1  0  0  0  0
  1 22  1  0  0  0  0
  1 23  1  0  0  0  0
  2  3  1  0  0  0  0
  2 24  1  0  0  0  0
  2 25  1  0  0  0  0
  3  4  1  0  0  0  0
  3  5  1  0  0  0  0
  3 15  1  0  0  0  0
  4 26  1  0  0  0  0
  4 27  1  0  0  0  0
  4 28  1  0  0  0  0
  5  6  1  0  0  0  0
  5 29  1  0  0  0  0
  5 30  1  0  0  0  0
  6  7  1  0  0  0  0
  6 31  1  0  0  0  0
  7  8  2  0  0  0  0
  7  9  1  0  0  0  0
  9 10  1  0  0  0  0
  9 32  1  0  0  0  0
 10 14  1  0  0  0  0
 10 11  2  0  0  0  0
 11 12  1  0  0  0  0
 12 13  2  0  0  0  0
 12 33  1  0  0  0  0
 13 14  1  0  0  0  0
 13 34  1  0  0  0  0
 15 20  1  0  0  0  0
 15 16  1  0  0  0  0
 16 17  1  0  0  0  0
 16 35  1  0  0  0  0
 16 36  1  0  0  0  0
 17 18  1  0  0  0  0
 17 37  1  0  0  0  0
 17 38  1  0  0  0  0
 18 19  1  0  0  0  0
 19 20  1  0  0  0  0
 19 39  1  0  0  0  0
 19 40  1  0  0  0  0
 20 41  1  0  0  0  0
 20 42  1  0  0  0  0
M  END
> <s_m_source_file>
AV-unprocessed.smi

> <i_m_source_file_index>
1995

> <i_lp_mmshare_version>
43012

> <i_f3d_flags>
0

> <s_epik_input>
W0NIMl0xW0NIMl1PW0NIMl1bQ0gyXU4xW0NAQF0oW0NIM10pKFtDSDJdW0NIM10pW0NIMl1bTkhdQyg9TylbTkhdYzJuW2NIXVtjSF1zMg==

> <s_epik_cmdline>
J2VwaWtfcHl0aG9uJywgJy1waCcsICc3LjAnLCAnLXRuJywgJzgnLCAnLW1hJywgJzIwMCcsICctbWV0YWxfYmluZGluZycsICctaW1hZScsICc8aW5maWxlLm1hZT4nLCAnLW9tYWUnLCAnPG91dGZpbGUubWFlPic=

> <r_lp_tautomer_probability>
0.999

> <r_epik_Ionization_Penalty>
0.295852

> <r_epik_Ionization_Penalty_Charging>
0

> <r_epik_Ionization_Penalty_Neutral>
0.295852

> <r_epik_State_Penalty>
0.288723

> <r_epik_Charging_Adjusted_Penalty>
0.288723

> <i_epik_Tot_Q>
0

> <i_epik_Tot_abs_Q>
0

> <r_epik_Metal_State_Penalty>
0.29791

> <b_epik_Metal_Only>
0

> <s_lp_Force_Field>
OPLS_2005

> <r_lp_Energy>
39.4988

> <b_lp_Chiralities_Consistent>
1

> <s_lp_Variant>
AV-unprocessed.smi:1995-1

> <Gold.Version>
5.8.1

> <Gold.Id.Protein>
6NUR|6NUR_protein|mol2

> <Gold.PLP.Fitness>
39.7113

> <Gold.PLP.PLP>
-29.7600

> <Gold.PLP.part.hbond>
-3.0000

> <Gold.PLP.part.metal>
0.0000

> <Gold.PLP.part.buried>
-3.8055

> <Gold.PLP.part.nonpolar>
-23.0975

> <Gold.PLP.part.repulsive>
0.3354

> <Gold.PLP.ligand.clash>
0.0000

> <Gold.PLP.ligand.torsion>
1.0573

> <Gold.PLP.Chemscore.Hbond>
2.9920

> <Gold.PLP.Chemscore.CHOScore>
0.9970

> <Gold.PLP.Chemscore.Metal>
0.0000

> <Gold.Chemscore.Hbonds>
donor molecule, donor type, donor heavy atom, donor atom, acceptor molecule, acceptor atom, score
      L1  H     6    31       P1  7948  1.00
      L1  H     9    32       P1  7948  1.00
      P1  H  7989  7998       L1    18  1.00
      L1  C    12    33       P1 10186  1.00

> <Gold.PLP.Chemscore.Internal.Correction>
0.0991

> <Gold.Rescore>
     Score         DG    S(hbond)    S(metal)    S(lipo)     H(rot)  DE(clash)    DE(int)     intcor
     16.51     -19.34       2.81        0.00      76.21       1.74       0.17       2.66       ----

> <Gold.Chemscore.Fitness>
16.5091

> <Gold.Chemscore.DG>
-19.3396

> <Gold.Chemscore.ZeroCoef>
-5.4800

> <Gold.Chemscore.Hbond>
2.8143

> <Gold.Chemscore.Metal>
0.0000

> <Gold.Chemscore.Lipo>
76.2099

> <Gold.Chemscore.Internal_Hbond>
0.0000

> <Gold.Chemscore.DEClash>
0.1699

> <Gold.Chemscore.DEInternal>
2.6606

> <Gold.Chemscore.Rot>
1.7408

> <Gold.Chemscore.Internal.Correction>
   9.000000E+99

> <Gold.Chemscore.Hbonds>
donor molecule, donor type, donor heavy atom, donor atom, acceptor molecule, acceptor atom, score
      L1  H     6    31       P1  7948  0.93
      L1  H     9    32       P1  7948  1.00
      P1  H  7989  7998       L1    18  0.25

> <Gold.Chemscore.Hbond.Weighted>
-9.3996

> <Gold.Chemscore.Metal.Weighted>
-0.0000

> <Gold.Chemscore.Lipo.Weighted>
-8.9166

> <Gold.Chemscore.Internal_Hbond.Weighted>
0.0000

> <Gold.Chemscore.DEClash.Weighted>
0.1699

> <Gold.Chemscore.DEInternal.Weighted>
2.6606

> <Gold.Chemscore.Rot.Weighted>
4.4565

> <Gold.Chemscore.Internal.Correction.Weighted>
   9.000000E+99

> <Gold.Protein.RotatedTorsions>
[ 6907 6896 6895 6894 ] final   -2.29 input  -60.11 | X-H torsion
[ 7974 7965 7964 7962 ] final  -68.31 input  175.53 | X-H torsion
[ 8008 7997 7996 7995 ] final   -8.37 input   59.86 | X-H torsion
[ 10167 10162 10161 10158 ] final   24.28 input  -65.29 | X-H torsion
[ 10718 10713 10712 10709 ] final  -89.96 input   66.30 | X-H torsion
[ 10763 10752 10751 10750 ] final    2.23 input  -60.55 | X-H torsion
[ 11005 11000 10999 10996 ] final  132.08 input  -57.11 | X-H torsion

> <Gold.Protein.ActiveResidues>
 VAL166  LYS551  ARG553  GLY616  TRP617  ASP618  TYR619  PRO620  LYS621  CYS622 
 ASP623  PHE694  ASN695  SER759  ASP760  ASP761  ALA762  ILE779  LEU786  VAL792 
 PHE793  MET794  SER795  GLU796  ALA797  LYS798  CYS799  TRP800  GLU811  SER814 

> <Gold.Protein.RotatedAtoms>
  151.5322  135.1068  159.9905 H   0  0  0  0  0  0  0  0  0  0  0  0  # atno 6907 bound_to 6896
  152.4573  133.7745  159.6828 H   0  0  0  0  0  0  0  0  0  0  0  0  # atno 6908 bound_to 6896
  150.8522  133.7705  159.3046 H   0  0  0  0  0  0  0  0  0  0  0  0  # atno 6909 bound_to 6896
  145.7181  140.9050  143.0645 H   0  0  0  0  0  0  0  0  0  0  0  0  # atno 7974 bound_to 7965
  154.5748  140.2383  155.8139 H   0  0  0  0  0  0  0  0  0  0  0  0  # atno 8008 bound_to 7997
  156.2134  140.3019  155.9742 H   0  0  0  0  0  0  0  0  0  0  0  0  # atno 8009 bound_to 7997
  155.2648  140.0416  157.2991 H   0  0  0  0  0  0  0  0  0  0  0  0  # atno 8010 bound_to 7997
  140.5201  144.0017  150.6412 H   0  0  0  0  0  0  0  0  0  0  0  0  # atno 10167 bound_to 10162
  155.9986  130.4892  150.5250 H   0  0  0  0  0  0  0  0  0  0  0  0  # atno 10718 bound_to 10713
  153.2981  135.6954  153.7229 H   0  0  0  0  0  0  0  0  0  0  0  0  # atno 10763 bound_to 10752
  153.6153  135.3437  155.2993 H   0  0  0  0  0  0  0  0  0  0  0  0  # atno 10764 bound_to 10752
  154.8543  135.4373  154.2084 H   0  0  0  0  0  0  0  0  0  0  0  0  # atno 10765 bound_to 10752
  139.9769  134.9561  156.9531 H   0  0  0  0  0  0  0  0  0  0  0  0  # atno 11005 bound_to 11000
  144.6924  139.9166  143.7466 LP  0  0  0  0  0  0  0  0  0  0  0  0  # atno 17320 bound_to 7965
  146.0651  139.3642  143.0557 LP  0  0  0  0  0  0  0  0  0  0  0  0  # atno 17321 bound_to 7965
  140.3364  143.3046  152.0634 LP  0  0  0  0  0  0  0  0  0  0  0  0  # atno 17342 bound_to 10162
  139.4921  144.6474  151.6750 LP  0  0  0  0  0  0  0  0  0  0  0  0  # atno 17343 bound_to 10162
  157.3207  131.0681  151.1934 LP  0  0  0  0  0  0  0  0  0  0  0  0  # atno 17370 bound_to 10713
  157.2848  130.6767  149.6084 LP  0  0  0  0  0  0  0  0  0  0  0  0  # atno 17371 bound_to 10713
  140.5177  134.0939  155.7284 LP  0  0  0  0  0  0  0  0  0  0  0  0  # atno 17394 bound_to 11000
  141.1445  133.9080  157.2249 LP  0  0  0  0  0  0  0  0  0  0  0  0  # atno 17395 bound_to 11000

$$$$
