AV-unprocessed.smi:265|AV-procd|sdf|2019|dock3
  -GOLD-   2262021223D 1   1.00000     0.00000
 Structure written by MMmdl.
 52 56  0  0  0  0  0  0  0  0  1 V2000
  152.1756  144.5501  160.7354 C   0  0  0  0  0  0  0  0  0  0  0  0
  152.2365  143.2291  161.5186 C   0  0  2  0  0  0  0  0  0  0  0  0
  153.1058  143.4229  162.6312 O   0  0  0  0  0  0  0  0  0  0  0  0
  153.7160  142.1866  162.9546 C   0  0  0  0  0  0  0  0  0  0  0  0
  154.0218  141.6076  161.5820 C   0  0  0  0  0  0  0  0  0  0  0  0
  152.7906  141.9877  160.7626 C   0  0  1  0  0  0  0  0  0  0  0  0
  151.8421  140.9425  160.8959 O   0  0  0  0  0  0  0  0  0  0  0  0
  153.0867  142.1777  159.2516 C   0  0  0  0  0  0  0  0  0  0  0  0
  151.9142  142.0142  158.4047 N   0  0  0  0  0  0  0  0  0  0  0  0
  150.7716  142.7837  158.4146 C   0  0  0  0  0  0  0  0  0  0  0  0
  149.8548  142.4340  157.5534 N   0  0  0  0  0  0  0  0  0  0  0  0
  150.4038  141.3327  156.9100 C   0  0  0  0  0  0  0  0  0  0  0  0
  149.9509  140.4640  155.8834 C   0  0  0  0  0  0  0  0  0  0  0  0
  148.7459  140.6211  155.2949 N   0  0  0  0  0  0  0  0  0  0  0  0
  148.7196  141.7233  154.3393 C   0  0  0  0  0  0  0  0  0  0  0  0
  147.2773  142.0294  153.9067 C   0  0  0  0  0  0  0  0  0  0  0  0
  146.5558  140.7737  153.3869 C   0  0  1  0  0  0  0  0  0  0  0  0
  147.1168  140.3596  152.1477 O   0  0  0  0  0  0  0  0  0  0  0  0
  146.3867  139.3119  151.5061 C   0  0  0  0  0  0  0  0  0  0  0  0
  146.0731  138.1456  152.4617 C   0  0  0  0  0  0  0  0  0  0  0  0
  145.7120  137.0620  152.0085 O   0  0  0  0  0  0  0  0  0  0  0  0
  146.1655  138.3674  153.7827 N   0  0  0  0  0  0  0  0  0  0  0  0
  146.6886  139.5941  154.3754 C   0  0  1  0  0  0  0  0  0  0  0  0
  148.1553  139.3804  154.8020 C   0  0  0  0  0  0  0  0  0  0  0  0
  150.7741  139.4566  155.4903 N   0  0  0  0  0  0  0  0  0  0  0  0
  151.9692  139.3087  156.0710 C   0  0  0  0  0  0  0  0  0  0  0  0
  152.5229  140.0403  157.0412 N   0  0  0  0  0  0  0  0  0  0  0  0
  151.6965  141.0526  157.4333 C   0  0  0  0  0  0  0  0  0  0  0  0
  145.5034  141.0188  153.2301 H   0  0  0  0  0  0  0  0  0  0  0  0
  146.0961  139.8143  155.2643 H   0  0  0  0  0  0  0  0  0  0  0  0
  151.5081  144.4743  159.8769 H   0  0  0  0  0  0  0  0  0  0  0  0
  153.1606  144.8509  160.3781 H   0  0  0  0  0  0  0  0  0  0  0  0
  151.8000  145.3540  161.3685 H   0  0  0  0  0  0  0  0  0  0  0  0
  151.2409  143.0197  161.9147 H   0  0  0  0  0  0  0  0  0  0  0  0
  154.6089  142.3252  163.5644 H   0  0  0  0  0  0  0  0  0  0  0  0
  153.0134  141.5568  163.5024 H   0  0  0  0  0  0  0  0  0  0  0  0
  154.9056  142.1078  161.1838 H   0  0  0  0  0  0  0  0  0  0  0  0
  154.2274  140.5363  161.6027 H   0  0  0  0  0  0  0  0  0  0  0  0
  152.2114  140.1538  160.5291 H   0  0  0  0  0  0  0  0  0  0  0  0
  153.5027  143.1693  159.0685 H   0  0  0  0  0  0  0  0  0  0  0  0
  153.8371  141.4617  158.9156 H   0  0  0  0  0  0  0  0  0  0  0  0
  150.6385  143.6210  159.0838 H   0  0  0  0  0  0  0  0  0  0  0  0
  149.1686  142.6130  154.7833 H   0  0  0  0  0  0  0  0  0  0  0  0
  149.3220  141.4625  153.4677 H   0  0  0  0  0  0  0  0  0  0  0  0
  146.7280  142.4272  154.7609 H   0  0  0  0  0  0  0  0  0  0  0  0
  147.2707  142.8101  153.1457 H   0  0  0  0  0  0  0  0  0  0  0  0
  145.4490  139.7093  151.1159 H   0  0  0  0  0  0  0  0  0  0  0  0
  146.9619  138.9470  150.6549 H   0  0  0  0  0  0  0  0  0  0  0  0
  145.9257  137.6150  154.4117 H   0  0  0  0  0  0  0  0  0  0  0  0
  148.7397  139.0162  153.9555 H   0  0  0  0  0  0  0  0  0  0  0  0
  148.2087  138.6155  155.5782 H   0  0  0  0  0  0  0  0  0  0  0  0
  152.5682  138.4874  155.7058 H   0  0  0  0  0  0  0  0  0  0  0  0
  1  2  1  0  0  0  0
  1 31  1  0  0  0  0
  1 32  1  0  0  0  0
  1 33  1  0  0  0  0
  2  6  1  0  0  0  0
  2  3  1  0  0  0  0
  2 34  1  0  0  0  0
  3  4  1  0  0  0  0
  4  5  1  0  0  0  0
  4 35  1  0  0  0  0
  4 36  1  0  0  0  0
  5  6  1  0  0  0  0
  5 37  1  0  0  0  0
  5 38  1  0  0  0  0
  6  7  1  0  0  0  0
  6  8  1  0  0  0  0
  7 39  1  0  0  0  0
  8  9  1  0  0  0  0
  8 40  1  0  0  0  0
  8 41  1  0  0  0  0
  9 28  1  0  0  0  0
  9 10  1  0  0  0  0
 10 11  2  0  0  0  0
 10 42  1  0  0  0  0
 11 12  1  0  0  0  0
 12 28  2  0  0  0  0
 12 13  1  0  0  0  0
 13 14  1  0  0  0  0
 13 25  2  0  0  0  0
 14 24  1  0  0  0  0
 14 15  1  0  0  0  0
 15 16  1  0  0  0  0
 15 43  1  0  0  0  0
 15 44  1  0  0  0  0
 16 17  1  0  0  0  0
 16 45  1  0  0  0  0
 16 46  1  0  0  0  0
 17 29  1  0  0  0  0
 17 23  1  0  0  0  0
 17 18  1  0  0  0  0
 18 19  1  0  0  0  0
 19 20  1  0  0  0  0
 19 47  1  0  0  0  0
 19 48  1  0  0  0  0
 20 21  2  0  0  0  0
 20 22  1  0  0  0  0
 22 23  1  0  0  0  0
 22 49  1  0  0  0  0
 23 30  1  0  0  0  0
 23 24  1  0  0  0  0
 24 50  1  0  0  0  0
 24 51  1  0  0  0  0
 25 26  1  0  0  0  0
 26 27  2  0  0  0  0
 26 52  1  0  0  0  0
 27 28  1  0  0  0  0
M  END
> <s_m_source_file>
AV-unprocessed.smi

> <i_m_source_file_index>
265

> <i_lp_mmshare_version>
43012

> <i_f3d_flags>
0

> <s_epik_input>
W0NIMl0xW0NIMl1PW0NAQEhdKFtDSDNdKVtDQEBdMShbT0hdKVtDSDJdbihbY0hdbjIpYyhjMjMpbltjSF1uYzNOKFtDSDJdW0NIMl00KVtDSDJdW0NAQEhdKFtDQEhdNDUpW05IXUMoPU8pW0NIMl1PNQ==

> <s_epik_cmdline>
J2VwaWtfcHl0aG9uJywgJy1waCcsICc3LjAnLCAnLXRuJywgJzgnLCAnLW1hJywgJzIwMCcsICctbWV0YWxfYmluZGluZycsICctaW1hZScsICc8aW5maWxlLm1hZT4nLCAnLW9tYWUnLCAnPG91dGZpbGUubWFlPic=

> <r_lp_tautomer_probability>
1

> <r_epik_Ionization_Penalty>
0.00221504

> <r_epik_Ionization_Penalty_Charging>
0

> <r_epik_Ionization_Penalty_Neutral>
0.00221504

> <r_epik_State_Penalty>
-0

> <r_epik_Charging_Adjusted_Penalty>
0

> <i_epik_Tot_Q>
0

> <i_epik_Tot_abs_Q>
0

> <r_epik_Metal_State_Penalty>
-0

> <b_epik_Metal_Only>
0

> <s_lp_Force_Field>
OPLS_2005

> <r_lp_Energy>
45.6992

> <b_lp_Chiralities_Consistent>
1

> <s_lp_Variant>
AV-unprocessed.smi:265-5

> <Gold.Version>
5.8.1

> <Gold.Id.Protein>
6NUR|6NUR_protein|mol2

> <Gold.PLP.Fitness>
41.2509

> <Gold.PLP.PLP>
-39.8159

> <Gold.PLP.part.hbond>
-2.4427

> <Gold.PLP.part.metal>
0.0000

> <Gold.PLP.part.buried>
6.1337

> <Gold.PLP.part.nonpolar>
-45.9704

> <Gold.PLP.part.repulsive>
5.0576

> <Gold.PLP.ligand.clash>
0.0000

> <Gold.PLP.ligand.torsion>
0.9547

> <Gold.PLP.Chemscore.Hbond>
1.0570

> <Gold.PLP.Chemscore.CHOScore>
0.0000

> <Gold.PLP.Chemscore.Metal>
0.0000

> <Gold.Chemscore.Hbonds>
donor molecule, donor type, donor heavy atom, donor atom, acceptor molecule, acceptor atom, score
      P1  H  6933  6945       L1     7  0.03
      P1  H  7997  8010       L1    27  0.90

> <Gold.PLP.Chemscore.Internal.Correction>
0.1734

> <Gold.Rescore>
     Score         DG    S(hbond)    S(metal)    S(lipo)     H(rot)  DE(clash)    DE(int)     intcor
      9.85     -14.94       0.82        0.00     106.46       2.25       3.84       1.25       ----

> <Gold.Chemscore.Fitness>
9.8506

> <Gold.Chemscore.DG>
-14.9412

> <Gold.Chemscore.ZeroCoef>
-5.4800

> <Gold.Chemscore.Hbond>
0.8242

> <Gold.Chemscore.Metal>
0.0000

> <Gold.Chemscore.Lipo>
106.4650

> <Gold.Chemscore.Internal_Hbond>
0.0000

> <Gold.Chemscore.DEClash>
3.8427

> <Gold.Chemscore.DEInternal>
1.2479

> <Gold.Chemscore.Rot>
2.2453

> <Gold.Chemscore.Internal.Correction>
   9.000000E+99

> <Gold.Chemscore.Hbonds>
donor molecule, donor type, donor heavy atom, donor atom, acceptor molecule, acceptor atom, score
      P1  H  6933  6945       L1     7  0.03
      P1  H  7997  8010       L1    27  0.19

> <Gold.Chemscore.Hbond.Weighted>
-2.7527

> <Gold.Chemscore.Metal.Weighted>
-0.0000

> <Gold.Chemscore.Lipo.Weighted>
-12.4564

> <Gold.Chemscore.Internal_Hbond.Weighted>
0.0000

> <Gold.Chemscore.DEClash.Weighted>
3.8427

> <Gold.Chemscore.DEInternal.Weighted>
1.2479

> <Gold.Chemscore.Rot.Weighted>
5.7479

> <Gold.Chemscore.Internal.Correction.Weighted>
   9.000000E+99

> <Gold.Protein.RotatedTorsions>
[ 6907 6896 6895 6894 ] final   49.90 input  -60.11 | X-H torsion
[ 7974 7965 7964 7962 ] final  -54.71 input  175.53 | X-H torsion
[ 8008 7997 7996 7995 ] final   79.17 input   59.86 | X-H torsion
[ 10167 10162 10161 10158 ] final  116.20 input  -65.29 | X-H torsion
[ 10718 10713 10712 10709 ] final   91.40 input   66.30 | X-H torsion
[ 10763 10752 10751 10750 ] final -113.57 input  -60.55 | X-H torsion
[ 11005 11000 10999 10996 ] final   93.98 input  -57.11 | X-H torsion

> <Gold.Protein.ActiveResidues>
 VAL166  LYS551  ARG553  GLY616  TRP617  ASP618  TYR619  PRO620  LYS621  CYS622 
 ASP623  PHE694  ASN695  SER759  ASP760  ASP761  ALA762  ILE779  LEU786  VAL792 
 PHE793  MET794  SER795  GLU796  ALA797  LYS798  CYS799  TRP800  GLU811  SER814 

> <Gold.Protein.RotatedAtoms>
  152.2959  134.7667  160.0367 H   0  0  0  0  0  0  0  0  0  0  0  0  # atno 6907 bound_to 6896
  151.8197  133.3387  159.3588 H   0  0  0  0  0  0  0  0  0  0  0  0  # atno 6908 bound_to 6896
  150.7251  134.5515  159.5841 H   0  0  0  0  0  0  0  0  0  0  0  0  # atno 6909 bound_to 6896
  145.8824  140.8134  142.9833 H   0  0  0  0  0  0  0  0  0  0  0  0  # atno 7974 bound_to 7965
  155.8660  140.3451  155.5788 H   0  0  0  0  0  0  0  0  0  0  0  0  # atno 8008 bound_to 7997
  155.7881  140.0868  157.2043 H   0  0  0  0  0  0  0  0  0  0  0  0  # atno 8009 bound_to 7997
  154.4014  140.1488  156.3118 H   0  0  0  0  0  0  0  0  0  0  0  0  # atno 8010 bound_to 7997
  139.6264  144.7109  151.2525 H   0  0  0  0  0  0  0  0  0  0  0  0  # atno 10167 bound_to 10162
  157.6960  131.0406  150.3724 H   0  0  0  0  0  0  0  0  0  0  0  0  # atno 10718 bound_to 10713
  154.8402  135.4449  154.1370 H   0  0  0  0  0  0  0  0  0  0  0  0  # atno 10763 bound_to 10752
  153.2565  135.6932  153.7629 H   0  0  0  0  0  0  0  0  0  0  0  0  # atno 10764 bound_to 10752
  153.6922  135.3385  155.3180 H   0  0  0  0  0  0  0  0  0  0  0  0  # atno 10765 bound_to 10752
  139.8803  134.8820  156.3797 H   0  0  0  0  0  0  0  0  0  0  0  0  # atno 11005 bound_to 11000
  144.6727  140.1404  143.7437 LP  0  0  0  0  0  0  0  0  0  0  0  0  # atno 17320 bound_to 7965
  145.9007  139.2429  143.1495 LP  0  0  0  0  0  0  0  0  0  0  0  0  # atno 17321 bound_to 7965
  140.7413  143.6561  150.8205 LP  0  0  0  0  0  0  0  0  0  0  0  0  # atno 17342 bound_to 10162
  140.0179  143.5573  152.2812 LP  0  0  0  0  0  0  0  0  0  0  0  0  # atno 17343 bound_to 10162
  156.4148  130.3941  149.6866 LP  0  0  0  0  0  0  0  0  0  0  0  0  # atno 17370 bound_to 10713
  156.4138  130.7735  151.2749 LP  0  0  0  0  0  0  0  0  0  0  0  0  # atno 17371 bound_to 10713
  140.9407  133.7516  156.0143 LP  0  0  0  0  0  0  0  0  0  0  0  0  # atno 17394 bound_to 11000
  140.8223  134.3275  157.5377 LP  0  0  0  0  0  0  0  0  0  0  0  0  # atno 17395 bound_to 11000

$$$$
