#       Name:                AV-unprocessed.smi:1454
#       Creating user name   scv26
#       Creation time:       Fri Mar 27 06:00:00 2020


#       File generated by GOLD software.
#

@<TRIPOS>MOLECULE
AV-unprocessed.smi:1454
    49    50     1
SMALL
NO_CHARGES


@<TRIPOS>ATOM
      1 ****        -2.7815   1.5910   1.2619 O.2            1 S1                 0.0000
      2 ****        -1.8866   1.0625   1.9208 C.2            1 S1                 0.0000
      3 ****        -0.8672   1.9406   2.6536 C.3            1 S1                 0.0000
      4 ****        -0.0276   2.8390   1.7199 C.3            1 S1                 0.0000
      5 ****         1.2154   2.2004   1.2987 N.am           1 S1                 0.0000
      6 ****         1.3519   1.3126   0.3032 C.2            1 S1                 0.0000
      7 ****         0.4127   0.9389  -0.3991 O.2            1 S1                 0.0000
      8 ****         2.7757   0.7748   0.0751 C.3            1 S1                 0.0000
      9 ****         3.0640   0.4242  -1.3994 C.3            1 S1                 0.0000
     10 ****         2.9170  -1.1010  -1.5386 C.3            1 S1                 0.0000
     11 ****         2.5558  -1.6361  -0.1494 C.3            1 S1                 0.0000
     12 ****         3.0034  -0.5466   0.8227 C.3            1 S1                 0.0000
     13 ****        -1.7684  -0.2664   2.0763 N.am           1 S1                 0.0000
     14 ****        -2.7416  -1.2641   1.6337 C.3            1 S1                 0.0000
     15 ****        -2.2682  -2.0883   0.4181 C.3            1 S1                 0.0000
     16 ****        -2.0479  -1.3085  -0.8713 C.ar           1 S1                 0.0000
     17 ****        -0.9638  -1.6341  -1.7172 C.ar           1 S1                 0.0000
     18 ****        -0.7707  -0.9123  -2.9133 C.ar           1 S1                 0.0000
     19 ****        -1.6701   0.1209  -3.2432 C.ar           1 S1                 0.0000
     20 ****        -2.7072   0.3941  -2.4227 N.pl3          1 S1                 1.0000
     21 ****        -2.9298  -0.2797  -1.2733 C.ar           1 S1                 0.0000
     22 ****        -1.4393   2.5786   3.3280 H              1 S1                 0.0000
     23 ****        -0.2220   1.3366   3.2936 H              1 S1                 0.0000
     24 ****        -0.5999   3.1671   0.8501 H              1 S1                 0.0000
     25 ****         0.2461   3.7484   2.2553 H              1 S1                 0.0000
     26 ****         2.0461   2.4527   1.8150 H              1 S1                 0.0000
     27 ****         3.4831   1.5305   0.4212 H              1 S1                 0.0000
     28 ****         2.4119   0.9516  -2.0973 H              1 S1                 0.0000
     29 ****         4.0837   0.7171  -1.6526 H              1 S1                 0.0000
     30 ****         2.1607  -1.3709  -2.2752 H              1 S1                 0.0000
     31 ****         3.8613  -1.5320  -1.8731 H              1 S1                 0.0000
     32 ****         1.4771  -1.7669  -0.0701 H              1 S1                 0.0000
     33 ****         3.0194  -2.6004   0.0605 H              1 S1                 0.0000
     34 ****         4.0658  -0.6615   1.0414 H              1 S1                 0.0000
     35 ****         2.4705  -0.6034   1.7732 H              1 S1                 0.0000
     36 ****        -0.9919  -0.6062   2.6253 H              1 S1                 0.0000
     37 ****        -2.9024  -1.9423   2.4719 H              1 S1                 0.0000
     38 ****        -3.7146  -0.8112   1.4388 H              1 S1                 0.0000
     39 ****        -1.3449  -2.6070   0.6805 H              1 S1                 0.0000
     40 ****        -3.0021  -2.8673   0.2094 H              1 S1                 0.0000
     41 ****        -0.2832  -2.4305  -1.4553 H              1 S1                 0.0000
     42 ****         0.0571  -1.1457  -3.5663 H              1 S1                 0.0000
     43 ****        -1.5961   0.7272  -4.1341 H              1 S1                 0.0000
     44 ****        -3.7986   0.0333  -0.7137 H              1 S1                 0.0000
     45 ****        -3.3518   1.1412  -2.6822 H              1 S1                 0.0000
     46 ****        -2.8401   2.5878   1.2072 LP             1 S1                 0.0000
     47 ****        -3.4501   1.0237   0.7811 LP             1 S1                 0.0000
     48 ****        -0.5059   1.3002  -0.2392 LP             1 S1                 0.0000
     49 ****         0.5682   0.2739  -1.1296 LP             1 S1                 0.0000
@<TRIPOS>BOND
    1    1    2 2     
    2    2    3 1     
    3    2   13 am    
    4    3    4 1     
    5    3   22 1     
    6    3   23 1     
    7    4    5 1     
    8    4   24 1     
    9    4   25 1     
   10    5    6 am    
   11    5   26 1     
   12    6    7 2     
   13    6    8 1     
   14    8   12 1     
   15    8    9 1     
   16    8   27 1     
   17    9   10 1     
   18    9   28 1     
   19    9   29 1     
   20   10   11 1     
   21   10   30 1     
   22   10   31 1     
   23   11   12 1     
   24   11   32 1     
   25   11   33 1     
   26   12   34 1     
   27   12   35 1     
   28   13   14 1     
   29   13   36 1     
   30   14   15 1     
   31   14   37 1     
   32   14   38 1     
   33   15   16 1     
   34   15   39 1     
   35   15   40 1     
   36   16   21 ar    
   37   16   17 ar    
   38   17   18 ar    
   39   17   41 1     
   40   18   19 ar    
   41   18   42 1     
   42   19   20 ar    
   43   19   43 1     
   44   20   21 ar    
   45   20   45 1     
   46   21   44 1     
   47    1   46 1     
   48    1   47 1     
   49    7   48 1     
   50    7   49 1     
@<TRIPOS>SUBSTRUCTURE
      1 S1             1
@<TRIPOS>SET
LONE_PAIRS      STATIC     ATOMS    <user>   **** ""
4 46 47 48 49
DONOR_HYDROGENS      STATIC     ATOMS    <user>   **** ""
3 26 36 45
ATOM$BLUE        STATIC     ATOMS    COLORGROUP SYSTEM
4 46 47 48 49
ATOM$RED        STATIC     ATOMS    COLORGROUP SYSTEM
3 26 36 45
