#       Name:                AV-unprocessed.smi:3329
#       Creating user name   scv26
#       Creation time:       Fri Mar 27 19:16:05 2020


#       File generated by GOLD software.
#

@<TRIPOS>MOLECULE
AV-unprocessed.smi:3329
    46    47     1
SMALL
NO_CHARGES


@<TRIPOS>ATOM
      1 ****        -3.0255   0.5769   2.5406 C.3            1 S1                 0.0000
      2 ****        -2.4430   1.5331   1.5402 C.2            1 S1                 0.0000
      3 ****        -1.7485   2.7489   1.7983 C.2            1 S1                 0.0000
      4 ****        -1.3601   3.3643   0.6933 N.2            1 S1                 0.0000
      5 ****        -1.7895   2.5657  -0.3061 N.pl3          1 S1                 0.0000
      6 ****        -1.5211   2.9305  -1.6859 C.3            1 S1                 0.0000
      7 ****        -0.0448   2.7226  -2.0614 C.3            1 S1                 0.0000
      8 ****         0.3351   1.3025  -1.9421 N.4            1 S1                 1.0000
      9 ****         1.7712   1.0247  -2.1383 C.3            1 S1                 0.0000
     10 ****         2.0413  -0.4481  -1.8260 C.2            1 S1                 0.0000
     11 ****         2.4910  -1.1783  -2.7074 O.2            1 S1                 0.0000
     12 ****         1.7144  -0.7551  -0.5449 N.pl3          1 S1                -1.0000
     13 ****         1.7429  -2.1160  -0.0094 C.3            1 S1                 0.0000
     14 ****         3.2021  -2.5782   0.1723 C.3            1 S1                 0.0000
     15 ****         1.0215  -3.0514  -0.9005 C.1            1 S1                 0.0000
     16 ****         0.4571  -3.7831  -1.5983 N.1            1 S1                 0.0000
     17 ****         1.0584  -2.0621   1.3555 C.3            1 S1                 0.0000
     18 ****         0.4551  -3.2888   2.0040 C.3            1 S1                 0.0000
     19 ****        -0.4417  -2.1715   1.5218 C.3            1 S1                 0.0000
     20 ****        -2.4485   1.4542   0.1764 C.2            1 S1                 0.0000
     21 ****        -3.9259   0.9801   3.0039 H              1 S1                 0.0000
     22 ****        -2.3215   0.3570   3.3433 H              1 S1                 0.0000
     23 ****        -3.2974  -0.3746   2.0831 H              1 S1                 0.0000
     24 ****        -1.5159   3.1995   2.7521 H              1 S1                 0.0000
     25 ****        -2.1673   2.3405  -2.3375 H              1 S1                 0.0000
     26 ****        -1.8017   3.9750  -1.8277 H              1 S1                 0.0000
     27 ****         0.1311   3.0523  -3.0858 H              1 S1                 0.0000
     28 ****         0.5938   3.3277  -1.4162 H              1 S1                 0.0000
     29 ****         0.1038   0.9884  -1.0096 H              1 S1                 0.0000
     30 ****         2.0545   1.2539  -3.1665 H              1 S1                 0.0000
     31 ****         2.3739   1.6537  -1.4810 H              1 S1                 0.0000
     32 ****         3.2415  -3.5612   0.6428 H              1 S1                 0.0000
     33 ****         3.7649  -1.8902   0.8045 H              1 S1                 0.0000
     34 ****         3.7263  -2.6581  -0.7803 H              1 S1                 0.0000
     35 ****         1.5477  -1.3773   2.0471 H              1 S1                 0.0000
     36 ****         0.4463  -4.2192   1.4400 H              1 S1                 0.0000
     37 ****         0.5833  -3.4003   3.0787 H              1 S1                 0.0000
     38 ****        -0.9049  -1.5397   2.2762 H              1 S1                 0.0000
     39 ****        -1.0466  -2.3533   0.6361 H              1 S1                 0.0000
     40 ****        -2.8589   0.7034  -0.4828 H              1 S1                 0.0000
     41 ****        -0.1942   0.7533  -2.6035 H              1 S1                 0.0000
     42 ****        -0.8607   4.2272   0.6161 LP             1 S1                 0.0000
     43 ****         2.6764  -0.8077  -3.6175 LP             1 S1                 0.0000
     44 ****         2.6713  -2.1428  -2.5140 LP             1 S1                 0.0000
     45 ****         1.4396  -0.0118   0.0650 LP             1 S1                 0.0000
     46 ****        -0.0303  -4.4150  -2.2009 LP             1 S1                 0.0000
@<TRIPOS>BOND
    1    1    2 1     
    2    1   21 1     
    3    1   22 1     
    4    1   23 1     
    5    2   20 2     
    6    2    3 1     
    7    3    4 2     
    8    3   24 1     
    9    4    5 1     
   10    5    6 1     
   11    5   20 1     
   12    6    7 1     
   13    6   25 1     
   14    6   26 1     
   15    7    8 1     
   16    7   27 1     
   17    7   28 1     
   18    8    9 1     
   19    8   29 1     
   20    8   41 1     
   21    9   10 1     
   22    9   30 1     
   23    9   31 1     
   24   10   11 2     
   25   10   12 1     
   26   12   13 1     
   27   13   14 1     
   28   13   15 1     
   29   13   17 1     
   30   14   32 1     
   31   14   33 1     
   32   14   34 1     
   33   15   16 3     
   34   17   19 1     
   35   17   18 1     
   36   17   35 1     
   37   18   19 1     
   38   18   36 1     
   39   18   37 1     
   40   19   38 1     
   41   19   39 1     
   42   20   40 1     
   43    4   42 1     
   44   11   43 1     
   45   11   44 1     
   46   12   45 1     
   47   16   46 1     
@<TRIPOS>SUBSTRUCTURE
      1 S1             1
@<TRIPOS>SET
LONE_PAIRS      STATIC     ATOMS    <user>   **** ""
5 42 43 44 45 46
DONOR_HYDROGENS      STATIC     ATOMS    <user>   **** ""
2 29 41
ATOM$BLUE        STATIC     ATOMS    COLORGROUP SYSTEM
5 42 43 44 45 46
ATOM$RED        STATIC     ATOMS    COLORGROUP SYSTEM
2 29 41
