AV-unprocessed.smi:69|AV-procd|sdf|649|dock1
  -GOLD-   2262016543D 1   1.00000     0.00000
 Structure written by MMmdl.
 32 34  0  0  0  0  0  0  0  0  1 V2000
  154.5198  141.3198  160.3615 N   0  0  0  0  0  0  0  0  0  0  0  0
  153.3376  141.7776  159.9272 C   0  0  0  0  0  0  0  0  0  0  0  0
  152.8114  142.8684  160.5298 N   0  0  0  0  0  0  0  0  0  0  0  0
  151.6364  143.3460  160.1106 C   0  0  0  0  0  0  0  0  0  0  0  0
  150.8515  142.8880  159.1328 N   0  0  0  0  0  0  0  0  0  0  0  0
  151.3781  141.7858  158.5210 C   0  0  0  0  0  0  0  0  0  0  0  0
  152.6174  141.1744  158.8651 C   0  0  0  0  0  0  0  0  0  0  0  0
  152.8528  140.0818  158.0451 N   0  0  0  0  0  0  0  0  0  0  0  0
  151.8144  140.0569  157.2554 C   0  0  0  0  0  0  0  0  0  0  0  0
  150.8659  141.0340  157.4743 N   0  0  0  0  0  0  0  0  0  0  0  0
  149.6053  141.2302  156.6728 C   0  0  2  0  0  0  0  0  0  0  0  0
  148.8379  140.0738  156.7736 O   0  0  0  0  0  0  0  0  0  0  0  0
  149.0940  139.2285  155.6615 C   0  0  1  0  0  0  0  0  0  0  0  0
  147.9064  138.2782  155.4486 C   0  0  0  0  0  0  0  0  0  0  0  0
  146.7118  139.0171  155.3085 O   0  0  0  0  0  0  0  0  0  0  0  0
  149.2900  140.2260  154.5091 C   0  0  2  0  0  0  0  0  0  0  0  0
  150.2026  139.7090  153.5617 O   0  0  0  0  0  0  0  0  0  0  0  0
  149.8527  141.4859  155.1747 C   0  0  1  0  0  0  0  0  0  0  0  0
  149.1491  142.6267  154.7244 O   0  0  0  0  0  0  0  0  0  0  0  0
  149.1010  142.0567  157.1762 H   0  0  0  0  0  0  0  0  0  0  0  0
  150.0071  138.6604  155.8399 H   0  0  0  0  0  0  0  0  0  0  0  0
  148.3338  140.4355  154.0263 H   0  0  0  0  0  0  0  0  0  0  0  0
  150.9123  141.6460  154.9785 H   0  0  0  0  0  0  0  0  0  0  0  0
  154.9347  140.5087  159.9258 H   0  0  0  0  0  0  0  0  0  0  0  0
  154.9964  141.7915  161.1162 H   0  0  0  0  0  0  0  0  0  0  0  0
  151.2730  144.2197  160.6310 H   0  0  0  0  0  0  0  0  0  0  0  0
  151.7123  139.3138  156.4778 H   0  0  0  0  0  0  0  0  0  0  0  0
  148.0613  137.6353  154.5819 H   0  0  0  0  0  0  0  0  0  0  0  0
  147.7877  137.6293  156.3167 H   0  0  0  0  0  0  0  0  0  0  0  0
  145.9909  138.4114  155.2303 H   0  0  0  0  0  0  0  0  0  0  0  0
  149.8159  139.7838  152.7026 H   0  0  0  0  0  0  0  0  0  0  0  0
  149.2208  143.3018  155.3818 H   0  0  0  0  0  0  0  0  0  0  0  0
  1  2  1  0  0  0  0
  1 24  1  0  0  0  0
  1 25  1  0  0  0  0
  2  7  1  0  0  0  0
  2  3  2  0  0  0  0
  3  4  1  0  0  0  0
  4  5  2  0  0  0  0
  4 26  1  0  0  0  0
  5  6  1  0  0  0  0
  6 10  1  0  0  0  0
  6  7  2  0  0  0  0
  7  8  1  0  0  0  0
  8  9  2  0  0  0  0
  9 10  1  0  0  0  0
  9 27  1  0  0  0  0
 10 11  1  0  0  0  0
 11 20  1  0  0  0  0
 11 18  1  0  0  0  0
 11 12  1  0  0  0  0
 12 13  1  0  0  0  0
 13 21  1  0  0  0  0
 13 14  1  0  0  0  0
 13 16  1  0  0  0  0
 14 15  1  0  0  0  0
 14 28  1  0  0  0  0
 14 29  1  0  0  0  0
 15 30  1  0  0  0  0
 16 22  1  0  0  0  0
 16 17  1  0  0  0  0
 16 18  1  0  0  0  0
 17 31  1  0  0  0  0
 18 23  1  0  0  0  0
 18 19  1  0  0  0  0
 19 32  1  0  0  0  0
M  END
> <s_m_source_file>
AV-unprocessed.smi

> <i_m_source_file_index>
69

> <i_lp_mmshare_version>
43012

> <i_f3d_flags>
0

> <s_epik_input>
bjFbY0hdbmMoW05IMl0pYyhjMTIpbltjSF1uMltDQEBIXTNPW0NASF0oW0NIMl1bT0hdKVtDQEBIXShbT0hdKVtDQEhdM1tPSF0=

> <s_epik_cmdline>
J2VwaWtfcHl0aG9uJywgJy1waCcsICc3LjAnLCAnLXRuJywgJzgnLCAnLW1hJywgJzIwMCcsICctbWV0YWxfYmluZGluZycsICctaW1hZScsICc8aW5maWxlLm1hZT4nLCAnLW9tYWUnLCAnPG91dGZpbGUubWFlPic=

> <r_lp_tautomer_probability>
1

> <r_epik_Ionization_Penalty>
0.000428445

> <r_epik_Ionization_Penalty_Charging>
0

> <r_epik_Ionization_Penalty_Neutral>
0.000428445

> <r_epik_State_Penalty>
-0

> <r_epik_Charging_Adjusted_Penalty>
0

> <i_epik_Tot_Q>
0

> <i_epik_Tot_abs_Q>
0

> <r_epik_Metal_State_Penalty>
-0

> <b_epik_Metal_Only>
0

> <s_epik_Chemistry_Notes>
This compound contains an acetal/aminal-like group ( X-CH(R)-Y where X, Y are N, S, or O) that may be acid/base labile, releasing an aldehyde.

> <s_lp_Force_Field>
OPLS_2005

> <r_lp_Energy>
31.8637

> <b_lp_Chiralities_Consistent>
1

> <s_lp_Variant>
AV-unprocessed.smi:69-7

> <Gold.Version>
5.8.1

> <Gold.Id.Protein>
6NUR|6NUR_protein|mol2

> <Gold.PLP.Fitness>
39.4982

> <Gold.PLP.PLP>
-28.1775

> <Gold.PLP.part.hbond>
-4.7187

> <Gold.PLP.part.metal>
0.0000

> <Gold.PLP.part.buried>
-4.2627

> <Gold.PLP.part.nonpolar>
-18.5441

> <Gold.PLP.part.repulsive>
0.1151

> <Gold.PLP.ligand.clash>
0.0000

> <Gold.PLP.ligand.torsion>
0.0140

> <Gold.PLP.Chemscore.Hbond>
3.7760

> <Gold.PLP.Chemscore.CHOScore>
0.0000

> <Gold.PLP.Chemscore.Metal>
0.0000

> <Gold.Chemscore.Hbonds>
donor molecule, donor type, donor heavy atom, donor atom, acceptor molecule, acceptor atom, score
      L1  H    17    31       P1  7957  1.00
      L1  H    19    32       P1  8028  0.72
      P1  H  7989  7998       L1    17  0.80
      P1  H  7997  8009       L1     8  0.99

> <Gold.PLP.Chemscore.Internal.Correction>
0.0206

> <Gold.Rescore>
     Score         DG    S(hbond)    S(metal)    S(lipo)     H(rot)  DE(clash)    DE(int)     intcor
      7.35      -7.38       2.76        0.00      25.69       4.03       0.01       0.02       ----

> <Gold.Chemscore.Fitness>
7.3496

> <Gold.Chemscore.DG>
-7.3818

> <Gold.Chemscore.ZeroCoef>
-5.4800

> <Gold.Chemscore.Hbond>
2.7566

> <Gold.Chemscore.Metal>
0.0000

> <Gold.Chemscore.Lipo>
25.6888

> <Gold.Chemscore.Internal_Hbond>
0.0000

> <Gold.Chemscore.DEClash>
0.0117

> <Gold.Chemscore.DEInternal>
0.0205

> <Gold.Chemscore.Rot>
4.0277

> <Gold.Chemscore.Internal.Correction>
   9.000000E+99

> <Gold.Chemscore.Hbonds>
donor molecule, donor type, donor heavy atom, donor atom, acceptor molecule, acceptor atom, score
      L1  H    17    31       P1  7957  0.97
      L1  H    19    32       P1  8028  0.70
      P1  H  7989  7998       L1    17  0.18
      P1  H  7997  8009       L1     8  0.72

> <Gold.Chemscore.Hbond.Weighted>
-9.2072

> <Gold.Chemscore.Metal.Weighted>
-0.0000

> <Gold.Chemscore.Lipo.Weighted>
-3.0056

> <Gold.Chemscore.Internal_Hbond.Weighted>
0.0000

> <Gold.Chemscore.DEClash.Weighted>
0.0117

> <Gold.Chemscore.DEInternal.Weighted>
0.0205

> <Gold.Chemscore.Rot.Weighted>
10.3110

> <Gold.Chemscore.Internal.Correction.Weighted>
   9.000000E+99

> <Gold.Protein.RotatedTorsions>
[ 6907 6896 6895 6894 ] final -116.20 input  -60.11 | X-H torsion
[ 7974 7965 7964 7962 ] final -121.59 input  175.53 | X-H torsion
[ 8008 7997 7996 7995 ] final  153.25 input   59.86 | X-H torsion
[ 10167 10162 10161 10158 ] final -118.82 input  -65.29 | X-H torsion
[ 10718 10713 10712 10709 ] final   93.88 input   66.30 | X-H torsion
[ 10763 10752 10751 10750 ] final -131.65 input  -60.55 | X-H torsion
[ 11005 11000 10999 10996 ] final -176.90 input  -57.11 | X-H torsion

> <Gold.Protein.ActiveResidues>
 VAL166  LYS551  ARG553  GLY616  TRP617  ASP618  TYR619  PRO620  LYS621  CYS622 
 ASP623  PHE694  ASN695  SER759  ASP760  ASP761  ALA762  ILE779  LEU786  VAL792 
 PHE793  MET794  SER795  GLU796  ALA797  LYS798  CYS799  TRP800  GLU811  SER814 

> <Gold.Protein.RotatedAtoms>
  150.8037  133.8550  159.3215 H   0  0  0  0  0  0  0  0  0  0  0  0  # atno 6907 bound_to 6896
  151.6355  135.1016  160.0140 H   0  0  0  0  0  0  0  0  0  0  0  0  # atno 6908 bound_to 6896
  152.4126  133.6948  159.6446 H   0  0  0  0  0  0  0  0  0  0  0  0  # atno 6909 bound_to 6896
  145.0387  140.8127  143.4279 H   0  0  0  0  0  0  0  0  0  0  0  0  # atno 7974 bound_to 7965
  156.2591  140.1999  156.6460 H   0  0  0  0  0  0  0  0  0  0  0  0  # atno 8008 bound_to 7997
  154.6573  140.0565  157.0048 H   0  0  0  0  0  0  0  0  0  0  0  0  # atno 8009 bound_to 7997
  155.1328  140.3235  155.4473 H   0  0  0  0  0  0  0  0  0  0  0  0  # atno 8010 bound_to 7997
  140.0534  143.5038  152.2070 H   0  0  0  0  0  0  0  0  0  0  0  0  # atno 10167 bound_to 10162
  157.6952  131.0493  150.4101 H   0  0  0  0  0  0  0  0  0  0  0  0  # atno 10718 bound_to 10713
  154.8749  135.3823  154.4281 H   0  0  0  0  0  0  0  0  0  0  0  0  # atno 10763 bound_to 10752
  153.4978  135.7030  153.5854 H   0  0  0  0  0  0  0  0  0  0  0  0  # atno 10764 bound_to 10752
  153.4199  135.3904  155.2071 H   0  0  0  0  0  0  0  0  0  0  0  0  # atno 10765 bound_to 10752
  140.4469  134.6380  157.4783 H   0  0  0  0  0  0  0  0  0  0  0  0  # atno 11005 bound_to 11000
  145.1676  139.2422  143.5359 LP  0  0  0  0  0  0  0  0  0  0  0  0  # atno 17320 bound_to 7965
  146.3507  140.1419  142.8594 LP  0  0  0  0  0  0  0  0  0  0  0  0  # atno 17321 bound_to 7965
  139.5939  144.7560  151.3334 LP  0  0  0  0  0  0  0  0  0  0  0  0  # atno 17342 bound_to 10162
  140.7206  143.7146  150.7743 LP  0  0  0  0  0  0  0  0  0  0  0  0  # atno 17343 bound_to 10162
  156.4486  130.4007  149.6650 LP  0  0  0  0  0  0  0  0  0  0  0  0  # atno 17370 bound_to 10713
  156.3808  130.7578  151.2570 LP  0  0  0  0  0  0  0  0  0  0  0  0  # atno 17371 bound_to 10713
  140.0033  134.6803  155.9496 LP  0  0  0  0  0  0  0  0  0  0  0  0  # atno 17394 bound_to 11000
  141.1681  133.6537  156.4553 LP  0  0  0  0  0  0  0  0  0  0  0  0  # atno 17395 bound_to 11000

$$$$
