#       Name:                AV-unprocessed.smi:101
#       Creating user name   scv26
#       Creation time:       Thu Mar 26 17:41:45 2020


#       File generated by GOLD software.
#

@<TRIPOS>MOLECULE
AV-unprocessed.smi:101
    56    58     1
SMALL
NO_CHARGES


@<TRIPOS>ATOM
      1 ****        -3.7399   1.2347   4.1118 C.3            1 S1                 0.0000
      2 ****        -3.7479   1.2328   2.5920 C.2            1 S1                 0.0000
      3 ****        -2.7119   0.7488   1.8600 C.2            1 S1                 0.0000
      4 ****        -2.6909   0.7347   0.4709 N.am           1 S1                 0.0000
      5 ****        -1.5181   0.1823  -0.3164 C.3            1 S1                 0.0000
      6 ****        -0.3636   0.2275   0.4730 O.3            1 S1                 0.0000
      7 ****         0.0679  -1.0948   0.7746 C.3            1 S1                 0.0000
      8 ****         1.5716  -1.1106   1.0831 C.3            1 S1                 0.0000
      9 ****         2.3064  -0.6504  -0.0401 O.3            1 S1                 0.0000
     10 ****         3.6503  -0.5920   0.0074 C.2            1 S1                 0.0000
     11 ****         4.3144  -0.9283   0.9900 O.2            1 S1                 0.0000
     12 ****         4.2513  -0.0758  -1.2561 C.ar           1 S1                 0.0000
     13 ****         5.6577   0.0358  -1.3599 C.ar           1 S1                 0.0000
     14 ****         6.2532   0.5222  -2.5399 C.ar           1 S1                 0.0000
     15 ****         5.4501   0.9032  -3.6305 C.ar           1 S1                 0.0000
     16 ****         4.0500   0.7971  -3.5400 C.ar           1 S1                 0.0000
     17 ****         3.4522   0.3104  -2.3610 C.ar           1 S1                 0.0000
     18 ****        -0.3676  -1.9023  -0.4470 C.3            1 S1                 0.0000
     19 ****        -0.4171  -3.2954  -0.2015 O.3            1 S1                 0.0000
     20 ****        -1.7261  -1.2861  -0.7651 C.3            1 S1                 0.0000
     21 ****        -2.7843  -1.9426  -0.0816 O.3            1 S1                 0.0000
     22 ****        -3.8021   1.2305  -0.2409 C.2            1 S1                 0.0000
     23 ****        -3.8613   1.2253  -1.4699 O.2            1 S1                 0.0000
     24 ****        -4.8642   1.7305   0.5096 N.am           1 S1                 0.0000
     25 ****        -4.9235   1.7742   1.9046 C.2            1 S1                 0.0000
     26 ****        -5.9185   2.2419   2.4558 O.2            1 S1                 0.0000
     27 ****        -5.6607   2.0884   0.0029 H              1 S1                 0.0000
     28 ****        -2.8266   0.7943   4.5123 H              1 S1                 0.0000
     29 ****        -4.5838   0.6627   4.4993 H              1 S1                 0.0000
     30 ****        -3.8133   2.2545   4.4914 H              1 S1                 0.0000
     31 ****        -1.8656   0.3526   2.3997 H              1 S1                 0.0000
     32 ****        -1.3595   0.8695  -1.1497 H              1 S1                 0.0000
     33 ****        -0.4827  -1.4392   1.6515 H              1 S1                 0.0000
     34 ****         1.7810  -0.4759   1.9451 H              1 S1                 0.0000
     35 ****         1.8870  -2.1234   1.3380 H              1 S1                 0.0000
     36 ****         6.2953  -0.2503  -0.5358 H              1 S1                 0.0000
     37 ****         7.3281   0.6029  -2.6074 H              1 S1                 0.0000
     38 ****         5.9077   1.2761  -4.5351 H              1 S1                 0.0000
     39 ****         3.4324   1.0898  -4.3763 H              1 S1                 0.0000
     40 ****         2.3748   0.2419  -2.3248 H              1 S1                 0.0000
     41 ****         0.3071  -1.7147  -1.2831 H              1 S1                 0.0000
     42 ****        -0.7918  -3.7204  -0.9580 H              1 S1                 0.0000
     43 ****        -1.9398  -1.3143  -1.8341 H              1 S1                 0.0000
     44 ****        -3.5783  -1.4483  -0.2173 H              1 S1                 0.0000
     45 ****        -0.5623   0.7138   1.3239 LP             1 S1                 0.0000
     46 ****         0.3596   0.7072  -0.0240 LP             1 S1                 0.0000
     47 ****         3.8555  -1.2671   1.8113 LP             1 S1                 0.0000
     48 ****         5.3119  -0.8623   0.9657 LP             1 S1                 0.0000
     49 ****        -0.9839  -3.4763   0.6022 LP             1 S1                 0.0000
     50 ****         0.5071  -3.6429  -0.0427 LP             1 S1                 0.0000
     51 ****        -2.5779  -1.9888   0.8957 LP             1 S1                 0.0000
     52 ****        -2.8967  -2.8683  -0.4427 LP             1 S1                 0.0000
     53 ****        -3.1007   0.8587  -2.0057 LP             1 S1                 0.0000
     54 ****        -4.6702   1.5877  -1.9330 LP             1 S1                 0.0000
     55 ****        -5.9687   2.2736   3.4540 LP             1 S1                 0.0000
     56 ****        -6.6774   2.5905   1.9057 LP             1 S1                 0.0000
@<TRIPOS>BOND
    1    1    2 1     
    2    1   28 1     
    3    1   29 1     
    4    1   30 1     
    5    2   25 1     
    6    2    3 2     
    7    3    4 1     
    8    3   31 1     
    9    4    5 1     
   10    4   22 1     
   11    5   20 1     
   12    5    6 1     
   13    5   32 1     
   14    6    7 1     
   15    7    8 1     
   16    7   18 1     
   17    7   33 1     
   18    8    9 1     
   19    8   34 1     
   20    8   35 1     
   21    9   10 1     
   22   10   11 2     
   23   10   12 1     
   24   12   17 ar    
   25   12   13 ar    
   26   13   14 ar    
   27   13   36 1     
   28   14   15 ar    
   29   14   37 1     
   30   15   16 ar    
   31   15   38 1     
   32   16   17 ar    
   33   16   39 1     
   34   17   40 1     
   35   18   19 1     
   36   18   20 1     
   37   18   41 1     
   38   19   42 1     
   39   20   21 1     
   40   20   43 1     
   41   21   44 1     
   42   22   23 2     
   43   22   24 1     
   44   24   27 1     
   45   24   25 1     
   46   25   26 2     
   47    6   45 1     
   48    6   46 1     
   49   11   47 1     
   50   11   48 1     
   51   19   49 1     
   52   19   50 1     
   53   21   51 1     
   54   21   52 1     
   55   23   53 1     
   56   23   54 1     
   57   26   55 1     
   58   26   56 1     
@<TRIPOS>SUBSTRUCTURE
      1 S1             1
@<TRIPOS>SET
LONE_PAIRS      STATIC     ATOMS    <user>   **** ""
12 45 46 47 48 49 50 51 52 53 54 55 56
DONOR_HYDROGENS      STATIC     ATOMS    <user>   **** ""
3 42 44 27
ATOM$BLUE        STATIC     ATOMS    COLORGROUP SYSTEM
12 45 46 47 48 49 50 51 52 53 54 55 56
ATOM$RED        STATIC     ATOMS    COLORGROUP SYSTEM
3 42 44 27
