AV-unprocessed.smi:992|AV-procd|sdf|4332|dock1
  -GOLD-   22720 2233D 1   1.00000     0.00000
 Structure written by MMmdl.
 33 34  0  0  0  0  0  0  0  0  2 V2000
  153.6998  141.9277  160.4488 C   0  0  0  0  0  0  0  0  0  0  0  0
  152.5962  142.6108  159.6344 C   0  0  2  0  0  0  0  0  0  0  0  0
  152.1685  141.7650  158.4218 C   0  0  0  0  0  0  0  0  0  0  0  0
  151.1966  142.4972  157.6225 N   0  0  0  0  0  0  0  0  0  0  0  0
  150.6508  141.7356  156.5810 C   0  0  0  0  0  0  0  0  0  0  0  0
  151.1052  140.4397  156.2404 C   0  0  0  0  0  0  0  0  0  0  0  0
  150.4890  139.7486  155.1765 C   0  0  0  0  0  0  0  0  0  0  0  0
  149.4322  140.3641  154.4730 C   0  0  0  0  0  0  0  0  0  0  0  0
  148.8036  139.7037  153.4191 N   0  0  0  0  0  0  0  0  0  0  0  0
  149.0203  141.6581  154.8524 C   0  0  0  0  0  0  0  0  0  0  0  0
  149.6365  142.2863  155.8775 N   0  3  0  0  0  0  0  0  0  0  0  0
  151.7014  143.7914  157.1830 C   0  0  0  0  0  0  0  0  0  0  0  0
  152.1795  144.6291  158.3860 C   0  0  1  0  0  0  0  0  0  0  0  0
  151.0305  145.2143  159.2264 C   0  0  0  0  0  0  0  0  0  0  0  0
  153.0948  143.8693  159.1802 O   0  0  0  0  0  0  0  0  0  0  0  0
  153.3671  140.9605  160.8264 H   0  0  0  0  0  0  0  0  0  0  0  0
  153.9859  142.5382  161.3056 H   0  0  0  0  0  0  0  0  0  0  0  0
  154.5925  141.7627  159.8447 H   0  0  0  0  0  0  0  0  0  0  0  0
  151.7406  142.7691  160.2913 H   0  0  0  0  0  0  0  0  0  0  0  0
  153.0394  141.5222  157.8115 H   0  0  0  0  0  0  0  0  0  0  0  0
  151.7351  140.8215  158.7565 H   0  0  0  0  0  0  0  0  0  0  0  0
  151.9146  139.9762  156.7850 H   0  0  0  0  0  0  0  0  0  0  0  0
  150.8256  138.7580  154.9070 H   0  0  0  0  0  0  0  0  0  0  0  0
  149.0845  138.7763  153.1334 H   0  0  0  0  0  0  0  0  0  0  0  0
  148.0771  140.1467  152.8746 H   0  0  0  0  0  0  0  0  0  0  0  0
  148.2228  142.2077  154.3734 H   0  0  0  0  0  0  0  0  0  0  0  0
  152.5354  143.6365  156.4969 H   0  0  0  0  0  0  0  0  0  0  0  0
  150.9294  144.3279  156.6294 H   0  0  0  0  0  0  0  0  0  0  0  0
  152.7455  145.4755  157.9959 H   0  0  0  0  0  0  0  0  0  0  0  0
  150.4182  145.8883  158.6270 H   0  0  0  0  0  0  0  0  0  0  0  0
  151.4190  145.7859  160.0695 H   0  0  0  0  0  0  0  0  0  0  0  0
  150.3699  144.4430  159.6214 H   0  0  0  0  0  0  0  0  0  0  0  0
  149.3191  143.2215  156.1336 H   0  0  0  0  0  0  0  0  0  0  0  0
  1  2  1  0  0  0  0
  1 16  1  0  0  0  0
  1 17  1  0  0  0  0
  1 18  1  0  0  0  0
  2 15  1  0  0  0  0
  2  3  1  0  0  0  0
  2 19  1  0  0  0  0
  3  4  1  0  0  0  0
  3 20  1  0  0  0  0
  3 21  1  0  0  0  0
  4  5  1  0  0  0  0
  4 12  1  0  0  0  0
  5 11  1  0  0  0  0
  5  6  2  0  0  0  0
  6  7  1  0  0  0  0
  6 22  1  0  0  0  0
  7  8  2  0  0  0  0
  7 23  1  0  0  0  0
  8  9  1  0  0  0  0
  8 10  1  0  0  0  0
  9 24  1  0  0  0  0
  9 25  1  0  0  0  0
 10 11  2  0  0  0  0
 10 26  1  0  0  0  0
 11 33  1  0  0  0  0
 12 13  1  0  0  0  0
 12 27  1  0  0  0  0
 12 28  1  0  0  0  0
 13 14  1  0  0  0  0
 13 15  1  0  0  0  0
 13 29  1  0  0  0  0
 14 30  1  0  0  0  0
 14 31  1  0  0  0  0
 14 32  1  0  0  0  0
M  CHG  1  11   1
M  END
> <s_m_source_file>
AV-unprocessed.smi

> <i_m_source_file_index>
992

> <i_lp_mmshare_version>
43012

> <i_f3d_flags>
0

> <s_epik_input>
W0NIM11bQ0BASF0xW0NIMl1OKFtDSDJdW0NASF0oTzEpW0NIM10pYzJbY0hdW2NIXWMoW05IMl0pW2NIXW4y

> <s_epik_cmdline>
J2VwaWtfcHl0aG9uJywgJy1waCcsICc3LjAnLCAnLXRuJywgJzgnLCAnLW1hJywgJzIwMCcsICctbWV0YWxfYmluZGluZycsICctaW1hZScsICc8aW5maWxlLm1hZT4nLCAnLW9tYWUnLCAnPG91dGZpbGUubWFlPic=

> <r_lp_tautomer_probability>
0.999846

> <r_epik_Ionization_Penalty>
2.28753

> <r_epik_Ionization_Penalty_Charging>
2.28753

> <r_epik_Ionization_Penalty_Neutral>
1.09395e-07

> <r_epik_State_Penalty>
2.43729

> <r_epik_Charging_Adjusted_Penalty>
4.72482

> <i_epik_Tot_Q>
1

> <i_epik_Tot_abs_Q>
1

> <r_epik_Metal_State_Penalty>
6.52028

> <b_epik_Metal_Only>
0

> <s_lp_Force_Field>
OPLS_2005

> <r_lp_Energy>
28.0969

> <b_lp_Chiralities_Consistent>
1

> <s_lp_Variant>
AV-unprocessed.smi:992-4

> <Gold.Version>
5.8.1

> <Gold.Id.Protein>
6NUR|6NUR_protein|mol2

> <Gold.PLP.Fitness>
43.9804

> <Gold.PLP.PLP>
-37.9985

> <Gold.PLP.part.hbond>
-1.2522

> <Gold.PLP.part.metal>
0.0000

> <Gold.PLP.part.buried>
-3.2267

> <Gold.PLP.part.nonpolar>
-33.0986

> <Gold.PLP.part.repulsive>
0.3620

> <Gold.PLP.ligand.clash>
0.0000

> <Gold.PLP.ligand.torsion>
0.0539

> <Gold.PLP.Chemscore.Hbond>
2.0000

> <Gold.PLP.Chemscore.CHOScore>
0.0000

> <Gold.PLP.Chemscore.Metal>
0.0000

> <Gold.Chemscore.Hbonds>
donor molecule, donor type, donor heavy atom, donor atom, acceptor molecule, acceptor atom, score
      L1  H    11    33       P1  8028  1.95

> <Gold.PLP.Chemscore.Internal.Correction>
0.0897

> <Gold.Rescore>
     Score         DG    S(hbond)    S(metal)    S(lipo)     H(rot)  DE(clash)    DE(int)     intcor
     17.64     -17.83       1.03        0.00      97.94       1.00       0.14       0.05       ----

> <Gold.Chemscore.Fitness>
17.6448

> <Gold.Chemscore.DG>
-17.8322

> <Gold.Chemscore.ZeroCoef>
-5.4800

> <Gold.Chemscore.Hbond>
1.0340

> <Gold.Chemscore.Metal>
0.0000

> <Gold.Chemscore.Lipo>
97.9380

> <Gold.Chemscore.Internal_Hbond>
0.0000

> <Gold.Chemscore.DEClash>
0.1397

> <Gold.Chemscore.DEInternal>
0.0477

> <Gold.Chemscore.Rot>
1.0000

> <Gold.Chemscore.Internal.Correction>
   9.000000E+99

> <Gold.Chemscore.Hbonds>
donor molecule, donor type, donor heavy atom, donor atom, acceptor molecule, acceptor atom, score
      L1  H    11    33       P1  8028  0.93

> <Gold.Chemscore.Hbond.Weighted>
-3.4535

> <Gold.Chemscore.Metal.Weighted>
-0.0000

> <Gold.Chemscore.Lipo.Weighted>
-11.4587

> <Gold.Chemscore.Internal_Hbond.Weighted>
0.0000

> <Gold.Chemscore.DEClash.Weighted>
0.1397

> <Gold.Chemscore.DEInternal.Weighted>
0.0477

> <Gold.Chemscore.Rot.Weighted>
2.5600

> <Gold.Chemscore.Internal.Correction.Weighted>
   9.000000E+99

> <Gold.Protein.RotatedTorsions>
[ 6907 6896 6895 6894 ] final -152.47 input  -60.11 | X-H torsion
[ 7974 7965 7964 7962 ] final  108.34 input  175.53 | X-H torsion
[ 8008 7997 7996 7995 ] final  160.43 input   59.86 | X-H torsion
[ 10167 10162 10161 10158 ] final  -41.55 input  -65.29 | X-H torsion
[ 10718 10713 10712 10709 ] final -132.51 input   66.30 | X-H torsion
[ 10763 10752 10751 10750 ] final  -24.63 input  -60.55 | X-H torsion
[ 11005 11000 10999 10996 ] final  -51.56 input  -57.11 | X-H torsion

> <Gold.Protein.ActiveResidues>
 VAL166  LYS551  ARG553  GLY616  TRP617  ASP618  TYR619  PRO620  LYS621  CYS622 
 ASP623  PHE694  ASN695  SER759  ASP760  ASP761  ALA762  ILE779  LEU786  VAL792 
 PHE793  MET794  SER795  GLU796  ALA797  LYS798  CYS799  TRP800  GLU811  SER814 

> <Gold.Protein.RotatedAtoms>
  151.2283  133.4464  159.2602 H   0  0  0  0  0  0  0  0  0  0  0  0  # atno 6907 bound_to 6896
  151.0819  134.9863  159.8370 H   0  0  0  0  0  0  0  0  0  0  0  0  # atno 6908 bound_to 6896
  152.5425  134.2222  159.8845 H   0  0  0  0  0  0  0  0  0  0  0  0  # atno 6909 bound_to 6896
  145.2819  139.2630  143.3911 H   0  0  0  0  0  0  0  0  0  0  0  0  # atno 7974 bound_to 7965
  156.2172  140.1804  156.7561 H   0  0  0  0  0  0  0  0  0  0  0  0  # atno 8008 bound_to 7997
  154.5810  140.0666  156.9133 H   0  0  0  0  0  0  0  0  0  0  0  0  # atno 8009 bound_to 7997
  155.2503  140.3328  155.4285 H   0  0  0  0  0  0  0  0  0  0  0  0  # atno 8010 bound_to 7997
  140.6999  143.3088  151.3083 H   0  0  0  0  0  0  0  0  0  0  0  0  # atno 10167 bound_to 10162
  156.2353  130.7063  151.0901 H   0  0  0  0  0  0  0  0  0  0  0  0  # atno 10718 bound_to 10713
  153.6869  135.6964  153.5101 H   0  0  0  0  0  0  0  0  0  0  0  0  # atno 10763 bound_to 10752
  153.2443  135.4296  155.0730 H   0  0  0  0  0  0  0  0  0  0  0  0  # atno 10764 bound_to 10752
  154.8384  135.3515  154.6411 H   0  0  0  0  0  0  0  0  0  0  0  0  # atno 10765 bound_to 10752
  141.0877  133.6639  156.3895 H   0  0  0  0  0  0  0  0  0  0  0  0  # atno 11005 bound_to 11000
  146.3213  140.3288  142.8639 LP  0  0  0  0  0  0  0  0  0  0  0  0  # atno 17320 bound_to 7965
  144.9246  140.7907  143.5727 LP  0  0  0  0  0  0  0  0  0  0  0  0  # atno 17321 bound_to 7965
  139.6503  144.0374  152.2621 LP  0  0  0  0  0  0  0  0  0  0  0  0  # atno 17342 bound_to 10162
  139.9908  144.6362  150.7816 LP  0  0  0  0  0  0  0  0  0  0  0  0  # atno 17343 bound_to 10162
  157.7152  131.0714  150.6355 LP  0  0  0  0  0  0  0  0  0  0  0  0  # atno 17370 bound_to 10713
  156.6425  130.4462  149.5747 LP  0  0  0  0  0  0  0  0  0  0  0  0  # atno 17371 bound_to 10713
  140.5324  134.6200  157.5354 LP  0  0  0  0  0  0  0  0  0  0  0  0  # atno 17394 bound_to 11000
  139.9698  134.7312  156.0064 LP  0  0  0  0  0  0  0  0  0  0  0  0  # atno 17395 bound_to 11000

$$$$
