AV-unprocessed.smi:2495|AV-procd|sdf|9824|dock2
  -GOLD-   2272013453D 1   1.00000     0.00000
 Structure written by MMmdl.
 33 34  0  0  0  0  0  0  0  0  1 V2000
  147.5619  139.4505  153.2652 C   0  0  0  0  0  0  0  0  0  0  0  0
  148.6946  139.5049  154.1764 N   0  0  0  0  0  0  0  0  0  0  0  0
  149.4973  140.5696  154.3257 C   0  0  0  0  0  0  0  0  0  0  0  0
  149.3500  141.6107  153.6841 O   0  0  0  0  0  0  0  0  0  0  0  0
  150.6490  140.4305  155.3328 C   0  0  1  0  0  0  0  0  0  0  0  0
  150.5891  141.5015  156.4462 C   0  0  0  0  0  0  0  0  0  0  0  0
  151.6240  141.2656  157.4507 N   0  0  0  0  0  0  0  0  0  0  0  0
  151.8391  142.3170  158.3685 C   0  0  0  0  0  0  0  0  0  0  0  0
  152.1264  142.0496  159.7290 C   0  0  0  0  0  0  0  0  0  0  0  0
  152.3278  143.1637  160.5704 C   0  0  0  0  0  0  0  0  0  0  0  0
  152.6421  142.9924  162.0415 C   0  0  0  0  0  0  0  0  0  0  0  0
  152.2529  144.4295  160.1074 N   0  0  0  0  0  0  0  0  0  0  0  0
  151.9711  144.5746  158.8115 C   0  0  0  0  0  0  0  0  0  0  0  0
  151.7596  143.5973  157.9270 N   0  0  0  0  0  0  0  0  0  0  0  0
  151.6372  139.8983  157.9656 C   0  0  0  0  0  0  0  0  0  0  0  0
  151.6822  138.8918  156.8060 C   0  0  0  0  0  0  0  0  0  0  0  0
  150.5910  139.1325  155.9254 O   0  0  0  0  0  0  0  0  0  0  0  0
  147.1214  138.4536  153.2791 H   0  0  0  0  0  0  0  0  0  0  0  0
  147.8712  139.6720  152.2428 H   0  0  0  0  0  0  0  0  0  0  0  0
  146.7947  140.1675  153.5602 H   0  0  0  0  0  0  0  0  0  0  0  0
  148.8782  138.6861  154.7385 H   0  0  0  0  0  0  0  0  0  0  0  0
  151.5830  140.5288  154.7765 H   0  0  0  0  0  0  0  0  0  0  0  0
  150.6953  142.4874  155.9958 H   0  0  0  0  0  0  0  0  0  0  0  0
  149.6156  141.4820  156.9387 H   0  0  0  0  0  0  0  0  0  0  0  0
  152.1781  141.0454  160.1224 H   0  0  0  0  0  0  0  0  0  0  0  0
  152.2721  142.0346  162.4085 H   0  0  0  0  0  0  0  0  0  0  0  0
  152.1787  143.7827  162.6331 H   0  0  0  0  0  0  0  0  0  0  0  0
  153.7195  143.0284  162.2022 H   0  0  0  0  0  0  0  0  0  0  0  0
  151.9068  145.5864  158.4399 H   0  0  0  0  0  0  0  0  0  0  0  0
  152.5044  139.7436  158.6090 H   0  0  0  0  0  0  0  0  0  0  0  0
  150.7457  139.7316  158.5718 H   0  0  0  0  0  0  0  0  0  0  0  0
  152.6261  138.9628  156.2630 H   0  0  0  0  0  0  0  0  0  0  0  0
  151.6109  137.8740  157.1899 H   0  0  0  0  0  0  0  0  0  0  0  0
  1  2  1  0  0  0  0
  1 18  1  0  0  0  0
  1 19  1  0  0  0  0
  1 20  1  0  0  0  0
  2  3  1  0  0  0  0
  2 21  1  0  0  0  0
  3  4  2  0  0  0  0
  3  5  1  0  0  0  0
  5 17  1  0  0  0  0
  5  6  1  0  0  0  0
  5 22  1  0  0  0  0
  6  7  1  0  0  0  0
  6 23  1  0  0  0  0
  6 24  1  0  0  0  0
  7  8  1  0  0  0  0
  7 15  1  0  0  0  0
  8 14  1  0  0  0  0
  8  9  2  0  0  0  0
  9 10  1  0  0  0  0
  9 25  1  0  0  0  0
 10 11  1  0  0  0  0
 10 12  2  0  0  0  0
 11 26  1  0  0  0  0
 11 27  1  0  0  0  0
 11 28  1  0  0  0  0
 12 13  1  0  0  0  0
 13 14  2  0  0  0  0
 13 29  1  0  0  0  0
 15 16  1  0  0  0  0
 15 30  1  0  0  0  0
 15 31  1  0  0  0  0
 16 17  1  0  0  0  0
 16 32  1  0  0  0  0
 16 33  1  0  0  0  0
M  END
> <s_m_source_file>
AV-unprocessed.smi

> <i_m_source_file_index>
2495

> <i_lp_mmshare_version>
43012

> <i_f3d_flags>
0

> <s_epik_input>
W0NIM11bTkhdQyg9TylbQ0BASF0xW0NIMl1OKFtDSDJdW0NIMl1PMSljMltjSF1jKFtDSDNdKW5bY0hdbjI=

> <s_epik_cmdline>
J2VwaWtfcHl0aG9uJywgJy1waCcsICc3LjAnLCAnLXRuJywgJzgnLCAnLW1hJywgJzIwMCcsICctbWV0YWxfYmluZGluZycsICctaW1hZScsICc8aW5maWxlLm1hZT4nLCAnLW9tYWUnLCAnPG91dGZpbGUubWFlPic=

> <r_lp_tautomer_probability>
1

> <r_epik_Ionization_Penalty>
0.000466083

> <r_epik_Ionization_Penalty_Charging>
0

> <r_epik_Ionization_Penalty_Neutral>
0.000466083

> <r_epik_State_Penalty>
0.000259726

> <r_epik_Charging_Adjusted_Penalty>
0.000259726

> <i_epik_Tot_Q>
0

> <i_epik_Tot_abs_Q>
0

> <r_epik_Metal_State_Penalty>
-0

> <b_epik_Metal_Only>
0

> <s_lp_Force_Field>
OPLS_2005

> <r_lp_Energy>
12.0364

> <b_lp_Chiralities_Consistent>
1

> <s_lp_Variant>
AV-unprocessed.smi:2495-2

> <Gold.Version>
5.8.1

> <Gold.Id.Protein>
6NUR|6NUR_protein|mol2

> <Gold.PLP.Fitness>
36.1657

> <Gold.PLP.PLP>
-34.5138

> <Gold.PLP.part.hbond>
-2.0157

> <Gold.PLP.part.metal>
0.0000

> <Gold.PLP.part.buried>
-2.9234

> <Gold.PLP.part.nonpolar>
-28.7826

> <Gold.PLP.part.repulsive>
0.4431

> <Gold.PLP.ligand.clash>
0.0000

> <Gold.PLP.ligand.torsion>
0.3321

> <Gold.PLP.Chemscore.Hbond>
0.6560

> <Gold.PLP.Chemscore.CHOScore>
0.0000

> <Gold.PLP.Chemscore.Metal>
0.0000

> <Gold.Chemscore.Hbonds>
donor molecule, donor type, donor heavy atom, donor atom, acceptor molecule, acceptor atom, score
      P1  H  8011  8017       L1     4  0.72

> <Gold.PLP.Chemscore.Internal.Correction>
0.3480

> <Gold.Rescore>
     Score         DG    S(hbond)    S(metal)    S(lipo)     H(rot)  DE(clash)    DE(int)     intcor
     11.21     -11.68       0.71        0.00      62.61       1.37       0.09       0.38       ----

> <Gold.Chemscore.Fitness>
11.2148

> <Gold.Chemscore.DG>
-11.6828

> <Gold.Chemscore.ZeroCoef>
-5.4800

> <Gold.Chemscore.Hbond>
0.7146

> <Gold.Chemscore.Metal>
0.0000

> <Gold.Chemscore.Lipo>
62.6054

> <Gold.Chemscore.Internal_Hbond>
0.0000

> <Gold.Chemscore.DEClash>
0.0864

> <Gold.Chemscore.DEInternal>
0.3817

> <Gold.Chemscore.Rot>
1.3706

> <Gold.Chemscore.Internal.Correction>
   9.000000E+99

> <Gold.Chemscore.Hbonds>
donor molecule, donor type, donor heavy atom, donor atom, acceptor molecule, acceptor atom, score
      P1  H  8011  8017       L1     4  0.72

> <Gold.Chemscore.Hbond.Weighted>
-2.3867

> <Gold.Chemscore.Metal.Weighted>
-0.0000

> <Gold.Chemscore.Lipo.Weighted>
-7.3248

> <Gold.Chemscore.Internal_Hbond.Weighted>
0.0000

> <Gold.Chemscore.DEClash.Weighted>
0.0864

> <Gold.Chemscore.DEInternal.Weighted>
0.3817

> <Gold.Chemscore.Rot.Weighted>
3.5087

> <Gold.Chemscore.Internal.Correction.Weighted>
   9.000000E+99

> <Gold.Protein.RotatedTorsions>
[ 6907 6896 6895 6894 ] final  119.04 input  -60.11 | X-H torsion
[ 7974 7965 7964 7962 ] final  -69.75 input  175.53 | X-H torsion
[ 8008 7997 7996 7995 ] final  -70.97 input   59.86 | X-H torsion
[ 10167 10162 10161 10158 ] final  163.55 input  -65.29 | X-H torsion
[ 10718 10713 10712 10709 ] final   28.12 input   66.30 | X-H torsion
[ 10763 10752 10751 10750 ] final  141.61 input  -60.55 | X-H torsion
[ 11005 11000 10999 10996 ] final   66.39 input  -57.11 | X-H torsion

> <Gold.Protein.ActiveResidues>
 VAL166  LYS551  ARG553  GLY616  TRP617  ASP618  TYR619  PRO620  LYS621  CYS622 
 ASP623  PHE694  ASN695  SER759  ASP760  ASP761  ALA762  ILE779  LEU786  VAL792 
 PHE793  MET794  SER795  GLU796  ALA797  LYS798  CYS799  TRP800  GLU811  SER814 

> <Gold.Protein.RotatedAtoms>
  152.4500  133.7610  159.6746 H   0  0  0  0  0  0  0  0  0  0  0  0  # atno 6907 bound_to 6896
  150.8409  133.7927  159.3067 H   0  0  0  0  0  0  0  0  0  0  0  0  # atno 6908 bound_to 6896
  151.5552  135.1069  160.0011 H   0  0  0  0  0  0  0  0  0  0  0  0  # atno 6909 bound_to 6896
  145.6998  140.9121  143.0737 H   0  0  0  0  0  0  0  0  0  0  0  0  # atno 7974 bound_to 7965
  154.5052  140.0824  156.7880 H   0  0  0  0  0  0  0  0  0  0  0  0  # atno 8008 bound_to 7997
  155.3910  140.3432  155.4233 H   0  0  0  0  0  0  0  0  0  0  0  0  # atno 8009 bound_to 7997
  156.1507  140.1557  156.8762 H   0  0  0  0  0  0  0  0  0  0  0  0  # atno 8010 bound_to 7997
  139.4875  144.4325  151.9052 H   0  0  0  0  0  0  0  0  0  0  0  0  # atno 10167 bound_to 10162
  157.2292  130.7015  149.6305 H   0  0  0  0  0  0  0  0  0  0  0  0  # atno 10718 bound_to 10713
  153.9422  135.2979  155.3442 H   0  0  0  0  0  0  0  0  0  0  0  0  # atno 10763 bound_to 10752
  154.7471  135.4998  153.9226 H   0  0  0  0  0  0  0  0  0  0  0  0  # atno 10764 bound_to 10752
  153.1037  135.6741  153.9733 H   0  0  0  0  0  0  0  0  0  0  0  0  # atno 10765 bound_to 10752
  139.9835  134.6706  156.0219 H   0  0  0  0  0  0  0  0  0  0  0  0  # atno 11005 bound_to 11000
  144.6972  139.8932  143.7454 LP  0  0  0  0  0  0  0  0  0  0  0  0  # atno 17320 bound_to 7965
  146.0808  139.3796  143.0465 LP  0  0  0  0  0  0  0  0  0  0  0  0  # atno 17321 bound_to 7965
  140.3774  144.2780  150.5912 LP  0  0  0  0  0  0  0  0  0  0  0  0  # atno 17342 bound_to 10162
  140.5264  143.2253  151.8307 LP  0  0  0  0  0  0  0  0  0  0  0  0  # atno 17343 bound_to 10162
  155.9676  130.4494  150.5658 LP  0  0  0  0  0  0  0  0  0  0  0  0  # atno 17370 bound_to 10713
  157.3496  131.0731  151.1724 LP  0  0  0  0  0  0  0  0  0  0  0  0  # atno 17371 bound_to 10713
  141.1503  133.6549  156.3994 LP  0  0  0  0  0  0  0  0  0  0  0  0  # atno 17394 bound_to 11000
  140.5049  134.6450  157.5263 LP  0  0  0  0  0  0  0  0  0  0  0  0  # atno 17395 bound_to 11000

$$$$
