AV-unprocessed.smi:713|AV-procd|sdf|3475|dock4
  -GOLD-   22720 0463D 1   1.00000     0.00000
 Structure written by MMmdl.
 41 42  0  0  0  0  0  0  0  0  1 V2000
  153.4220  142.1016  161.5232 C   0  0  0  0  0  0  0  0  0  0  0  0
  153.4497  142.3800  160.0064 C   0  0  1  0  0  0  0  0  0  0  0  0
  153.3609  141.1004  159.1559 C   0  0  0  0  0  0  0  0  0  0  0  0
  154.3020  140.3072  159.1069 O   0  0  0  0  0  0  0  0  0  0  0  0
  152.2146  140.9146  158.4805 N   0  0  0  0  0  0  0  0  0  0  0  0
  151.9124  139.7707  157.6267 C   0  0  2  0  0  0  0  0  0  0  0  0
  152.0272  140.1954  156.1508 C   0  0  0  0  0  0  0  0  0  0  0  0
  151.6212  139.0634  155.1942 C   0  0  0  0  0  0  0  0  0  0  0  0
  150.2021  138.5574  155.5010 C   0  0  0  0  0  0  0  0  0  0  0  0
  150.0340  138.1128  156.9675 C   0  0  1  0  0  0  0  0  0  0  0  0
  150.8535  136.4696  157.2754 S   0  0  0  0  0  0  0  0  0  0  0  0
  149.4197  135.3339  157.4817 C   0  0  0  0  0  0  0  0  0  0  0  0
  151.5675  136.0853  156.0484 O   0  0  0  0  0  0  0  0  0  0  0  0
  151.5851  136.5000  158.5502 O   0  0  0  0  0  0  0  0  0  0  0  0
  150.4987  139.2253  157.9340 C   0  0  0  0  0  0  0  0  0  0  0  0
  152.4195  143.3357  159.6126 N   0  0  0  0  0  0  0  0  0  0  0  0
  151.7036  144.1941  160.4227 C   0  0  0  0  0  0  0  0  0  0  0  0
  150.8755  144.9232  159.6184 C   0  0  0  0  0  0  0  0  0  0  0  0
  151.1639  144.4420  158.3115 C   0  0  0  0  0  0  0  0  0  0  0  0
  152.0917  143.4991  158.3095 N   0  0  0  0  0  0  0  0  0  0  0  0
  154.2431  141.4481  161.8195 H   0  0  0  0  0  0  0  0  0  0  0  0
  152.4911  141.6254  161.8340 H   0  0  0  0  0  0  0  0  0  0  0  0
  153.5235  143.0277  162.0895 H   0  0  0  0  0  0  0  0  0  0  0  0
  154.4142  142.8375  159.7810 H   0  0  0  0  0  0  0  0  0  0  0  0
  151.4928  141.6142  158.5742 H   0  0  0  0  0  0  0  0  0  0  0  0
  152.6600  139.0031  157.8220 H   0  0  0  0  0  0  0  0  0  0  0  0
  151.3900  141.0618  155.9663 H   0  0  0  0  0  0  0  0  0  0  0  0
  153.0477  140.5117  155.9317 H   0  0  0  0  0  0  0  0  0  0  0  0
  151.6678  139.4197  154.1649 H   0  0  0  0  0  0  0  0  0  0  0  0
  152.3377  138.2455  155.2617 H   0  0  0  0  0  0  0  0  0  0  0  0
  149.4912  139.3571  155.2900 H   0  0  0  0  0  0  0  0  0  0  0  0
  149.9430  137.7405  154.8270 H   0  0  0  0  0  0  0  0  0  0  0  0
  148.9723  137.9372  157.1425 H   0  0  0  0  0  0  0  0  0  0  0  0
  149.7811  134.3070  157.5310 H   0  0  0  0  0  0  0  0  0  0  0  0
  148.7438  135.4376  156.6334 H   0  0  0  0  0  0  0  0  0  0  0  0
  148.8898  135.5646  158.4052 H   0  0  0  0  0  0  0  0  0  0  0  0
  150.4381  138.8810  158.9651 H   0  0  0  0  0  0  0  0  0  0  0  0
  149.7888  140.0509  157.8638 H   0  0  0  0  0  0  0  0  0  0  0  0
  151.8422  144.2150  161.4937 H   0  0  0  0  0  0  0  0  0  0  0  0
  150.1728  145.6866  159.9178 H   0  0  0  0  0  0  0  0  0  0  0  0
  150.7328  144.7503  157.3705 H   0  0  0  0  0  0  0  0  0  0  0  0
  1  2  1  0  0  0  0
  1 21  1  0  0  0  0
  1 22  1  0  0  0  0
  1 23  1  0  0  0  0
  2  3  1  0  0  0  0
  2 16  1  0  0  0  0
  2 24  1  0  0  0  0
  3  4  2  0  0  0  0
  3  5  1  0  0  0  0
  5  6  1  0  0  0  0
  5 25  1  0  0  0  0
  6 15  1  0  0  0  0
  6  7  1  0  0  0  0
  6 26  1  0  0  0  0
  7  8  1  0  0  0  0
  7 27  1  0  0  0  0
  7 28  1  0  0  0  0
  8  9  1  0  0  0  0
  8 29  1  0  0  0  0
  8 30  1  0  0  0  0
  9 10  1  0  0  0  0
  9 31  1  0  0  0  0
  9 32  1  0  0  0  0
 10 11  1  0  0  0  0
 10 15  1  0  0  0  0
 10 33  1  0  0  0  0
 11 12  1  0  0  0  0
 11 13  2  0  0  0  0
 11 14  2  0  0  0  0
 12 34  1  0  0  0  0
 12 35  1  0  0  0  0
 12 36  1  0  0  0  0
 15 37  1  0  0  0  0
 15 38  1  0  0  0  0
 16 20  1  0  0  0  0
 16 17  1  0  0  0  0
 17 18  2  0  0  0  0
 17 39  1  0  0  0  0
 18 19  1  0  0  0  0
 18 40  1  0  0  0  0
 19 20  2  0  0  0  0
 19 41  1  0  0  0  0
M  END
> <s_m_source_file>
AV-unprocessed.smi

> <i_m_source_file_index>
713

> <i_lp_mmshare_version>
43012

> <i_f3d_flags>
0

> <s_epik_input>
bjFbY0hdW2NIXVtjSF1uMVtDQEhdKFtDSDNdKUMoPU8pW05IXVtDQEBIXTJbQ0gyXVtDSDJdW0NIMl1bQ0BIXShbQ0gyXTIpUyg9TykoPU8pW0NIM10=

> <s_epik_cmdline>
J2VwaWtfcHl0aG9uJywgJy1waCcsICc3LjAnLCAnLXRuJywgJzgnLCAnLW1hJywgJzIwMCcsICctbWV0YWxfYmluZGluZycsICctaW1hZScsICc8aW5maWxlLm1hZT4nLCAnLW9tYWUnLCAnPG91dGZpbGUubWFlPic=

> <r_lp_tautomer_probability>
1

> <r_epik_Ionization_Penalty>
4.07816e-05

> <r_epik_Ionization_Penalty_Charging>
0

> <r_epik_Ionization_Penalty_Neutral>
4.07816e-05

> <r_epik_State_Penalty>
-0

> <r_epik_Charging_Adjusted_Penalty>
0

> <i_epik_Tot_Q>
0

> <i_epik_Tot_abs_Q>
0

> <r_epik_Metal_State_Penalty>
-0

> <b_epik_Metal_Only>
0

> <s_lp_Force_Field>
OPLS_2005

> <r_lp_Energy>
4.9413

> <b_lp_Chiralities_Consistent>
1

> <s_lp_Variant>
AV-unprocessed.smi:713-2

> <Gold.Version>
5.8.1

> <Gold.Id.Protein>
6NUR|6NUR_protein|mol2

> <Gold.PLP.Fitness>
46.6727

> <Gold.PLP.PLP>
-38.0853

> <Gold.PLP.part.hbond>
-3.0000

> <Gold.PLP.part.metal>
0.0000

> <Gold.PLP.part.buried>
-4.3391

> <Gold.PLP.part.nonpolar>
-30.3099

> <Gold.PLP.part.repulsive>
0.1574

> <Gold.PLP.ligand.clash>
0.0000

> <Gold.PLP.ligand.torsion>
1.2609

> <Gold.PLP.Chemscore.Hbond>
2.6080

> <Gold.PLP.Chemscore.CHOScore>
0.9989

> <Gold.PLP.Chemscore.Metal>
0.0000

> <Gold.Chemscore.Hbonds>
donor molecule, donor type, donor heavy atom, donor atom, acceptor molecule, acceptor atom, score
      P1  H  6896  6909       L1    14  0.64
      P1  H  7997  8010       L1     4  0.86
      P1  H 10752 10765       L1    13  1.00
      L1  C    19    41       P1  8028  1.00

> <Gold.PLP.Chemscore.Internal.Correction>
0.2883

> <Gold.Rescore>
     Score         DG    S(hbond)    S(metal)    S(lipo)     H(rot)  DE(clash)    DE(int)     intcor
     16.88     -19.47       2.40        0.00      88.70       1.72       0.03       2.57       ----

> <Gold.Chemscore.Fitness>
16.8754

> <Gold.Chemscore.DG>
-19.4713

> <Gold.Chemscore.ZeroCoef>
-5.4800

> <Gold.Chemscore.Hbond>
2.4038

> <Gold.Chemscore.Metal>
0.0000

> <Gold.Chemscore.Lipo>
88.7041

> <Gold.Chemscore.Internal_Hbond>
0.0000

> <Gold.Chemscore.DEClash>
0.0270

> <Gold.Chemscore.DEInternal>
2.5689

> <Gold.Chemscore.Rot>
1.7249

> <Gold.Chemscore.Internal.Correction>
   9.000000E+99

> <Gold.Chemscore.Hbonds>
donor molecule, donor type, donor heavy atom, donor atom, acceptor molecule, acceptor atom, score
      P1  H  6896  6909       L1    14  0.61
      P1  H  7997  8010       L1     4  0.74
      P1  H 10752 10765       L1    13  0.99

> <Gold.Chemscore.Hbond.Weighted>
-8.0286

> <Gold.Chemscore.Metal.Weighted>
-0.0000

> <Gold.Chemscore.Lipo.Weighted>
-10.3784

> <Gold.Chemscore.Internal_Hbond.Weighted>
0.0000

> <Gold.Chemscore.DEClash.Weighted>
0.0270

> <Gold.Chemscore.DEInternal.Weighted>
2.5689

> <Gold.Chemscore.Rot.Weighted>
4.4157

> <Gold.Chemscore.Internal.Correction.Weighted>
   9.000000E+99

> <Gold.Protein.RotatedTorsions>
[ 6907 6896 6895 6894 ] final   99.69 input  -60.11 | X-H torsion
[ 7974 7965 7964 7962 ] final  174.94 input  175.53 | X-H torsion
[ 8008 7997 7996 7995 ] final    5.94 input   59.86 | X-H torsion
[ 10167 10162 10161 10158 ] final  133.91 input  -65.29 | X-H torsion
[ 10718 10713 10712 10709 ] final -101.39 input   66.30 | X-H torsion
[ 10763 10752 10751 10750 ] final -150.70 input  -60.55 | X-H torsion
[ 11005 11000 10999 10996 ] final  176.49 input  -57.11 | X-H torsion

> <Gold.Protein.ActiveResidues>
 VAL166  LYS551  ARG553  GLY616  TRP617  ASP618  TYR619  PRO620  LYS621  CYS622 
 ASP623  PHE694  ASN695  SER759  ASP760  ASP761  ALA762  ILE779  LEU786  VAL792 
 PHE793  MET794  SER795  GLU796  ALA797  LYS798  CYS799  TRP800  GLU811  SER814 

> <Gold.Protein.RotatedAtoms>
  152.5387  134.0390  159.8058 H   0  0  0  0  0  0  0  0  0  0  0  0  # atno 6907 bound_to 6896
  151.0549  133.5585  159.2646 H   0  0  0  0  0  0  0  0  0  0  0  0  # atno 6908 bound_to 6896
  151.2506  135.0628  159.9114 H   0  0  0  0  0  0  0  0  0  0  0  0  # atno 6909 bound_to 6896
  144.7211  139.9872  143.6439 H   0  0  0  0  0  0  0  0  0  0  0  0  # atno 7974 bound_to 7965
  154.7347  140.2737  155.6425 H   0  0  0  0  0  0  0  0  0  0  0  0  # atno 8008 bound_to 7997
  156.2859  140.2709  156.1983 H   0  0  0  0  0  0  0  0  0  0  0  0  # atno 8009 bound_to 7997
  155.0336  140.0371  157.2473 H   0  0  0  0  0  0  0  0  0  0  0  0  # atno 8010 bound_to 7997
  139.5277  144.6593  151.5064 H   0  0  0  0  0  0  0  0  0  0  0  0  # atno 10167 bound_to 10162
  156.0193  130.5371  150.6956 H   0  0  0  0  0  0  0  0  0  0  0  0  # atno 10718 bound_to 10713
  154.8103  135.3278  154.7322 H   0  0  0  0  0  0  0  0  0  0  0  0  # atno 10763 bound_to 10752
  153.7972  135.6906  153.4866 H   0  0  0  0  0  0  0  0  0  0  0  0  # atno 10764 bound_to 10752
  153.1877  135.4562  155.0056 H   0  0  0  0  0  0  0  0  0  0  0  0  # atno 10765 bound_to 10752
  140.3737  134.7007  157.4408 H   0  0  0  0  0  0  0  0  0  0  0  0  # atno 11005 bound_to 11000
  146.0441  139.3449  143.0679 LP  0  0  0  0  0  0  0  0  0  0  0  0  # atno 17320 bound_to 7965
  145.8298  140.9636  143.0855 LP  0  0  0  0  0  0  0  0  0  0  0  0  # atno 17321 bound_to 7965
  140.6433  143.8845  150.6713 LP  0  0  0  0  0  0  0  0  0  0  0  0  # atno 17342 bound_to 10162
  140.2186  143.3826  152.1661 LP  0  0  0  0  0  0  0  0  0  0  0  0  # atno 17343 bound_to 10162
  157.4628  131.0885  151.0727 LP  0  0  0  0  0  0  0  0  0  0  0  0  # atno 17370 bound_to 10713
  157.1210  130.6062  149.5505 LP  0  0  0  0  0  0  0  0  0  0  0  0  # atno 17371 bound_to 10713
  140.0532  134.6101  155.8837 LP  0  0  0  0  0  0  0  0  0  0  0  0  # atno 17394 bound_to 11000
  141.1946  133.6583  156.5603 LP  0  0  0  0  0  0  0  0  0  0  0  0  # atno 17395 bound_to 11000

$$$$
