AV-unprocessed.smi:2201|AV-procd|sdf|8928|dock10
  -GOLD-   2272012143D 1   1.00000     0.00000
 Structure written by MMmdl.
 30 30  0  0  0  0  0  0  0  0  2 V2000
  147.7287  134.1446  161.3674 C   0  0  0  0  0  0  0  0  0  0  0  0
  147.1586  135.3951  160.6576 C   0  0  0  0  0  0  0  0  0  0  0  0
  146.1291  134.9210  159.6059 C   0  0  0  0  0  0  0  0  0  0  0  0
  146.4555  136.2718  161.7190 C   0  0  0  0  0  0  0  0  0  0  0  0
  148.3027  136.1950  159.9728 C   0  0  0  0  0  0  0  0  0  0  0  0
  148.4459  137.3949  160.2209 O   0  0  0  0  0  0  0  0  0  0  0  0
  149.0488  135.4327  159.1327 N   0  5  0  0  0  0  0  0  0  0  0  0
  149.1656  135.7838  157.8432 C   0  0  0  0  0  0  0  0  0  0  0  0
  150.2530  136.3831  157.3461 N   0  0  0  0  0  0  0  0  0  0  0  0
  150.1615  136.6670  155.9802 C   0  0  0  0  0  0  0  0  0  0  0  0
  151.2968  137.3529  155.2728 C   0  0  0  0  0  0  0  0  0  0  0  0
  150.8254  138.6127  154.5371 C   0  0  0  0  0  0  0  0  0  0  0  0
  149.9031  138.4670  153.5805 N   0  0  0  0  0  0  0  0  0  0  0  0
  151.3079  139.7089  154.8146 O   0  0  0  0  0  0  0  0  0  0  0  0
  148.9797  136.2490  155.4243 C   0  0  0  0  0  0  0  0  0  0  0  0
  147.9417  135.5017  156.6041 S   0  0  0  0  0  0  0  0  0  0  0  0
  146.9386  133.5718  161.8538 H   0  0  0  0  0  0  0  0  0  0  0  0
  148.4517  134.4130  162.1389 H   0  0  0  0  0  0  0  0  0  0  0  0
  148.2251  133.4741  160.6643 H   0  0  0  0  0  0  0  0  0  0  0  0
  146.6085  134.3556  158.8056 H   0  0  0  0  0  0  0  0  0  0  0  0
  145.5970  135.7552  159.1469 H   0  0  0  0  0  0  0  0  0  0  0  0
  145.3759  134.2739  160.0563 H   0  0  0  0  0  0  0  0  0  0  0  0
  145.7086  135.6996  162.2700 H   0  0  0  0  0  0  0  0  0  0  0  0
  145.9383  137.1218  161.2723 H   0  0  0  0  0  0  0  0  0  0  0  0
  147.1672  136.6641  162.4465 H   0  0  0  0  0  0  0  0  0  0  0  0
  152.0777  137.6235  155.9848 H   0  0  0  0  0  0  0  0  0  0  0  0
  151.7609  136.6819  154.5494 H   0  0  0  0  0  0  0  0  0  0  0  0
  149.5912  139.2714  153.0558 H   0  0  0  0  0  0  0  0  0  0  0  0
  149.5436  137.5482  153.3671 H   0  0  0  0  0  0  0  0  0  0  0  0
  148.6565  136.3369  154.3982 H   0  0  0  0  0  0  0  0  0  0  0  0
  1  2  1  0  0  0  0
  1 17  1  0  0  0  0
  1 18  1  0  0  0  0
  1 19  1  0  0  0  0
  2  3  1  0  0  0  0
  2  4  1  0  0  0  0
  2  5  1  0  0  0  0
  3 20  1  0  0  0  0
  3 21  1  0  0  0  0
  3 22  1  0  0  0  0
  4 23  1  0  0  0  0
  4 24  1  0  0  0  0
  4 25  1  0  0  0  0
  5  6  2  0  0  0  0
  5  7  1  0  0  0  0
  7  8  1  0  0  0  0
  8 16  1  0  0  0  0
  8  9  2  0  0  0  0
  9 10  1  0  0  0  0
 10 11  1  0  0  0  0
 10 15  2  0  0  0  0
 11 12  1  0  0  0  0
 11 26  1  0  0  0  0
 11 27  1  0  0  0  0
 12 13  1  0  0  0  0
 12 14  2  0  0  0  0
 13 28  1  0  0  0  0
 13 29  1  0  0  0  0
 15 16  1  0  0  0  0
 15 30  1  0  0  0  0
M  CHG  1   7  -1
M  END
> <s_m_source_file>
AV-unprocessed.smi

> <i_m_source_file_index>
2201

> <i_lp_mmshare_version>
43012

> <i_f3d_flags>
0

> <s_epik_input>
W0NIM11DKFtDSDNdKShbQ0gzXSlDKD1PKVtOSF1jMW5jKFtjSF1zMSlbQ0gyXUMoPU8pW05IMl0=

> <s_epik_cmdline>
J2VwaWtfcHl0aG9uJywgJy1waCcsICc3LjAnLCAnLXRuJywgJzgnLCAnLW1hJywgJzIwMCcsICctbWV0YWxfYmluZGluZycsICctaW1hZScsICc8aW5maWxlLm1hZT4nLCAnLW9tYWUnLCAnPG91dGZpbGUubWFlPic=

> <r_lp_tautomer_probability>
1

> <r_epik_Ionization_Penalty>
5.6718

> <r_epik_Ionization_Penalty_Charging>
5.12968

> <r_epik_Ionization_Penalty_Neutral>
0.54212

> <r_epik_State_Penalty>
5.12958

> <r_epik_Charging_Adjusted_Penalty>
10.2593

> <i_epik_Tot_Q>
-1

> <i_epik_Tot_abs_Q>
1

> <r_epik_Metal_State_Penalty>
1.2135

> <b_epik_Metal_Only>
1

> <s_lp_Force_Field>
OPLS_2005

> <r_lp_Energy>
3.19374

> <b_lp_Chiralities_Consistent>
1

> <s_lp_Variant>
AV-unprocessed.smi:2201-2

> <Gold.Version>
5.8.1

> <Gold.Id.Protein>
6NUR|6NUR_protein|mol2

> <Gold.PLP.Fitness>
39.1794

> <Gold.PLP.PLP>
-21.6015

> <Gold.PLP.part.hbond>
-6.1478

> <Gold.PLP.part.metal>
0.0000

> <Gold.PLP.part.buried>
-3.6483

> <Gold.PLP.part.nonpolar>
-12.2966

> <Gold.PLP.part.repulsive>
0.1470

> <Gold.PLP.ligand.clash>
0.0000

> <Gold.PLP.ligand.torsion>
1.3867

> <Gold.PLP.Chemscore.Hbond>
5.7782

> <Gold.PLP.Chemscore.CHOScore>
1.0000

> <Gold.PLP.Chemscore.Metal>
0.0000

> <Gold.Chemscore.Hbonds>
donor molecule, donor type, donor heavy atom, donor atom, acceptor molecule, acceptor atom, score
      L1  H    13    28       P1  7957  0.78
      L1  H    13    29       P1  7948  0.84
      P1  H  6896  6908       L1     7  2.00
      P1  H  6931  6943       L1     6  0.54
      P1  H  6934  6947       L1     6  0.33
      P1  H  7989  7998       L1    14  1.00
      L1  C    15    30       P1  7948  0.96

> <Gold.PLP.Chemscore.Internal.Correction>
0.0165

> <Gold.Rescore>
     Score         DG    S(hbond)    S(metal)    S(lipo)     H(rot)  DE(clash)    DE(int)     intcor
     17.07     -18.37       4.08        0.00      34.79       1.88       0.00       1.30       ----

> <Gold.Chemscore.Fitness>
17.0727

> <Gold.Chemscore.DG>
-18.3723

> <Gold.Chemscore.ZeroCoef>
-5.4800

> <Gold.Chemscore.Hbond>
4.0822

> <Gold.Chemscore.Metal>
0.0000

> <Gold.Chemscore.Lipo>
34.7942

> <Gold.Chemscore.Internal_Hbond>
0.0000

> <Gold.Chemscore.DEClash>
0.0000

> <Gold.Chemscore.DEInternal>
1.2996

> <Gold.Chemscore.Rot>
1.8802

> <Gold.Chemscore.Internal.Correction>
   9.000000E+99

> <Gold.Chemscore.Hbonds>
donor molecule, donor type, donor heavy atom, donor atom, acceptor molecule, acceptor atom, score
      L1  H    13    28       P1  7957  0.72
      L1  H    13    29       P1  7948  0.70
      P1  H  6896  6908       L1     7  0.43
      P1  H  6931  6943       L1     6  0.53
      P1  H  6934  6947       L1     6  0.33
      P1  H  7989  7998       L1    14  0.97

> <Gold.Chemscore.Hbond.Weighted>
-13.6346

> <Gold.Chemscore.Metal.Weighted>
-0.0000

> <Gold.Chemscore.Lipo.Weighted>
-4.0709

> <Gold.Chemscore.Internal_Hbond.Weighted>
0.0000

> <Gold.Chemscore.DEClash.Weighted>
0.0000

> <Gold.Chemscore.DEInternal.Weighted>
1.2996

> <Gold.Chemscore.Rot.Weighted>
4.8132

> <Gold.Chemscore.Internal.Correction.Weighted>
   9.000000E+99

> <Gold.Protein.RotatedTorsions>
[ 6907 6896 6895 6894 ] final  153.98 input  -60.11 | X-H torsion
[ 7974 7965 7964 7962 ] final -175.42 input  175.53 | X-H torsion
[ 8008 7997 7996 7995 ] final  130.94 input   59.86 | X-H torsion
[ 10167 10162 10161 10158 ] final -174.06 input  -65.29 | X-H torsion
[ 10718 10713 10712 10709 ] final    8.99 input   66.30 | X-H torsion
[ 10763 10752 10751 10750 ] final  -51.55 input  -60.55 | X-H torsion
[ 11005 11000 10999 10996 ] final  -53.22 input  -57.11 | X-H torsion

> <Gold.Protein.ActiveResidues>
 VAL166  LYS551  ARG553  GLY616  TRP617  ASP618  TYR619  PRO620  LYS621  CYS622 
 ASP623  PHE694  ASN695  SER759  ASP760  ASP761  ALA762  ILE779  LEU786  VAL792 
 PHE793  MET794  SER795  GLU796  ALA797  LYS798  CYS799  TRP800  GLU811  SER814 

> <Gold.Protein.RotatedAtoms>
  152.0651  133.4080  159.4434 H   0  0  0  0  0  0  0  0  0  0  0  0  # atno 6907 bound_to 6896
  150.6865  134.3156  159.4774 H   0  0  0  0  0  0  0  0  0  0  0  0  # atno 6908 bound_to 6896
  152.0982  134.9360  160.0621 H   0  0  0  0  0  0  0  0  0  0  0  0  # atno 6909 bound_to 6896
  144.7128  140.1324  143.6398 H   0  0  0  0  0  0  0  0  0  0  0  0  # atno 7974 bound_to 7965
  156.2962  140.2583  156.2845 H   0  0  0  0  0  0  0  0  0  0  0  0  # atno 8008 bound_to 7997
  154.9570  140.0393  157.2190 H   0  0  0  0  0  0  0  0  0  0  0  0  # atno 8009 bound_to 7997
  154.7982  140.2823  155.5945 H   0  0  0  0  0  0  0  0  0  0  0  0  # atno 8010 bound_to 7997
  139.5654  144.1767  152.1305 H   0  0  0  0  0  0  0  0  0  0  0  0  # atno 10167 bound_to 10162
  156.9598  130.5928  149.5661 H   0  0  0  0  0  0  0  0  0  0  0  0  # atno 10718 bound_to 10713
  154.1285  135.6524  153.4917 H   0  0  0  0  0  0  0  0  0  0  0  0  # atno 10763 bound_to 10752
  153.0203  135.5287  154.7025 H   0  0  0  0  0  0  0  0  0  0  0  0  # atno 10764 bound_to 10752
  154.6253  135.2969  155.0249 H   0  0  0  0  0  0  0  0  0  0  0  0  # atno 10765 bound_to 10752
  141.0965  133.6624  156.4140 H   0  0  0  0  0  0  0  0  0  0  0  0  # atno 11005 bound_to 11000
  145.9275  139.2585  143.1345 LP  0  0  0  0  0  0  0  0  0  0  0  0  # atno 17320 bound_to 7965
  145.9557  140.8874  143.0236 LP  0  0  0  0  0  0  0  0  0  0  0  0  # atno 17321 bound_to 7965
  140.1289  144.5306  150.6815 LP  0  0  0  0  0  0  0  0  0  0  0  0  # atno 17342 bound_to 10162
  140.6937  143.2391  151.5059 LP  0  0  0  0  0  0  0  0  0  0  0  0  # atno 17343 bound_to 10162
  156.0327  130.5417  150.8575 LP  0  0  0  0  0  0  0  0  0  0  0  0  # atno 17370 bound_to 10713
  157.5665  131.0946  150.9481 LP  0  0  0  0  0  0  0  0  0  0  0  0  # atno 17371 bound_to 10713
  140.5128  134.6379  157.5290 LP  0  0  0  0  0  0  0  0  0  0  0  0  # atno 17394 bound_to 11000
  139.9803  134.7148  155.9872 LP  0  0  0  0  0  0  0  0  0  0  0  0  # atno 17395 bound_to 11000

$$$$
