AV-unprocessed.smi:2501|AV-procd|sdf|9844|dock4
  -GOLD-   2272013473D 1   1.00000     0.00000
 Structure written by MMmdl.
 44 45  0  0  0  0  0  0  0  0  2 V2000
  151.3599  139.3694  155.3060 C   0  0  0  0  0  0  0  0  0  0  0  0
  149.9815  139.9788  155.1197 C   0  0  0  0  0  0  0  0  0  0  0  0
  149.8304  141.3811  155.1944 C   0  0  0  0  0  0  0  0  0  0  0  0
  148.6140  141.9437  155.0311 N   0  3  0  0  0  0  0  0  0  0  0  0
  147.4999  141.2195  154.7946 C   0  0  0  0  0  0  0  0  0  0  0  0
  147.5828  139.8157  154.7088 C   0  0  0  0  0  0  0  0  0  0  0  0
  148.8346  139.1798  154.8704 C   0  0  0  0  0  0  0  0  0  0  0  0
  148.9109  137.6631  154.7788 C   0  0  0  0  0  0  0  0  0  0  0  0
  147.5536  136.9955  155.0408 C   0  0  0  0  0  0  0  0  0  0  0  0
  146.8531  136.7517  153.7871 N   0  0  0  0  0  0  0  0  0  0  0  0
  145.5175  136.7096  153.6492 C   0  0  0  0  0  0  0  0  0  0  0  0
  144.7581  136.8934  154.6015 O   0  0  0  0  0  0  0  0  0  0  0  0
  145.0833  136.4509  152.3895 N   0  0  0  0  0  0  0  0  0  0  0  0
  145.9183  136.3227  151.1842 C   0  0  0  0  0  0  0  0  0  0  0  0
  145.9998  134.8346  150.7936 C   0  0  0  0  0  0  0  0  0  0  0  0
  144.5985  134.1991  150.5957 C   0  0  0  0  0  0  0  0  0  0  0  0
  144.0439  134.7411  149.4097 O   0  0  0  0  0  0  0  0  0  0  0  0
  144.6907  132.6671  150.3962 C   0  0  0  0  0  0  0  0  0  0  0  0
  143.4819  132.1629  150.1454 F   0  0  0  0  0  0  0  0  0  0  0  0
  145.4857  132.3720  149.3669 F   0  0  0  0  0  0  0  0  0  0  0  0
  145.1651  132.0797  151.4959 F   0  0  0  0  0  0  0  0  0  0  0  0
  143.6521  134.5673  151.7679 C   0  0  0  0  0  0  0  0  0  0  0  0
  143.6950  136.0701  152.1077 C   0  0  0  0  0  0  0  0  0  0  0  0
  152.0917  140.1277  155.5864 H   0  0  0  0  0  0  0  0  0  0  0  0
  151.6990  138.9033  154.3807 H   0  0  0  0  0  0  0  0  0  0  0  0
  151.3487  138.6141  156.0915 H   0  0  0  0  0  0  0  0  0  0  0  0
  150.6429  142.0689  155.3794 H   0  0  0  0  0  0  0  0  0  0  0  0
  146.5834  141.7803  154.6824 H   0  0  0  0  0  0  0  0  0  0  0  0
  146.6918  139.2339  154.5218 H   0  0  0  0  0  0  0  0  0  0  0  0
  149.2678  137.3893  153.7848 H   0  0  0  0  0  0  0  0  0  0  0  0
  149.6600  137.2846  155.4745 H   0  0  0  0  0  0  0  0  0  0  0  0
  147.6987  136.0557  155.5752 H   0  0  0  0  0  0  0  0  0  0  0  0
  146.9339  137.6315  155.6742 H   0  0  0  0  0  0  0  0  0  0  0  0
  147.4185  136.5971  152.9650 H   0  0  0  0  0  0  0  0  0  0  0  0
  145.4683  136.8988  150.3744 H   0  0  0  0  0  0  0  0  0  0  0  0
  146.9225  136.7312  151.2963 H   0  0  0  0  0  0  0  0  0  0  0  0
  146.6006  134.7210  149.8903 H   0  0  0  0  0  0  0  0  0  0  0  0
  146.5343  134.3006  151.5802 H   0  0  0  0  0  0  0  0  0  0  0  0
  144.7519  134.9878  148.8342 H   0  0  0  0  0  0  0  0  0  0  0  0
  142.6285  134.2687  151.5387 H   0  0  0  0  0  0  0  0  0  0  0  0
  143.9383  134.0038  152.6569 H   0  0  0  0  0  0  0  0  0  0  0  0
  143.0222  136.2806  152.9403 H   0  0  0  0  0  0  0  0  0  0  0  0
  143.3173  136.6601  151.2715 H   0  0  0  0  0  0  0  0  0  0  0  0
  148.5337  142.9592  155.0899 H   0  0  0  0  0  0  0  0  0  0  0  0
  1  2  1  0  0  0  0
  1 24  1  0  0  0  0
  1 25  1  0  0  0  0
  1 26  1  0  0  0  0
  2  7  1  0  0  0  0
  2  3  2  0  0  0  0
  3  4  1  0  0  0  0
  3 27  1  0  0  0  0
  4  5  2  0  0  0  0
  4 44  1  0  0  0  0
  5  6  1  0  0  0  0
  5 28  1  0  0  0  0
  6  7  2  0  0  0  0
  6 29  1  0  0  0  0
  7  8  1  0  0  0  0
  8  9  1  0  0  0  0
  8 30  1  0  0  0  0
  8 31  1  0  0  0  0
  9 10  1  0  0  0  0
  9 32  1  0  0  0  0
  9 33  1  0  0  0  0
 10 11  1  0  0  0  0
 10 34  1  0  0  0  0
 11 12  2  0  0  0  0
 11 13  1  0  0  0  0
 13 23  1  0  0  0  0
 13 14  1  0  0  0  0
 14 15  1  0  0  0  0
 14 35  1  0  0  0  0
 14 36  1  0  0  0  0
 15 16  1  0  0  0  0
 15 37  1  0  0  0  0
 15 38  1  0  0  0  0
 16 17  1  0  0  0  0
 16 18  1  0  0  0  0
 16 22  1  0  0  0  0
 17 39  1  0  0  0  0
 18 19  1  0  0  0  0
 18 20  1  0  0  0  0
 18 21  1  0  0  0  0
 22 23  1  0  0  0  0
 22 40  1  0  0  0  0
 22 41  1  0  0  0  0
 23 42  1  0  0  0  0
 23 43  1  0  0  0  0
M  CHG  1   4   1
M  END
> <s_m_source_file>
AV-unprocessed.smi

> <i_m_source_file_index>
2501

> <i_lp_mmshare_version>
43012

> <i_f3d_flags>
0

> <s_epik_input>
W0NIM11jMVtjSF1uW2NIXVtjSF1jMVtDSDJdW0NIMl1bTkhdQyg9TylOKFtDSDJdW0NIMl0yKVtDSDJdW0NIMl1DMihbT0hdKUMoRikoRilG

> <s_epik_cmdline>
J2VwaWtfcHl0aG9uJywgJy1waCcsICc3LjAnLCAnLXRuJywgJzgnLCAnLW1hJywgJzIwMCcsICctbWV0YWxfYmluZGluZycsICctaW1hZScsICc8aW5maWxlLm1hZT4nLCAnLW9tYWUnLCAnPG91dGZpbGUubWFlPic=

> <r_epik_Ionization_Penalty>
1.07295

> <r_epik_Ionization_Penalty_Charging>
1.07289

> <r_epik_Ionization_Penalty_Neutral>
5.75735e-05

> <r_epik_State_Penalty>
1.12763

> <r_epik_Charging_Adjusted_Penalty>
2.20053

> <i_epik_Tot_Q>
1

> <i_epik_Tot_abs_Q>
1

> <r_epik_Metal_State_Penalty>
1.21871

> <b_epik_Metal_Only>
0

> <s_lp_Force_Field>
OPLS_2005

> <r_lp_Energy>
44.1439

> <b_lp_Chiralities_Consistent>
1

> <s_lp_Variant>
AV-unprocessed.smi:2501-2

> <Gold.Version>
5.8.1

> <Gold.Id.Protein>
6NUR|6NUR_protein|mol2

> <Gold.PLP.Fitness>
50.6733

> <Gold.PLP.PLP>
-40.1937

> <Gold.PLP.part.hbond>
-3.9808

> <Gold.PLP.part.metal>
0.0000

> <Gold.PLP.part.buried>
-3.0531

> <Gold.PLP.part.nonpolar>
-32.5368

> <Gold.PLP.part.repulsive>
0.2302

> <Gold.PLP.ligand.clash>
0.0000

> <Gold.PLP.ligand.torsion>
0.7871

> <Gold.PLP.Chemscore.Hbond>
4.0000

> <Gold.PLP.Chemscore.CHOScore>
0.0000

> <Gold.PLP.Chemscore.Metal>
0.0000

> <Gold.Chemscore.Hbonds>
donor molecule, donor type, donor heavy atom, donor atom, acceptor molecule, acceptor atom, score
      L1  H     4    44       P1  8028  2.00
      L1  H    10    34       P1  7948  1.00
      L1  H    17    39       P1  7921  1.00

> <Gold.PLP.Chemscore.Internal.Correction>
0.0538

> <Gold.Rescore>
     Score         DG    S(hbond)    S(metal)    S(lipo)     H(rot)  DE(clash)    DE(int)     intcor
     18.15     -18.92       2.97        0.00      74.41       2.02       0.08       0.69       ----

> <Gold.Chemscore.Fitness>
18.1540

> <Gold.Chemscore.DG>
-18.9203

> <Gold.Chemscore.ZeroCoef>
-5.4800

> <Gold.Chemscore.Hbond>
2.9655

> <Gold.Chemscore.Metal>
0.0000

> <Gold.Chemscore.Lipo>
74.4079

> <Gold.Chemscore.Internal_Hbond>
0.0000

> <Gold.Chemscore.DEClash>
0.0773

> <Gold.Chemscore.DEInternal>
0.6890

> <Gold.Chemscore.Rot>
2.0196

> <Gold.Chemscore.Internal.Correction>
   9.000000E+99

> <Gold.Chemscore.Hbonds>
donor molecule, donor type, donor heavy atom, donor atom, acceptor molecule, acceptor atom, score
      L1  H     4    44       P1  8028  1.00
      L1  H    10    34       P1  7948  0.99
      L1  H    17    39       P1  7921  1.00

> <Gold.Chemscore.Hbond.Weighted>
-9.9048

> <Gold.Chemscore.Metal.Weighted>
-0.0000

> <Gold.Chemscore.Lipo.Weighted>
-8.7057

> <Gold.Chemscore.Internal_Hbond.Weighted>
0.0000

> <Gold.Chemscore.DEClash.Weighted>
0.0773

> <Gold.Chemscore.DEInternal.Weighted>
0.6890

> <Gold.Chemscore.Rot.Weighted>
5.1702

> <Gold.Chemscore.Internal.Correction.Weighted>
   9.000000E+99

> <Gold.Protein.RotatedTorsions>
[ 6907 6896 6895 6894 ] final  -90.39 input  -60.11 | X-H torsion
[ 7974 7965 7964 7962 ] final -148.37 input  175.53 | X-H torsion
[ 8008 7997 7996 7995 ] final  100.68 input   59.86 | X-H torsion
[ 10167 10162 10161 10158 ] final   62.54 input  -65.29 | X-H torsion
[ 10718 10713 10712 10709 ] final  -83.12 input   66.30 | X-H torsion
[ 10763 10752 10751 10750 ] final -116.67 input  -60.55 | X-H torsion
[ 11005 11000 10999 10996 ] final  -95.83 input  -57.11 | X-H torsion

> <Gold.Protein.ActiveResidues>
 VAL166  LYS551  ARG553  GLY616  TRP617  ASP618  TYR619  PRO620  LYS621  CYS622 
 ASP623  PHE694  ASN695  SER759  ASP760  ASP761  ALA762  ILE779  LEU786  VAL792 
 PHE793  MET794  SER795  GLU796  ALA797  LYS798  CYS799  TRP800  GLU811  SER814 

> <Gold.Protein.RotatedAtoms>
  150.6881  134.2439  159.4483 H   0  0  0  0  0  0  0  0  0  0  0  0  # atno 6907 bound_to 6896
  152.0381  134.9725  160.0583 H   0  0  0  0  0  0  0  0  0  0  0  0  # atno 6908 bound_to 6896
  152.1237  133.4333  159.4725 H   0  0  0  0  0  0  0  0  0  0  0  0  # atno 6909 bound_to 6896
  144.8033  140.5205  143.5692 H   0  0  0  0  0  0  0  0  0  0  0  0  # atno 7974 bound_to 7965
  156.1226  140.3209  155.8231 H   0  0  0  0  0  0  0  0  0  0  0  0  # atno 8008 bound_to 7997
  155.4476  140.0530  157.3021 H   0  0  0  0  0  0  0  0  0  0  0  0  # atno 8009 bound_to 7997
  154.4839  140.2064  155.9714 H   0  0  0  0  0  0  0  0  0  0  0  0  # atno 8010 bound_to 7997
  140.1428  144.4537  150.6802 H   0  0  0  0  0  0  0  0  0  0  0  0  # atno 10167 bound_to 10162
  156.0023  130.4655  150.4209 H   0  0  0  0  0  0  0  0  0  0  0  0  # atno 10718 bound_to 10713
  154.8528  135.4337  154.1858 H   0  0  0  0  0  0  0  0  0  0  0  0  # atno 10763 bound_to 10752
  153.2938  135.6963  153.7274 H   0  0  0  0  0  0  0  0  0  0  0  0  # atno 10764 bound_to 10752
  153.6431  135.3464  155.3052 H   0  0  0  0  0  0  0  0  0  0  0  0  # atno 10765 bound_to 10752
  141.1430  133.8054  157.0489 H   0  0  0  0  0  0  0  0  0  0  0  0  # atno 11005 bound_to 11000
  145.5498  139.1476  143.3400 LP  0  0  0  0  0  0  0  0  0  0  0  0  # atno 17320 bound_to 7965
  146.2320  140.5637  142.8971 LP  0  0  0  0  0  0  0  0  0  0  0  0  # atno 17321 bound_to 7965
  140.6750  143.2301  151.5530 LP  0  0  0  0  0  0  0  0  0  0  0  0  # atno 17342 bound_to 10162
  139.5464  144.2511  152.1449 LP  0  0  0  0  0  0  0  0  0  0  0  0  # atno 17343 bound_to 10162
  157.2265  131.0494  151.2517 LP  0  0  0  0  0  0  0  0  0  0  0  0  # atno 17370 bound_to 10713
  157.3752  130.7202  149.6592 LP  0  0  0  0  0  0  0  0  0  0  0  0  # atno 17371 bound_to 10713
  140.0645  134.9737  157.1361 LP  0  0  0  0  0  0  0  0  0  0  0  0  # atno 17394 bound_to 11000
  140.3800  134.2297  155.7171 LP  0  0  0  0  0  0  0  0  0  0  0  0  # atno 17395 bound_to 11000

$$$$
