AV-unprocessed.smi:2104|AV-procd|sdf|8587|dock3
  -GOLD-   2272011313D 1   1.00000     0.00000
 Structure written by MMmdl.
 42 43  0  0  0  0  0  0  0  0  2 V2000
  144.7452  133.8436  162.5559 C   0  0  0  0  0  0  0  0  0  0  0  0
  145.7981  134.6150  161.8367 C   0  0  0  0  0  0  0  0  0  0  0  0
  145.9932  135.9515  161.6347 C   0  0  0  0  0  0  0  0  0  0  0  0
  147.1944  135.9938  160.8758 C   0  0  0  0  0  0  0  0  0  0  0  0
  147.7952  137.1028  160.4179 N   0  5  0  0  0  0  0  0  0  0  0  0
  148.6411  137.0340  159.3638 C   0  0  0  0  0  0  0  0  0  0  0  0
  149.0161  136.0076  158.7924 O   0  0  0  0  0  0  0  0  0  0  0  0
  149.0841  138.2280  158.9497 N   0  0  0  0  0  0  0  0  0  0  0  0
  150.0292  138.4511  157.8622 C   0  0  0  0  0  0  0  0  0  0  0  0
  150.2346  139.9521  157.6340 C   0  0  0  0  0  0  0  0  0  0  0  0
  151.4584  140.3358  158.2435 O   0  0  0  0  0  0  0  0  0  0  0  0
  151.4363  141.6055  158.8812 C   0  0  2  0  0  0  0  0  0  0  0  0
  151.0188  142.6882  157.8641 C   0  0  0  0  0  0  0  0  0  0  0  0
  151.1267  144.0982  158.4631 C   0  0  0  0  0  0  0  0  0  0  0  0
  152.5414  144.3631  158.9968 C   0  0  0  0  0  0  0  0  0  0  0  0
  152.9532  143.2943  160.0204 C   0  0  0  0  0  0  0  0  0  0  0  0
  152.8551  141.8725  159.4324 C   0  0  1  0  0  0  0  0  0  0  0  0
  153.2646  140.8213  160.4777 C   0  0  0  0  0  0  0  0  0  0  0  0
  147.6757  134.7880  160.6230 N   0  0  0  0  0  0  0  0  0  0  0  0
  146.7899  133.8982  161.2428 O   0  0  0  0  0  0  0  0  0  0  0  0
  143.7650  134.2971  162.4075 H   0  0  0  0  0  0  0  0  0  0  0  0
  144.9493  133.8209  163.6262 H   0  0  0  0  0  0  0  0  0  0  0  0
  144.6985  132.8151  162.1975 H   0  0  0  0  0  0  0  0  0  0  0  0
  145.3793  136.7702  161.9785 H   0  0  0  0  0  0  0  0  0  0  0  0
  148.7576  139.0435  159.4466 H   0  0  0  0  0  0  0  0  0  0  0  0
  150.9868  137.9769  158.0826 H   0  0  0  0  0  0  0  0  0  0  0  0
  149.6382  137.9853  156.9570 H   0  0  0  0  0  0  0  0  0  0  0  0
  150.2625  140.1634  156.5649 H   0  0  0  0  0  0  0  0  0  0  0  0
  149.3992  140.5118  158.0581 H   0  0  0  0  0  0  0  0  0  0  0  0
  150.7365  141.5987  159.7194 H   0  0  0  0  0  0  0  0  0  0  0  0
  151.6532  142.6212  156.9794 H   0  0  0  0  0  0  0  0  0  0  0  0
  149.9973  142.5190  157.5240 H   0  0  0  0  0  0  0  0  0  0  0  0
  150.8676  144.8433  157.7104 H   0  0  0  0  0  0  0  0  0  0  0  0
  150.4030  144.2091  159.2715 H   0  0  0  0  0  0  0  0  0  0  0  0
  153.2512  144.3701  158.1684 H   0  0  0  0  0  0  0  0  0  0  0  0
  152.5880  145.3524  159.4528 H   0  0  0  0  0  0  0  0  0  0  0  0
  153.9717  143.4880  160.3588 H   0  0  0  0  0  0  0  0  0  0  0  0
  152.3156  143.3733  160.9020 H   0  0  0  0  0  0  0  0  0  0  0  0
  153.5596  141.8048  158.6019 H   0  0  0  0  0  0  0  0  0  0  0  0
  152.5843  140.8234  161.3296 H   0  0  0  0  0  0  0  0  0  0  0  0
  154.2701  141.0117  160.8533 H   0  0  0  0  0  0  0  0  0  0  0  0
  153.2613  139.8164  160.0540 H   0  0  0  0  0  0  0  0  0  0  0  0
  1  2  1  0  0  0  0
  1 21  1  0  0  0  0
  1 22  1  0  0  0  0
  1 23  1  0  0  0  0
  2 20  1  0  0  0  0
  2  3  2  0  0  0  0
  3  4  1  0  0  0  0
  3 24  1  0  0  0  0
  4  5  1  0  0  0  0
  4 19  2  0  0  0  0
  5  6  1  0  0  0  0
  6  7  2  0  0  0  0
  6  8  1  0  0  0  0
  8  9  1  0  0  0  0
  8 25  1  0  0  0  0
  9 10  1  0  0  0  0
  9 26  1  0  0  0  0
  9 27  1  0  0  0  0
 10 11  1  0  0  0  0
 10 28  1  0  0  0  0
 10 29  1  0  0  0  0
 11 12  1  0  0  0  0
 12 17  1  0  0  0  0
 12 13  1  0  0  0  0
 12 30  1  0  0  0  0
 13 14  1  0  0  0  0
 13 31  1  0  0  0  0
 13 32  1  0  0  0  0
 14 15  1  0  0  0  0
 14 33  1  0  0  0  0
 14 34  1  0  0  0  0
 15 16  1  0  0  0  0
 15 35  1  0  0  0  0
 15 36  1  0  0  0  0
 16 17  1  0  0  0  0
 16 37  1  0  0  0  0
 16 38  1  0  0  0  0
 17 18  1  0  0  0  0
 17 39  1  0  0  0  0
 18 40  1  0  0  0  0
 18 41  1  0  0  0  0
 18 42  1  0  0  0  0
 19 20  1  0  0  0  0
M  CHG  1   5  -1
M  END
> <s_m_source_file>
AV-unprocessed.smi

> <i_m_source_file_index>
2104

> <i_lp_mmshare_version>
43012

> <i_f3d_flags>
0

> <s_epik_input>
W0NIM11jMVtjSF1jKG5vMSlbTkhdQyg9TylbTkhdW0NIMl1bQ0gyXU9bQ0BASF0yW0NIMl1bQ0gyXVtDSDJdW0NIMl1bQ0BIXTJbQ0gzXQ==

> <s_epik_cmdline>
J2VwaWtfcHl0aG9uJywgJy1waCcsICc3LjAnLCAnLXRuJywgJzgnLCAnLW1hJywgJzIwMCcsICctbWV0YWxfYmluZGluZycsICctaW1hZScsICc8aW5maWxlLm1hZT4nLCAnLW9tYWUnLCAnPG91dGZpbGUubWFlPic=

> <r_lp_tautomer_probability>
1

> <r_epik_Ionization_Penalty>
6.47137

> <r_epik_Ionization_Penalty_Charging>
6.47125

> <r_epik_Ionization_Penalty_Neutral>
0.000118933

> <r_epik_State_Penalty>
6.47124

> <r_epik_Charging_Adjusted_Penalty>
12.9425

> <i_epik_Tot_Q>
-1

> <i_epik_Tot_abs_Q>
1

> <r_epik_Metal_State_Penalty>
2.3995

> <b_epik_Metal_Only>
1

> <s_lp_Force_Field>
OPLS_2005

> <r_lp_Energy>
5.464

> <b_lp_Chiralities_Consistent>
1

> <s_lp_Variant>
AV-unprocessed.smi:2104-5

> <Gold.Version>
5.8.1

> <Gold.Id.Protein>
6NUR|6NUR_protein|mol2

> <Gold.PLP.Fitness>
50.6687

> <Gold.PLP.PLP>
-39.9939

> <Gold.PLP.part.hbond>
-3.0000

> <Gold.PLP.part.metal>
0.0000

> <Gold.PLP.part.buried>
-5.1546

> <Gold.PLP.part.nonpolar>
-32.4521

> <Gold.PLP.part.repulsive>
0.2350

> <Gold.PLP.ligand.clash>
0.0000

> <Gold.PLP.ligand.torsion>
0.6743

> <Gold.PLP.Chemscore.Hbond>
3.9311

> <Gold.PLP.Chemscore.CHOScore>
0.0000

> <Gold.PLP.Chemscore.Metal>
0.0000

> <Gold.Chemscore.Hbonds>
donor molecule, donor type, donor heavy atom, donor atom, acceptor molecule, acceptor atom, score
      P1  H  6896  6907       L1     7  0.24
      P1  H  6931  6943       L1     5  0.72
      P1  H  6934  6947       L1     5  1.57

> <Gold.PLP.Chemscore.Internal.Correction>
0.2301

> <Gold.Rescore>
     Score         DG    S(hbond)    S(metal)    S(lipo)     H(rot)  DE(clash)    DE(int)     intcor
     17.75     -20.18       1.97        0.00     106.79       1.71       0.09       2.33       ----

> <Gold.Chemscore.Fitness>
17.7548

> <Gold.Chemscore.DG>
-20.1814

> <Gold.Chemscore.ZeroCoef>
-5.4800

> <Gold.Chemscore.Hbond>
1.9717

> <Gold.Chemscore.Metal>
0.0000

> <Gold.Chemscore.Lipo>
106.7897

> <Gold.Chemscore.Internal_Hbond>
0.0000

> <Gold.Chemscore.DEClash>
0.0937

> <Gold.Chemscore.DEInternal>
2.3329

> <Gold.Chemscore.Rot>
1.7103

> <Gold.Chemscore.Internal.Correction>
   9.000000E+99

> <Gold.Chemscore.Hbonds>
donor molecule, donor type, donor heavy atom, donor atom, acceptor molecule, acceptor atom, score
      P1  H  6896  6907       L1     7  0.25
      P1  H  6931  6943       L1     5  0.10
      P1  H  6934  6947       L1     5  0.65

> <Gold.Chemscore.Hbond.Weighted>
-6.5853

> <Gold.Chemscore.Metal.Weighted>
-0.0000

> <Gold.Chemscore.Lipo.Weighted>
-12.4944

> <Gold.Chemscore.Internal_Hbond.Weighted>
0.0000

> <Gold.Chemscore.DEClash.Weighted>
0.0937

> <Gold.Chemscore.DEInternal.Weighted>
2.3329

> <Gold.Chemscore.Rot.Weighted>
4.3784

> <Gold.Chemscore.Internal.Correction.Weighted>
   9.000000E+99

> <Gold.Protein.RotatedTorsions>
[ 6907 6896 6895 6894 ] final  -75.06 input  -60.11 | X-H torsion
[ 7974 7965 7964 7962 ] final   64.86 input  175.53 | X-H torsion
[ 8008 7997 7996 7995 ] final  171.61 input   59.86 | X-H torsion
[ 10167 10162 10161 10158 ] final  -92.37 input  -65.29 | X-H torsion
[ 10718 10713 10712 10709 ] final -102.36 input   66.30 | X-H torsion
[ 10763 10752 10751 10750 ] final  -67.46 input  -60.55 | X-H torsion
[ 11005 11000 10999 10996 ] final -122.27 input  -57.11 | X-H torsion

> <Gold.Protein.ActiveResidues>
 VAL166  LYS551  ARG553  GLY616  TRP617  ASP618  TYR619  PRO620  LYS621  CYS622 
 ASP623  PHE694  ASN695  SER759  ASP760  ASP761  ALA762  ILE779  LEU786  VAL792 
 PHE793  MET794  SER795  GLU796  ALA797  LYS798  CYS799  TRP800  GLU811  SER814 

> <Gold.Protein.RotatedAtoms>
  150.7072  134.4777  159.5455 H   0  0  0  0  0  0  0  0  0  0  0  0  # atno 6907 bound_to 6896
  152.2421  134.8215  160.0468 H   0  0  0  0  0  0  0  0  0  0  0  0  # atno 6908 bound_to 6896
  151.8993  133.3499  159.3862 H   0  0  0  0  0  0  0  0  0  0  0  0  # atno 6909 bound_to 6896
  145.8452  139.3220  143.0907 H   0  0  0  0  0  0  0  0  0  0  0  0  # atno 7974 bound_to 7965
  156.1255  140.1507  156.9143 H   0  0  0  0  0  0  0  0  0  0  0  0  # atno 8008 bound_to 7997
  154.4868  140.0863  156.7545 H   0  0  0  0  0  0  0  0  0  0  0  0  # atno 8009 bound_to 7997
  155.4352  140.3429  155.4286 H   0  0  0  0  0  0  0  0  0  0  0  0  # atno 8010 bound_to 7997
  140.3355  143.2971  151.9895 H   0  0  0  0  0  0  0  0  0  0  0  0  # atno 10167 bound_to 10162
  156.0226  130.5417  150.7098 H   0  0  0  0  0  0  0  0  0  0  0  0  # atno 10718 bound_to 10713
  154.3748  135.6087  153.5759 H   0  0  0  0  0  0  0  0  0  0  0  0  # atno 10763 bound_to 10752
  152.9789  135.5847  154.4479 H   0  0  0  0  0  0  0  0  0  0  0  0  # atno 10764 bound_to 10752
  154.4239  135.2846  155.1935 H   0  0  0  0  0  0  0  0  0  0  0  0  # atno 10765 bound_to 10752
  141.0008  134.0406  157.3540 H   0  0  0  0  0  0  0  0  0  0  0  0  # atno 11005 bound_to 11000
  145.9420  140.8973  143.0303 LP  0  0  0  0  0  0  0  0  0  0  0  0  # atno 17320 bound_to 7965
  144.6731  140.1561  143.7426 LP  0  0  0  0  0  0  0  0  0  0  0  0  # atno 17321 bound_to 7965
  139.4849  144.6200  151.7273 LP  0  0  0  0  0  0  0  0  0  0  0  0  # atno 17342 bound_to 10162
  140.5358  144.0658  150.6070 LP  0  0  0  0  0  0  0  0  0  0  0  0  # atno 17343 bound_to 10162
  157.4739  131.0896  151.0612 LP  0  0  0  0  0  0  0  0  0  0  0  0  # atno 17370 bound_to 10713
  157.1065  130.6003  149.5472 LP  0  0  0  0  0  0  0  0  0  0  0  0  # atno 17371 bound_to 10713
  139.9037  135.0173  156.7390 LP  0  0  0  0  0  0  0  0  0  0  0  0  # atno 17394 bound_to 11000
  140.6893  133.9405  155.7956 LP  0  0  0  0  0  0  0  0  0  0  0  0  # atno 17395 bound_to 11000

$$$$
