AV-unprocessed.smi:2093|AV-procd|sdf|8550|dock3
  -GOLD-   2272011273D 1   1.00000     0.00000
 Structure written by MMmdl.
 30 31  0  0  0  0  0  0  0  0  2 V2000
  150.3318  137.6599  154.9328 C   0  0  0  0  0  0  0  0  0  0  0  0
  150.4988  139.1686  154.7005 C   0  0  2  0  0  0  0  0  0  0  0  0
  151.5129  139.6759  155.6248 N   0  0  0  0  0  0  0  0  0  0  0  0
  151.4129  139.7652  156.9596 C   0  0  0  0  0  0  0  0  0  0  0  0
  150.3825  139.3997  157.5299 O   0  0  0  0  0  0  0  0  0  0  0  0
  152.5203  140.2668  157.5524 N   0  5  0  0  0  0  0  0  0  0  0  0
  152.4865  141.4836  158.1201 C   0  0  0  0  0  0  0  0  0  0  0  0
  151.6473  142.4487  157.7269 N   0  0  0  0  0  0  0  0  0  0  0  0
  151.7885  143.6351  158.4487 C   0  0  0  0  0  0  0  0  0  0  0  0
  152.7639  143.5752  159.4083 C   0  0  0  0  0  0  0  0  0  0  0  0
  153.5386  142.0168  159.4345 S   0  0  0  0  0  0  0  0  0  0  0  0
  149.1687  139.9279  154.8895 C   0  0  1  0  0  0  0  0  0  0  0  0
  149.2216  141.4214  154.5599 C   0  0  0  0  0  0  0  0  0  0  0  0
  147.7689  141.7229  154.2747 C   0  0  0  0  0  0  0  0  0  0  0  0
  147.3279  140.4607  153.5400 C   0  0  0  0  0  0  0  0  0  0  0  0
  148.1633  139.4097  154.0202 O   0  0  0  0  0  0  0  0  0  0  0  0
  149.6109  137.2306  154.2369 H   0  0  0  0  0  0  0  0  0  0  0  0
  149.9840  137.4498  155.9448 H   0  0  0  0  0  0  0  0  0  0  0  0
  151.2769  137.1347  154.7894 H   0  0  0  0  0  0  0  0  0  0  0  0
  150.8318  139.3047  153.6703 H   0  0  0  0  0  0  0  0  0  0  0  0
  152.3796  139.9885  155.2124 H   0  0  0  0  0  0  0  0  0  0  0  0
  151.1528  144.4747  158.2101 H   0  0  0  0  0  0  0  0  0  0  0  0
  153.0738  144.3474  160.0961 H   0  0  0  0  0  0  0  0  0  0  0  0
  148.8123  139.8069  155.9141 H   0  0  0  0  0  0  0  0  0  0  0  0
  149.6317  142.0238  155.3711 H   0  0  0  0  0  0  0  0  0  0  0  0
  149.8211  141.5977  153.6655 H   0  0  0  0  0  0  0  0  0  0  0  0
  147.2187  141.8263  155.2108 H   0  0  0  0  0  0  0  0  0  0  0  0
  147.6243  142.6312  153.6892 H   0  0  0  0  0  0  0  0  0  0  0  0
  146.2736  140.2363  153.7019 H   0  0  0  0  0  0  0  0  0  0  0  0
  147.4906  140.5671  152.4669 H   0  0  0  0  0  0  0  0  0  0  0  0
  1  2  1  0  0  0  0
  1 17  1  0  0  0  0
  1 18  1  0  0  0  0
  1 19  1  0  0  0  0
  2  3  1  0  0  0  0
  2 12  1  0  0  0  0
  2 20  1  0  0  0  0
  3  4  1  0  0  0  0
  3 21  1  0  0  0  0
  4  5  2  0  0  0  0
  4  6  1  0  0  0  0
  6  7  1  0  0  0  0
  7 11  1  0  0  0  0
  7  8  2  0  0  0  0
  8  9  1  0  0  0  0
  9 10  2  0  0  0  0
  9 22  1  0  0  0  0
 10 11  1  0  0  0  0
 10 23  1  0  0  0  0
 12 16  1  0  0  0  0
 12 13  1  0  0  0  0
 12 24  1  0  0  0  0
 13 14  1  0  0  0  0
 13 25  1  0  0  0  0
 13 26  1  0  0  0  0
 14 15  1  0  0  0  0
 14 27  1  0  0  0  0
 14 28  1  0  0  0  0
 15 16  1  0  0  0  0
 15 29  1  0  0  0  0
 15 30  1  0  0  0  0
M  CHG  1   6  -1
M  END
> <s_m_source_file>
AV-unprocessed.smi

> <i_m_source_file_index>
2093

> <i_lp_mmshare_version>
43012

> <i_f3d_flags>
0

> <s_epik_input>
TzFbQ0gyXVtDSDJdW0NIMl1bQ0BIXTFbQ0BIXShbQ0gzXSlbTkhdQyg9TylbTkhdYzJuW2NIXVtjSF1zMg==

> <s_epik_cmdline>
J2VwaWtfcHl0aG9uJywgJy1waCcsICc3LjAnLCAnLXRuJywgJzgnLCAnLW1hJywgJzIwMCcsICctbWV0YWxfYmluZGluZycsICctaW1hZScsICc8aW5maWxlLm1hZT4nLCAnLW9tYWUnLCAnPG91dGZpbGUubWFlPic=

> <r_lp_tautomer_probability>
0.999

> <r_epik_Ionization_Penalty>
8.26346

> <r_epik_Ionization_Penalty_Charging>
6.6559

> <r_epik_Ionization_Penalty_Neutral>
1.60756

> <r_epik_State_Penalty>
6.65607

> <r_epik_Charging_Adjusted_Penalty>
13.312

> <i_epik_Tot_Q>
-1

> <i_epik_Tot_abs_Q>
1

> <r_epik_Metal_State_Penalty>
2.5789

> <b_epik_Metal_Only>
1

> <s_lp_Force_Field>
OPLS_2005

> <r_lp_Energy>
13.8452

> <b_lp_Chiralities_Consistent>
1

> <s_lp_Variant>
AV-unprocessed.smi:2093-7

> <Gold.Version>
5.8.1

> <Gold.Id.Protein>
6NUR|6NUR_protein|mol2

> <Gold.PLP.Fitness>
35.0478

> <Gold.PLP.PLP>
-30.7493

> <Gold.PLP.part.hbond>
-1.0000

> <Gold.PLP.part.metal>
0.0000

> <Gold.PLP.part.buried>
-3.3489

> <Gold.PLP.part.nonpolar>
-27.2607

> <Gold.PLP.part.repulsive>
1.2194

> <Gold.PLP.ligand.clash>
0.0000

> <Gold.PLP.ligand.torsion>
0.8606

> <Gold.PLP.Chemscore.Hbond>
2.0000

> <Gold.PLP.Chemscore.CHOScore>
0.0000

> <Gold.PLP.Chemscore.Metal>
0.0000

> <Gold.Chemscore.Hbonds>
donor molecule, donor type, donor heavy atom, donor atom, acceptor molecule, acceptor atom, score
      P1  H  7997  8008       L1     6  1.78

> <Gold.PLP.Chemscore.Internal.Correction>
0.0198

> <Gold.Rescore>
     Score         DG    S(hbond)    S(metal)    S(lipo)     H(rot)  DE(clash)    DE(int)     intcor
     11.56     -13.56       0.78        0.00      74.77       1.28       0.01       2.00       ----

> <Gold.Chemscore.Fitness>
11.5609

> <Gold.Chemscore.DG>
-13.5638

> <Gold.Chemscore.ZeroCoef>
-5.4800

> <Gold.Chemscore.Hbond>
0.7805

> <Gold.Chemscore.Metal>
0.0000

> <Gold.Chemscore.Lipo>
74.7683

> <Gold.Chemscore.Internal_Hbond>
0.0000

> <Gold.Chemscore.DEClash>
0.0050

> <Gold.Chemscore.DEInternal>
1.9978

> <Gold.Chemscore.Rot>
1.2778

> <Gold.Chemscore.Internal.Correction>
   9.000000E+99

> <Gold.Chemscore.Hbonds>
donor molecule, donor type, donor heavy atom, donor atom, acceptor molecule, acceptor atom, score
      P1  H  7997  8008       L1     6  0.44

> <Gold.Chemscore.Hbond.Weighted>
-2.6070

> <Gold.Chemscore.Metal.Weighted>
-0.0000

> <Gold.Chemscore.Lipo.Weighted>
-8.7479

> <Gold.Chemscore.Internal_Hbond.Weighted>
0.0000

> <Gold.Chemscore.DEClash.Weighted>
0.0050

> <Gold.Chemscore.DEInternal.Weighted>
1.9978

> <Gold.Chemscore.Rot.Weighted>
3.2711

> <Gold.Chemscore.Internal.Correction.Weighted>
   9.000000E+99

> <Gold.Protein.RotatedTorsions>
[ 6907 6896 6895 6894 ] final  -88.24 input  -60.11 | X-H torsion
[ 7974 7965 7964 7962 ] final -125.93 input  175.53 | X-H torsion
[ 8008 7997 7996 7995 ] final  -60.39 input   59.86 | X-H torsion
[ 10167 10162 10161 10158 ] final -102.04 input  -65.29 | X-H torsion
[ 10718 10713 10712 10709 ] final  -14.62 input   66.30 | X-H torsion
[ 10763 10752 10751 10750 ] final -164.13 input  -60.55 | X-H torsion
[ 11005 11000 10999 10996 ] final  -90.29 input  -57.11 | X-H torsion

> <Gold.Protein.ActiveResidues>
 VAL166  LYS551  ARG553  GLY616  TRP617  ASP618  TYR619  PRO620  LYS621  CYS622 
 ASP623  PHE694  ASN695  SER759  ASP760  ASP761  ALA762  ILE779  LEU786  VAL792 
 PHE793  MET794  SER795  GLU796  ALA797  LYS798  CYS799  TRP800  GLU811  SER814 

> <Gold.Protein.RotatedAtoms>
  150.6868  134.2772  159.4611 H   0  0  0  0  0  0  0  0  0  0  0  0  # atno 6907 bound_to 6896
  152.0689  134.9544  160.0584 H   0  0  0  0  0  0  0  0  0  0  0  0  # atno 6908 bound_to 6896
  152.0941  133.4181  159.4594 H   0  0  0  0  0  0  0  0  0  0  0  0  # atno 6909 bound_to 6896
  144.9925  140.7745  143.4545 H   0  0  0  0  0  0  0  0  0  0  0  0  # atno 7974 bound_to 7965
  154.4396  140.1041  156.6265 H   0  0  0  0  0  0  0  0  0  0  0  0  # atno 8008 bound_to 7997
  155.5651  140.3488  155.4482 H   0  0  0  0  0  0  0  0  0  0  0  0  # atno 8009 bound_to 7997
  156.0431  140.1286  157.0123 H   0  0  0  0  0  0  0  0  0  0  0  0  # atno 8010 bound_to 7997
  140.2349  143.3580  152.0853 H   0  0  0  0  0  0  0  0  0  0  0  0  # atno 10167 bound_to 10162
  156.6133  130.4855  149.6193 H   0  0  0  0  0  0  0  0  0  0  0  0  # atno 10718 bound_to 10713
  154.7057  135.2996  154.9274 H   0  0  0  0  0  0  0  0  0  0  0  0  # atno 10763 bound_to 10752
  154.0192  135.6685  153.4775 H   0  0  0  0  0  0  0  0  0  0  0  0  # atno 10764 bound_to 10752
  153.0715  135.5058  154.8226 H   0  0  0  0  0  0  0  0  0  0  0  0  # atno 10765 bound_to 10752
  141.1568  133.7683  156.9717 H   0  0  0  0  0  0  0  0  0  0  0  0  # atno 11005 bound_to 11000
  145.2266  139.2134  143.5065 LP  0  0  0  0  0  0  0  0  0  0  0  0  # atno 17320 bound_to 7965
  146.3434  140.2134  142.8590 LP  0  0  0  0  0  0  0  0  0  0  0  0  # atno 17321 bound_to 7965
  139.5097  144.6871  151.5857 LP  0  0  0  0  0  0  0  0  0  0  0  0  # atno 17342 bound_to 10162
  140.6157  143.9353  150.6487 LP  0  0  0  0  0  0  0  0  0  0  0  0  # atno 17343 bound_to 10162
  156.2372  130.6829  151.1520 LP  0  0  0  0  0  0  0  0  0  0  0  0  # atno 17370 bound_to 10713
  157.7248  131.0657  150.5979 LP  0  0  0  0  0  0  0  0  0  0  0  0  # atno 17371 bound_to 10713
  140.1125  134.9468  157.2086 LP  0  0  0  0  0  0  0  0  0  0  0  0  # atno 17394 bound_to 11000
  140.3175  134.2953  155.7253 LP  0  0  0  0  0  0  0  0  0  0  0  0  # atno 17395 bound_to 11000

$$$$
