AV-unprocessed.smi:2706|AV-procd|sdf|10451|dock2
  -GOLD-   2272014493D 1   1.00000     0.00000
 Structure written by MMmdl.
 44 47  0  0  0  0  0  0  0  0  2 V2000
  150.8673  137.9357  154.8870 C   0  0  0  0  0  0  0  0  0  0  0  0
  150.6026  139.3103  154.4915 N   0  0  0  0  0  0  0  0  0  0  0  0
  151.1578  140.3399  155.3569 C   0  0  0  0  0  0  0  0  0  0  0  0
  149.2557  139.5309  154.1813 C   0  0  0  0  0  0  0  0  0  0  0  0
  148.5355  140.6647  154.6172 C   0  0  0  0  0  0  0  0  0  0  0  0
  147.1834  140.8007  154.2473 C   0  0  0  0  0  0  0  0  0  0  0  0
  146.5773  139.8022  153.4577 C   0  0  0  0  0  0  0  0  0  0  0  0
  147.3340  138.6723  153.0559 C   0  0  0  0  0  0  0  0  0  0  0  0
  146.8338  137.6135  152.2507 N   0  0  0  0  0  0  0  0  0  0  0  0
  145.5811  137.1281  152.1890 C   0  0  0  0  0  0  0  0  0  0  0  0
  144.6268  137.5374  152.8496 O   0  0  0  0  0  0  0  0  0  0  0  0
  145.4988  136.1143  151.3169 N   0  0  0  0  0  0  0  0  0  0  0  0
  144.3200  135.3702  151.0103 C   0  0  2  0  0  0  0  0  0  0  0  0
  144.0097  134.0575  151.7069 C   0  0  2  0  0  0  0  0  0  0  0  0
  144.9335  132.9802  152.2862 C   0  0  2  0  0  0  0  0  0  0  0  0
  146.4133  133.4098  152.3374 C   0  0  0  0  0  0  0  0  0  0  0  0
  146.8047  133.4238  150.8437 C   0  0  0  0  0  0  0  0  0  0  0  0
  145.4910  133.0031  150.1537 C   0  0  1  0  0  0  0  0  0  0  0  0
  144.9775  131.9674  151.1473 C   0  0  0  0  0  0  0  0  0  0  0  0
  144.3941  134.0715  150.2291 C   0  0  2  0  0  0  0  0  0  0  0  0
  148.6328  138.5987  153.4275 N   0  3  0  0  0  0  0  0  0  0  0  0
  150.4108  137.2340  154.1878 H   0  0  0  0  0  0  0  0  0  0  0  0
  150.4758  137.7332  155.8849 H   0  0  0  0  0  0  0  0  0  0  0  0
  151.9411  137.7480  154.8974 H   0  0  0  0  0  0  0  0  0  0  0  0
  150.9224  141.3351  154.9774 H   0  0  0  0  0  0  0  0  0  0  0  0
  152.2430  140.2467  155.4031 H   0  0  0  0  0  0  0  0  0  0  0  0
  150.7653  140.2545  156.3709 H   0  0  0  0  0  0  0  0  0  0  0  0
  149.0114  141.4227  155.2223 H   0  0  0  0  0  0  0  0  0  0  0  0
  146.6169  141.6648  154.5620 H   0  0  0  0  0  0  0  0  0  0  0  0
  145.5456  139.9308  153.1680 H   0  0  0  0  0  0  0  0  0  0  0  0
  147.5241  137.1251  151.6996 H   0  0  0  0  0  0  0  0  0  0  0  0
  146.3362  135.8428  150.8223 H   0  0  0  0  0  0  0  0  0  0  0  0
  143.4420  135.9736  150.7843 H   0  0  0  0  0  0  0  0  0  0  0  0
  142.9573  133.8786  151.9196 H   0  0  0  0  0  0  0  0  0  0  0  0
  144.5559  132.5835  153.2290 H   0  0  0  0  0  0  0  0  0  0  0  0
  146.5658  134.3598  152.8476 H   0  0  0  0  0  0  0  0  0  0  0  0
  147.0051  132.6652  152.8718 H   0  0  0  0  0  0  0  0  0  0  0  0
  147.1878  134.3804  150.4916 H   0  0  0  0  0  0  0  0  0  0  0  0
  147.5834  132.6835  150.6556 H   0  0  0  0  0  0  0  0  0  0  0  0
  145.6256  132.6285  149.1387 H   0  0  0  0  0  0  0  0  0  0  0  0
  145.6669  131.1382  151.3181 H   0  0  0  0  0  0  0  0  0  0  0  0
  143.9958  131.5677  150.8859 H   0  0  0  0  0  0  0  0  0  0  0  0
  143.5787  133.8987  149.5288 H   0  0  0  0  0  0  0  0  0  0  0  0
  149.1786  137.7903  153.1285 H   0  0  0  0  0  0  0  0  0  0  0  0
  1  2  1  0  0  0  0
  1 22  1  0  0  0  0
  1 23  1  0  0  0  0
  1 24  1  0  0  0  0
  2  3  1  0  0  0  0
  2  4  1  0  0  0  0
  3 25  1  0  0  0  0
  3 26  1  0  0  0  0
  3 27  1  0  0  0  0
  4 21  1  0  0  0  0
  4  5  2  0  0  0  0
  5  6  1  0  0  0  0
  5 28  1  0  0  0  0
  6  7  2  0  0  0  0
  6 29  1  0  0  0  0
  7  8  1  0  0  0  0
  7 30  1  0  0  0  0
  8  9  1  0  0  0  0
  8 21  2  0  0  0  0
  9 10  1  0  0  0  0
  9 31  1  0  0  0  0
 10 11  2  0  0  0  0
 10 12  1  0  0  0  0
 12 13  1  0  0  0  0
 12 32  1  0  0  0  0
 13 20  1  0  0  0  0
 13 14  1  0  0  0  0
 13 33  1  0  0  0  0
 14 20  1  0  0  0  0
 14 15  1  0  0  0  0
 14 34  1  0  0  0  0
 15 19  1  0  0  0  0
 15 16  1  0  0  0  0
 15 35  1  0  0  0  0
 16 17  1  0  0  0  0
 16 36  1  0  0  0  0
 16 37  1  0  0  0  0
 17 18  1  0  0  0  0
 17 38  1  0  0  0  0
 17 39  1  0  0  0  0
 18 19  1  0  0  0  0
 18 20  1  0  0  0  0
 18 40  1  0  0  0  0
 19 41  1  0  0  0  0
 19 42  1  0  0  0  0
 20 43  1  0  0  0  0
 21 44  1  0  0  0  0
M  CHG  1  21   1
M  END
> <s_m_source_file>
AV-unprocessed.smi

> <i_m_source_file_index>
2706

> <i_lp_mmshare_version>
43012

> <i_f3d_flags>
0

> <s_epik_input>
W0NIM11OKFtDSDNdKWMxW2NIXVtjSF1bY0hdYyhuMSlbTkhdQyg9TylbTkhdW0NASF0yW0NAQEhdM1tDQEBIXShbQ0gyXTQpW0NIMl1bQ0gyXVtDQEBIXTRbQ0BIXTIz

> <s_epik_cmdline>
J2VwaWtfcHl0aG9uJywgJy1waCcsICc3LjAnLCAnLXRuJywgJzgnLCAnLW1hJywgJzIwMCcsICctbWV0YWxfYmluZGluZycsICctaW1hZScsICc8aW5maWxlLm1hZT4nLCAnLW9tYWUnLCAnPG91dGZpbGUubWFlPic=

> <r_lp_tautomer_probability>
0.999994

> <r_epik_Ionization_Penalty>
1.8105

> <r_epik_Ionization_Penalty_Charging>
1.79227

> <r_epik_Ionization_Penalty_Neutral>
0.0182286

> <r_epik_State_Penalty>
1.90588

> <r_epik_Charging_Adjusted_Penalty>
3.69815

> <i_epik_Tot_Q>
1

> <i_epik_Tot_abs_Q>
1

> <r_epik_Metal_State_Penalty>
1.93501

> <b_epik_Metal_Only>
0

> <s_lp_Force_Field>
OPLS_2005

> <r_lp_Energy>
97.8144

> <b_lp_Chiralities_Consistent>
1

> <s_lp_Variant>
AV-unprocessed.smi:2706-8

> <Gold.Version>
5.8.1

> <Gold.Id.Protein>
6NUR|6NUR_protein|mol2

> <Gold.PLP.Fitness>
41.6269

> <Gold.PLP.PLP>
-35.6583

> <Gold.PLP.part.hbond>
-3.7472

> <Gold.PLP.part.metal>
0.0000

> <Gold.PLP.part.buried>
-1.5034

> <Gold.PLP.part.nonpolar>
-30.8359

> <Gold.PLP.part.repulsive>
0.8255

> <Gold.PLP.ligand.clash>
0.2211

> <Gold.PLP.ligand.torsion>
0.6589

> <Gold.PLP.Chemscore.Hbond>
2.4160

> <Gold.PLP.Chemscore.CHOScore>
0.0000

> <Gold.PLP.Chemscore.Metal>
0.0000

> <Gold.Chemscore.Hbonds>
donor molecule, donor type, donor heavy atom, donor atom, acceptor molecule, acceptor atom, score
      L1  H     9    31       P1  7948  0.86
      L1  H    21    44       P1  7948  1.54

> <Gold.PLP.Chemscore.Internal.Correction>
0.2596

> <Gold.Rescore>
     Score         DG    S(hbond)    S(metal)    S(lipo)     H(rot)  DE(clash)    DE(int)     intcor
     15.88     -17.54       1.66        0.00      82.21       1.21       0.11       1.55       ----

> <Gold.Chemscore.Fitness>
15.8842

> <Gold.Chemscore.DG>
-17.5419

> <Gold.Chemscore.ZeroCoef>
-5.4800

> <Gold.Chemscore.Hbond>
1.6582

> <Gold.Chemscore.Metal>
0.0000

> <Gold.Chemscore.Lipo>
82.2132

> <Gold.Chemscore.Internal_Hbond>
0.0000

> <Gold.Chemscore.DEClash>
0.1112

> <Gold.Chemscore.DEInternal>
1.5466

> <Gold.Chemscore.Rot>
1.2092

> <Gold.Chemscore.Internal.Correction>
   9.000000E+99

> <Gold.Chemscore.Hbonds>
donor molecule, donor type, donor heavy atom, donor atom, acceptor molecule, acceptor atom, score
      L1  H     9    31       P1  7948  0.85
      L1  H    21    44       P1  7948  0.73

> <Gold.Chemscore.Hbond.Weighted>
-5.5386

> <Gold.Chemscore.Metal.Weighted>
-0.0000

> <Gold.Chemscore.Lipo.Weighted>
-9.6189

> <Gold.Chemscore.Internal_Hbond.Weighted>
0.0000

> <Gold.Chemscore.DEClash.Weighted>
0.1112

> <Gold.Chemscore.DEInternal.Weighted>
1.5466

> <Gold.Chemscore.Rot.Weighted>
3.0956

> <Gold.Chemscore.Internal.Correction.Weighted>
   9.000000E+99

> <Gold.Protein.RotatedTorsions>
[ 6907 6896 6895 6894 ] final   20.35 input  -60.11 | X-H torsion
[ 7974 7965 7964 7962 ] final  -17.11 input  175.53 | X-H torsion
[ 8008 7997 7996 7995 ] final  -99.25 input   59.86 | X-H torsion
[ 10167 10162 10161 10158 ] final  -21.05 input  -65.29 | X-H torsion
[ 10718 10713 10712 10709 ] final -143.86 input   66.30 | X-H torsion
[ 10763 10752 10751 10750 ] final    3.47 input  -60.55 | X-H torsion
[ 11005 11000 10999 10996 ] final  -19.86 input  -57.11 | X-H torsion

> <Gold.Protein.ActiveResidues>
 VAL166  LYS551  ARG553  GLY616  TRP617  ASP618  TYR619  PRO620  LYS621  CYS622 
 ASP623  PHE694  ASN695  SER759  ASP760  ASP761  ALA762  ILE779  LEU786  VAL792 
 PHE793  MET794  SER795  GLU796  ALA797  LYS798  CYS799  TRP800  GLU811  SER814 

> <Gold.Protein.RotatedAtoms>
  151.8950  135.0401  160.0501 H   0  0  0  0  0  0  0  0  0  0  0  0  # atno 6907 bound_to 6896
  152.2405  133.5126  159.5275 H   0  0  0  0  0  0  0  0  0  0  0  0  # atno 6908 bound_to 6896
  150.7052  134.1012  159.4009 H   0  0  0  0  0  0  0  0  0  0  0  0  # atno 6909 bound_to 6896
  146.1956  140.3732  142.8442 H   0  0  0  0  0  0  0  0  0  0  0  0  # atno 7974 bound_to 7965
  154.8123  140.0449  157.1351 H   0  0  0  0  0  0  0  0  0  0  0  0  # atno 8008 bound_to 7997
  154.9354  140.3045  155.5127 H   0  0  0  0  0  0  0  0  0  0  0  0  # atno 8009 bound_to 7997
  156.2973  140.2315  156.4418 H   0  0  0  0  0  0  0  0  0  0  0  0  # atno 8010 bound_to 7997
  140.7280  143.4664  151.0308 H   0  0  0  0  0  0  0  0  0  0  0  0  # atno 10167 bound_to 10162
  156.3630  130.7748  151.1918 H   0  0  0  0  0  0  0  0  0  0  0  0  # atno 10718 bound_to 10713
  153.2829  135.6942  153.7368 H   0  0  0  0  0  0  0  0  0  0  0  0  # atno 10763 bound_to 10752
  153.6348  135.3404  155.3054 H   0  0  0  0  0  0  0  0  0  0  0  0  # atno 10764 bound_to 10752
  154.8501  135.4417  154.1888 H   0  0  0  0  0  0  0  0  0  0  0  0  # atno 10765 bound_to 10752
  140.8408  133.7928  155.9859 H   0  0  0  0  0  0  0  0  0  0  0  0  # atno 11005 bound_to 11000
  144.8574  140.7091  143.6129 LP  0  0  0  0  0  0  0  0  0  0  0  0  # atno 17320 bound_to 7965
  145.3653  139.1672  143.4361 LP  0  0  0  0  0  0  0  0  0  0  0  0  # atno 17321 bound_to 7965
  139.8352  143.7637  152.3180 LP  0  0  0  0  0  0  0  0  0  0  0  0  # atno 17342 bound_to 10162
  139.7766  144.7458  151.0147 LP  0  0  0  0  0  0  0  0  0  0  0  0  # atno 17343 bound_to 10162
  157.7475  131.0394  150.4550 LP  0  0  0  0  0  0  0  0  0  0  0  0  # atno 17370 bound_to 10713
  156.4764  130.4064  149.6487 LP  0  0  0  0  0  0  0  0  0  0  0  0  # atno 17371 bound_to 10713
  140.8897  134.2510  157.5101 LP  0  0  0  0  0  0  0  0  0  0  0  0  # atno 17394 bound_to 11000
  139.8703  134.9655  156.4532 LP  0  0  0  0  0  0  0  0  0  0  0  0  # atno 17395 bound_to 11000

$$$$
