AV-unprocessed.smi:3148|AV-procd|sdf|11992|dock1
  -GOLD-   2272017393D 1   1.00000     0.00000
 Structure written by MMmdl.
 34 36  0  0  0  0  0  0  0  0  1 V2000
  153.9450  137.4422  157.0633 C   0  0  0  0  0  0  0  0  0  0  0  0
  153.3473  137.9641  155.8816 O   0  0  0  0  0  0  0  0  0  0  0  0
  152.4032  138.9607  156.0170 C   0  0  0  0  0  0  0  0  0  0  0  0
  151.3725  139.0745  155.0621 C   0  0  0  0  0  0  0  0  0  0  0  0
  150.4416  140.1148  155.2646 C   0  0  0  0  0  0  0  0  0  0  0  0
  149.2843  140.3375  154.3144 C   0  0  0  0  0  0  0  0  0  0  0  0
  150.5321  140.9574  156.3171 N   0  0  0  0  0  0  0  0  0  0  0  0
  151.5452  140.7622  157.1637 C   0  0  0  0  0  0  0  0  0  0  0  0
  151.6036  141.6363  158.2332 N   0  0  0  0  0  0  0  0  0  0  0  0
  151.5499  143.0886  158.1099 C   0  0  1  0  0  0  0  0  0  0  0  0
  150.3566  143.7116  158.8376 C   0  0  0  0  0  0  0  0  0  0  0  0
  151.0425  144.7607  159.7243 C   0  0  1  0  0  0  0  0  0  0  0  0
  151.7558  144.1105  160.9169 C   0  0  0  0  0  0  0  0  0  0  0  0
  152.9587  143.4563  160.2401 C   0  0  0  0  0  0  0  0  0  0  0  0
  152.7342  143.8276  158.7641 C   0  0  2  0  0  0  0  0  0  0  0  0
  152.1552  145.1123  158.9186 O   0  0  0  0  0  0  0  0  0  0  0  0
  152.4827  139.8126  157.0691 N   0  0  0  0  0  0  0  0  0  0  0  0
  154.6585  136.6640  156.7928 H   0  0  0  0  0  0  0  0  0  0  0  0
  153.2001  136.9941  157.7226 H   0  0  0  0  0  0  0  0  0  0  0  0
  154.4885  138.2139  157.6103 H   0  0  0  0  0  0  0  0  0  0  0  0
  151.3024  138.3980  154.2231 H   0  0  0  0  0  0  0  0  0  0  0  0
  149.3792  139.7123  153.4261 H   0  0  0  0  0  0  0  0  0  0  0  0
  149.2469  141.3793  153.9950 H   0  0  0  0  0  0  0  0  0  0  0  0
  148.3418  140.0936  154.8050 H   0  0  0  0  0  0  0  0  0  0  0  0
  151.8807  141.2490  159.1234 H   0  0  0  0  0  0  0  0  0  0  0  0
  151.4945  143.3548  157.0532 H   0  0  0  0  0  0  0  0  0  0  0  0
  149.6845  144.1855  158.1217 H   0  0  0  0  0  0  0  0  0  0  0  0
  149.7763  142.9983  159.4248 H   0  0  0  0  0  0  0  0  0  0  0  0
  150.4004  145.5986  159.9966 H   0  0  0  0  0  0  0  0  0  0  0  0
  152.0838  144.8649  161.6330 H   0  0  0  0  0  0  0  0  0  0  0  0
  151.1222  143.3941  161.4408 H   0  0  0  0  0  0  0  0  0  0  0  0
  153.8855  143.8973  160.6080 H   0  0  0  0  0  0  0  0  0  0  0  0
  153.0101  142.3805  160.4088 H   0  0  0  0  0  0  0  0  0  0  0  0
  153.6454  143.8210  158.1652 H   0  0  0  0  0  0  0  0  0  0  0  0
  1  2  1  0  0  0  0
  1 18  1  0  0  0  0
  1 19  1  0  0  0  0
  1 20  1  0  0  0  0
  2  3  1  0  0  0  0
  3 17  1  0  0  0  0
  3  4  2  0  0  0  0
  4  5  1  0  0  0  0
  4 21  1  0  0  0  0
  5  6  1  0  0  0  0
  5  7  2  0  0  0  0
  6 22  1  0  0  0  0
  6 23  1  0  0  0  0
  6 24  1  0  0  0  0
  7  8  1  0  0  0  0
  8  9  1  0  0  0  0
  8 17  2  0  0  0  0
  9 10  1  0  0  0  0
  9 25  1  0  0  0  0
 10 15  1  0  0  0  0
 10 11  1  0  0  0  0
 10 26  1  0  0  0  0
 11 12  1  0  0  0  0
 11 27  1  0  0  0  0
 11 28  1  0  0  0  0
 12 16  1  0  0  0  0
 12 13  1  0  0  0  0
 12 29  1  0  0  0  0
 13 14  1  0  0  0  0
 13 30  1  0  0  0  0
 13 31  1  0  0  0  0
 14 15  1  0  0  0  0
 14 32  1  0  0  0  0
 14 33  1  0  0  0  0
 15 16  1  0  0  0  0
 15 34  1  0  0  0  0
M  END
> <s_m_source_file>
AV-unprocessed.smi

> <i_m_source_file_index>
3148

> <i_lp_mmshare_version>
43012

> <i_f3d_flags>
0

> <s_epik_input>
W0NIM11PYzFbY0hdYyhbQ0gzXSluYyhuMSlbTkhdW0NASF0oW0NIMl1bQ0BASF0yMylbQ0BASF0oTzMpW0NIMl1bQ0gyXTI=

> <s_epik_cmdline>
J2VwaWtfcHl0aG9uJywgJy1waCcsICc3LjAnLCAnLXRuJywgJzgnLCAnLW1hJywgJzIwMCcsICctbWV0YWxfYmluZGluZycsICctaW1hZScsICc8aW5maWxlLm1hZT4nLCAnLW9tYWUnLCAnPG91dGZpbGUubWFlPic=

> <r_lp_tautomer_probability>
1

> <r_epik_Ionization_Penalty>
0.101645

> <r_epik_Ionization_Penalty_Charging>
0

> <r_epik_Ionization_Penalty_Neutral>
0.101645

> <r_epik_State_Penalty>
0.0916212

> <r_epik_Charging_Adjusted_Penalty>
0.0916212

> <i_epik_Tot_Q>
0

> <i_epik_Tot_abs_Q>
0

> <r_epik_Metal_State_Penalty>
0.0781

> <b_epik_Metal_Only>
0

> <s_lp_Force_Field>
OPLS_2005

> <r_lp_Energy>
31.5885

> <b_lp_Chiralities_Consistent>
1

> <s_lp_Variant>
AV-unprocessed.smi:3148-2

> <Gold.Version>
5.8.1

> <Gold.Id.Protein>
6NUR|6NUR_protein|mol2

> <Gold.PLP.Fitness>
37.6384

> <Gold.PLP.PLP>
-36.6024

> <Gold.PLP.part.hbond>
-2.0254

> <Gold.PLP.part.metal>
0.0000

> <Gold.PLP.part.buried>
-4.3461

> <Gold.PLP.part.nonpolar>
-30.3654

> <Gold.PLP.part.repulsive>
0.1657

> <Gold.PLP.ligand.clash>
0.0000

> <Gold.PLP.ligand.torsion>
0.8407

> <Gold.PLP.Chemscore.Hbond>
0.9000

> <Gold.PLP.Chemscore.CHOScore>
0.0000

> <Gold.PLP.Chemscore.Metal>
0.0000

> <Gold.Chemscore.Hbonds>
donor molecule, donor type, donor heavy atom, donor atom, acceptor molecule, acceptor atom, score
      P1  H  7997  8008       L1    17  0.60

> <Gold.PLP.Chemscore.Internal.Correction>
0.0174

> <Gold.Rescore>
     Score         DG    S(hbond)    S(metal)    S(lipo)     H(rot)  DE(clash)    DE(int)     intcor
     14.26     -15.40       0.61        0.00      94.20       1.22       0.14       1.00       ----

> <Gold.Chemscore.Fitness>
14.2557

> <Gold.Chemscore.DG>
-15.4044

> <Gold.Chemscore.ZeroCoef>
-5.4800

> <Gold.Chemscore.Hbond>
0.6092

> <Gold.Chemscore.Metal>
0.0000

> <Gold.Chemscore.Lipo>
94.1972

> <Gold.Chemscore.Internal_Hbond>
0.0000

> <Gold.Chemscore.DEClash>
0.1447

> <Gold.Chemscore.DEInternal>
1.0040

> <Gold.Chemscore.Rot>
1.2232

> <Gold.Chemscore.Internal.Correction>
   9.000000E+99

> <Gold.Chemscore.Hbonds>
donor molecule, donor type, donor heavy atom, donor atom, acceptor molecule, acceptor atom, score
      P1  H  7997  8008       L1    17  0.04

> <Gold.Chemscore.Hbond.Weighted>
-2.0347

> <Gold.Chemscore.Metal.Weighted>
-0.0000

> <Gold.Chemscore.Lipo.Weighted>
-11.0211

> <Gold.Chemscore.Internal_Hbond.Weighted>
0.0000

> <Gold.Chemscore.DEClash.Weighted>
0.1447

> <Gold.Chemscore.DEInternal.Weighted>
1.0040

> <Gold.Chemscore.Rot.Weighted>
3.1314

> <Gold.Chemscore.Internal.Correction.Weighted>
   9.000000E+99

> <Gold.Protein.RotatedTorsions>
[ 6907 6896 6895 6894 ] final   73.40 input  -60.11 | X-H torsion
[ 7974 7965 7964 7962 ] final  -89.00 input  175.53 | X-H torsion
[ 8008 7997 7996 7995 ] final  -71.54 input   59.86 | X-H torsion
[ 10167 10162 10161 10158 ] final -104.27 input  -65.29 | X-H torsion
[ 10718 10713 10712 10709 ] final -132.97 input   66.30 | X-H torsion
[ 10763 10752 10751 10750 ] final -124.72 input  -60.55 | X-H torsion
[ 11005 11000 10999 10996 ] final   64.37 input  -57.11 | X-H torsion

> <Gold.Protein.ActiveResidues>
 VAL166  LYS551  ARG553  GLY616  TRP617  ASP618  TYR619  PRO620  LYS621  CYS622 
 ASP623  PHE694  ASN695  SER759  ASP760  ASP761  ALA762  ILE779  LEU786  VAL792 
 PHE793  MET794  SER795  GLU796  ALA797  LYS798  CYS799  TRP800  GLU811  SER814 

> <Gold.Protein.RotatedAtoms>
  152.4921  134.4427  159.9548 H   0  0  0  0  0  0  0  0  0  0  0  0  # atno 6907 bound_to 6896
  151.4412  133.3637  159.2790 H   0  0  0  0  0  0  0  0  0  0  0  0  # atno 6908 bound_to 6896
  150.9086  134.8526  159.7470 H   0  0  0  0  0  0  0  0  0  0  0  0  # atno 6909 bound_to 6896
  145.4457  140.9560  143.2050 H   0  0  0  0  0  0  0  0  0  0  0  0  # atno 7974 bound_to 7965
  154.5096  140.0814  156.7963 H   0  0  0  0  0  0  0  0  0  0  0  0  # atno 8008 bound_to 7997
  155.3816  140.3428  155.4229 H   0  0  0  0  0  0  0  0  0  0  0  0  # atno 8009 bound_to 7997
  156.1557  140.1572  156.8684 H   0  0  0  0  0  0  0  0  0  0  0  0  # atno 8010 bound_to 7997
  140.2111  143.3746  152.1050 H   0  0  0  0  0  0  0  0  0  0  0  0  # atno 10167 bound_to 10162
  156.2401  130.7090  151.0948 H   0  0  0  0  0  0  0  0  0  0  0  0  # atno 10718 bound_to 10713
  154.8727  135.4054  154.3151 H   0  0  0  0  0  0  0  0  0  0  0  0  # atno 10763 bound_to 10752
  153.3988  135.7017  153.6446 H   0  0  0  0  0  0  0  0  0  0  0  0  # atno 10764 bound_to 10752
  153.5198  135.3690  155.2597 H   0  0  0  0  0  0  0  0  0  0  0  0  # atno 10765 bound_to 10752
  139.9963  134.6512  156.0005 H   0  0  0  0  0  0  0  0  0  0  0  0  # atno 11005 bound_to 11000
  144.8093  139.5991  143.7036 LP  0  0  0  0  0  0  0  0  0  0  0  0  # atno 17320 bound_to 7965
  146.2532  139.6245  142.9413 LP  0  0  0  0  0  0  0  0  0  0  0  0  # atno 17321 bound_to 7965
  139.5180  144.6999  151.5523 LP  0  0  0  0  0  0  0  0  0  0  0  0  # atno 17342 bound_to 10162
  140.6323  143.9052  150.6616 LP  0  0  0  0  0  0  0  0  0  0  0  0  # atno 17343 bound_to 10162
  157.7171  131.0703  150.6283 LP  0  0  0  0  0  0  0  0  0  0  0  0  # atno 17370 bound_to 10713
  156.6356  130.4444  149.5771 LP  0  0  0  0  0  0  0  0  0  0  0  0  # atno 17371 bound_to 10713
  141.1607  133.6539  156.4308 LP  0  0  0  0  0  0  0  0  0  0  0  0  # atno 17394 bound_to 11000
  140.4812  134.6663  157.5172 LP  0  0  0  0  0  0  0  0  0  0  0  0  # atno 17395 bound_to 11000

$$$$
