AV-unprocessed.smi:3046|AV-procd|sdf|11619|dock4
  -GOLD-   2272017 03D 1   1.00000     0.00000
 Structure written by MMmdl.
 37 37  0  0  0  0  0  0  0  0  1 V2000
  148.5879  131.6087  155.0269 C   0  0  0  0  0  0  0  0  0  0  0  0
  149.6470  132.3027  154.5843 C   0  0  0  0  0  0  0  0  0  0  0  0
  149.9184  133.7577  154.9129 C   0  0  0  0  0  0  0  0  0  0  0  0
  148.8221  134.6125  154.4764 N   0  0  0  0  0  0  0  0  0  0  0  0
  147.5784  134.5946  154.9810 C   0  0  0  0  0  0  0  0  0  0  0  0
  147.2326  133.8504  155.8992 O   0  0  0  0  0  0  0  0  0  0  0  0
  146.5575  135.5379  154.3240 C   0  0  2  0  0  0  0  0  0  0  0  0
  145.1523  135.3063  154.9014 C   0  0  0  0  0  0  0  0  0  0  0  0
  146.5180  135.4136  152.8561 N   0  0  0  0  0  0  0  0  0  0  0  0
  145.3712  136.0432  152.2013 C   0  0  1  0  0  0  0  0  0  0  0  0
  145.5893  137.5639  152.1767 C   0  0  0  0  0  0  0  0  0  0  0  0
  145.2310  135.4710  150.7769 C   0  0  0  0  0  0  0  0  0  0  0  0
  145.0632  134.0277  150.7790 N   0  0  0  0  0  0  0  0  0  0  0  0
  143.9137  133.3010  150.5508 C   0  0  0  0  0  0  0  0  0  0  0  0
  144.2376  131.9799  150.6685 C   0  0  0  0  0  0  0  0  0  0  0  0
  145.6278  131.9990  150.9712 C   0  0  0  0  0  0  0  0  0  0  0  0
  146.1195  133.2256  151.0347 N   0  0  0  0  0  0  0  0  0  0  0  0
  147.8460  132.0629  155.6675 H   0  0  0  0  0  0  0  0  0  0  0  0
  148.4502  130.5732  154.7527 H   0  0  0  0  0  0  0  0  0  0  0  0
  150.3653  131.8134  153.9423 H   0  0  0  0  0  0  0  0  0  0  0  0
  150.0777  133.8612  155.9874 H   0  0  0  0  0  0  0  0  0  0  0  0
  150.8359  134.0871  154.4240 H   0  0  0  0  0  0  0  0  0  0  0  0
  149.0154  135.2518  153.7190 H   0  0  0  0  0  0  0  0  0  0  0  0
  146.8390  136.5657  154.5616 H   0  0  0  0  0  0  0  0  0  0  0  0
  145.1484  135.4083  155.9874 H   0  0  0  0  0  0  0  0  0  0  0  0
  144.7745  134.3120  154.6588 H   0  0  0  0  0  0  0  0  0  0  0  0
  144.4438  136.0341  154.5042 H   0  0  0  0  0  0  0  0  0  0  0  0
  147.3805  135.7139  152.4247 H   0  0  0  0  0  0  0  0  0  0  0  0
  144.4449  135.8319  152.7375 H   0  0  0  0  0  0  0  0  0  0  0  0
  144.7543  138.0685  151.6901 H   0  0  0  0  0  0  0  0  0  0  0  0
  146.4973  137.8274  151.6328 H   0  0  0  0  0  0  0  0  0  0  0  0
  145.6734  137.9733  153.1837 H   0  0  0  0  0  0  0  0  0  0  0  0
  144.3579  135.9033  150.2868 H   0  0  0  0  0  0  0  0  0  0  0  0
  146.0940  135.7354  150.1626 H   0  0  0  0  0  0  0  0  0  0  0  0
  142.9711  133.7801  150.3308 H   0  0  0  0  0  0  0  0  0  0  0  0
  143.5818  131.1295  150.5559 H   0  0  0  0  0  0  0  0  0  0  0  0
  146.2899  131.1637  151.1453 H   0  0  0  0  0  0  0  0  0  0  0  0
  1  2  2  0  0  0  0
  1 18  1  0  0  0  0
  1 19  1  0  0  0  0
  2  3  1  0  0  0  0
  2 20  1  0  0  0  0
  3  4  1  0  0  0  0
  3 21  1  0  0  0  0
  3 22  1  0  0  0  0
  4  5  1  0  0  0  0
  4 23  1  0  0  0  0
  5  6  2  0  0  0  0
  5  7  1  0  0  0  0
  7  8  1  0  0  0  0
  7  9  1  0  0  0  0
  7 24  1  0  0  0  0
  8 25  1  0  0  0  0
  8 26  1  0  0  0  0
  8 27  1  0  0  0  0
  9 10  1  0  0  0  0
  9 28  1  0  0  0  0
 10 11  1  0  0  0  0
 10 12  1  0  0  0  0
 10 29  1  0  0  0  0
 11 30  1  0  0  0  0
 11 31  1  0  0  0  0
 11 32  1  0  0  0  0
 12 13  1  0  0  0  0
 12 33  1  0  0  0  0
 12 34  1  0  0  0  0
 13 17  1  0  0  0  0
 13 14  1  0  0  0  0
 14 15  2  0  0  0  0
 14 35  1  0  0  0  0
 15 16  1  0  0  0  0
 15 36  1  0  0  0  0
 16 17  2  0  0  0  0
 16 37  1  0  0  0  0
M  END
> <s_m_source_file>
AV-unprocessed.smi

> <i_m_source_file_index>
3046

> <i_lp_mmshare_version>
43012

> <i_f3d_flags>
0

> <s_epik_input>
W0NIMl09W0NIXVtDSDJdW05IXUMoPU8pW0NASF0oW0NIM10pW05IXVtDQEhdKFtDSDNdKVtDSDJdbjFbY0hdW2NIXVtjSF1uMQ==

> <s_epik_cmdline>
J2VwaWtfcHl0aG9uJywgJy1waCcsICc3LjAnLCAnLXRuJywgJzgnLCAnLW1hJywgJzIwMCcsICctbWV0YWxfYmluZGluZycsICctaW1hZScsICc8aW5maWxlLm1hZT4nLCAnLW9tYWUnLCAnPG91dGZpbGUubWFlPic=

> <r_lp_tautomer_probability>
1

> <r_epik_Ionization_Penalty>
0.950627

> <r_epik_Ionization_Penalty_Charging>
0

> <r_epik_Ionization_Penalty_Neutral>
0.950627

> <r_epik_State_Penalty>
0.994814

> <r_epik_Charging_Adjusted_Penalty>
0.994814

> <i_epik_Tot_Q>
0

> <i_epik_Tot_abs_Q>
0

> <r_epik_Metal_State_Penalty>
0.994788

> <b_epik_Metal_Only>
0

> <s_lp_Force_Field>
OPLS_2005

> <r_lp_Energy>
6.36017

> <b_lp_Chiralities_Consistent>
1

> <s_lp_Variant>
AV-unprocessed.smi:3046-7

> <Gold.Version>
5.8.1

> <Gold.Id.Protein>
6NUR|6NUR_protein|mol2

> <Gold.PLP.Fitness>
38.2447

> <Gold.PLP.PLP>
-27.2571

> <Gold.PLP.part.hbond>
-2.0000

> <Gold.PLP.part.metal>
0.0000

> <Gold.PLP.part.buried>
-4.1591

> <Gold.PLP.part.nonpolar>
-21.3710

> <Gold.PLP.part.repulsive>
0.1970

> <Gold.PLP.ligand.clash>
0.0000

> <Gold.PLP.ligand.torsion>
0.5558

> <Gold.PLP.Chemscore.Hbond>
1.9913

> <Gold.PLP.Chemscore.CHOScore>
2.0000

> <Gold.PLP.Chemscore.Metal>
0.0000

> <Gold.Chemscore.Hbonds>
donor molecule, donor type, donor heavy atom, donor atom, acceptor molecule, acceptor atom, score
      L1  H     4    23       P1  7948  0.89
      L1  H     9    28       P1  7948  1.00
      L1  C    14    35       P1 10186  1.00
      L1  C    16    37       P1 10747  0.22

> <Gold.PLP.Chemscore.Internal.Correction>
0.1253

> <Gold.Rescore>
     Score         DG    S(hbond)    S(metal)    S(lipo)     H(rot)  DE(clash)    DE(int)     intcor
     10.77     -13.65       1.88        0.00      63.77       2.17       0.08       2.79       ----

> <Gold.Chemscore.Fitness>
10.7731

> <Gold.Chemscore.DG>
-13.6469

> <Gold.Chemscore.ZeroCoef>
-5.4800

> <Gold.Chemscore.Hbond>
1.8776

> <Gold.Chemscore.Metal>
0.0000

> <Gold.Chemscore.Lipo>
63.7682

> <Gold.Chemscore.Internal_Hbond>
0.0000

> <Gold.Chemscore.DEClash>
0.0841

> <Gold.Chemscore.DEInternal>
2.7896

> <Gold.Chemscore.Rot>
2.1739

> <Gold.Chemscore.Internal.Correction>
   9.000000E+99

> <Gold.Chemscore.Hbonds>
donor molecule, donor type, donor heavy atom, donor atom, acceptor molecule, acceptor atom, score
      L1  H     4    23       P1  7948  0.52
      L1  H     9    28       P1  7948  1.00

> <Gold.Chemscore.Hbond.Weighted>
-6.2711

> <Gold.Chemscore.Metal.Weighted>
-0.0000

> <Gold.Chemscore.Lipo.Weighted>
-7.4609

> <Gold.Chemscore.Internal_Hbond.Weighted>
0.0000

> <Gold.Chemscore.DEClash.Weighted>
0.0841

> <Gold.Chemscore.DEInternal.Weighted>
2.7896

> <Gold.Chemscore.Rot.Weighted>
5.5652

> <Gold.Chemscore.Internal.Correction.Weighted>
   9.000000E+99

> <Gold.Protein.RotatedTorsions>
[ 6907 6896 6895 6894 ] final   33.87 input  -60.11 | X-H torsion
[ 7974 7965 7964 7962 ] final -168.68 input  175.53 | X-H torsion
[ 8008 7997 7996 7995 ] final -161.00 input   59.86 | X-H torsion
[ 10167 10162 10161 10158 ] final -174.43 input  -65.29 | X-H torsion
[ 10718 10713 10712 10709 ] final  152.11 input   66.30 | X-H torsion
[ 10763 10752 10751 10750 ] final -178.95 input  -60.55 | X-H torsion
[ 11005 11000 10999 10996 ] final  -42.71 input  -57.11 | X-H torsion

> <Gold.Protein.ActiveResidues>
 VAL166  LYS551  ARG553  GLY616  TRP617  ASP618  TYR619  PRO620  LYS621  CYS622 
 ASP623  PHE694  ASN695  SER759  ASP760  ASP761  ALA762  ILE779  LEU786  VAL792 
 PHE793  MET794  SER795  GLU796  ALA797  LYS798  CYS799  TRP800  GLU811  SER814 

> <Gold.Protein.RotatedAtoms>
  152.0945  134.9384  160.0570 H   0  0  0  0  0  0  0  0  0  0  0  0  # atno 6907 bound_to 6896
  152.0623  133.4063  159.4431 H   0  0  0  0  0  0  0  0  0  0  0  0  # atno 6908 bound_to 6896
  150.6837  134.3106  159.4788 H   0  0  0  0  0  0  0  0  0  0  0  0  # atno 6909 bound_to 6896
  144.7199  140.2334  143.6301 H   0  0  0  0  0  0  0  0  0  0  0  0  # atno 7974 bound_to 7965
  155.7858  140.0871  157.2035 H   0  0  0  0  0  0  0  0  0  0  0  0  # atno 8008 bound_to 7997
  154.3988  140.1499  156.3163 H   0  0  0  0  0  0  0  0  0  0  0  0  # atno 8009 bound_to 7997
  155.8608  140.3430  155.5758 H   0  0  0  0  0  0  0  0  0  0  0  0  # atno 8010 bound_to 7997
  139.5634  144.1814  152.1275 H   0  0  0  0  0  0  0  0  0  0  0  0  # atno 10167 bound_to 10162
  157.2620  131.0800  151.1659 H   0  0  0  0  0  0  0  0  0  0  0  0  # atno 10718 bound_to 10713
  154.5412  135.2806  155.1094 H   0  0  0  0  0  0  0  0  0  0  0  0  # atno 10763 bound_to 10752
  154.2575  135.6328  153.5266 H   0  0  0  0  0  0  0  0  0  0  0  0  # atno 10764 bound_to 10752
  152.9979  135.5597  154.5952 H   0  0  0  0  0  0  0  0  0  0  0  0  # atno 10765 bound_to 10752
  141.0335  133.6810  156.2633 H   0  0  0  0  0  0  0  0  0  0  0  0  # atno 11005 bound_to 11000
  145.8389  139.2120  143.1839 LP  0  0  0  0  0  0  0  0  0  0  0  0  # atno 17320 bound_to 7965
  146.0364  140.8208  142.9850 LP  0  0  0  0  0  0  0  0  0  0  0  0  # atno 17321 bound_to 7965
  140.1332  144.5269  150.6789 LP  0  0  0  0  0  0  0  0  0  0  0  0  # atno 17342 bound_to 10162
  140.6916  143.2379  151.5116 LP  0  0  0  0  0  0  0  0  0  0  0  0  # atno 17343 bound_to 10162
  157.3165  130.6916  149.6245 LP  0  0  0  0  0  0  0  0  0  0  0  0  # atno 17370 bound_to 10713
  155.9664  130.4348  150.5064 LP  0  0  0  0  0  0  0  0  0  0  0  0  # atno 17371 bound_to 10713
  140.6365  134.5210  157.5565 LP  0  0  0  0  0  0  0  0  0  0  0  0  # atno 17394 bound_to 11000
  139.9224  134.8123  156.1171 LP  0  0  0  0  0  0  0  0  0  0  0  0  # atno 17395 bound_to 11000

$$$$
