AV-unprocessed.smi:3329|AV-procd|sdf|12798|dock6
  -GOLD-   2272019153D 1   1.00000     0.00000
 Structure written by MMmdl.
 41 42  0  0  0  0  0  0  0  0  1 V2000
  144.4515  131.1030  150.8572 C   0  0  0  0  0  0  0  0  0  0  0  0
  144.9219  132.5220  150.9986 C   0  0  0  0  0  0  0  0  0  0  0  0
  146.2628  132.9965  151.0726 C   0  0  0  0  0  0  0  0  0  0  0  0
  146.3373  134.3119  151.1934 N   0  0  0  0  0  0  0  0  0  0  0  0
  145.0516  134.7227  151.2019 N   0  0  0  0  0  0  0  0  0  0  0  0
  144.7453  136.1375  151.3158 C   0  0  0  0  0  0  0  0  0  0  0  0
  146.0094  137.0134  151.3556 C   0  0  0  0  0  0  0  0  0  0  0  0
  145.6585  138.3867  151.6882 N   0  0  0  0  0  0  0  0  0  0  0  0
  146.8480  139.2437  151.6857 C   0  0  0  0  0  0  0  0  0  0  0  0
  147.4612  139.3567  153.0804 C   0  0  0  0  0  0  0  0  0  0  0  0
  146.7294  139.4801  154.0611 O   0  0  0  0  0  0  0  0  0  0  0  0
  148.8035  139.3157  153.1465 N   0  0  0  0  0  0  0  0  0  0  0  0
  149.6530  139.3680  154.3389 C   0  0  2  0  0  0  0  0  0  0  0  0
  149.1884  138.3069  155.3563 C   0  0  0  0  0  0  0  0  0  0  0  0
  149.4548  140.6919  154.9580 C   0  0  0  0  0  0  0  0  0  0  0  0
  149.3008  141.7322  155.4417 N   0  0  0  0  0  0  0  0  0  0  0  0
  151.1408  139.1684  154.0288 C   0  0  0  0  0  0  0  0  0  0  0  0
  151.8044  137.8095  154.0669 C   0  0  0  0  0  0  0  0  0  0  0  0
  152.1621  138.8564  155.0994 C   0  0  0  0  0  0  0  0  0  0  0  0
  144.1764  133.6631  151.0891 C   0  0  0  0  0  0  0  0  0  0  0  0
  145.2437  130.4476  150.4946 H   0  0  0  0  0  0  0  0  0  0  0  0
  143.6218  131.0216  150.1547 H   0  0  0  0  0  0  0  0  0  0  0  0
  144.1088  130.6973  151.8093 H   0  0  0  0  0  0  0  0  0  0  0  0
  147.1796  132.4263  151.0415 H   0  0  0  0  0  0  0  0  0  0  0  0
  144.1042  136.4274  150.4819 H   0  0  0  0  0  0  0  0  0  0  0  0
  144.1607  136.2891  152.2242 H   0  0  0  0  0  0  0  0  0  0  0  0
  146.6992  136.6217  152.1042 H   0  0  0  0  0  0  0  0  0  0  0  0
  146.5229  136.9792  150.3933 H   0  0  0  0  0  0  0  0  0  0  0  0
  144.9726  138.7145  151.0228 H   0  0  0  0  0  0  0  0  0  0  0  0
  147.5979  138.8390  151.0042 H   0  0  0  0  0  0  0  0  0  0  0  0
  146.5845  140.2393  151.3250 H   0  0  0  0  0  0  0  0  0  0  0  0
  149.2927  139.2136  152.2689 H   0  0  0  0  0  0  0  0  0  0  0  0
  149.7438  138.3946  156.2908 H   0  0  0  0  0  0  0  0  0  0  0  0
  149.3374  137.2914  154.9892 H   0  0  0  0  0  0  0  0  0  0  0  0
  148.1301  138.4221  155.5939 H   0  0  0  0  0  0  0  0  0  0  0  0
  151.4987  139.8102  153.2263 H   0  0  0  0  0  0  0  0  0  0  0  0
  151.2182  136.9552  154.3984 H   0  0  0  0  0  0  0  0  0  0  0  0
  152.5414  137.5925  153.2963 H   0  0  0  0  0  0  0  0  0  0  0  0
  153.1356  139.3350  155.0142 H   0  0  0  0  0  0  0  0  0  0  0  0
  151.8119  138.6998  156.1173 H   0  0  0  0  0  0  0  0  0  0  0  0
  143.1061  133.8088  151.0780 H   0  0  0  0  0  0  0  0  0  0  0  0
  1  2  1  0  0  0  0
  1 21  1  0  0  0  0
  1 22  1  0  0  0  0
  1 23  1  0  0  0  0
  2 20  2  0  0  0  0
  2  3  1  0  0  0  0
  3  4  2  0  0  0  0
  3 24  1  0  0  0  0
  4  5  1  0  0  0  0
  5  6  1  0  0  0  0
  5 20  1  0  0  0  0
  6  7  1  0  0  0  0
  6 25  1  0  0  0  0
  6 26  1  0  0  0  0
  7  8  1  0  0  0  0
  7 27  1  0  0  0  0
  7 28  1  0  0  0  0
  8  9  1  0  0  0  0
  8 29  1  0  0  0  0
  9 10  1  0  0  0  0
  9 30  1  0  0  0  0
  9 31  1  0  0  0  0
 10 11  2  0  0  0  0
 10 12  1  0  0  0  0
 12 13  1  0  0  0  0
 12 32  1  0  0  0  0
 13 14  1  0  0  0  0
 13 15  1  0  0  0  0
 13 17  1  0  0  0  0
 14 33  1  0  0  0  0
 14 34  1  0  0  0  0
 14 35  1  0  0  0  0
 15 16  3  0  0  0  0
 17 19  1  0  0  0  0
 17 18  1  0  0  0  0
 17 36  1  0  0  0  0
 18 19  1  0  0  0  0
 18 37  1  0  0  0  0
 18 38  1  0  0  0  0
 19 39  1  0  0  0  0
 19 40  1  0  0  0  0
 20 41  1  0  0  0  0
M  END
> <s_m_source_file>
AV-unprocessed.smi

> <i_m_source_file_index>
3329

> <i_lp_mmshare_version>
43012

> <i_f3d_flags>
0

> <s_epik_input>
W0NIM11jMVtjSF1ubihbY0hdMSlbQ0gyXVtDSDJdW05IXVtDSDJdQyg9TylbTkhdW0NAQF0oW0NIM10pKEMjTilbQ0hdMltDSDJdW0NIMl0y

> <s_epik_cmdline>
J2VwaWtfcHl0aG9uJywgJy1waCcsICc3LjAnLCAnLXRuJywgJzgnLCAnLW1hJywgJzIwMCcsICctbWV0YWxfYmluZGluZycsICctaW1hZScsICc8aW5maWxlLm1hZT4nLCAnLW9tYWUnLCAnPG91dGZpbGUubWFlPic=

> <r_lp_tautomer_probability>
1

> <r_epik_Ionization_Penalty>
0.481866

> <r_epik_Ionization_Penalty_Charging>
0

> <r_epik_Ionization_Penalty_Neutral>
0.481866

> <r_epik_State_Penalty>
0.48398

> <r_epik_Charging_Adjusted_Penalty>
0.48398

> <i_epik_Tot_Q>
0

> <i_epik_Tot_abs_Q>
0

> <r_epik_Metal_State_Penalty>
0.5042

> <b_epik_Metal_Only>
0

> <s_lp_Force_Field>
OPLS_2005

> <r_lp_Energy>
14.7625

> <b_lp_Chiralities_Consistent>
1

> <s_lp_Variant>
AV-unprocessed.smi:3329-4

> <Gold.Version>
5.8.1

> <Gold.Id.Protein>
6NUR|6NUR_protein|mol2

> <Gold.PLP.Fitness>
46.0360

> <Gold.PLP.PLP>
-36.0803

> <Gold.PLP.part.hbond>
-2.8408

> <Gold.PLP.part.metal>
0.0000

> <Gold.PLP.part.buried>
1.6999

> <Gold.PLP.part.nonpolar>
-34.7940

> <Gold.PLP.part.repulsive>
1.1982

> <Gold.PLP.ligand.clash>
0.0000

> <Gold.PLP.ligand.torsion>
1.3510

> <Gold.PLP.Chemscore.Hbond>
1.8320

> <Gold.PLP.Chemscore.CHOScore>
1.8475

> <Gold.PLP.Chemscore.Metal>
0.0000

> <Gold.Chemscore.Hbonds>
donor molecule, donor type, donor heavy atom, donor atom, acceptor molecule, acceptor atom, score
      L1  H     8    29       P1 10171  1.00
      L1  H    12    32       P1  7957  0.52
      L1  C     3    24       P1 10747  1.00
      L1  C    20    41       P1 10186  0.67

> <Gold.PLP.Chemscore.Internal.Correction>
1.6191

> <Gold.Rescore>
     Score         DG    S(hbond)    S(metal)    S(lipo)     H(rot)  DE(clash)    DE(int)     intcor
     12.87     -16.23       1.95        0.00      86.93       2.31       0.66       2.70       ----

> <Gold.Chemscore.Fitness>
12.8707

> <Gold.Chemscore.DG>
-16.2324

> <Gold.Chemscore.ZeroCoef>
-5.4800

> <Gold.Chemscore.Hbond>
1.9471

> <Gold.Chemscore.Metal>
0.0000

> <Gold.Chemscore.Lipo>
86.9251

> <Gold.Chemscore.Internal_Hbond>
0.0000

> <Gold.Chemscore.DEClash>
0.6627

> <Gold.Chemscore.DEInternal>
2.6990

> <Gold.Chemscore.Rot>
2.3129

> <Gold.Chemscore.Internal.Correction>
   9.000000E+99

> <Gold.Chemscore.Hbonds>
donor molecule, donor type, donor heavy atom, donor atom, acceptor molecule, acceptor atom, score
      L1  H     8    29       P1 10171  0.99
      L1  H    12    32       P1  7957  0.51

> <Gold.Chemscore.Hbond.Weighted>
-6.5033

> <Gold.Chemscore.Metal.Weighted>
-0.0000

> <Gold.Chemscore.Lipo.Weighted>
-10.1702

> <Gold.Chemscore.Internal_Hbond.Weighted>
0.0000

> <Gold.Chemscore.DEClash.Weighted>
0.6627

> <Gold.Chemscore.DEInternal.Weighted>
2.6990

> <Gold.Chemscore.Rot.Weighted>
5.9211

> <Gold.Chemscore.Internal.Correction.Weighted>
   9.000000E+99

> <Gold.Protein.RotatedTorsions>
[ 6907 6896 6895 6894 ] final  123.43 input  -60.11 | X-H torsion
[ 7974 7965 7964 7962 ] final -126.82 input  175.53 | X-H torsion
[ 8008 7997 7996 7995 ] final  -44.49 input   59.86 | X-H torsion
[ 10167 10162 10161 10158 ] final   -7.59 input  -65.29 | X-H torsion
[ 10718 10713 10712 10709 ] final  111.11 input   66.30 | X-H torsion
[ 10763 10752 10751 10750 ] final -108.46 input  -60.55 | X-H torsion
[ 11005 11000 10999 10996 ] final   19.29 input  -57.11 | X-H torsion

> <Gold.Protein.ActiveResidues>
 VAL166  LYS551  ARG553  GLY616  TRP617  ASP618  TYR619  PRO620  LYS621  CYS622 
 ASP623  PHE694  ASN695  SER759  ASP760  ASP761  ALA762  ILE779  LEU786  VAL792 
 PHE793  MET794  SER795  GLU796  ALA797  LYS798  CYS799  TRP800  GLU811  SER814 

> <Gold.Protein.RotatedAtoms>
  152.4162  133.7043  159.6441 H   0  0  0  0  0  0  0  0  0  0  0  0  # atno 6907 bound_to 6896
  150.8040  133.8535  159.3220 H   0  0  0  0  0  0  0  0  0  0  0  0  # atno 6908 bound_to 6896
  151.6264  135.1029  160.0164 H   0  0  0  0  0  0  0  0  0  0  0  0  # atno 6909 bound_to 6896
  144.9834  140.7662  143.4598 H   0  0  0  0  0  0  0  0  0  0  0  0  # atno 7974 bound_to 7965
  154.3997  140.1421  156.3692 H   0  0  0  0  0  0  0  0  0  0  0  0  # atno 8008 bound_to 7997
  155.8108  140.3473  155.5436 H   0  0  0  0  0  0  0  0  0  0  0  0  # atno 8009 bound_to 7997
  155.8388  140.0923  157.1738 H   0  0  0  0  0  0  0  0  0  0  0  0  # atno 8010 bound_to 7997
  140.7033  143.6063  150.8747 H   0  0  0  0  0  0  0  0  0  0  0  0  # atno 10167 bound_to 10162
  157.6461  131.0945  150.6700 H   0  0  0  0  0  0  0  0  0  0  0  0  # atno 10718 bound_to 10713
  154.8137  135.4637  154.0585 H   0  0  0  0  0  0  0  0  0  0  0  0  # atno 10763 bound_to 10752
  153.1995  135.6867  153.8256 H   0  0  0  0  0  0  0  0  0  0  0  0  # atno 10764 bound_to 10752
  153.7746  135.3265  155.3334 H   0  0  0  0  0  0  0  0  0  0  0  0  # atno 10765 bound_to 10752
  140.4154  134.1575  155.7669 H   0  0  0  0  0  0  0  0  0  0  0  0  # atno 11005 bound_to 11000
  145.2389  139.2081  143.5003 LP  0  0  0  0  0  0  0  0  0  0  0  0  # atno 17320 bound_to 7965
  146.3414  140.2280  142.8592 LP  0  0  0  0  0  0  0  0  0  0  0  0  # atno 17321 bound_to 7965
  139.9787  143.5975  152.2950 LP  0  0  0  0  0  0  0  0  0  0  0  0  # atno 17342 bound_to 10162
  139.6588  144.7662  151.2002 LP  0  0  0  0  0  0  0  0  0  0  0  0  # atno 17343 bound_to 10162
  156.7017  130.4625  149.5571 LP  0  0  0  0  0  0  0  0  0  0  0  0  # atno 17370 bound_to 10713
  156.1790  130.6487  151.0929 LP  0  0  0  0  0  0  0  0  0  0  0  0  # atno 17371 bound_to 10713
  141.1805  133.8424  157.1274 LP  0  0  0  0  0  0  0  0  0  0  0  0  # atno 17394 bound_to 11000
  140.0238  134.9933  157.0645 LP  0  0  0  0  0  0  0  0  0  0  0  0  # atno 17395 bound_to 11000

$$$$
