#       Name:                AV-unprocessed.smi:3071
#       Creating user name   scv26
#       Creation time:       Fri Mar 27 17:11:47 2020


#       File generated by GOLD software.
#

@<TRIPOS>MOLECULE
AV-unprocessed.smi:3071
    29    30     1
SMALL
NO_CHARGES


@<TRIPOS>ATOM
      1 ****        -1.6235   2.5240  -0.9271 C.3            1 S1                 0.0000
      2 ****        -2.0683   1.1061  -1.0890 C.2            1 S1                 0.0000
      3 ****        -3.3431   0.7356  -1.1510 N.2            1 S1                 0.0000
      4 ****        -3.3051  -0.6457  -1.3064 C.2            1 S1                 0.0000
      5 ****        -1.9971  -1.0648  -1.3318 C.2            1 S1                 0.0000
      6 ****        -1.2103   0.0713  -1.1865 N.pl3          1 S1                 0.0000
      7 ****         0.2433   0.1012  -1.1535 C.3            1 S1                 0.0000
      8 ****         0.8006   0.1051   0.2822 C.3            1 S1                 0.0000
      9 ****         0.3510  -1.0689   1.1574 C.3            1 S1                 0.0000
     10 ****         1.4408  -1.1326   2.2208 C.3            1 S1                 0.0000
     11 ****         2.7103  -0.7524   1.4538 C.3            1 S1                 0.0000
     12 ****         2.2763   0.0637   0.3013 N.4            1 S1                 1.0000
     13 ****        -2.4829   3.1952  -0.9404 H              1 S1                 0.0000
     14 ****        -0.9559   2.8083  -1.7407 H              1 S1                 0.0000
     15 ****        -1.1034   2.6515   0.0218 H              1 S1                 0.0000
     16 ****        -4.2133  -1.2249  -1.3876 H              1 S1                 0.0000
     17 ****        -1.5730  -2.0528  -1.4359 H              1 S1                 0.0000
     18 ****         0.6129  -0.7695  -1.6972 H              1 S1                 0.0000
     19 ****         0.5928   0.9758  -1.7028 H              1 S1                 0.0000
     20 ****         0.5086   1.0295   0.7822 H              1 S1                 0.0000
     21 ****        -0.6443  -0.9269   1.5796 H              1 S1                 0.0000
     22 ****         0.3443  -1.9943   0.5796 H              1 S1                 0.0000
     23 ****         1.2401  -0.3922   2.9966 H              1 S1                 0.0000
     24 ****         1.5117  -2.1098   2.6998 H              1 S1                 0.0000
     25 ****         3.4208  -0.2102   2.0786 H              1 S1                 0.0000
     26 ****         3.2082  -1.6458   1.0753 H              1 S1                 0.0000
     27 ****         2.6096  -0.3758  -0.5449 H              1 S1                 0.0000
     28 ****         2.6484   1.0006   0.3654 H              1 S1                 0.0000
     29 ****        -4.1518   1.3213  -1.0976 LP             1 S1                 0.0000
@<TRIPOS>BOND
    1    1    2 1     
    2    1   13 1     
    3    1   14 1     
    4    1   15 1     
    5    2    6 1     
    6    2    3 2     
    7    3    4 1     
    8    4    5 2     
    9    4   16 1     
   10    5    6 1     
   11    5   17 1     
   12    6    7 1     
   13    7    8 1     
   14    7   18 1     
   15    7   19 1     
   16    8   12 1     
   17    8    9 1     
   18    8   20 1     
   19    9   10 1     
   20    9   21 1     
   21    9   22 1     
   22   10   11 1     
   23   10   23 1     
   24   10   24 1     
   25   11   12 1     
   26   11   25 1     
   27   11   26 1     
   28   12   27 1     
   29   12   28 1     
   30    3   29 1     
@<TRIPOS>SUBSTRUCTURE
      1 S1             1
@<TRIPOS>SET
LONE_PAIRS      STATIC     ATOMS    <user>   **** ""
1 29
DONOR_HYDROGENS      STATIC     ATOMS    <user>   **** ""
2 27 28
ATOM$BLUE        STATIC     ATOMS    COLORGROUP SYSTEM
1 29
ATOM$RED        STATIC     ATOMS    COLORGROUP SYSTEM
2 27 28
