AV-unprocessed.smi:2299|AV-procd|sdf|9230|dock2
  -GOLD-   2272012453D 1   1.00000     0.00000
 Structure written by MMmdl.
 42 43  0  0  0  0  0  0  0  0  1 V2000
  152.0385  145.3184  160.5239 C   0  0  0  0  0  0  0  0  0  0  0  0
  151.3721  144.5315  159.3855 C   0  0  0  0  0  0  0  0  0  0  0  0
  149.8399  144.5585  159.4895 C   0  0  0  0  0  0  0  0  0  0  0  0
  151.8975  143.1225  159.3059 C   0  0  0  0  0  0  0  0  0  0  0  0
  152.5554  142.5386  160.3047 N   0  0  0  0  0  0  0  0  0  0  0  0
  152.8756  141.2725  159.8352 C   0  0  0  0  0  0  0  0  0  0  0  0
  152.3971  141.1297  158.5571 C   0  0  0  0  0  0  0  0  0  0  0  0
  151.7565  142.3246  158.2236 N   0  0  0  0  0  0  0  0  0  0  0  0
  151.0870  142.6671  156.9665 C   0  0  0  0  0  0  0  0  0  0  0  0
  150.2202  141.5484  156.3805 C   0  0  0  0  0  0  0  0  0  0  0  0
  150.3098  140.4036  156.8234 O   0  0  0  0  0  0  0  0  0  0  0  0
  149.3882  141.8969  155.3863 N   0  0  0  0  0  0  0  0  0  0  0  0
  148.4436  141.0083  154.7087 C   0  0  2  0  0  0  0  0  0  0  0  0
  147.3191  140.5869  155.6808 C   0  0  0  0  0  0  0  0  0  0  0  0
  146.0276  140.1298  154.9835 C   0  0  0  0  0  0  0  0  0  0  0  0
  146.1757  138.8757  154.1091 C   0  0  0  0  0  0  0  0  0  0  0  0
  147.0890  139.0789  152.8882 C   0  0  0  0  0  0  0  0  0  0  0  0
  148.5045  139.0100  153.2294 N   0  0  0  0  0  0  0  0  0  0  0  0
  149.1836  139.8319  154.0441 C   0  0  0  0  0  0  0  0  0  0  0  0
  150.3808  139.6459  154.2617 O   0  0  0  0  0  0  0  0  0  0  0  0
  153.1221  145.3375  160.4037 H   0  0  0  0  0  0  0  0  0  0  0  0
  151.8189  144.8758  161.4961 H   0  0  0  0  0  0  0  0  0  0  0  0
  151.6903  146.3514  160.5433 H   0  0  0  0  0  0  0  0  0  0  0  0
  151.6266  145.0559  158.4662 H   0  0  0  0  0  0  0  0  0  0  0  0
  149.3809  144.0524  158.6395 H   0  0  0  0  0  0  0  0  0  0  0  0
  149.4654  145.5823  159.5053 H   0  0  0  0  0  0  0  0  0  0  0  0
  149.4935  144.0648  160.3980 H   0  0  0  0  0  0  0  0  0  0  0  0
  153.4243  140.5700  160.4450 H   0  0  0  0  0  0  0  0  0  0  0  0
  152.4641  140.2876  157.8841 H   0  0  0  0  0  0  0  0  0  0  0  0
  150.4573  143.5419  157.1338 H   0  0  0  0  0  0  0  0  0  0  0  0
  151.8475  142.9515  156.2378 H   0  0  0  0  0  0  0  0  0  0  0  0
  149.3796  142.8639  155.0947 H   0  0  0  0  0  0  0  0  0  0  0  0
  147.9974  141.5827  153.8945 H   0  0  0  0  0  0  0  0  0  0  0  0
  147.6778  139.8058  156.3529 H   0  0  0  0  0  0  0  0  0  0  0  0
  147.0582  141.4294  156.3228 H   0  0  0  0  0  0  0  0  0  0  0  0
  145.2746  139.9321  155.7471 H   0  0  0  0  0  0  0  0  0  0  0  0
  145.6305  140.9482  154.3817 H   0  0  0  0  0  0  0  0  0  0  0  0
  146.5236  138.0330  154.7084 H   0  0  0  0  0  0  0  0  0  0  0  0
  145.1839  138.5974  153.7512 H   0  0  0  0  0  0  0  0  0  0  0  0
  146.8979  138.2859  152.1648 H   0  0  0  0  0  0  0  0  0  0  0  0
  146.8642  140.0170  152.3788 H   0  0  0  0  0  0  0  0  0  0  0  0
  149.0243  138.2524  152.8102 H   0  0  0  0  0  0  0  0  0  0  0  0
  1  2  1  0  0  0  0
  1 21  1  0  0  0  0
  1 22  1  0  0  0  0
  1 23  1  0  0  0  0
  2  3  1  0  0  0  0
  2  4  1  0  0  0  0
  2 24  1  0  0  0  0
  3 25  1  0  0  0  0
  3 26  1  0  0  0  0
  3 27  1  0  0  0  0
  4  8  1  0  0  0  0
  4  5  2  0  0  0  0
  5  6  1  0  0  0  0
  6  7  2  0  0  0  0
  6 28  1  0  0  0  0
  7  8  1  0  0  0  0
  7 29  1  0  0  0  0
  8  9  1  0  0  0  0
  9 10  1  0  0  0  0
  9 30  1  0  0  0  0
  9 31  1  0  0  0  0
 10 11  2  0  0  0  0
 10 12  1  0  0  0  0
 12 13  1  0  0  0  0
 12 32  1  0  0  0  0
 13 19  1  0  0  0  0
 13 14  1  0  0  0  0
 13 33  1  0  0  0  0
 14 15  1  0  0  0  0
 14 34  1  0  0  0  0
 14 35  1  0  0  0  0
 15 16  1  0  0  0  0
 15 36  1  0  0  0  0
 15 37  1  0  0  0  0
 16 17  1  0  0  0  0
 16 38  1  0  0  0  0
 16 39  1  0  0  0  0
 17 18  1  0  0  0  0
 17 40  1  0  0  0  0
 17 41  1  0  0  0  0
 18 19  1  0  0  0  0
 18 42  1  0  0  0  0
 19 20  2  0  0  0  0
M  END
> <s_m_source_file>
AV-unprocessed.smi

> <i_m_source_file_index>
2299

> <i_lp_mmshare_version>
43012

> <i_f3d_flags>
0

> <s_epik_input>
W0NIM11bQ0hdKFtDSDNdKWMxbltjSF1bY0hdbjFbQ0gyXUMoPU8pW05IXVtDQEBIXTJbQ0gyXVtDSDJdW0NIMl1bQ0gyXVtOSF1DMj1P

> <s_epik_cmdline>
J2VwaWtfcHl0aG9uJywgJy1waCcsICc3LjAnLCAnLXRuJywgJzgnLCAnLW1hJywgJzIwMCcsICctbWV0YWxfYmluZGluZycsICctaW1hZScsICc8aW5maWxlLm1hZT4nLCAnLW9tYWUnLCAnPG91dGZpbGUubWFlPic=

> <r_lp_tautomer_probability>
1

> <r_epik_Ionization_Penalty>
0.557868

> <r_epik_Ionization_Penalty_Charging>
0.557868

> <r_epik_Ionization_Penalty_Neutral>
1.99744e-07

> <r_epik_State_Penalty>
0.568774

> <r_epik_Charging_Adjusted_Penalty>
1.12664

> <i_epik_Tot_Q>
0

> <i_epik_Tot_abs_Q>
0

> <r_epik_Metal_State_Penalty>
0.289303

> <b_epik_Metal_Only>
0

> <s_lp_Force_Field>
OPLS_2005

> <r_lp_Energy>
12.6328

> <b_lp_Chiralities_Consistent>
1

> <s_lp_Variant>
AV-unprocessed.smi:2299-3

> <Gold.Version>
5.8.1

> <Gold.Id.Protein>
6NUR|6NUR_protein|mol2

> <Gold.PLP.Fitness>
43.2099

> <Gold.PLP.PLP>
-36.9551

> <Gold.PLP.part.hbond>
-3.9435

> <Gold.PLP.part.metal>
0.0000

> <Gold.PLP.part.buried>
-5.0053

> <Gold.PLP.part.nonpolar>
-29.1836

> <Gold.PLP.part.repulsive>
0.4100

> <Gold.PLP.ligand.clash>
0.0000

> <Gold.PLP.ligand.torsion>
0.7728

> <Gold.PLP.Chemscore.Hbond>
2.5764

> <Gold.PLP.Chemscore.CHOScore>
0.0000

> <Gold.PLP.Chemscore.Metal>
0.0000

> <Gold.Chemscore.Hbonds>
donor molecule, donor type, donor heavy atom, donor atom, acceptor molecule, acceptor atom, score
      L1  H    12    32       P1  8028  0.90
      L1  H    18    42       P1  7948  0.55
      P1  H  7989  7998       L1    20  1.00

> <Gold.PLP.Chemscore.Internal.Correction>
0.0710

> <Gold.Rescore>
     Score         DG    S(hbond)    S(metal)    S(lipo)     H(rot)  DE(clash)    DE(int)     intcor
     13.15     -17.84       2.43        0.00      73.34       1.70       0.19       4.50       ----

> <Gold.Chemscore.Fitness>
13.1491

> <Gold.Chemscore.DG>
-17.8387

> <Gold.Chemscore.ZeroCoef>
-5.4800

> <Gold.Chemscore.Hbond>
2.4346

> <Gold.Chemscore.Metal>
0.0000

> <Gold.Chemscore.Lipo>
73.3358

> <Gold.Chemscore.Internal_Hbond>
0.0000

> <Gold.Chemscore.DEClash>
0.1866

> <Gold.Chemscore.DEInternal>
4.5030

> <Gold.Chemscore.Rot>
1.7004

> <Gold.Chemscore.Internal.Correction>
   9.000000E+99

> <Gold.Chemscore.Hbonds>
donor molecule, donor type, donor heavy atom, donor atom, acceptor molecule, acceptor atom, score
      L1  H    12    32       P1  8028  0.85
      L1  H    18    42       P1  7948  0.53
      P1  H  7989  7998       L1    20  0.95

> <Gold.Chemscore.Hbond.Weighted>
-8.1314

> <Gold.Chemscore.Metal.Weighted>
-0.0000

> <Gold.Chemscore.Lipo.Weighted>
-8.5803

> <Gold.Chemscore.Internal_Hbond.Weighted>
0.0000

> <Gold.Chemscore.DEClash.Weighted>
0.1866

> <Gold.Chemscore.DEInternal.Weighted>
4.5030

> <Gold.Chemscore.Rot.Weighted>
4.3530

> <Gold.Chemscore.Internal.Correction.Weighted>
   9.000000E+99

> <Gold.Protein.RotatedTorsions>
[ 6907 6896 6895 6894 ] final   49.57 input  -60.11 | X-H torsion
[ 7974 7965 7964 7962 ] final   60.81 input  175.53 | X-H torsion
[ 8008 7997 7996 7995 ] final  132.14 input   59.86 | X-H torsion
[ 10167 10162 10161 10158 ] final -158.17 input  -65.29 | X-H torsion
[ 10718 10713 10712 10709 ] final  -98.76 input   66.30 | X-H torsion
[ 10763 10752 10751 10750 ] final -105.68 input  -60.55 | X-H torsion
[ 11005 11000 10999 10996 ] final -120.91 input  -57.11 | X-H torsion

> <Gold.Protein.ActiveResidues>
 VAL166  LYS551  ARG553  GLY616  TRP617  ASP618  TYR619  PRO620  LYS621  CYS622 
 ASP623  PHE694  ASN695  SER759  ASP760  ASP761  ALA762  ILE779  LEU786  VAL792 
 PHE793  MET794  SER795  GLU796  ALA797  LYS798  CYS799  TRP800  GLU811  SER814 

> <Gold.Protein.RotatedAtoms>
  152.2922  134.7708  160.0375 H   0  0  0  0  0  0  0  0  0  0  0  0  # atno 6907 bound_to 6896
  151.8250  133.3395  159.3604 H   0  0  0  0  0  0  0  0  0  0  0  0  # atno 6908 bound_to 6896
  150.7235  134.5467  159.5818 H   0  0  0  0  0  0  0  0  0  0  0  0  # atno 6909 bound_to 6896
  145.8918  139.3517  143.0644 H   0  0  0  0  0  0  0  0  0  0  0  0  # atno 7974 bound_to 7965
  156.2979  140.2554  156.3040 H   0  0  0  0  0  0  0  0  0  0  0  0  # atno 8008 bound_to 7997
  154.9390  140.0396  157.2106 H   0  0  0  0  0  0  0  0  0  0  0  0  # atno 8009 bound_to 7997
  154.8144  140.2850  155.5834 H   0  0  0  0  0  0  0  0  0  0  0  0  # atno 8010 bound_to 7997
  139.6713  143.9740  152.2285 H   0  0  0  0  0  0  0  0  0  0  0  0  # atno 10167 bound_to 10162
  156.0116  130.5252  150.6570 H   0  0  0  0  0  0  0  0  0  0  0  0  # atno 10718 bound_to 10713
  154.7963  135.4740  154.0168 H   0  0  0  0  0  0  0  0  0  0  0  0  # atno 10763 bound_to 10752
  153.1708  135.6825  153.8617 H   0  0  0  0  0  0  0  0  0  0  0  0  # atno 10764 bound_to 10752
  153.8200  135.3205  155.3387 H   0  0  0  0  0  0  0  0  0  0  0  0  # atno 10765 bound_to 10752
  141.0109  134.0266  157.3415 H   0  0  0  0  0  0  0  0  0  0  0  0  # atno 11005 bound_to 11000
  145.8898  140.9311  143.0558 LP  0  0  0  0  0  0  0  0  0  0  0  0  # atno 17320 bound_to 7965
  144.6731  140.0891  143.7466 LP  0  0  0  0  0  0  0  0  0  0  0  0  # atno 17321 bound_to 7965
  139.9505  144.6623  150.8177 LP  0  0  0  0  0  0  0  0  0  0  0  0  # atno 17342 bound_to 10162
  140.7619  143.3185  151.2676 LP  0  0  0  0  0  0  0  0  0  0  0  0  # atno 17343 bound_to 10162
  157.4320  131.0850  151.1029 LP  0  0  0  0  0  0  0  0  0  0  0  0  # atno 17370 bound_to 10713
  157.1599  130.6221  149.5607 LP  0  0  0  0  0  0  0  0  0  0  0  0  # atno 17371 bound_to 10713
  139.9089  135.0186  156.7608 LP  0  0  0  0  0  0  0  0  0  0  0  0  # atno 17394 bound_to 11000
  140.6735  133.9538  155.7870 LP  0  0  0  0  0  0  0  0  0  0  0  0  # atno 17395 bound_to 11000

$$$$
