AV-unprocessed.smi:103|AV-procd|sdf|979|dock10
  -GOLD-   2262017543D 1   1.00000     0.00000
 Structure written by MMmdl.
 53 55  0  0  0  0  0  0  0  0  1 V2000
  157.2241  137.3794  157.7202 C   0  0  0  0  0  0  0  0  0  0  0  0
  155.8871  136.7553  157.3425 C   0  0  0  0  0  0  0  0  0  0  0  0
  155.8134  135.8271  156.5372 O   0  0  0  0  0  0  0  0  0  0  0  0
  154.8576  137.3314  157.9787 O   0  0  0  0  0  0  0  0  0  0  0  0
  153.7006  136.5684  158.2787 C   0  0  0  0  0  0  0  0  0  0  0  0
  152.6219  137.4962  158.8498 C   0  0  2  0  0  0  0  0  0  0  0  0
  151.4183  136.7448  159.0104 O   0  0  0  0  0  0  0  0  0  0  0  0
  150.3764  137.3891  158.3521 C   0  0  2  0  0  0  0  0  0  0  0  0
  149.4304  136.3611  157.8221 N   0  0  0  0  0  0  0  0  0  0  0  0
  148.2381  135.9012  158.3445 C   0  0  0  0  0  0  0  0  0  0  0  0
  147.4941  136.3928  159.8957 S   0  0  0  0  0  0  0  0  0  0  0  0
  146.6941  134.8296  160.4396 C   0  0  0  0  0  0  0  0  0  0  0  0
  148.5877  136.7251  160.8214 O   0  0  0  0  0  0  0  0  0  0  0  0
  146.4565  137.3866  159.5791 O   0  0  0  0  0  0  0  0  0  0  0  0
  147.6416  134.9443  157.6866 N   0  0  0  0  0  0  0  0  0  0  0  0
  148.4585  134.7677  156.5788 C   0  0  0  0  0  0  0  0  0  0  0  0
  148.4094  133.9215  155.4425 C   0  0  0  0  0  0  0  0  0  0  0  0
  147.4248  133.0370  155.2312 N   0  0  0  0  0  0  0  0  0  0  0  0
  149.4024  134.0101  154.5269 N   0  0  0  0  0  0  0  0  0  0  0  0
  150.3967  134.8840  154.7153 C   0  0  0  0  0  0  0  0  0  0  0  0
  150.5795  135.7366  155.7270 N   0  0  0  0  0  0  0  0  0  0  0  0
  149.5761  135.6479  156.6493 C   0  0  0  0  0  0  0  0  0  0  0  0
  151.0178  138.1881  157.2228 C   0  0  1  0  0  0  0  0  0  0  0  0
  150.1927  139.2611  156.7833 O   0  0  0  0  0  0  0  0  0  0  0  0
  150.5603  140.0170  155.7345 C   0  0  0  0  0  0  0  0  0  0  0  0
  149.6362  141.2093  155.5287 C   0  0  0  0  0  0  0  0  0  0  0  0
  151.5162  139.8079  154.9874 O   0  0  0  0  0  0  0  0  0  0  0  0
  152.2853  138.6677  157.9068 C   0  0  1  0  0  0  0  0  0  0  0  0
  152.0366  139.8453  158.6705 O   0  0  0  0  0  0  0  0  0  0  0  0
  153.0489  140.4770  159.2899 C   0  0  0  0  0  0  0  0  0  0  0  0
  152.5838  141.7128  160.0484 C   0  0  0  0  0  0  0  0  0  0  0  0
  154.2308  140.1330  159.2825 O   0  0  0  0  0  0  0  0  0  0  0  0
  157.2410  138.4337  157.4435 H   0  0  0  0  0  0  0  0  0  0  0  0
  158.0422  136.8737  157.2068 H   0  0  0  0  0  0  0  0  0  0  0  0
  157.3889  137.2999  158.7947 H   0  0  0  0  0  0  0  0  0  0  0  0
  153.3340  136.0599  157.3858 H   0  0  0  0  0  0  0  0  0  0  0  0
  153.9585  135.8024  159.0111 H   0  0  0  0  0  0  0  0  0  0  0  0
  152.9391  137.8527  159.8310 H   0  0  0  0  0  0  0  0  0  0  0  0
  149.8253  137.9960  159.0677 H   0  0  0  0  0  0  0  0  0  0  0  0
  146.1915  134.9922  161.3925 H   0  0  0  0  0  0  0  0  0  0  0  0
  147.4489  134.0522  160.5539 H   0  0  0  0  0  0  0  0  0  0  0  0
  145.9640  134.5182  159.6927 H   0  0  0  0  0  0  0  0  0  0  0  0
  146.6726  132.9527  155.8998 H   0  0  0  0  0  0  0  0  0  0  0  0
  147.4343  132.4601  154.4026 H   0  0  0  0  0  0  0  0  0  0  0  0
  151.1551  134.9021  153.9463 H   0  0  0  0  0  0  0  0  0  0  0  0
  151.2888  137.5124  156.4104 H   0  0  0  0  0  0  0  0  0  0  0  0
  148.6363  140.8688  155.2589 H   0  0  0  0  0  0  0  0  0  0  0  0
  150.0100  141.8507  154.7304 H   0  0  0  0  0  0  0  0  0  0  0  0
  149.5675  141.7992  156.4429 H   0  0  0  0  0  0  0  0  0  0  0  0
  153.0690  138.8524  157.1702 H   0  0  0  0  0  0  0  0  0  0  0  0
  151.9451  141.4257  160.8839 H   0  0  0  0  0  0  0  0  0  0  0  0
  152.0187  142.3720  159.3894 H   0  0  0  0  0  0  0  0  0  0  0  0
  153.4380  142.2659  160.4398 H   0  0  0  0  0  0  0  0  0  0  0  0
  1  2  1  0  0  0  0
  1 33  1  0  0  0  0
  1 34  1  0  0  0  0
  1 35  1  0  0  0  0
  2  3  2  0  0  0  0
  2  4  1  0  0  0  0
  4  5  1  0  0  0  0
  5  6  1  0  0  0  0
  5 36  1  0  0  0  0
  5 37  1  0  0  0  0
  6 28  1  0  0  0  0
  6  7  1  0  0  0  0
  6 38  1  0  0  0  0
  7  8  1  0  0  0  0
  8  9  1  0  0  0  0
  8 23  1  0  0  0  0
  8 39  1  0  0  0  0
  9 22  1  0  0  0  0
  9 10  1  0  0  0  0
 10 11  1  0  0  0  0
 10 15  2  0  0  0  0
 11 12  1  0  0  0  0
 11 13  2  0  0  0  0
 11 14  2  0  0  0  0
 12 40  1  0  0  0  0
 12 41  1  0  0  0  0
 12 42  1  0  0  0  0
 15 16  1  0  0  0  0
 16 22  2  0  0  0  0
 16 17  1  0  0  0  0
 17 18  1  0  0  0  0
 17 19  2  0  0  0  0
 18 43  1  0  0  0  0
 18 44  1  0  0  0  0
 19 20  1  0  0  0  0
 20 21  2  0  0  0  0
 20 45  1  0  0  0  0
 21 22  1  0  0  0  0
 23 24  1  0  0  0  0
 23 28  1  0  0  0  0
 23 46  1  0  0  0  0
 24 25  1  0  0  0  0
 25 26  1  0  0  0  0
 25 27  2  0  0  0  0
 26 47  1  0  0  0  0
 26 48  1  0  0  0  0
 26 49  1  0  0  0  0
 28 29  1  0  0  0  0
 28 50  1  0  0  0  0
 29 30  1  0  0  0  0
 30 31  1  0  0  0  0
 30 32  2  0  0  0  0
 31 51  1  0  0  0  0
 31 52  1  0  0  0  0
 31 53  1  0  0  0  0
M  END
> <s_m_source_file>
AV-unprocessed.smi

> <i_m_source_file_index>
103

> <i_lp_mmshare_version>
43012

> <i_f3d_flags>
0

> <s_epik_input>
W0NIM11DKD1PKU9bQ0gyXVtDQEBIXTFPW0NASF0oW0NAQEhdKE9DKD1PKVtDSDNdKVtDQEhdMU9DKD1PKVtDSDNdKW4oYyhuMilTKD1PKSg9TylbQ0gzXSljKGMyMyluW2NIXW5jM1tOSDJd

> <s_epik_cmdline>
J2VwaWtfcHl0aG9uJywgJy1waCcsICc3LjAnLCAnLXRuJywgJzgnLCAnLW1hJywgJzIwMCcsICctbWV0YWxfYmluZGluZycsICctaW1hZScsICc8aW5maWxlLm1hZT4nLCAnLW9tYWUnLCAnPG91dGZpbGUubWFlPic=

> <r_lp_tautomer_probability>
1

> <r_epik_Ionization_Penalty>
1.51338e-05

> <r_epik_Ionization_Penalty_Charging>
0

> <r_epik_Ionization_Penalty_Neutral>
1.51338e-05

> <r_epik_State_Penalty>
-0

> <r_epik_Charging_Adjusted_Penalty>
0

> <i_epik_Tot_Q>
0

> <i_epik_Tot_abs_Q>
0

> <r_epik_Metal_State_Penalty>
-0

> <b_epik_Metal_Only>
0

> <s_epik_Chemistry_Notes>
This compound has an ester and may undergo hydrolysis at high or low pH. This compound contains an acetal/aminal-like group ( X-CH(R)-Y where X, Y are N, S, or O) that may be acid/base labile, releasing an aldehyde.

> <s_lp_Force_Field>
OPLS_2005

> <r_lp_Energy>
16.6357

> <b_lp_Chiralities_Consistent>
1

> <s_lp_Variant>
AV-unprocessed.smi:103-3

> <Gold.Version>
5.8.1

> <Gold.Id.Protein>
6NUR|6NUR_protein|mol2

> <Gold.PLP.Fitness>
50.1600

> <Gold.PLP.PLP>
-32.6498

> <Gold.PLP.part.hbond>
-6.1141

> <Gold.PLP.part.metal>
0.0000

> <Gold.PLP.part.buried>
-6.8497

> <Gold.PLP.part.nonpolar>
-19.9401

> <Gold.PLP.part.repulsive>
0.2671

> <Gold.PLP.ligand.clash>
0.0000

> <Gold.PLP.ligand.torsion>
2.3637

> <Gold.PLP.Chemscore.Hbond>
5.9360

> <Gold.PLP.Chemscore.CHOScore>
0.7299

> <Gold.PLP.Chemscore.Metal>
0.0000

> <Gold.Chemscore.Hbonds>
donor molecule, donor type, donor heavy atom, donor atom, acceptor molecule, acceptor atom, score
      P1  H  6896  6908       L1     7  0.99
      P1  H  6931  6943       L1    13  1.00
      P1  H  6934  6947       L1    14  0.49
      P1  H  7989  7998       L1    27  1.00
      P1  H  7997  8009       L1    32  0.75
      P1  H 10752 10763       L1     3  1.00
      L1  C    20    45       P1  7949  0.60

> <Gold.PLP.Chemscore.Internal.Correction>
2.2400

> <Gold.Rescore>
     Score         DG    S(hbond)    S(metal)    S(lipo)     H(rot)  DE(clash)    DE(int)     intcor
     14.33     -18.03       5.53        0.00      42.19       4.25       0.03       3.67       ----

> <Gold.Chemscore.Fitness>
14.3256

> <Gold.Chemscore.DG>
-18.0276

> <Gold.Chemscore.ZeroCoef>
-5.4800

> <Gold.Chemscore.Hbond>
5.5328

> <Gold.Chemscore.Metal>
0.0000

> <Gold.Chemscore.Lipo>
42.1937

> <Gold.Chemscore.Internal_Hbond>
0.0000

> <Gold.Chemscore.DEClash>
0.0291

> <Gold.Chemscore.DEInternal>
3.6729

> <Gold.Chemscore.Rot>
4.2456

> <Gold.Chemscore.Internal.Correction>
   9.000000E+99

> <Gold.Chemscore.Hbonds>
donor molecule, donor type, donor heavy atom, donor atom, acceptor molecule, acceptor atom, score
      P1  H  6896  6908       L1     7  0.93
      P1  H  6931  6943       L1    13  0.95
      P1  H  6934  6947       L1    14  0.11
      P1  H  7989  7998       L1    27  0.94
      P1  H  7997  8009       L1    32  0.60
      P1  H 10752 10763       L1     3  1.00

> <Gold.Chemscore.Hbond.Weighted>
-18.4796

> <Gold.Chemscore.Metal.Weighted>
-0.0000

> <Gold.Chemscore.Lipo.Weighted>
-4.9367

> <Gold.Chemscore.Internal_Hbond.Weighted>
0.0000

> <Gold.Chemscore.DEClash.Weighted>
0.0291

> <Gold.Chemscore.DEInternal.Weighted>
3.6729

> <Gold.Chemscore.Rot.Weighted>
10.8687

> <Gold.Chemscore.Internal.Correction.Weighted>
   9.000000E+99

> <Gold.Protein.RotatedTorsions>
[ 6907 6896 6895 6894 ] final -133.67 input  -60.11 | X-H torsion
[ 7974 7965 7964 7962 ] final  104.90 input  175.53 | X-H torsion
[ 8008 7997 7996 7995 ] final  124.05 input   59.86 | X-H torsion
[ 10167 10162 10161 10158 ] final  123.74 input  -65.29 | X-H torsion
[ 10718 10713 10712 10709 ] final  -46.62 input   66.30 | X-H torsion
[ 10763 10752 10751 10750 ] final  175.53 input  -60.55 | X-H torsion
[ 11005 11000 10999 10996 ] final  -50.59 input  -57.11 | X-H torsion

> <Gold.Protein.ActiveResidues>
 VAL166  LYS551  ARG553  GLY616  TRP617  ASP618  TYR619  PRO620  LYS621  CYS622 
 ASP623  PHE694  ASN695  SER759  ASP760  ASP761  ALA762  ILE779  LEU786  VAL792 
 PHE793  MET794  SER795  GLU796  ALA797  LYS798  CYS799  TRP800  GLU811  SER814 

> <Gold.Protein.RotatedAtoms>
  150.9767  133.6287  159.2728 H   0  0  0  0  0  0  0  0  0  0  0  0  # atno 6907 bound_to 6896
  151.3557  135.0892  159.9427 H   0  0  0  0  0  0  0  0  0  0  0  0  # atno 6908 bound_to 6896
  152.5202  133.9351  159.7654 H   0  0  0  0  0  0  0  0  0  0  0  0  # atno 6909 bound_to 6896
  145.3267  139.2497  143.3682 H   0  0  0  0  0  0  0  0  0  0  0  0  # atno 7974 bound_to 7965
  156.2788  140.2749  156.1726 H   0  0  0  0  0  0  0  0  0  0  0  0  # atno 8008 bound_to 7997
  155.0639  140.0387  157.2604 H   0  0  0  0  0  0  0  0  0  0  0  0  # atno 8009 bound_to 7997
  154.7094  140.2665  155.6649 H   0  0  0  0  0  0  0  0  0  0  0  0  # atno 8010 bound_to 7997
  139.5782  144.6973  151.3598 H   0  0  0  0  0  0  0  0  0  0  0  0  # atno 10167 bound_to 10162
  156.2165  130.4163  149.9047 H   0  0  0  0  0  0  0  0  0  0  0  0  # atno 10718 bound_to 10713
  154.4688  135.2770  155.1658 H   0  0  0  0  0  0  0  0  0  0  0  0  # atno 10763 bound_to 10752
  154.3415  135.6169  153.5602 H   0  0  0  0  0  0  0  0  0  0  0  0  # atno 10764 bound_to 10752
  152.9862  135.5789  154.5065 H   0  0  0  0  0  0  0  0  0  0  0  0  # atno 10765 bound_to 10752
  141.0824  133.6650  156.3753 H   0  0  0  0  0  0  0  0  0  0  0  0  # atno 11005 bound_to 11000
  146.3061  140.3837  142.8686 LP  0  0  0  0  0  0  0  0  0  0  0  0  # atno 17320 bound_to 7965
  144.8896  140.7506  143.5935 LP  0  0  0  0  0  0  0  0  0  0  0  0  # atno 17321 bound_to 7965
  140.7062  143.7506  150.7487 LP  0  0  0  0  0  0  0  0  0  0  0  0  # atno 17342 bound_to 10162
  140.1032  143.4768  152.2413 LP  0  0  0  0  0  0  0  0  0  0  0  0  # atno 17343 bound_to 10162
  156.6708  130.8819  151.3562 LP  0  0  0  0  0  0  0  0  0  0  0  0  # atno 17370 bound_to 10713
  157.7066  130.9392  150.0950 LP  0  0  0  0  0  0  0  0  0  0  0  0  # atno 17371 bound_to 10713
  140.5439  134.6094  157.5388 LP  0  0  0  0  0  0  0  0  0  0  0  0  # atno 17394 bound_to 11000
  139.9639  134.7406  156.0179 LP  0  0  0  0  0  0  0  0  0  0  0  0  # atno 17395 bound_to 11000

$$$$
