AV-unprocessed.smi:2984|AV-procd|sdf|11378|dock10
  -GOLD-   2272016303D 1   1.00000     0.00000
 Structure written by MMmdl.
 38 39  0  0  0  0  0  0  0  0  1 V2000
  151.6537  136.6784  159.1330 O   0  0  0  0  0  0  0  0  0  0  0  0
  150.8374  137.2706  158.4253 C   0  0  0  0  0  0  0  0  0  0  0  0
  149.6511  136.4909  157.8411 C   0  0  0  0  0  0  0  0  0  0  0  0
  148.8904  135.7688  158.8727 N   0  0  0  0  0  0  0  0  0  0  0  0
  148.8527  134.3971  158.6887 N   0  0  0  0  0  0  0  0  0  0  0  0
  148.1941  133.6633  159.5182 C   0  0  0  0  0  0  0  0  0  0  0  0
  147.4897  134.2229  160.6501 C   0  0  0  0  0  0  0  0  0  0  0  0
  146.6198  133.1880  161.7272 Cl  0  0  0  0  0  0  0  0  0  0  0  0
  147.5426  135.5668  160.8283 C   0  0  0  0  0  0  0  0  0  0  0  0
  146.7267  136.3088  162.1617 Cl  0  0  0  0  0  0  0  0  0  0  0  0
  148.2852  136.4350  159.9040 C   0  0  0  0  0  0  0  0  0  0  0  0
  148.3588  137.6574  160.0332 O   0  0  0  0  0  0  0  0  0  0  0  0
  150.8963  138.5796  158.1016 N   0  0  0  0  0  0  0  0  0  0  0  0
  151.8067  139.4869  158.5014 C   0  0  0  0  0  0  0  0  0  0  0  0
  152.7265  139.2812  159.2961 O   0  0  0  0  0  0  0  0  0  0  0  0
  151.5825  140.6761  157.9230 N   0  0  0  0  0  0  0  0  0  0  0  0
  152.1615  141.9460  158.3517 C   0  0  0  0  0  0  0  0  0  0  0  0
  152.0303  142.1125  159.8802 C   0  0  0  0  0  0  0  0  0  0  0  0
  152.5610  143.4783  160.3454 C   0  0  0  0  0  0  0  0  0  0  0  0
  151.8641  144.6298  159.6041 C   0  0  0  0  0  0  0  0  0  0  0  0
  151.9989  144.4705  158.0817 C   0  0  0  0  0  0  0  0  0  0  0  0
  151.4664  143.1061  157.6142 C   0  0  0  0  0  0  0  0  0  0  0  0
  149.0060  137.1952  157.3127 H   0  0  0  0  0  0  0  0  0  0  0  0
  150.0079  135.7957  157.0788 H   0  0  0  0  0  0  0  0  0  0  0  0
  148.1322  132.5804  159.4101 H   0  0  0  0  0  0  0  0  0  0  0  0
  150.1596  138.9202  157.5018 H   0  0  0  0  0  0  0  0  0  0  0  0
  150.9558  140.7094  157.1325 H   0  0  0  0  0  0  0  0  0  0  0  0
  153.2200  141.9626  158.0846 H   0  0  0  0  0  0  0  0  0  0  0  0
  150.9844  142.0128  160.1743 H   0  0  0  0  0  0  0  0  0  0  0  0
  152.5717  141.3176  160.3948 H   0  0  0  0  0  0  0  0  0  0  0  0
  152.4159  143.5869  161.4206 H   0  0  0  0  0  0  0  0  0  0  0  0
  153.6368  143.5305  160.1723 H   0  0  0  0  0  0  0  0  0  0  0  0
  150.8085  144.6545  159.8773 H   0  0  0  0  0  0  0  0  0  0  0  0
  152.2874  145.5844  159.9177 H   0  0  0  0  0  0  0  0  0  0  0  0
  151.4615  145.2727  157.5752 H   0  0  0  0  0  0  0  0  0  0  0  0
  153.0464  144.5711  157.7951 H   0  0  0  0  0  0  0  0  0  0  0  0
  151.6119  143.0057  156.5379 H   0  0  0  0  0  0  0  0  0  0  0  0
  150.3899  143.0623  157.7859 H   0  0  0  0  0  0  0  0  0  0  0  0
  1  2  2  0  0  0  0
  2  3  1  0  0  0  0
  2 13  1  0  0  0  0
  3  4  1  0  0  0  0
  3 23  1  0  0  0  0
  3 24  1  0  0  0  0
  4 11  1  0  0  0  0
  4  5  1  0  0  0  0
  5  6  2  0  0  0  0
  6  7  1  0  0  0  0
  6 25  1  0  0  0  0
  7  8  1  0  0  0  0
  7  9  2  0  0  0  0
  9 10  1  0  0  0  0
  9 11  1  0  0  0  0
 11 12  2  0  0  0  0
 13 14  1  0  0  0  0
 13 26  1  0  0  0  0
 14 15  2  0  0  0  0
 14 16  1  0  0  0  0
 16 17  1  0  0  0  0
 16 27  1  0  0  0  0
 17 22  1  0  0  0  0
 17 18  1  0  0  0  0
 17 28  1  0  0  0  0
 18 19  1  0  0  0  0
 18 29  1  0  0  0  0
 18 30  1  0  0  0  0
 19 20  1  0  0  0  0
 19 31  1  0  0  0  0
 19 32  1  0  0  0  0
 20 21  1  0  0  0  0
 20 33  1  0  0  0  0
 20 34  1  0  0  0  0
 21 22  1  0  0  0  0
 21 35  1  0  0  0  0
 21 36  1  0  0  0  0
 22 37  1  0  0  0  0
 22 38  1  0  0  0  0
M  END
> <s_m_source_file>
AV-unprocessed.smi

> <i_m_source_file_index>
2984

> <i_lp_mmshare_version>
43012

> <i_f3d_flags>
0

> <s_epik_input>
Tz1jMWMoQ2wpYyhDbClbY0hdbm4xW0NIMl1DKD1PKVtOSF1DKD1PKVtOSF1bQ0hdMltDSDJdW0NIMl1bQ0gyXVtDSDJdW0NIMl0y

> <s_epik_cmdline>
J2VwaWtfcHl0aG9uJywgJy1waCcsICc3LjAnLCAnLXRuJywgJzgnLCAnLW1hJywgJzIwMCcsICctbWV0YWxfYmluZGluZycsICctaW1hZScsICc8aW5maWxlLm1hZT4nLCAnLW9tYWUnLCAnPG91dGZpbGUubWFlPic=

> <r_lp_tautomer_probability>
1

> <r_epik_Ionization_Penalty>
3.27035e-05

> <r_epik_Ionization_Penalty_Charging>
2.24292e-11

> <r_epik_Ionization_Penalty_Neutral>
3.27035e-05

> <r_epik_State_Penalty>
-0

> <r_epik_Charging_Adjusted_Penalty>
2.24292e-11

> <i_epik_Tot_Q>
0

> <i_epik_Tot_abs_Q>
0

> <r_epik_Metal_State_Penalty>
-0

> <b_epik_Metal_Only>
0

> <s_lp_Force_Field>
OPLS_2005

> <r_lp_Energy>
25.082

> <b_lp_Chiralities_Consistent>
1

> <s_lp_Variant>
AV-unprocessed.smi:2984-1

> <Gold.Version>
5.8.1

> <Gold.Id.Protein>
6NUR|6NUR_protein|mol2

> <Gold.PLP.Fitness>
48.2475

> <Gold.PLP.PLP>
-40.9528

> <Gold.PLP.part.hbond>
-3.7614

> <Gold.PLP.part.metal>
0.0000

> <Gold.PLP.part.buried>
-2.7762

> <Gold.PLP.part.nonpolar>
-34.7028

> <Gold.PLP.part.repulsive>
0.1505

> <Gold.PLP.ligand.clash>
0.0000

> <Gold.PLP.ligand.torsion>
0.2230

> <Gold.PLP.Chemscore.Hbond>
2.5760

> <Gold.PLP.Chemscore.CHOScore>
0.0000

> <Gold.PLP.Chemscore.Metal>
0.0000

> <Gold.Chemscore.Hbonds>
donor molecule, donor type, donor heavy atom, donor atom, acceptor molecule, acceptor atom, score
      P1  H  6896  6908       L1     5  0.83
      P1  H  6896  6909       L1     1  0.91
      P1  H  6931  6943       L1    12  0.36
      P1  H  6934  6947       L1    12  0.43

> <Gold.PLP.Chemscore.Internal.Correction>
0.0126

> <Gold.Rescore>
     Score         DG    S(hbond)    S(metal)    S(lipo)     H(rot)  DE(clash)    DE(int)     intcor
     18.38     -20.98       2.36        0.00     100.71       1.63       0.04       2.55       ----

> <Gold.Chemscore.Fitness>
18.3837

> <Gold.Chemscore.DG>
-20.9761

> <Gold.Chemscore.ZeroCoef>
-5.4800

> <Gold.Chemscore.Hbond>
2.3596

> <Gold.Chemscore.Metal>
0.0000

> <Gold.Chemscore.Lipo>
100.7138

> <Gold.Chemscore.Internal_Hbond>
0.0000

> <Gold.Chemscore.DEClash>
0.0407

> <Gold.Chemscore.DEInternal>
2.5517

> <Gold.Chemscore.Rot>
1.6283

> <Gold.Chemscore.Internal.Correction>
   9.000000E+99

> <Gold.Chemscore.Hbonds>
donor molecule, donor type, donor heavy atom, donor atom, acceptor molecule, acceptor atom, score
      P1  H  6896  6908       L1     5  0.03
      P1  H  6896  6909       L1     1  0.88
      P1  H  6931  6943       L1    12  0.30
      P1  H  6934  6947       L1    12  0.43

> <Gold.Chemscore.Hbond.Weighted>
-7.8810

> <Gold.Chemscore.Metal.Weighted>
-0.0000

> <Gold.Chemscore.Lipo.Weighted>
-11.7835

> <Gold.Chemscore.Internal_Hbond.Weighted>
0.0000

> <Gold.Chemscore.DEClash.Weighted>
0.0407

> <Gold.Chemscore.DEInternal.Weighted>
2.5517

> <Gold.Chemscore.Rot.Weighted>
4.1684

> <Gold.Chemscore.Internal.Correction.Weighted>
   9.000000E+99

> <Gold.Protein.RotatedTorsions>
[ 6907 6896 6895 6894 ] final  127.80 input  -60.11 | X-H torsion
[ 7974 7965 7964 7962 ] final   19.24 input  175.53 | X-H torsion
[ 8008 7997 7996 7995 ] final -179.08 input   59.86 | X-H torsion
[ 10167 10162 10161 10158 ] final   34.28 input  -65.29 | X-H torsion
[ 10718 10713 10712 10709 ] final  -10.75 input   66.30 | X-H torsion
[ 10763 10752 10751 10750 ] final -162.73 input  -60.55 | X-H torsion
[ 11005 11000 10999 10996 ] final  -33.06 input  -57.11 | X-H torsion

> <Gold.Protein.ActiveResidues>
 VAL166  LYS551  ARG553  GLY616  TRP617  ASP618  TYR619  PRO620  LYS621  CYS622 
 ASP623  PHE694  ASN695  SER759  ASP760  ASP761  ALA762  ILE779  LEU786  VAL792 
 PHE793  MET794  SER795  GLU796  ALA797  LYS798  CYS799  TRP800  GLU811  SER814 

> <Gold.Protein.RotatedAtoms>
  152.3778  133.6505  159.6137 H   0  0  0  0  0  0  0  0  0  0  0  0  # atno 6907 bound_to 6896
  150.7718  133.9163  159.3393 H   0  0  0  0  0  0  0  0  0  0  0  0  # atno 6908 bound_to 6896
  151.6974  135.0937  160.0296 H   0  0  0  0  0  0  0  0  0  0  0  0  # atno 6909 bound_to 6896
  146.2156  139.8341  142.8654 H   0  0  0  0  0  0  0  0  0  0  0  0  # atno 7974 bound_to 7965
  156.0264  140.1272  157.0304 H   0  0  0  0  0  0  0  0  0  0  0  0  # atno 8008 bound_to 7997
  154.4332  140.1058  156.6107 H   0  0  0  0  0  0  0  0  0  0  0  0  # atno 8009 bound_to 7997
  155.5871  140.3469  155.4558 H   0  0  0  0  0  0  0  0  0  0  0  0  # atno 8010 bound_to 7997
  140.4329  144.1298  150.6162 H   0  0  0  0  0  0  0  0  0  0  0  0  # atno 10167 bound_to 10162
  156.6690  130.5004  149.6006 H   0  0  0  0  0  0  0  0  0  0  0  0  # atno 10718 bound_to 10713
  154.7187  135.3021  154.9082 H   0  0  0  0  0  0  0  0  0  0  0  0  # atno 10763 bound_to 10752
  153.9961  135.6712  153.4760 H   0  0  0  0  0  0  0  0  0  0  0  0  # atno 10764 bound_to 10752
  153.0815  135.5006  154.8429 H   0  0  0  0  0  0  0  0  0  0  0  0  # atno 10765 bound_to 10752
  140.9603  133.7168  156.1359 H   0  0  0  0  0  0  0  0  0  0  0  0  # atno 11005 bound_to 11000
  145.2967  141.0182  143.3632 LP  0  0  0  0  0  0  0  0  0  0  0  0  # atno 17320 bound_to 7965
  144.9037  139.4617  143.6620 LP  0  0  0  0  0  0  0  0  0  0  0  0  # atno 17321 bound_to 7965
  140.4406  143.2528  151.9478 LP  0  0  0  0  0  0  0  0  0  0  0  0  # atno 17342 bound_to 10162
  139.4785  144.5658  151.8168 LP  0  0  0  0  0  0  0  0  0  0  0  0  # atno 17343 bound_to 10162
  156.1953  130.6585  151.1107 LP  0  0  0  0  0  0  0  0  0  0  0  0  # atno 17370 bound_to 10713
  157.7083  131.0746  150.6589 LP  0  0  0  0  0  0  0  0  0  0  0  0  # atno 17371 bound_to 10713
  140.7477  134.4080  157.5546 LP  0  0  0  0  0  0  0  0  0  0  0  0  # atno 17394 bound_to 11000
  139.8876  134.8879  156.2520 LP  0  0  0  0  0  0  0  0  0  0  0  0  # atno 17395 bound_to 11000

$$$$
