AV-unprocessed.smi:2356|AV-procd|sdf|9393|dock2
  -GOLD-   2272013 23D 1   1.00000     0.00000
 Structure written by MMmdl.
 53 56  0  0  0  0  0  0  0  0  1 V2000
  154.6535  141.3769  164.1170 C   0  0  0  0  0  0  0  0  0  0  0  0
  154.2494  141.1938  162.6638 C   0  0  0  0  0  0  0  0  0  0  0  0
  153.7266  142.2870  162.0680 N   0  0  0  0  0  0  0  0  0  0  0  0
  153.3309  142.2110  160.7762 C   0  0  0  0  0  0  0  0  0  0  0  0
  152.7899  143.3773  160.1990 N   0  0  0  0  0  0  0  0  0  0  0  0
  152.4474  143.4542  158.7881 C   0  0  0  0  0  0  0  0  0  0  0  0
  151.7546  144.8072  158.6284 C   0  0  0  0  0  0  0  0  0  0  0  0
  151.0658  145.0063  159.9780 C   0  0  0  0  0  0  0  0  0  0  0  0
  152.0086  144.3294  160.9789 C   0  0  0  0  0  0  0  0  0  0  0  0
  153.4603  141.0158  160.0314 C   0  0  0  0  0  0  0  0  0  0  0  0
  154.0038  139.8751  160.6516 C   0  0  0  0  0  0  0  0  0  0  0  0
  154.4158  139.9539  162.0030 C   0  0  0  0  0  0  0  0  0  0  0  0
  154.9573  138.8641  162.7410 N   0  0  0  0  0  0  0  0  0  0  0  0
  154.6191  137.5601  162.7439 C   0  0  0  0  0  0  0  0  0  0  0  0
  153.7731  137.0480  162.0151 O   0  0  0  0  0  0  0  0  0  0  0  0
  155.3168  136.8198  163.6253 N   0  0  0  0  0  0  0  0  0  0  0  0
  155.2075  135.3824  163.8891 C   0  0  2  0  0  0  0  0  0  0  0  0
  155.4326  134.5728  162.6016 C   0  0  0  0  0  0  0  0  0  0  0  0
  155.1823  133.0778  162.8483 C   0  0  0  0  0  0  0  0  0  0  0  0
  153.8706  132.8718  163.3679 O   0  0  0  0  0  0  0  0  0  0  0  0
  153.5927  133.5400  164.5993 C   0  0  1  0  0  0  0  0  0  0  0  0
  154.3608  132.9229  165.7611 C   0  0  0  0  0  0  0  0  0  0  0  0
  155.8705  132.9478  165.7803 C   0  0  0  0  0  0  0  0  0  0  0  0
  155.1397  131.6407  165.5836 C   0  0  0  0  0  0  0  0  0  0  0  0
  153.8146  135.0589  164.4509 C   0  0  0  0  0  0  0  0  0  0  0  0
  155.7152  141.1642  164.2462 H   0  0  0  0  0  0  0  0  0  0  0  0
  154.0856  140.7007  164.7568 H   0  0  0  0  0  0  0  0  0  0  0  0
  154.4713  142.3967  164.4586 H   0  0  0  0  0  0  0  0  0  0  0  0
  153.3311  143.3802  158.1536 H   0  0  0  0  0  0  0  0  0  0  0  0
  151.7664  142.6406  158.5347 H   0  0  0  0  0  0  0  0  0  0  0  0
  152.5002  145.5892  158.4782 H   0  0  0  0  0  0  0  0  0  0  0  0
  151.0621  144.8337  157.7867 H   0  0  0  0  0  0  0  0  0  0  0  0
  150.8819  146.0550  160.2125 H   0  0  0  0  0  0  0  0  0  0  0  0
  150.1049  144.4900  159.9744 H   0  0  0  0  0  0  0  0  0  0  0  0
  151.4457  143.8509  161.7815 H   0  0  0  0  0  0  0  0  0  0  0  0
  152.6876  145.0573  161.4240 H   0  0  0  0  0  0  0  0  0  0  0  0
  153.1484  140.9530  158.9998 H   0  0  0  0  0  0  0  0  0  0  0  0
  154.0787  138.9678  160.0745 H   0  0  0  0  0  0  0  0  0  0  0  0
  155.7152  139.1103  163.3604 H   0  0  0  0  0  0  0  0  0  0  0  0
  156.0081  137.3123  164.1726 H   0  0  0  0  0  0  0  0  0  0  0  0
  155.9463  135.0875  164.6353 H   0  0  0  0  0  0  0  0  0  0  0  0
  154.7573  134.9246  161.8202 H   0  0  0  0  0  0  0  0  0  0  0  0
  156.4459  134.7204  162.2269 H   0  0  0  0  0  0  0  0  0  0  0  0
  155.2726  132.5279  161.9115 H   0  0  0  0  0  0  0  0  0  0  0  0
  155.9332  132.6646  163.5219 H   0  0  0  0  0  0  0  0  0  0  0  0
  152.5319  133.3792  164.7956 H   0  0  0  0  0  0  0  0  0  0  0  0
  153.8851  133.0469  166.7315 H   0  0  0  0  0  0  0  0  0  0  0  0
  156.3815  133.3722  164.9183 H   0  0  0  0  0  0  0  0  0  0  0  0
  156.3563  133.1150  166.7394 H   0  0  0  0  0  0  0  0  0  0  0  0
  155.1399  130.9349  166.4117 H   0  0  0  0  0  0  0  0  0  0  0  0
  155.1666  131.1952  164.5911 H   0  0  0  0  0  0  0  0  0  0  0  0
  153.6650  135.5567  165.4099 H   0  0  0  0  0  0  0  0  0  0  0  0
  153.0538  135.4572  163.7777 H   0  0  0  0  0  0  0  0  0  0  0  0
  1  2  1  0  0  0  0
  1 26  1  0  0  0  0
  1 27  1  0  0  0  0
  1 28  1  0  0  0  0
  2 12  1  0  0  0  0
  2  3  2  0  0  0  0
  3  4  1  0  0  0  0
  4  5  1  0  0  0  0
  4 10  2  0  0  0  0
  5  9  1  0  0  0  0
  5  6  1  0  0  0  0
  6  7  1  0  0  0  0
  6 29  1  0  0  0  0
  6 30  1  0  0  0  0
  7  8  1  0  0  0  0
  7 31  1  0  0  0  0
  7 32  1  0  0  0  0
  8  9  1  0  0  0  0
  8 33  1  0  0  0  0
  8 34  1  0  0  0  0
  9 35  1  0  0  0  0
  9 36  1  0  0  0  0
 10 11  1  0  0  0  0
 10 37  1  0  0  0  0
 11 12  2  0  0  0  0
 11 38  1  0  0  0  0
 12 13  1  0  0  0  0
 13 14  1  0  0  0  0
 13 39  1  0  0  0  0
 14 15  2  0  0  0  0
 14 16  1  0  0  0  0
 16 17  1  0  0  0  0
 16 40  1  0  0  0  0
 17 25  1  0  0  0  0
 17 18  1  0  0  0  0
 17 41  1  0  0  0  0
 18 19  1  0  0  0  0
 18 42  1  0  0  0  0
 18 43  1  0  0  0  0
 19 20  1  0  0  0  0
 19 44  1  0  0  0  0
 19 45  1  0  0  0  0
 20 21  1  0  0  0  0
 21 22  1  0  0  0  0
 21 25  1  0  0  0  0
 21 46  1  0  0  0  0
 22 24  1  0  0  0  0
 22 23  1  0  0  0  0
 22 47  1  0  0  0  0
 23 24  1  0  0  0  0
 23 48  1  0  0  0  0
 23 49  1  0  0  0  0
 24 50  1  0  0  0  0
 24 51  1  0  0  0  0
 25 52  1  0  0  0  0
 25 53  1  0  0  0  0
M  END
> <s_m_source_file>
AV-unprocessed.smi

> <i_m_source_file_index>
2356

> <i_lp_mmshare_version>
43012

> <i_f3d_flags>
0

> <s_epik_input>
W0NIMl0xW0NIMl1bQ0gyXVtDSDJdTjFjKG5jMltDSDNdKVtjSF1bY0hdYzJbTkhdQyg9TylbTkhdW0NAQEhdM1tDSDJdW0NIMl1PW0NASF0oW0NIMl0zKVtDSF00W0NIMl1bQ0gyXTQ=

> <s_epik_cmdline>
J2VwaWtfcHl0aG9uJywgJy1waCcsICc3LjAnLCAnLXRuJywgJzgnLCAnLW1hJywgJzIwMCcsICctbWV0YWxfYmluZGluZycsICctaW1hZScsICc8aW5maWxlLm1hZT4nLCAnLW9tYWUnLCAnPG91dGZpbGUubWFlPic=

> <r_lp_tautomer_probability>
1

> <r_epik_Ionization_Penalty>
0.308781

> <r_epik_Ionization_Penalty_Charging>
0

> <r_epik_Ionization_Penalty_Neutral>
0.308781

> <r_epik_State_Penalty>
0.302092

> <r_epik_Charging_Adjusted_Penalty>
0.302092

> <i_epik_Tot_Q>
0

> <i_epik_Tot_abs_Q>
0

> <r_epik_Metal_State_Penalty>
0.197467

> <b_epik_Metal_Only>
0

> <s_lp_Force_Field>
OPLS_2005

> <r_lp_Energy>
55.4092

> <b_lp_Chiralities_Consistent>
1

> <s_lp_Variant>
AV-unprocessed.smi:2356-1

> <Gold.Version>
5.8.1

> <Gold.Id.Protein>
6NUR|6NUR_protein|mol2

> <Gold.PLP.Fitness>
48.5727

> <Gold.PLP.PLP>
-49.7826

> <Gold.PLP.part.hbond>
-1.0000

> <Gold.PLP.part.metal>
0.0000

> <Gold.PLP.part.buried>
-1.0544

> <Gold.PLP.part.nonpolar>
-47.6118

> <Gold.PLP.part.repulsive>
0.0195

> <Gold.PLP.ligand.clash>
0.0000

> <Gold.PLP.ligand.torsion>
1.2408

> <Gold.PLP.Chemscore.Hbond>
0.0000

> <Gold.PLP.Chemscore.CHOScore>
0.0000

> <Gold.PLP.Chemscore.Metal>
0.0000

> <Gold.PLP.Chemscore.Internal.Correction>
1.2716

> <Gold.Rescore>
     Score         DG    S(hbond)    S(metal)    S(lipo)     H(rot)  DE(clash)    DE(int)     intcor
     15.79     -18.92       0.00        0.00     139.81       1.14       0.15       2.98       ----

> <Gold.Chemscore.Fitness>
15.7905

> <Gold.Chemscore.DG>
-18.9203

> <Gold.Chemscore.ZeroCoef>
-5.4800

> <Gold.Chemscore.Hbond>
0.0000

> <Gold.Chemscore.Metal>
0.0000

> <Gold.Chemscore.Lipo>
139.8068

> <Gold.Chemscore.Internal_Hbond>
0.0000

> <Gold.Chemscore.DEClash>
0.1497

> <Gold.Chemscore.DEInternal>
2.9801

> <Gold.Chemscore.Rot>
1.1395

> <Gold.Chemscore.Internal.Correction>
   9.000000E+99

> <Gold.Chemscore.Hbond.Weighted>
-0.0000

> <Gold.Chemscore.Metal.Weighted>
-0.0000

> <Gold.Chemscore.Lipo.Weighted>
-16.3574

> <Gold.Chemscore.Internal_Hbond.Weighted>
0.0000

> <Gold.Chemscore.DEClash.Weighted>
0.1497

> <Gold.Chemscore.DEInternal.Weighted>
2.9801

> <Gold.Chemscore.Rot.Weighted>
2.9171

> <Gold.Chemscore.Internal.Correction.Weighted>
   9.000000E+99

> <Gold.Protein.RotatedTorsions>
[ 6907 6896 6895 6894 ] final -127.96 input  -60.11 | X-H torsion
[ 7974 7965 7964 7962 ] final -102.69 input  175.53 | X-H torsion
[ 8008 7997 7996 7995 ] final  -37.58 input   59.86 | X-H torsion
[ 10167 10162 10161 10158 ] final   97.17 input  -65.29 | X-H torsion
[ 10718 10713 10712 10709 ] final -127.86 input   66.30 | X-H torsion
[ 10763 10752 10751 10750 ] final   49.14 input  -60.55 | X-H torsion
[ 11005 11000 10999 10996 ] final  161.32 input  -57.11 | X-H torsion

> <Gold.Protein.ActiveResidues>
 VAL166  LYS551  ARG553  GLY616  TRP617  ASP618  TYR619  PRO620  LYS621  CYS622 
 ASP623  PHE694  ASN695  SER759  ASP760  ASP761  ALA762  ILE779  LEU786  VAL792 
 PHE793  MET794  SER795  GLU796  ALA797  LYS798  CYS799  TRP800  GLU811  SER814 

> <Gold.Protein.RotatedAtoms>
  150.9128  133.6976  159.2850 H   0  0  0  0  0  0  0  0  0  0  0  0  # atno 6907 bound_to 6896
  151.4457  135.1023  159.9693 H   0  0  0  0  0  0  0  0  0  0  0  0  # atno 6908 bound_to 6896
  152.4939  133.8526  159.7264 H   0  0  0  0  0  0  0  0  0  0  0  0  # atno 6909 bound_to 6896
  145.2654  140.9282  143.3016 H   0  0  0  0  0  0  0  0  0  0  0  0  # atno 7974 bound_to 7965
  154.4051  140.1600  156.2561 H   0  0  0  0  0  0  0  0  0  0  0  0  # atno 8008 bound_to 7997
  155.9077  140.3429  155.6052 H   0  0  0  0  0  0  0  0  0  0  0  0  # atno 8009 bound_to 7997
  155.7373  140.0788  157.2252 H   0  0  0  0  0  0  0  0  0  0  0  0  # atno 8010 bound_to 7997
  139.7826  144.6883  151.0002 H   0  0  0  0  0  0  0  0  0  0  0  0  # atno 10167 bound_to 10162
  156.1896  130.6786  151.0408 H   0  0  0  0  0  0  0  0  0  0  0  0  # atno 10718 bound_to 10713
  152.9788  135.5921  154.4040 H   0  0  0  0  0  0  0  0  0  0  0  0  # atno 10763 bound_to 10752
  154.3682  135.2767  155.2283 H   0  0  0  0  0  0  0  0  0  0  0  0  # atno 10764 bound_to 10752
  154.4250  135.6050  153.6088 H   0  0  0  0  0  0  0  0  0  0  0  0  # atno 10765 bound_to 10752
  140.2146  134.8242  157.3157 H   0  0  0  0  0  0  0  0  0  0  0  0  # atno 11005 bound_to 11000
  144.9381  139.4220  143.6462 LP  0  0  0  0  0  0  0  0  0  0  0  0  # atno 17320 bound_to 7965
  146.3262  139.8327  142.8905 LP  0  0  0  0  0  0  0  0  0  0  0  0  # atno 17321 bound_to 7965
  140.7819  143.4467  151.0472 LP  0  0  0  0  0  0  0  0  0  0  0  0  # atno 17342 bound_to 10162
  139.8147  143.7902  152.3173 LP  0  0  0  0  0  0  0  0  0  0  0  0  # atno 17343 bound_to 10162
  157.6921  131.0806  150.7078 LP  0  0  0  0  0  0  0  0  0  0  0  0  # atno 17370 bound_to 10713
  156.7134  130.4659  149.5541 LP  0  0  0  0  0  0  0  0  0  0  0  0  # atno 17371 bound_to 10713
  140.1914  134.4367  155.7713 LP  0  0  0  0  0  0  0  0  0  0  0  0  # atno 17394 bound_to 11000
  141.2225  133.7029  156.8034 LP  0  0  0  0  0  0  0  0  0  0  0  0  # atno 17395 bound_to 11000

$$$$
