#       Name:                AV-unprocessed.smi:2893
#       Creating user name   scv26
#       Creation time:       Fri Mar 27 15:59:41 2020


#       File generated by GOLD software.
#

@<TRIPOS>MOLECULE
AV-unprocessed.smi:2893
    43    45     1
SMALL
NO_CHARGES


@<TRIPOS>ATOM
      1 ****        -6.1957  -0.6618   0.8712 C.3            1 S1                 0.0000
      2 ****        -5.7106  -0.6778  -0.5844 C.3            1 S1                 0.0000
      3 ****        -4.2687  -0.4809  -0.6710 N.am           1 S1                 0.0000
      4 ****        -3.6426   0.7075  -0.6186 C.2            1 S1                 0.0000
      5 ****        -4.2381   1.7797  -0.5052 O.2            1 S1                 0.0000
      6 ****        -2.1439   0.6663  -0.7533 C.ar           1 S1                 0.0000
      7 ****        -1.4327   1.8298  -1.1187 C.ar           1 S1                 0.0000
      8 ****        -0.0336   1.7404  -1.2167 C.ar           1 S1                 0.0000
      9 ****         0.5645   0.4973  -0.9369 C.ar           1 S1                 0.0000
     10 ****         1.9586   0.3807  -1.0273 N.pl3          1 S1                 0.0000
     11 ****         2.6509  -0.7688  -0.4523 C.3            1 S1                 0.0000
     12 ****         4.1488  -0.7867  -0.7664 C.3            1 S1                 0.0000
     13 ****         4.7637  -0.9223   0.6341 C.3            1 S1                 0.0000
     14 ****         4.6883   0.3976   1.4122 C.3            1 S1                 0.0000
     15 ****         3.1988   0.4794   1.7398 C.3            1 S1                 0.0000
     16 ****         2.6577  -0.8058   1.0894 C.3            1 S1                 0.0000
     17 ****         3.7606  -1.6713   1.3001 O.3            1 S1                 0.0000
     18 ****        -0.1714  -0.5860  -0.5878 N.ar           1 S1                 0.0000
     19 ****        -1.5025  -0.5014  -0.4938 N.ar           1 S1                 0.0000
     20 ****        -7.2692  -0.8441   0.9230 H              1 S1                 0.0000
     21 ****        -6.0011   0.3010   1.3446 H              1 S1                 0.0000
     22 ****        -5.6987  -1.4326   1.4608 H              1 S1                 0.0000
     23 ****        -5.9506  -1.6383  -1.0407 H              1 S1                 0.0000
     24 ****        -6.2330   0.0823  -1.1676 H              1 S1                 0.0000
     25 ****        -3.6980  -1.3077  -0.7771 H              1 S1                 0.0000
     26 ****        -1.9363   2.7640  -1.3206 H              1 S1                 0.0000
     27 ****         0.5579   2.6005  -1.4943 H              1 S1                 0.0000
     28 ****         2.5022   1.2051  -1.2378 H              1 S1                 0.0000
     29 ****         2.2069  -1.6881  -0.8371 H              1 S1                 0.0000
     30 ****         4.3940  -1.6506  -1.3850 H              1 S1                 0.0000
     31 ****         4.5023   0.1078  -1.2818 H              1 S1                 0.0000
     32 ****         5.7512  -1.3844   0.6418 H              1 S1                 0.0000
     33 ****         5.2787   0.3447   2.3277 H              1 S1                 0.0000
     34 ****         5.0411   1.2468   0.8260 H              1 S1                 0.0000
     35 ****         3.0478   0.4545   2.8195 H              1 S1                 0.0000
     36 ****         2.7275   1.3849   1.3572 H              1 S1                 0.0000
     37 ****         1.7253  -1.1616   1.5285 H              1 S1                 0.0000
     38 ****        -5.2363   1.7935  -0.4473 LP             1 S1                 0.0000
     39 ****        -3.7234   2.6364  -0.4711 LP             1 S1                 0.0000
     40 ****         3.9642  -1.7889   2.2720 LP             1 S1                 0.0000
     41 ****         3.6198  -2.5670   0.8783 LP             1 S1                 0.0000
     42 ****         0.2848  -1.4556  -0.3990 LP             1 S1                 0.0000
     43 ****        -2.0315  -1.3077  -0.2293 LP             1 S1                 0.0000
@<TRIPOS>BOND
    1    1    2 1     
    2    1   20 1     
    3    1   21 1     
    4    1   22 1     
    5    2    3 1     
    6    2   23 1     
    7    2   24 1     
    8    3    4 am    
    9    3   25 1     
   10    4    5 2     
   11    4    6 1     
   12    6   19 ar    
   13    6    7 ar    
   14    7    8 ar    
   15    7   26 1     
   16    8    9 ar    
   17    8   27 1     
   18    9   10 1     
   19    9   18 ar    
   20   10   11 1     
   21   10   28 1     
   22   11   16 1     
   23   11   12 1     
   24   11   29 1     
   25   12   13 1     
   26   12   30 1     
   27   12   31 1     
   28   13   17 1     
   29   13   14 1     
   30   13   32 1     
   31   14   15 1     
   32   14   33 1     
   33   14   34 1     
   34   15   16 1     
   35   15   35 1     
   36   15   36 1     
   37   16   17 1     
   38   16   37 1     
   39   18   19 ar    
   40    5   38 1     
   41    5   39 1     
   42   17   40 1     
   43   17   41 1     
   44   18   42 1     
   45   19   43 1     
@<TRIPOS>SUBSTRUCTURE
      1 S1             1
@<TRIPOS>SET
LONE_PAIRS      STATIC     ATOMS    <user>   **** ""
6 38 39 40 41 42 43
DONOR_HYDROGENS      STATIC     ATOMS    <user>   **** ""
2 25 28
ATOM$BLUE        STATIC     ATOMS    COLORGROUP SYSTEM
6 38 39 40 41 42 43
ATOM$RED        STATIC     ATOMS    COLORGROUP SYSTEM
2 25 28
