AV-unprocessed.smi:2299|AV-procd|sdf|9229|dock3
  -GOLD-   2272012443D 1   1.00000     0.00000
 Structure written by MMmdl.
 43 44  0  0  0  0  0  0  0  0  2 V2000
  146.5855  138.4460  151.8843 C   0  0  0  0  0  0  0  0  0  0  0  0
  146.7772  138.5084  153.4066 C   0  0  0  0  0  0  0  0  0  0  0  0
  145.5358  137.9892  154.1500 C   0  0  0  0  0  0  0  0  0  0  0  0
  147.1675  139.8921  153.8498 C   0  0  0  0  0  0  0  0  0  0  0  0
  146.4603  141.0061  153.6202 N   0  3  0  0  0  0  0  0  0  0  0  0
  147.1039  142.0999  154.1294 C   0  0  0  0  0  0  0  0  0  0  0  0
  148.2701  141.6389  154.6791 C   0  0  0  0  0  0  0  0  0  0  0  0
  148.2918  140.2808  154.4819 N   0  0  0  0  0  0  0  0  0  0  0  0
  149.3669  139.3730  154.9068 C   0  0  0  0  0  0  0  0  0  0  0  0
  150.5252  140.1513  155.5319 C   0  0  0  0  0  0  0  0  0  0  0  0
  151.5823  140.2843  154.9162 O   0  0  0  0  0  0  0  0  0  0  0  0
  150.3179  140.6433  156.7639 N   0  0  0  0  0  0  0  0  0  0  0  0
  151.3035  141.3677  157.5692 C   0  0  1  0  0  0  0  0  0  0  0  0
  150.6910  142.7430  157.9210 C   0  0  0  0  0  0  0  0  0  0  0  0
  151.7317  143.8134  158.2920 C   0  0  0  0  0  0  0  0  0  0  0  0
  152.5200  143.5299  159.5793 C   0  0  0  0  0  0  0  0  0  0  0  0
  153.3782  142.2558  159.5079 C   0  0  0  0  0  0  0  0  0  0  0  0
  152.5826  141.0476  159.6832 N   0  0  0  0  0  0  0  0  0  0  0  0
  151.6124  140.5958  158.8740 C   0  0  0  0  0  0  0  0  0  0  0  0
  150.9777  139.5828  159.1699 O   0  0  0  0  0  0  0  0  0  0  0  0
  147.4897  138.7522  151.3577 H   0  0  0  0  0  0  0  0  0  0  0  0
  145.7753  139.1001  151.5601 H   0  0  0  0  0  0  0  0  0  0  0  0
  146.3452  137.4331  151.5604 H   0  0  0  0  0  0  0  0  0  0  0  0
  147.6065  137.8557  153.6774 H   0  0  0  0  0  0  0  0  0  0  0  0
  145.6913  138.0016  155.2293 H   0  0  0  0  0  0  0  0  0  0  0  0
  145.3103  136.9616  153.8637 H   0  0  0  0  0  0  0  0  0  0  0  0
  144.6534  138.5918  153.9313 H   0  0  0  0  0  0  0  0  0  0  0  0
  146.6958  143.0978  154.0613 H   0  0  0  0  0  0  0  0  0  0  0  0
  149.0688  142.1636  155.1832 H   0  0  0  0  0  0  0  0  0  0  0  0
  148.9756  138.6397  155.6116 H   0  0  0  0  0  0  0  0  0  0  0  0
  149.7031  138.8186  154.0292 H   0  0  0  0  0  0  0  0  0  0  0  0
  149.4187  140.4811  157.1935 H   0  0  0  0  0  0  0  0  0  0  0  0
  152.2167  141.4988  156.9853 H   0  0  0  0  0  0  0  0  0  0  0  0
  150.1441  143.1194  157.0550 H   0  0  0  0  0  0  0  0  0  0  0  0
  149.9487  142.6482  158.7158 H   0  0  0  0  0  0  0  0  0  0  0  0
  152.4269  143.9468  157.4621 H   0  0  0  0  0  0  0  0  0  0  0  0
  151.2197  144.7694  158.4050 H   0  0  0  0  0  0  0  0  0  0  0  0
  153.1775  144.3794  159.7670 H   0  0  0  0  0  0  0  0  0  0  0  0
  151.8433  143.4819  160.4337 H   0  0  0  0  0  0  0  0  0  0  0  0
  153.9437  142.2105  158.5760 H   0  0  0  0  0  0  0  0  0  0  0  0
  154.1140  142.2746  160.3122 H   0  0  0  0  0  0  0  0  0  0  0  0
  152.7664  140.5134  160.5203 H   0  0  0  0  0  0  0  0  0  0  0  0
  145.5685  141.0297  153.1419 H   0  0  0  0  0  0  0  0  0  0  0  0
  1  2  1  0  0  0  0
  1 21  1  0  0  0  0
  1 22  1  0  0  0  0
  1 23  1  0  0  0  0
  2  3  1  0  0  0  0
  2  4  1  0  0  0  0
  2 24  1  0  0  0  0
  3 25  1  0  0  0  0
  3 26  1  0  0  0  0
  3 27  1  0  0  0  0
  4  8  1  0  0  0  0
  4  5  2  0  0  0  0
  5  6  1  0  0  0  0
  5 43  1  0  0  0  0
  6  7  2  0  0  0  0
  6 28  1  0  0  0  0
  7  8  1  0  0  0  0
  7 29  1  0  0  0  0
  8  9  1  0  0  0  0
  9 10  1  0  0  0  0
  9 30  1  0  0  0  0
  9 31  1  0  0  0  0
 10 11  2  0  0  0  0
 10 12  1  0  0  0  0
 12 13  1  0  0  0  0
 12 32  1  0  0  0  0
 13 19  1  0  0  0  0
 13 14  1  0  0  0  0
 13 33  1  0  0  0  0
 14 15  1  0  0  0  0
 14 34  1  0  0  0  0
 14 35  1  0  0  0  0
 15 16  1  0  0  0  0
 15 36  1  0  0  0  0
 15 37  1  0  0  0  0
 16 17  1  0  0  0  0
 16 38  1  0  0  0  0
 16 39  1  0  0  0  0
 17 18  1  0  0  0  0
 17 40  1  0  0  0  0
 17 41  1  0  0  0  0
 18 19  1  0  0  0  0
 18 42  1  0  0  0  0
 19 20  2  0  0  0  0
M  CHG  1   5   1
M  END
> <s_m_source_file>
AV-unprocessed.smi

> <i_m_source_file_index>
2299

> <i_lp_mmshare_version>
43012

> <i_f3d_flags>
0

> <s_epik_input>
W0NIM11bQ0hdKFtDSDNdKWMxbltjSF1bY0hdbjFbQ0gyXUMoPU8pW05IXVtDQEBIXTJbQ0gyXVtDSDJdW0NIMl1bQ0gyXVtOSF1DMj1P

> <s_epik_cmdline>
J2VwaWtfcHl0aG9uJywgJy1waCcsICc3LjAnLCAnLXRuJywgJzgnLCAnLW1hJywgJzIwMCcsICctbWV0YWxfYmluZGluZycsICctaW1hZScsICc8aW5maWxlLm1hZT4nLCAnLW9tYWUnLCAnPG91dGZpbGUubWFlPic=

> <r_lp_tautomer_probability>
1

> <r_epik_Ionization_Penalty>
0.292878

> <r_epik_Ionization_Penalty_Charging>
0

> <r_epik_Ionization_Penalty_Neutral>
0.292878

> <r_epik_State_Penalty>
0.286008

> <r_epik_Charging_Adjusted_Penalty>
0.286008

> <i_epik_Tot_Q>
1

> <i_epik_Tot_abs_Q>
1

> <r_epik_Metal_State_Penalty>
0.563502

> <b_epik_Metal_Only>
0

> <s_lp_Force_Field>
OPLS_2005

> <r_lp_Energy>
15.0936

> <b_lp_Chiralities_Consistent>
1

> <s_lp_Variant>
AV-unprocessed.smi:2299-2

> <Gold.Version>
5.8.1

> <Gold.Id.Protein>
6NUR|6NUR_protein|mol2

> <Gold.PLP.Fitness>
49.4191

> <Gold.PLP.PLP>
-39.2192

> <Gold.PLP.part.hbond>
-1.7243

> <Gold.PLP.part.metal>
0.0000

> <Gold.PLP.part.buried>
-5.2185

> <Gold.PLP.part.nonpolar>
-35.0822

> <Gold.PLP.part.repulsive>
0.2540

> <Gold.PLP.ligand.clash>
0.0000

> <Gold.PLP.ligand.torsion>
0.2213

> <Gold.PLP.Chemscore.Hbond>
2.7563

> <Gold.PLP.Chemscore.CHOScore>
0.7732

> <Gold.PLP.Chemscore.Metal>
0.0000

> <Gold.Chemscore.Hbonds>
donor molecule, donor type, donor heavy atom, donor atom, acceptor molecule, acceptor atom, score
      L1  H     5    43       P1 10175  1.85
      P1  H  7989  7998       L1    11  0.97
      L1  C     7    29       P1  8028  0.66

> <Gold.PLP.Chemscore.Internal.Correction>
0.0542

> <Gold.Rescore>
     Score         DG    S(hbond)    S(metal)    S(lipo)     H(rot)  DE(clash)    DE(int)     intcor
     16.16     -16.66       1.95        0.00      78.24       1.75       0.01       0.49       ----

> <Gold.Chemscore.Fitness>
16.1635

> <Gold.Chemscore.DG>
-16.6644

> <Gold.Chemscore.ZeroCoef>
-5.4800

> <Gold.Chemscore.Hbond>
1.9498

> <Gold.Chemscore.Metal>
0.0000

> <Gold.Chemscore.Lipo>
78.2417

> <Gold.Chemscore.Internal_Hbond>
0.0000

> <Gold.Chemscore.DEClash>
0.0077

> <Gold.Chemscore.DEInternal>
0.4932

> <Gold.Chemscore.Rot>
1.7508

> <Gold.Chemscore.Internal.Correction>
   9.000000E+99

> <Gold.Chemscore.Hbonds>
donor molecule, donor type, donor heavy atom, donor atom, acceptor molecule, acceptor atom, score
      L1  H     5    43       P1 10175  0.31
      P1  H  7989  7998       L1    11  0.86

> <Gold.Chemscore.Hbond.Weighted>
-6.5122

> <Gold.Chemscore.Metal.Weighted>
-0.0000

> <Gold.Chemscore.Lipo.Weighted>
-9.1543

> <Gold.Chemscore.Internal_Hbond.Weighted>
0.0000

> <Gold.Chemscore.DEClash.Weighted>
0.0077

> <Gold.Chemscore.DEInternal.Weighted>
0.4932

> <Gold.Chemscore.Rot.Weighted>
4.4821

> <Gold.Chemscore.Internal.Correction.Weighted>
   9.000000E+99

> <Gold.Protein.RotatedTorsions>
[ 6907 6896 6895 6894 ] final -124.10 input  -60.11 | X-H torsion
[ 7974 7965 7964 7962 ] final  -71.78 input  175.53 | X-H torsion
[ 8008 7997 7996 7995 ] final   86.49 input   59.86 | X-H torsion
[ 10167 10162 10161 10158 ] final -113.99 input  -65.29 | X-H torsion
[ 10718 10713 10712 10709 ] final  -35.21 input   66.30 | X-H torsion
[ 10763 10752 10751 10750 ] final   88.69 input  -60.55 | X-H torsion
[ 11005 11000 10999 10996 ] final  111.06 input  -57.11 | X-H torsion

> <Gold.Protein.ActiveResidues>
 VAL166  LYS551  ARG553  GLY616  TRP617  ASP618  TYR619  PRO620  LYS621  CYS622 
 ASP623  PHE694  ASN695  SER759  ASP760  ASP761  ALA762  ILE779  LEU786  VAL792 
 PHE793  MET794  SER795  GLU796  ALA797  LYS798  CYS799  TRP800  GLU811  SER814 

> <Gold.Protein.RotatedAtoms>
  150.8735  133.7471  159.2953 H   0  0  0  0  0  0  0  0  0  0  0  0  # atno 6907 bound_to 6896
  151.5075  135.1062  159.9855 H   0  0  0  0  0  0  0  0  0  0  0  0  # atno 6908 bound_to 6896
  152.4712  133.7988  159.6997 H   0  0  0  0  0  0  0  0  0  0  0  0  # atno 6909 bound_to 6896
  145.6736  140.9212  143.0870 H   0  0  0  0  0  0  0  0  0  0  0  0  # atno 7974 bound_to 7965
  155.9634  140.3391  155.6511 H   0  0  0  0  0  0  0  0  0  0  0  0  # atno 8008 bound_to 7997
  155.6768  140.0733  157.2518 H   0  0  0  0  0  0  0  0  0  0  0  0  # atno 8009 bound_to 7997
  154.4148  140.1681  156.1927 H   0  0  0  0  0  0  0  0  0  0  0  0  # atno 8010 bound_to 7997
  140.1058  143.4571  152.1783 H   0  0  0  0  0  0  0  0  0  0  0  0  # atno 10167 bound_to 10162
  156.3414  130.4294  149.7784 H   0  0  0  0  0  0  0  0  0  0  0  0  # atno 10718 bound_to 10713
  153.1794  135.4497  155.0008 H   0  0  0  0  0  0  0  0  0  0  0  0  # atno 10763 bound_to 10752
  154.8020  135.3259  154.7529 H   0  0  0  0  0  0  0  0  0  0  0  0  # atno 10764 bound_to 10752
  153.7995  135.6963  153.4913 H   0  0  0  0  0  0  0  0  0  0  0  0  # atno 10765 bound_to 10752
  139.8895  134.9499  156.6374 H   0  0  0  0  0  0  0  0  0  0  0  0  # atno 11005 bound_to 11000
  144.7049  139.8604  143.7433 LP  0  0  0  0  0  0  0  0  0  0  0  0  # atno 17320 bound_to 7965
  146.1024  139.4021  143.0338 LP  0  0  0  0  0  0  0  0  0  0  0  0  # atno 17321 bound_to 7965
  139.5646  144.7427  151.4059 LP  0  0  0  0  0  0  0  0  0  0  0  0  # atno 17342 bound_to 10162
  140.6953  143.7764  150.7317 LP  0  0  0  0  0  0  0  0  0  0  0  0  # atno 17343 bound_to 10162
  156.5019  130.8133  151.3136 LP  0  0  0  0  0  0  0  0  0  0  0  0  # atno 17370 bound_to 10713
  157.7447  130.9942  150.2698 LP  0  0  0  0  0  0  0  0  0  0  0  0  # atno 17371 bound_to 10713
  140.7620  133.8809  155.8425 LP  0  0  0  0  0  0  0  0  0  0  0  0  # atno 17394 bound_to 11000
  140.9914  134.1273  157.4404 LP  0  0  0  0  0  0  0  0  0  0  0  0  # atno 17395 bound_to 11000

$$$$
