AV-unprocessed.smi:1108|AV-procd|sdf|4788|dock4
  -GOLD-   22720 3333D 1   1.00000     0.00000
 Structure written by MMmdl.
 31 32  0  0  0  0  0  0  0  0  1 V2000
  148.5567  141.4021  155.5066 C   0  0  0  0  0  0  0  0  0  0  0  0
  149.2629  141.6547  156.8457 C   0  0  1  0  0  0  0  0  0  0  0  0
  150.7831  141.8430  156.6508 C   0  0  0  0  0  0  0  0  0  0  0  0
  151.3728  142.7260  157.6416 N   0  0  0  0  0  0  0  0  0  0  0  0
  151.4663  144.1016  157.6157 C   0  0  0  0  0  0  0  0  0  0  0  0
  152.0830  144.4885  158.7706 C   0  0  0  0  0  0  0  0  0  0  0  0
  152.3374  143.2615  159.4448 C   0  0  0  0  0  0  0  0  0  0  0  0
  151.9161  142.2078  158.7642 N   0  0  0  0  0  0  0  0  0  0  0  0
  148.6696  142.8314  157.4810 N   0  0  0  0  0  0  0  0  0  0  0  0
  147.8958  142.8214  158.5766 C   0  0  0  0  0  0  0  0  0  0  0  0
  147.5665  141.8011  159.1817 O   0  0  0  0  0  0  0  0  0  0  0  0
  147.5386  144.0595  158.9417 N   0  0  0  0  0  0  0  0  0  0  0  0
  146.7392  144.3860  160.0780 C   0  0  0  0  0  0  0  0  0  0  0  0
  146.5726  145.8502  160.4228 C   0  0  0  0  0  0  0  0  0  0  0  0
  147.4385  144.9731  161.2846 C   0  0  0  0  0  0  0  0  0  0  0  0
  148.9508  140.5102  155.0184 H   0  0  0  0  0  0  0  0  0  0  0  0
  148.6876  142.2410  154.8222 H   0  0  0  0  0  0  0  0  0  0  0  0
  147.4862  141.2513  155.6493 H   0  0  0  0  0  0  0  0  0  0  0  0
  149.0950  140.7735  157.4679 H   0  0  0  0  0  0  0  0  0  0  0  0
  151.2922  140.8802  156.7143 H   0  0  0  0  0  0  0  0  0  0  0  0
  150.9953  142.2410  155.6574 H   0  0  0  0  0  0  0  0  0  0  0  0
  151.0835  144.6839  156.7904 H   0  0  0  0  0  0  0  0  0  0  0  0
  152.3156  145.4945  159.0864 H   0  0  0  0  0  0  0  0  0  0  0  0
  152.8133  143.1058  160.4018 H   0  0  0  0  0  0  0  0  0  0  0  0
  148.8788  143.7244  157.0597 H   0  0  0  0  0  0  0  0  0  0  0  0
  147.8612  144.8318  158.3774 H   0  0  0  0  0  0  0  0  0  0  0  0
  145.8820  143.7473  160.2859 H   0  0  0  0  0  0  0  0  0  0  0  0
  147.0716  146.5829  159.7913 H   0  0  0  0  0  0  0  0  0  0  0  0
  145.6125  146.1628  160.8286 H   0  0  0  0  0  0  0  0  0  0  0  0
  147.0573  144.6989  162.2662 H   0  0  0  0  0  0  0  0  0  0  0  0
  148.5157  145.1185  161.2280 H   0  0  0  0  0  0  0  0  0  0  0  0
  1  2  1  0  0  0  0
  1 16  1  0  0  0  0
  1 17  1  0  0  0  0
  1 18  1  0  0  0  0
  2  3  1  0  0  0  0
  2  9  1  0  0  0  0
  2 19  1  0  0  0  0
  3  4  1  0  0  0  0
  3 20  1  0  0  0  0
  3 21  1  0  0  0  0
  4  8  1  0  0  0  0
  4  5  1  0  0  0  0
  5  6  2  0  0  0  0
  5 22  1  0  0  0  0
  6  7  1  0  0  0  0
  6 23  1  0  0  0  0
  7  8  2  0  0  0  0
  7 24  1  0  0  0  0
  9 10  1  0  0  0  0
  9 25  1  0  0  0  0
 10 11  2  0  0  0  0
 10 12  1  0  0  0  0
 12 13  1  0  0  0  0
 12 26  1  0  0  0  0
 13 15  1  0  0  0  0
 13 14  1  0  0  0  0
 13 27  1  0  0  0  0
 14 15  1  0  0  0  0
 14 28  1  0  0  0  0
 14 29  1  0  0  0  0
 15 30  1  0  0  0  0
 15 31  1  0  0  0  0
M  END
> <s_m_source_file>
AV-unprocessed.smi

> <i_m_source_file_index>
1108

> <i_lp_mmshare_version>
43012

> <i_f3d_flags>
0

> <s_epik_input>
W0NIMl0xW0NIMl1bQ0hdMVtOSF1DKD1PKVtOSF1bQ0BIXShbQ0gzXSlbQ0gyXW4yW2NIXVtjSF1bY0hdbjI=

> <s_epik_cmdline>
J2VwaWtfcHl0aG9uJywgJy1waCcsICc3LjAnLCAnLXRuJywgJzgnLCAnLW1hJywgJzIwMCcsICctbWV0YWxfYmluZGluZycsICctaW1hZScsICc8aW5maWxlLm1hZT4nLCAnLW9tYWUnLCAnPG91dGZpbGUubWFlPic=

> <r_lp_tautomer_probability>
1

> <r_epik_Ionization_Penalty>
7.55353e-05

> <r_epik_Ionization_Penalty_Charging>
0

> <r_epik_Ionization_Penalty_Neutral>
7.55353e-05

> <r_epik_State_Penalty>
-0

> <r_epik_Charging_Adjusted_Penalty>
0

> <i_epik_Tot_Q>
0

> <i_epik_Tot_abs_Q>
0

> <r_epik_Metal_State_Penalty>
-0

> <b_epik_Metal_Only>
0

> <s_lp_Force_Field>
OPLS_2005

> <r_lp_Energy>
13.7301

> <b_lp_Chiralities_Consistent>
1

> <s_lp_Variant>
AV-unprocessed.smi:1108-2

> <Gold.Version>
5.8.1

> <Gold.Id.Protein>
6NUR|6NUR_protein|mol2

> <Gold.PLP.Fitness>
40.0930

> <Gold.PLP.PLP>
-32.1303

> <Gold.PLP.part.hbond>
-4.3948

> <Gold.PLP.part.metal>
0.0000

> <Gold.PLP.part.buried>
-1.6051

> <Gold.PLP.part.nonpolar>
-27.1097

> <Gold.PLP.part.repulsive>
0.1525

> <Gold.PLP.ligand.clash>
0.0000

> <Gold.PLP.ligand.torsion>
0.9579

> <Gold.PLP.Chemscore.Hbond>
2.2800

> <Gold.PLP.Chemscore.CHOScore>
0.9954

> <Gold.PLP.Chemscore.Metal>
0.0000

> <Gold.Chemscore.Hbonds>
donor molecule, donor type, donor heavy atom, donor atom, acceptor molecule, acceptor atom, score
      L1  H     9    25       P1  8028  0.99
      L1  H    12    26       P1  8029  1.00
      P1  H  6934  6946       L1    11  0.35
      L1  C     5    22       P1  8028  1.00

> <Gold.PLP.Chemscore.Internal.Correction>
0.0524

> <Gold.Rescore>
     Score         DG    S(hbond)    S(metal)    S(lipo)     H(rot)  DE(clash)    DE(int)     intcor
     13.30     -14.24       1.53        0.00      68.68       1.71       0.19       0.74       ----

> <Gold.Chemscore.Fitness>
13.3046

> <Gold.Chemscore.DG>
-14.2383

> <Gold.Chemscore.ZeroCoef>
-5.4800

> <Gold.Chemscore.Hbond>
1.5252

> <Gold.Chemscore.Metal>
0.0000

> <Gold.Chemscore.Lipo>
68.6796

> <Gold.Chemscore.Internal_Hbond>
0.0000

> <Gold.Chemscore.DEClash>
0.1891

> <Gold.Chemscore.DEInternal>
0.7447

> <Gold.Chemscore.Rot>
1.7075

> <Gold.Chemscore.Internal.Correction>
   9.000000E+99

> <Gold.Chemscore.Hbonds>
donor molecule, donor type, donor heavy atom, donor atom, acceptor molecule, acceptor atom, score
      L1  H     9    25       P1  8028  0.24
      L1  H    12    26       P1  8029  0.93
      P1  H  6934  6946       L1    11  0.36

> <Gold.Chemscore.Hbond.Weighted>
-5.0940

> <Gold.Chemscore.Metal.Weighted>
-0.0000

> <Gold.Chemscore.Lipo.Weighted>
-8.0355

> <Gold.Chemscore.Internal_Hbond.Weighted>
0.0000

> <Gold.Chemscore.DEClash.Weighted>
0.1891

> <Gold.Chemscore.DEInternal.Weighted>
0.7447

> <Gold.Chemscore.Rot.Weighted>
4.3713

> <Gold.Chemscore.Internal.Correction.Weighted>
   9.000000E+99

> <Gold.Protein.RotatedTorsions>
[ 6907 6896 6895 6894 ] final  113.54 input  -60.11 | X-H torsion
[ 7974 7965 7964 7962 ] final -101.97 input  175.53 | X-H torsion
[ 8008 7997 7996 7995 ] final  109.07 input   59.86 | X-H torsion
[ 10167 10162 10161 10158 ] final  164.24 input  -65.29 | X-H torsion
[ 10718 10713 10712 10709 ] final   26.64 input   66.30 | X-H torsion
[ 10763 10752 10751 10750 ] final -178.77 input  -60.55 | X-H torsion
[ 11005 11000 10999 10996 ] final   42.37 input  -57.11 | X-H torsion

> <Gold.Protein.ActiveResidues>
 VAL166  LYS551  ARG553  GLY616  TRP617  ASP618  TYR619  PRO620  LYS621  CYS622 
 ASP623  PHE694  ASN695  SER759  ASP760  ASP761  ALA762  ILE779  LEU786  VAL792 
 PHE793  MET794  SER795  GLU796  ALA797  LYS798  CYS799  TRP800  GLU811  SER814 

> <Gold.Protein.RotatedAtoms>
  152.4855  133.8362  159.7128 H   0  0  0  0  0  0  0  0  0  0  0  0  # atno 6907 bound_to 6896
  150.8938  133.7199  159.2904 H   0  0  0  0  0  0  0  0  0  0  0  0  # atno 6908 bound_to 6896
  151.4663  135.1046  159.9791 H   0  0  0  0  0  0  0  0  0  0  0  0  # atno 6909 bound_to 6896
  145.2748  140.9309  143.2966 H   0  0  0  0  0  0  0  0  0  0  0  0  # atno 7974 bound_to 7965
  156.1952  140.3064  155.9412 H   0  0  0  0  0  0  0  0  0  0  0  0  # atno 8008 bound_to 7997
  155.3083  140.0450  157.3050 H   0  0  0  0  0  0  0  0  0  0  0  0  # atno 8009 bound_to 7997
  154.5500  140.2288  155.8509 H   0  0  0  0  0  0  0  0  0  0  0  0  # atno 8010 bound_to 7997
  139.4886  144.4255  151.9134 H   0  0  0  0  0  0  0  0  0  0  0  0  # atno 10167 bound_to 10162
  157.2095  130.6927  149.6222 H   0  0  0  0  0  0  0  0  0  0  0  0  # atno 10718 bound_to 10713
  154.5435  135.2808  155.1074 H   0  0  0  0  0  0  0  0  0  0  0  0  # atno 10763 bound_to 10752
  154.2547  135.6333  153.5256 H   0  0  0  0  0  0  0  0  0  0  0  0  # atno 10764 bound_to 10752
  152.9985  135.5591  154.5981 H   0  0  0  0  0  0  0  0  0  0  0  0  # atno 10765 bound_to 10752
  140.1745  134.4180  155.8237 H   0  0  0  0  0  0  0  0  0  0  0  0  # atno 11005 bound_to 11000
  144.9304  139.4305  143.6498 LP  0  0  0  0  0  0  0  0  0  0  0  0  # atno 17320 bound_to 7965
  146.3235  139.8212  142.8926 LP  0  0  0  0  0  0  0  0  0  0  0  0  # atno 17321 bound_to 7965
  140.3701  144.2866  150.5921 LP  0  0  0  0  0  0  0  0  0  0  0  0  # atno 17342 bound_to 10162
  140.5326  143.2240  151.8213 LP  0  0  0  0  0  0  0  0  0  0  0  0  # atno 17343 bound_to 10162
  155.9692  130.4556  150.5893 LP  0  0  0  0  0  0  0  0  0  0  0  0  # atno 17370 bound_to 10713
  157.3687  131.0762  151.1576 LP  0  0  0  0  0  0  0  0  0  0  0  0  # atno 17371 bound_to 10713
  141.2219  133.6971  156.7822 LP  0  0  0  0  0  0  0  0  0  0  0  0  # atno 17394 bound_to 11000
  140.2339  134.8665  157.3504 LP  0  0  0  0  0  0  0  0  0  0  0  0  # atno 17395 bound_to 11000

$$$$
