AV-unprocessed.smi:3212|AV-procd|sdf|12281|dock4
  -GOLD-   2272018113D 1   1.00000     0.00000
 Structure written by MMmdl.
 39 39  0  0  0  0  0  0  0  0  1 V2000
  148.8461  133.7240  155.6461 C   0  0  0  0  0  0  0  0  0  0  0  0
  149.4730  134.3962  154.4149 C   0  0  1  0  0  0  0  0  0  0  0  0
  148.4105  134.7749  153.4615 N   0  0  0  0  0  0  0  0  0  0  0  0
  147.8373  133.6965  152.6542 C   0  0  0  0  0  0  0  0  0  0  0  0
  146.3323  133.4701  152.9064 C   0  0  0  0  0  0  0  0  0  0  0  0
  145.5844  133.2661  151.6791 N   0  0  0  0  0  0  0  0  0  0  0  0
  145.8156  132.3476  150.6769 C   0  0  0  0  0  0  0  0  0  0  0  0
  144.8535  132.5334  149.7262 C   0  0  0  0  0  0  0  0  0  0  0  0
  144.0697  133.6025  150.2428 C   0  0  0  0  0  0  0  0  0  0  0  0
  144.5118  134.0415  151.4101 N   0  0  0  0  0  0  0  0  0  0  0  0
  150.3668  135.5731  154.8391 C   0  0  0  0  0  0  0  0  0  0  0  0
  151.3473  135.3720  155.5556 O   0  0  0  0  0  0  0  0  0  0  0  0
  149.9863  136.7898  154.4103 N   0  0  0  0  0  0  0  0  0  0  0  0
  150.5998  138.0920  154.6929 C   0  0  0  0  0  0  0  0  0  0  0  0
  150.7631  138.1847  156.2201 C   0  0  0  0  0  0  0  0  0  0  0  0
  149.6910  139.2442  154.2150 C   0  0  0  0  0  0  0  0  0  0  0  0
  151.9912  138.1854  154.0325 C   0  0  0  0  0  0  0  0  0  0  0  0
  149.6089  133.4174  156.3629 H   0  0  0  0  0  0  0  0  0  0  0  0
  148.2907  132.8298  155.3610 H   0  0  0  0  0  0  0  0  0  0  0  0
  148.1540  134.3914  156.1615 H   0  0  0  0  0  0  0  0  0  0  0  0
  150.1042  133.6467  153.9359 H   0  0  0  0  0  0  0  0  0  0  0  0
  148.7293  135.5073  152.8432 H   0  0  0  0  0  0  0  0  0  0  0  0
  147.9858  133.9624  151.6071 H   0  0  0  0  0  0  0  0  0  0  0  0
  148.3900  132.7679  152.7981 H   0  0  0  0  0  0  0  0  0  0  0  0
  146.1970  132.5896  153.5357 H   0  0  0  0  0  0  0  0  0  0  0  0
  145.8905  134.3009  153.4564 H   0  0  0  0  0  0  0  0  0  0  0  0
  146.6344  131.6449  150.7252 H   0  0  0  0  0  0  0  0  0  0  0  0
  144.7276  131.9878  148.8029 H   0  0  0  0  0  0  0  0  0  0  0  0
  143.1997  134.0707  149.8067 H   0  0  0  0  0  0  0  0  0  0  0  0
  149.1597  136.8195  153.8316 H   0  0  0  0  0  0  0  0  0  0  0  0
  151.2196  139.1303  156.5150 H   0  0  0  0  0  0  0  0  0  0  0  0
  151.3966  137.3829  156.6021 H   0  0  0  0  0  0  0  0  0  0  0  0
  149.8006  138.1136  156.7284 H   0  0  0  0  0  0  0  0  0  0  0  0
  148.6904  139.1634  154.6411 H   0  0  0  0  0  0  0  0  0  0  0  0
  149.5869  139.2643  153.1302 H   0  0  0  0  0  0  0  0  0  0  0  0
  150.0966  140.2118  154.5126 H   0  0  0  0  0  0  0  0  0  0  0  0
  152.4951  139.1121  154.3085 H   0  0  0  0  0  0  0  0  0  0  0  0
  151.9303  138.1670  152.9444 H   0  0  0  0  0  0  0  0  0  0  0  0
  152.6329  137.3589  154.3403 H   0  0  0  0  0  0  0  0  0  0  0  0
  1  2  1  0  0  0  0
  1 18  1  0  0  0  0
  1 19  1  0  0  0  0
  1 20  1  0  0  0  0
  2  3  1  0  0  0  0
  2 11  1  0  0  0  0
  2 21  1  0  0  0  0
  3  4  1  0  0  0  0
  3 22  1  0  0  0  0
  4  5  1  0  0  0  0
  4 23  1  0  0  0  0
  4 24  1  0  0  0  0
  5  6  1  0  0  0  0
  5 25  1  0  0  0  0
  5 26  1  0  0  0  0
  6 10  1  0  0  0  0
  6  7  1  0  0  0  0
  7  8  2  0  0  0  0
  7 27  1  0  0  0  0
  8  9  1  0  0  0  0
  8 28  1  0  0  0  0
  9 10  2  0  0  0  0
  9 29  1  0  0  0  0
 11 12  2  0  0  0  0
 11 13  1  0  0  0  0
 13 14  1  0  0  0  0
 13 30  1  0  0  0  0
 14 15  1  0  0  0  0
 14 16  1  0  0  0  0
 14 17  1  0  0  0  0
 15 31  1  0  0  0  0
 15 32  1  0  0  0  0
 15 33  1  0  0  0  0
 16 34  1  0  0  0  0
 16 35  1  0  0  0  0
 16 36  1  0  0  0  0
 17 37  1  0  0  0  0
 17 38  1  0  0  0  0
 17 39  1  0  0  0  0
M  END
> <s_m_source_file>
AV-unprocessed.smi

> <i_m_source_file_index>
3212

> <i_lp_mmshare_version>
43012

> <i_f3d_flags>
0

> <s_epik_input>
W0NIM11DKFtDSDNdKShbQ0gzXSlbTkhdQyg9TylbQ0BIXShbQ0gzXSlbTkhdW0NIMl1bQ0gyXW4xW2NIXVtjSF1bY0hdbjE=

> <s_epik_cmdline>
J2VwaWtfcHl0aG9uJywgJy1waCcsICc3LjAnLCAnLXRuJywgJzgnLCAnLW1hJywgJzIwMCcsICctbWV0YWxfYmluZGluZycsICctaW1hZScsICc8aW5maWxlLm1hZT4nLCAnLW9tYWUnLCAnPG91dGZpbGUubWFlPic=

> <r_lp_tautomer_probability>
1

> <r_epik_Ionization_Penalty>
0.745735

> <r_epik_Ionization_Penalty_Charging>
0

> <r_epik_Ionization_Penalty_Neutral>
0.745735

> <r_epik_State_Penalty>
0.771152

> <r_epik_Charging_Adjusted_Penalty>
0.771152

> <i_epik_Tot_Q>
0

> <i_epik_Tot_abs_Q>
0

> <r_epik_Metal_State_Penalty>
0.770403

> <b_epik_Metal_Only>
0

> <s_lp_Force_Field>
OPLS_2005

> <r_lp_Energy>
7.05168

> <b_lp_Chiralities_Consistent>
1

> <s_lp_Variant>
AV-unprocessed.smi:3212-4

> <Gold.Version>
5.8.1

> <Gold.Id.Protein>
6NUR|6NUR_protein|mol2

> <Gold.PLP.Fitness>
40.1117

> <Gold.PLP.PLP>
-28.6395

> <Gold.PLP.part.hbond>
-2.9925

> <Gold.PLP.part.metal>
0.0000

> <Gold.PLP.part.buried>
-2.8535

> <Gold.PLP.part.nonpolar>
-22.2513

> <Gold.PLP.part.repulsive>
0.1991

> <Gold.PLP.ligand.clash>
0.0000

> <Gold.PLP.ligand.torsion>
1.0439

> <Gold.PLP.Chemscore.Hbond>
2.4969

> <Gold.PLP.Chemscore.CHOScore>
2.0000

> <Gold.PLP.Chemscore.Metal>
0.0000

> <Gold.Chemscore.Hbonds>
donor molecule, donor type, donor heavy atom, donor atom, acceptor molecule, acceptor atom, score
      L1  H     3    22       P1  7948  0.21
      L1  H    13    30       P1  7948  0.52
      P1  H 10752 10763       L1    12  1.00
      L1  C     7    27       P1 10747  1.00
      L1  C     9    29       P1 10186  1.00

> <Gold.PLP.Chemscore.Internal.Correction>
0.0693

> <Gold.Rescore>
     Score         DG    S(hbond)    S(metal)    S(lipo)     H(rot)  DE(clash)    DE(int)     intcor
     13.11     -14.77       1.91        0.00      68.34       1.99       0.08       1.58       ----

> <Gold.Chemscore.Fitness>
13.1094

> <Gold.Chemscore.DG>
-14.7732

> <Gold.Chemscore.ZeroCoef>
-5.4800

> <Gold.Chemscore.Hbond>
1.9123

> <Gold.Chemscore.Metal>
0.0000

> <Gold.Chemscore.Lipo>
68.3376

> <Gold.Chemscore.Internal_Hbond>
0.0000

> <Gold.Chemscore.DEClash>
0.0815

> <Gold.Chemscore.DEInternal>
1.5823

> <Gold.Chemscore.Rot>
1.9880

> <Gold.Chemscore.Internal.Correction>
   9.000000E+99

> <Gold.Chemscore.Hbonds>
donor molecule, donor type, donor heavy atom, donor atom, acceptor molecule, acceptor atom, score
      L1  H     3    22       P1  7948  0.17
      L1  H    13    30       P1  7948  0.49
      P1  H 10752 10763       L1    12  0.97

> <Gold.Chemscore.Hbond.Weighted>
-6.3870

> <Gold.Chemscore.Metal.Weighted>
-0.0000

> <Gold.Chemscore.Lipo.Weighted>
-7.9955

> <Gold.Chemscore.Internal_Hbond.Weighted>
0.0000

> <Gold.Chemscore.DEClash.Weighted>
0.0815

> <Gold.Chemscore.DEInternal.Weighted>
1.5823

> <Gold.Chemscore.Rot.Weighted>
5.0893

> <Gold.Chemscore.Internal.Correction.Weighted>
   9.000000E+99

> <Gold.Protein.RotatedTorsions>
[ 6907 6896 6895 6894 ] final   72.90 input  -60.11 | X-H torsion
[ 7974 7965 7964 7962 ] final  116.70 input  175.53 | X-H torsion
[ 8008 7997 7996 7995 ] final  145.46 input   59.86 | X-H torsion
[ 10167 10162 10161 10158 ] final   32.26 input  -65.29 | X-H torsion
[ 10718 10713 10712 10709 ] final -154.66 input   66.30 | X-H torsion
[ 10763 10752 10751 10750 ] final   77.70 input  -60.55 | X-H torsion
[ 11005 11000 10999 10996 ] final   72.75 input  -57.11 | X-H torsion

> <Gold.Protein.ActiveResidues>
 VAL166  LYS551  ARG553  GLY616  TRP617  ASP618  TYR619  PRO620  LYS621  CYS622 
 ASP623  PHE694  ASN695  SER759  ASP760  ASP761  ALA762  ILE779  LEU786  VAL792 
 PHE793  MET794  SER795  GLU796  ALA797  LYS798  CYS799  TRP800  GLU811  SER814 

> <Gold.Protein.RotatedAtoms>
  152.4893  134.4502  159.9571 H   0  0  0  0  0  0  0  0  0  0  0  0  # atno 6907 bound_to 6896
  151.4492  133.3616  159.2800 H   0  0  0  0  0  0  0  0  0  0  0  0  # atno 6908 bound_to 6896
  150.9033  134.8471  159.7435 H   0  0  0  0  0  0  0  0  0  0  0  0  # atno 6909 bound_to 6896
  145.1764  139.3074  143.4441 H   0  0  0  0  0  0  0  0  0  0  0  0  # atno 7974 bound_to 7965
  156.2882  140.2208  156.5219 H   0  0  0  0  0  0  0  0  0  0  0  0  # atno 8008 bound_to 7997
  154.7521  140.0479  157.0924 H   0  0  0  0  0  0  0  0  0  0  0  0  # atno 8009 bound_to 7997
  155.0097  140.3111  155.4838 H   0  0  0  0  0  0  0  0  0  0  0  0  # atno 8010 bound_to 7997
  140.4515  144.1041  150.6193 H   0  0  0  0  0  0  0  0  0  0  0  0  # atno 10167 bound_to 10162
  156.5023  130.8397  151.2614 H   0  0  0  0  0  0  0  0  0  0  0  0  # atno 10718 bound_to 10713
  153.0818  135.4904  154.8518 H   0  0  0  0  0  0  0  0  0  0  0  0  # atno 10763 bound_to 10752
  154.7161  135.3029  154.9124 H   0  0  0  0  0  0  0  0  0  0  0  0  # atno 10764 bound_to 10752
  153.9803  135.6790  153.4803 H   0  0  0  0  0  0  0  0  0  0  0  0  # atno 10765 bound_to 10752
  139.9475  134.7287  156.0943 H   0  0  0  0  0  0  0  0  0  0  0  0  # atno 11005 bound_to 11000
  146.3460  140.1927  142.8589 LP  0  0  0  0  0  0  0  0  0  0  0  0  # atno 17320 bound_to 7965
  145.0181  140.8771  143.5183 LP  0  0  0  0  0  0  0  0  0  0  0  0  # atno 17321 bound_to 7965
  140.4202  143.2615  151.9725 LP  0  0  0  0  0  0  0  0  0  0  0  0  # atno 17342 bound_to 10162
  139.4797  144.5838  151.7888 LP  0  0  0  0  0  0  0  0  0  0  0  0  # atno 17343 bound_to 10162
  157.7461  130.9977  150.2828 LP  0  0  0  0  0  0  0  0  0  0  0  0  # atno 17370 bound_to 10713
  156.3321  130.3802  149.7482 LP  0  0  0  0  0  0  0  0  0  0  0  0  # atno 17371 bound_to 10713
  141.1129  133.6637  156.3023 LP  0  0  0  0  0  0  0  0  0  0  0  0  # atno 17394 bound_to 11000
  140.5799  134.5756  157.5477 LP  0  0  0  0  0  0  0  0  0  0  0  0  # atno 17395 bound_to 11000

$$$$
