AV-unprocessed.smi:2066|AV-procd|sdf|8419|dock6
  -GOLD-   2272011113D 1   1.00000     0.00000
 Structure written by MMmdl.
 39 40  0  0  0  0  0  0  0  0  1 V2000
  147.0799  140.1799  152.7539 C   0  0  0  0  0  0  0  0  0  0  0  0
  147.0946  140.2012  154.3014 C   0  0  0  0  0  0  0  0  0  0  0  0
  146.4065  141.5182  154.7427 C   0  0  0  0  0  0  0  0  0  0  0  0
  146.1806  139.0355  154.7846 C   0  0  0  0  0  0  0  0  0  0  0  0
  144.8200  139.1185  154.2529 N   0  0  0  0  0  0  0  0  0  0  0  0
  143.8361  138.2359  154.4761 C   0  0  0  0  0  0  0  0  0  0  0  0
  143.9618  137.2421  155.1924 O   0  0  0  0  0  0  0  0  0  0  0  0
  142.7180  138.5788  153.8130 N   0  0  0  0  0  0  0  0  0  0  0  0
  141.4767  137.8914  153.7714 C   0  0  0  0  0  0  0  0  0  0  0  0
  141.2882  136.6458  154.2224 N   0  0  0  0  0  0  0  0  0  0  0  0
  139.9684  136.2204  154.0527 C   0  0  0  0  0  0  0  0  0  0  0  0
  139.1597  137.1619  153.4663 C   0  0  0  0  0  0  0  0  0  0  0  0
  140.0284  138.6295  153.1030 S   0  0  0  0  0  0  0  0  0  0  0  0
  148.4667  140.0969  154.8733 N   0  0  0  0  0  0  0  0  0  0  0  0
  149.2175  141.3571  154.9146 C   0  0  0  0  0  0  0  0  0  0  0  0
  150.5699  141.2005  155.6306 C   0  0  0  0  0  0  0  0  0  0  0  0
  151.3349  140.1836  154.9950 O   0  0  0  0  0  0  0  0  0  0  0  0
  150.6658  138.9286  154.9841 C   0  0  0  0  0  0  0  0  0  0  0  0
  149.3153  139.0676  154.2612 C   0  0  0  0  0  0  0  0  0  0  0  0
  146.0621  140.2716  152.3726 H   0  0  0  0  0  0  0  0  0  0  0  0
  147.4829  139.2513  152.3506 H   0  0  0  0  0  0  0  0  0  0  0  0
  147.6498  141.0034  152.3241 H   0  0  0  0  0  0  0  0  0  0  0  0
  145.3447  141.5181  154.4935 H   0  0  0  0  0  0  0  0  0  0  0  0
  146.8332  142.3925  154.2513 H   0  0  0  0  0  0  0  0  0  0  0  0
  146.4874  141.6749  155.8188 H   0  0  0  0  0  0  0  0  0  0  0  0
  146.6294  138.0726  154.5338 H   0  0  0  0  0  0  0  0  0  0  0  0
  146.1094  139.0226  155.8718 H   0  0  0  0  0  0  0  0  0  0  0  0
  144.6241  139.8999  153.6449 H   0  0  0  0  0  0  0  0  0  0  0  0
  142.7637  139.4239  153.2631 H   0  0  0  0  0  0  0  0  0  0  0  0
  139.6904  135.2290  154.3790 H   0  0  0  0  0  0  0  0  0  0  0  0
  138.1098  137.0807  153.2270 H   0  0  0  0  0  0  0  0  0  0  0  0
  149.3953  141.7235  153.9036 H   0  0  0  0  0  0  0  0  0  0  0  0
  148.6550  142.1286  155.4372 H   0  0  0  0  0  0  0  0  0  0  0  0
  151.1262  142.1373  155.5980 H   0  0  0  0  0  0  0  0  0  0  0  0
  150.4227  140.9515  156.6828 H   0  0  0  0  0  0  0  0  0  0  0  0
  151.2932  138.1952  154.4775 H   0  0  0  0  0  0  0  0  0  0  0  0
  150.5217  138.5751  156.0064 H   0  0  0  0  0  0  0  0  0  0  0  0
  148.8268  138.0952  154.2820 H   0  0  0  0  0  0  0  0  0  0  0  0
  149.5014  139.3063  153.2140 H   0  0  0  0  0  0  0  0  0  0  0  0
  1  2  1  0  0  0  0
  1 20  1  0  0  0  0
  1 21  1  0  0  0  0
  1 22  1  0  0  0  0
  2  3  1  0  0  0  0
  2  4  1  0  0  0  0
  2 14  1  0  0  0  0
  3 23  1  0  0  0  0
  3 24  1  0  0  0  0
  3 25  1  0  0  0  0
  4  5  1  0  0  0  0
  4 26  1  0  0  0  0
  4 27  1  0  0  0  0
  5  6  1  0  0  0  0
  5 28  1  0  0  0  0
  6  7  2  0  0  0  0
  6  8  1  0  0  0  0
  8  9  1  0  0  0  0
  8 29  1  0  0  0  0
  9 13  1  0  0  0  0
  9 10  2  0  0  0  0
 10 11  1  0  0  0  0
 11 12  2  0  0  0  0
 11 30  1  0  0  0  0
 12 13  1  0  0  0  0
 12 31  1  0  0  0  0
 14 19  1  0  0  0  0
 14 15  1  0  0  0  0
 15 16  1  0  0  0  0
 15 32  1  0  0  0  0
 15 33  1  0  0  0  0
 16 17  1  0  0  0  0
 16 34  1  0  0  0  0
 16 35  1  0  0  0  0
 17 18  1  0  0  0  0
 18 19  1  0  0  0  0
 18 36  1  0  0  0  0
 18 37  1  0  0  0  0
 19 38  1  0  0  0  0
 19 39  1  0  0  0  0
M  END
> <s_m_source_file>
AV-unprocessed.smi

> <i_m_source_file_index>
2066

> <i_lp_mmshare_version>
43012

> <i_f3d_flags>
0

> <s_epik_input>
W0NIMl0xW0NIMl1PW0NIMl1bQ0gyXU4xQyhbQ0gzXSkoW0NIM10pW0NIMl1bTkhdQyg9TylbTkhdYzJuW2NIXVtjSF1zMg==

> <s_epik_cmdline>
J2VwaWtfcHl0aG9uJywgJy1waCcsICc3LjAnLCAnLXRuJywgJzgnLCAnLW1hJywgJzIwMCcsICctbWV0YWxfYmluZGluZycsICctaW1hZScsICc8aW5maWxlLm1hZT4nLCAnLW9tYWUnLCAnPG91dGZpbGUubWFlPic=

> <r_lp_tautomer_probability>
0.999

> <r_epik_Ionization_Penalty>
0.219202

> <r_epik_Ionization_Penalty_Charging>
0

> <r_epik_Ionization_Penalty_Neutral>
0.219202

> <r_epik_State_Penalty>
0.209349

> <r_epik_Charging_Adjusted_Penalty>
0.209349

> <i_epik_Tot_Q>
0

> <i_epik_Tot_abs_Q>
0

> <r_epik_Metal_State_Penalty>
0.2479

> <b_epik_Metal_Only>
0

> <s_lp_Force_Field>
OPLS_2005

> <r_lp_Energy>
39.7757

> <b_lp_Chiralities_Consistent>
1

> <s_lp_Variant>
AV-unprocessed.smi:2066-1

> <Gold.Version>
5.8.1

> <Gold.Id.Protein>
6NUR|6NUR_protein|mol2

> <Gold.PLP.Fitness>
38.9689

> <Gold.PLP.PLP>
-28.2638

> <Gold.PLP.part.hbond>
-2.6819

> <Gold.PLP.part.metal>
0.0000

> <Gold.PLP.part.buried>
0.9001

> <Gold.PLP.part.nonpolar>
-25.6965

> <Gold.PLP.part.repulsive>
0.2037

> <Gold.PLP.ligand.clash>
0.0000

> <Gold.PLP.ligand.torsion>
0.5292

> <Gold.PLP.Chemscore.Hbond>
2.9280

> <Gold.PLP.Chemscore.CHOScore>
0.9719

> <Gold.PLP.Chemscore.Metal>
0.0000

> <Gold.Chemscore.Hbonds>
donor molecule, donor type, donor heavy atom, donor atom, acceptor molecule, acceptor atom, score
      L1  H     5    28       P1 10175  0.91
      L1  H     8    29       P1 10175  0.99
      P1  H  7989  7998       L1    17  1.00
      L1  C    11    30       P1 11000  0.79

> <Gold.PLP.Chemscore.Internal.Correction>
0.0637

> <Gold.Rescore>
     Score         DG    S(hbond)    S(metal)    S(lipo)     H(rot)  DE(clash)    DE(int)     intcor
     16.46     -18.44       2.62        0.00      70.45       1.58       0.18       1.80       ----

> <Gold.Chemscore.Fitness>
16.4616

> <Gold.Chemscore.DG>
-18.4367

> <Gold.Chemscore.ZeroCoef>
-5.4800

> <Gold.Chemscore.Hbond>
2.6229

> <Gold.Chemscore.Metal>
0.0000

> <Gold.Chemscore.Lipo>
70.4512

> <Gold.Chemscore.Internal_Hbond>
0.0000

> <Gold.Chemscore.DEClash>
0.1755

> <Gold.Chemscore.DEInternal>
1.7996

> <Gold.Chemscore.Rot>
1.5807

> <Gold.Chemscore.Internal.Correction>
   9.000000E+99

> <Gold.Chemscore.Hbonds>
donor molecule, donor type, donor heavy atom, donor atom, acceptor molecule, acceptor atom, score
      L1  H     5    28       P1 10175  0.88
      L1  H     8    29       P1 10175  0.88
      P1  H  7989  7998       L1    17  0.32

> <Gold.Chemscore.Hbond.Weighted>
-8.7605

> <Gold.Chemscore.Metal.Weighted>
-0.0000

> <Gold.Chemscore.Lipo.Weighted>
-8.2428

> <Gold.Chemscore.Internal_Hbond.Weighted>
0.0000

> <Gold.Chemscore.DEClash.Weighted>
0.1755

> <Gold.Chemscore.DEInternal.Weighted>
1.7996

> <Gold.Chemscore.Rot.Weighted>
4.0466

> <Gold.Chemscore.Internal.Correction.Weighted>
   9.000000E+99

> <Gold.Protein.RotatedTorsions>
[ 6907 6896 6895 6894 ] final  -81.31 input  -60.11 | X-H torsion
[ 7974 7965 7964 7962 ] final  162.38 input  175.53 | X-H torsion
[ 8008 7997 7996 7995 ] final  -55.80 input   59.86 | X-H torsion
[ 10167 10162 10161 10158 ] final -173.93 input  -65.29 | X-H torsion
[ 10718 10713 10712 10709 ] final -119.47 input   66.30 | X-H torsion
[ 10763 10752 10751 10750 ] final  -23.75 input  -60.55 | X-H torsion
[ 11005 11000 10999 10996 ] final  -81.33 input  -57.11 | X-H torsion

> <Gold.Protein.ActiveResidues>
 VAL166  LYS551  ARG553  GLY616  TRP617  ASP618  TYR619  PRO620  LYS621  CYS622 
 ASP623  PHE694  ASN695  SER759  ASP760  ASP761  ALA762  ILE779  LEU786  VAL792 
 PHE793  MET794  SER795  GLU796  ALA797  LYS798  CYS799  TRP800  GLU811  SER814 

> <Gold.Protein.RotatedAtoms>
  150.6914  134.3836  159.5044 H   0  0  0  0  0  0  0  0  0  0  0  0  # atno 6907 bound_to 6896
  152.1635  134.8890  160.0549 H   0  0  0  0  0  0  0  0  0  0  0  0  # atno 6908 bound_to 6896
  151.9943  133.3767  159.4193 H   0  0  0  0  0  0  0  0  0  0  0  0  # atno 6909 bound_to 6896
  144.7640  139.8031  143.6322 H   0  0  0  0  0  0  0  0  0  0  0  0  # atno 7974 bound_to 7965
  154.4207  140.1144  156.5535 H   0  0  0  0  0  0  0  0  0  0  0  0  # atno 8008 bound_to 7997
  155.6385  140.3496  155.4688 H   0  0  0  0  0  0  0  0  0  0  0  0  # atno 8009 bound_to 7997
  155.9890  140.1175  157.0646 H   0  0  0  0  0  0  0  0  0  0  0  0  # atno 8010 bound_to 7997
  139.5661  144.1751  152.1315 H   0  0  0  0  0  0  0  0  0  0  0  0  # atno 10167 bound_to 10162
  156.1184  130.6303  150.9420 H   0  0  0  0  0  0  0  0  0  0  0  0  # atno 10718 bound_to 10713
  153.6728  135.6971  153.5142 H   0  0  0  0  0  0  0  0  0  0  0  0  # atno 10763 bound_to 10752
  153.2544  135.4264  155.0830 H   0  0  0  0  0  0  0  0  0  0  0  0  # atno 10764 bound_to 10752
  154.8422  135.3539  154.6272 H   0  0  0  0  0  0  0  0  0  0  0  0  # atno 10765 bound_to 10752
  141.1666  133.7191  156.8407 H   0  0  0  0  0  0  0  0  0  0  0  0  # atno 11005 bound_to 11000
  146.1729  139.4888  142.9916 LP  0  0  0  0  0  0  0  0  0  0  0  0  # atno 17320 bound_to 7965
  145.6530  141.0259  143.1750 LP  0  0  0  0  0  0  0  0  0  0  0  0  # atno 17321 bound_to 7965
  140.1274  144.5319  150.6824 LP  0  0  0  0  0  0  0  0  0  0  0  0  # atno 17342 bound_to 10162
  140.6945  143.2395  151.5039 LP  0  0  0  0  0  0  0  0  0  0  0  0  # atno 17343 bound_to 10162
  157.6367  131.0915  150.8334 LP  0  0  0  0  0  0  0  0  0  0  0  0  # atno 17370 bound_to 10713
  156.8434  130.5056  149.5319 LP  0  0  0  0  0  0  0  0  0  0  0  0  # atno 17371 bound_to 10713
  140.1985  134.8914  157.3142 LP  0  0  0  0  0  0  0  0  0  0  0  0  # atno 17394 bound_to 11000
  140.2212  134.4020  155.7565 LP  0  0  0  0  0  0  0  0  0  0  0  0  # atno 17395 bound_to 11000

$$$$
