AV-unprocessed.smi:2585|AV-procd|sdf|10144|dock10
  -GOLD-   2272014153D 1   1.00000     0.00000
 Structure written by MMmdl.
 34 35  0  0  0  0  0  0  0  0  1 V2000
  151.5920  140.1502  157.7881 C   0  0  0  0  0  0  0  0  0  0  0  0
  151.6497  139.2988  156.5551 C   0  0  0  0  0  0  0  0  0  0  0  0
  152.6223  139.4782  155.6858 N   0  0  0  0  0  0  0  0  0  0  0  0
  152.4406  138.3961  154.4144 S   0  0  0  0  0  0  0  0  0  0  0  0
  150.9976  137.6416  155.0355 C   0  0  0  0  0  0  0  0  0  0  0  0
  150.2891  136.6316  154.4669 N   0  0  0  0  0  0  0  0  0  0  0  0
  149.9569  135.4387  154.9894 C   0  0  0  0  0  0  0  0  0  0  0  0
  150.2577  135.0472  156.1167 O   0  0  0  0  0  0  0  0  0  0  0  0
  149.2436  134.7159  154.1093 N   0  0  0  0  0  0  0  0  0  0  0  0
  148.6899  133.3626  154.2700 C   0  0  0  0  0  0  0  0  0  0  0  0
  149.6465  132.5013  155.1228 C   0  0  0  0  0  0  0  0  0  0  0  0
  147.3346  133.4904  154.9992 C   0  0  0  0  0  0  0  0  0  0  0  0
  146.2621  134.1590  154.1182 C   0  0  0  0  0  0  0  0  0  0  0  0
  146.1077  133.4361  152.9027 O   0  0  0  0  0  0  0  0  0  0  0  0
  147.2971  133.4035  152.1229 C   0  0  0  0  0  0  0  0  0  0  0  0
  148.4145  132.6885  152.9035 C   0  0  0  0  0  0  0  0  0  0  0  0
  150.7128  138.2680  156.2182 C   0  0  0  0  0  0  0  0  0  0  0  0
  149.4013  137.9204  157.2471 Cl  0  0  0  0  0  0  0  0  0  0  0  0
  150.6495  140.6951  157.8444 H   0  0  0  0  0  0  0  0  0  0  0  0
  152.3969  140.8862  157.8135 H   0  0  0  0  0  0  0  0  0  0  0  0
  151.6769  139.5419  158.6890 H   0  0  0  0  0  0  0  0  0  0  0  0
  149.9694  136.8094  153.5260 H   0  0  0  0  0  0  0  0  0  0  0  0
  149.0625  135.1495  153.2158 H   0  0  0  0  0  0  0  0  0  0  0  0
  149.2136  131.5232  155.3355 H   0  0  0  0  0  0  0  0  0  0  0  0
  149.8618  132.9778  156.0799 H   0  0  0  0  0  0  0  0  0  0  0  0
  150.5974  132.3247  154.6202 H   0  0  0  0  0  0  0  0  0  0  0  0
  146.9767  132.4996  155.2829 H   0  0  0  0  0  0  0  0  0  0  0  0
  147.4516  134.0475  155.9299 H   0  0  0  0  0  0  0  0  0  0  0  0
  145.3059  134.1703  154.6413 H   0  0  0  0  0  0  0  0  0  0  0  0
  146.5157  135.1986  153.9052 H   0  0  0  0  0  0  0  0  0  0  0  0
  147.0913  132.8698  151.1951 H   0  0  0  0  0  0  0  0  0  0  0  0
  147.5941  134.4160  151.8454 H   0  0  0  0  0  0  0  0  0  0  0  0
  149.3173  132.6344  152.2953 H   0  0  0  0  0  0  0  0  0  0  0  0
  148.1097  131.6542  153.0678 H   0  0  0  0  0  0  0  0  0  0  0  0
  1  2  1  0  0  0  0
  1 19  1  0  0  0  0
  1 20  1  0  0  0  0
  1 21  1  0  0  0  0
  2 17  1  0  0  0  0
  2  3  2  0  0  0  0
  3  4  1  0  0  0  0
  4  5  1  0  0  0  0
  5  6  1  0  0  0  0
  5 17  2  0  0  0  0
  6  7  1  0  0  0  0
  6 22  1  0  0  0  0
  7  8  2  0  0  0  0
  7  9  1  0  0  0  0
  9 10  1  0  0  0  0
  9 23  1  0  0  0  0
 10 16  1  0  0  0  0
 10 11  1  0  0  0  0
 10 12  1  0  0  0  0
 11 24  1  0  0  0  0
 11 25  1  0  0  0  0
 11 26  1  0  0  0  0
 12 13  1  0  0  0  0
 12 27  1  0  0  0  0
 12 28  1  0  0  0  0
 13 14  1  0  0  0  0
 13 29  1  0  0  0  0
 13 30  1  0  0  0  0
 14 15  1  0  0  0  0
 15 16  1  0  0  0  0
 15 31  1  0  0  0  0
 15 32  1  0  0  0  0
 16 33  1  0  0  0  0
 16 34  1  0  0  0  0
 17 18  1  0  0  0  0
M  END
> <s_m_source_file>
AV-unprocessed.smi

> <i_m_source_file_index>
2585

> <i_lp_mmshare_version>
43012

> <i_f3d_flags>
0

> <s_epik_input>
W0NIM11jMW5zYyhjMUNsKVtOSF1DKD1PKVtOSF1DMihbQ0gzXSlbQ0gyXVtDSDJdT1tDSDJdW0NIMl0y

> <s_epik_cmdline>
J2VwaWtfcHl0aG9uJywgJy1waCcsICc3LjAnLCAnLXRuJywgJzgnLCAnLW1hJywgJzIwMCcsICctbWV0YWxfYmluZGluZycsICctaW1hZScsICc8aW5maWxlLm1hZT4nLCAnLW9tYWUnLCAnPG91dGZpbGUubWFlPic=

> <r_lp_tautomer_probability>
1

> <r_epik_Ionization_Penalty>
3.55893e-05

> <r_epik_Ionization_Penalty_Charging>
0

> <r_epik_Ionization_Penalty_Neutral>
3.55893e-05

> <r_epik_State_Penalty>
-0

> <r_epik_Charging_Adjusted_Penalty>
0

> <i_epik_Tot_Q>
0

> <i_epik_Tot_abs_Q>
0

> <r_epik_Metal_State_Penalty>
-0

> <b_epik_Metal_Only>
0

> <s_lp_Force_Field>
OPLS_2005

> <r_lp_Energy>
7.47922

> <b_lp_Chiralities_Consistent>
1

> <s_lp_Variant>
AV-unprocessed.smi:2585-1

> <Gold.Version>
5.8.1

> <Gold.Id.Protein>
6NUR|6NUR_protein|mol2

> <Gold.PLP.Fitness>
32.8721

> <Gold.PLP.PLP>
-25.8859

> <Gold.PLP.part.hbond>
-3.5760

> <Gold.PLP.part.metal>
0.0000

> <Gold.PLP.part.buried>
-3.4638

> <Gold.PLP.part.nonpolar>
-19.0985

> <Gold.PLP.part.repulsive>
0.2055

> <Gold.PLP.ligand.clash>
0.0000

> <Gold.PLP.ligand.torsion>
1.0101

> <Gold.PLP.Chemscore.Hbond>
3.0000

> <Gold.PLP.Chemscore.CHOScore>
0.0000

> <Gold.PLP.Chemscore.Metal>
0.0000

> <Gold.Chemscore.Hbonds>
donor molecule, donor type, donor heavy atom, donor atom, acceptor molecule, acceptor atom, score
      L1  H     6    22       P1  7948  1.00
      L1  H     9    23       P1  7948  0.95
      P1  H  7997  8009       L1     3  1.00

> <Gold.PLP.Chemscore.Internal.Correction>
0.0065

> <Gold.Rescore>
     Score         DG    S(hbond)    S(metal)    S(lipo)     H(rot)  DE(clash)    DE(int)     intcor
     15.30     -17.76       2.54        0.00      54.35       1.00       0.06       2.41       ----

> <Gold.Chemscore.Fitness>
15.2992

> <Gold.Chemscore.DG>
-17.7637

> <Gold.Chemscore.ZeroCoef>
-5.4800

> <Gold.Chemscore.Hbond>
2.5405

> <Gold.Chemscore.Metal>
0.0000

> <Gold.Chemscore.Lipo>
54.3466

> <Gold.Chemscore.Internal_Hbond>
0.0000

> <Gold.Chemscore.DEClash>
0.0580

> <Gold.Chemscore.DEInternal>
2.4066

> <Gold.Chemscore.Rot>
1.0000

> <Gold.Chemscore.Internal.Correction>
   9.000000E+99

> <Gold.Chemscore.Hbonds>
donor molecule, donor type, donor heavy atom, donor atom, acceptor molecule, acceptor atom, score
      L1  H     6    22       P1  7948  0.24
      L1  H     9    23       P1  7948  0.22
      P1  H  7997  8009       L1     3  0.82

> <Gold.Chemscore.Hbond.Weighted>
-8.4852

> <Gold.Chemscore.Metal.Weighted>
-0.0000

> <Gold.Chemscore.Lipo.Weighted>
-6.3586

> <Gold.Chemscore.Internal_Hbond.Weighted>
0.0000

> <Gold.Chemscore.DEClash.Weighted>
0.0580

> <Gold.Chemscore.DEInternal.Weighted>
2.4066

> <Gold.Chemscore.Rot.Weighted>
2.5600

> <Gold.Chemscore.Internal.Correction.Weighted>
   9.000000E+99

> <Gold.Protein.RotatedTorsions>
[ 6907 6896 6895 6894 ] final   41.77 input  -60.11 | X-H torsion
[ 7974 7965 7964 7962 ] final -173.05 input  175.53 | X-H torsion
[ 8008 7997 7996 7995 ] final -132.28 input   59.86 | X-H torsion
[ 10167 10162 10161 10158 ] final   88.86 input  -65.29 | X-H torsion
[ 10718 10713 10712 10709 ] final   47.39 input   66.30 | X-H torsion
[ 10763 10752 10751 10750 ] final  166.36 input  -60.55 | X-H torsion
[ 11005 11000 10999 10996 ] final   35.64 input  -57.11 | X-H torsion

> <Gold.Protein.ActiveResidues>
 VAL166  LYS551  ARG553  GLY616  TRP617  ASP618  TYR619  PRO620  LYS621  CYS622 
 ASP623  PHE694  ASN695  SER759  ASP760  ASP761  ALA762  ILE779  LEU786  VAL792 
 PHE793  MET794  SER795  GLU796  ALA797  LYS798  CYS799  TRP800  GLU811  SER814 

> <Gold.Protein.RotatedAtoms>
  152.1995  134.8600  160.0509 H   0  0  0  0  0  0  0  0  0  0  0  0  # atno 6907 bound_to 6896
  151.9459  133.3646  159.3990 H   0  0  0  0  0  0  0  0  0  0  0  0  # atno 6908 bound_to 6896
  150.6952  134.4315  159.5294 H   0  0  0  0  0  0  0  0  0  0  0  0  # atno 6909 bound_to 6896
  144.7141  140.1680  143.6370 H   0  0  0  0  0  0  0  0  0  0  0  0  # atno 7974 bound_to 7965
  155.3264  140.0464  157.3041 H   0  0  0  0  0  0  0  0  0  0  0  0  # atno 8008 bound_to 7997
  154.5352  140.2270  155.8701 H   0  0  0  0  0  0  0  0  0  0  0  0  # atno 8009 bound_to 7997
  156.1828  140.3070  155.9187 H   0  0  0  0  0  0  0  0  0  0  0  0  # atno 8010 bound_to 7997
  139.8630  144.6534  150.9036 H   0  0  0  0  0  0  0  0  0  0  0  0  # atno 10167 bound_to 10162
  157.4580  130.8179  149.7857 H   0  0  0  0  0  0  0  0  0  0  0  0  # atno 10718 bound_to 10713
  154.3379  135.2754  155.2438 H   0  0  0  0  0  0  0  0  0  0  0  0  # atno 10763 bound_to 10752
  154.4721  135.5880  153.6333 H   0  0  0  0  0  0  0  0  0  0  0  0  # atno 10764 bound_to 10752
  152.9860  135.6091  154.3577 H   0  0  0  0  0  0  0  0  0  0  0  0  # atno 10765 bound_to 10752
  140.2406  134.3419  155.7927 H   0  0  0  0  0  0  0  0  0  0  0  0  # atno 11005 bound_to 11000
  145.8970  139.2408  143.1516 LP  0  0  0  0  0  0  0  0  0  0  0  0  # atno 17320 bound_to 7965
  145.9848  140.8652  143.0096 LP  0  0  0  0  0  0  0  0  0  0  0  0  # atno 17321 bound_to 7965
  140.7772  143.3728  151.1618 LP  0  0  0  0  0  0  0  0  0  0  0  0  # atno 17342 bound_to 10162
  139.7355  143.9005  152.3033 LP  0  0  0  0  0  0  0  0  0  0  0  0  # atno 17343 bound_to 10162
  156.0016  130.3877  150.2585 LP  0  0  0  0  0  0  0  0  0  0  0  0  # atno 17370 bound_to 10713
  157.0761  131.0130  151.3173 LP  0  0  0  0  0  0  0  0  0  0  0  0  # atno 17371 bound_to 10713
  141.2211  133.7297  156.8879 LP  0  0  0  0  0  0  0  0  0  0  0  0  # atno 17394 bound_to 11000
  140.1657  134.9135  157.2771 LP  0  0  0  0  0  0  0  0  0  0  0  0  # atno 17395 bound_to 11000

$$$$
