AV-unprocessed.smi:1734|AV-procd|sdf|6983|dock1
  -GOLD-   22720 8193D 1   1.00000     0.00000
 Structure written by MMmdl.
 50 52  0  0  0  0  0  0  0  0  1 V2000
  147.7934  133.0059  152.4108 C   0  0  0  0  0  0  0  0  0  0  0  0
  146.4032  133.0822  151.8008 C   0  0  0  0  0  0  0  0  0  0  0  0
  145.7748  131.8961  151.3651 C   0  0  0  0  0  0  0  0  0  0  0  0
  144.4896  131.9680  150.8017 C   0  0  0  0  0  0  0  0  0  0  0  0
  143.8829  133.2313  150.6970 C   0  0  0  0  0  0  0  0  0  0  0  0
  144.4764  134.3697  151.1098 N   0  0  0  0  0  0  0  0  0  0  0  0
  145.7174  134.3182  151.6560 C   0  0  0  0  0  0  0  0  0  0  0  0
  146.4059  135.4788  152.1099 N   0  0  0  0  0  0  0  0  0  0  0  0
  145.8933  136.5978  152.6516 C   0  0  0  0  0  0  0  0  0  0  0  0
  144.6997  136.7964  152.8807 O   0  0  0  0  0  0  0  0  0  0  0  0
  146.8574  137.4939  152.9083 N   0  0  0  0  0  0  0  0  0  0  0  0
  146.6534  138.8346  153.4515 C   0  0  0  0  0  0  0  0  0  0  0  0
  147.9986  139.5432  153.7694 C   0  0  1  0  0  0  0  0  0  0  0  0
  147.8106  140.8743  154.5610 C   0  0  1  0  0  0  0  0  0  0  0  0
  147.0099  142.0023  153.9037 C   0  0  0  0  0  0  0  0  0  0  0  0
  146.0908  142.5050  155.0182 C   0  0  0  0  0  0  0  0  0  0  0  0
  146.7104  142.0588  156.2145 O   0  0  0  0  0  0  0  0  0  0  0  0
  147.1903  140.7495  155.9588 C   0  0  0  0  0  0  0  0  0  0  0  0
  149.0597  138.6577  154.2889 N   0  0  0  0  0  0  0  0  0  0  0  0
  150.3768  139.2726  154.4423 C   0  0  0  0  0  0  0  0  0  0  0  0
  151.4346  138.2490  154.8910 C   0  0  0  0  0  0  0  0  0  0  0  0
  151.0121  137.6051  156.0887 O   0  0  0  0  0  0  0  0  0  0  0  0
  149.7590  136.9454  155.9435 C   0  0  0  0  0  0  0  0  0  0  0  0
  148.6907  137.9680  155.5232 C   0  0  0  0  0  0  0  0  0  0  0  0
  148.1619  131.9798  152.4321 H   0  0  0  0  0  0  0  0  0  0  0  0
  147.7812  133.3791  153.4352 H   0  0  0  0  0  0  0  0  0  0  0  0
  148.4980  133.6030  151.8312 H   0  0  0  0  0  0  0  0  0  0  0  0
  146.2693  130.9404  151.4597 H   0  0  0  0  0  0  0  0  0  0  0  0
  143.9819  131.0785  150.4592 H   0  0  0  0  0  0  0  0  0  0  0  0
  142.8958  133.3316  150.2705 H   0  0  0  0  0  0  0  0  0  0  0  0
  147.4073  135.4606  151.9875 H   0  0  0  0  0  0  0  0  0  0  0  0
  147.8092  137.2383  152.6894 H   0  0  0  0  0  0  0  0  0  0  0  0
  146.0451  139.4439  152.7824 H   0  0  0  0  0  0  0  0  0  0  0  0
  146.0620  138.7070  154.3568 H   0  0  0  0  0  0  0  0  0  0  0  0
  148.3673  139.8833  152.8003 H   0  0  0  0  0  0  0  0  0  0  0  0
  148.8080  141.2856  154.7250 H   0  0  0  0  0  0  0  0  0  0  0  0
  147.6851  142.7984  153.5878 H   0  0  0  0  0  0  0  0  0  0  0  0
  146.4446  141.6999  153.0238 H   0  0  0  0  0  0  0  0  0  0  0  0
  145.9721  143.5887  155.0082 H   0  0  0  0  0  0  0  0  0  0  0  0
  145.1010  142.0531  154.9351 H   0  0  0  0  0  0  0  0  0  0  0  0
  146.3458  140.0600  155.9849 H   0  0  0  0  0  0  0  0  0  0  0  0
  147.9124  140.4325  156.7115 H   0  0  0  0  0  0  0  0  0  0  0  0
  150.7084  139.7012  153.4997 H   0  0  0  0  0  0  0  0  0  0  0  0
  150.3318  140.0847  155.1682 H   0  0  0  0  0  0  0  0  0  0  0  0
  151.6019  137.5042  154.1114 H   0  0  0  0  0  0  0  0  0  0  0  0
  152.3890  138.7444  155.0693 H   0  0  0  0  0  0  0  0  0  0  0  0
  149.8414  136.1457  155.2059 H   0  0  0  0  0  0  0  0  0  0  0  0
  149.4880  136.4812  156.8918 H   0  0  0  0  0  0  0  0  0  0  0  0
  148.5620  138.6842  156.3343 H   0  0  0  0  0  0  0  0  0  0  0  0
  147.7349  137.4591  155.3954 H   0  0  0  0  0  0  0  0  0  0  0  0
  1  2  1  0  0  0  0
  1 25  1  0  0  0  0
  1 26  1  0  0  0  0
  1 27  1  0  0  0  0
  2  7  1  0  0  0  0
  2  3  2  0  0  0  0
  3  4  1  0  0  0  0
  3 28  1  0  0  0  0
  4  5  2  0  0  0  0
  4 29  1  0  0  0  0
  5  6  1  0  0  0  0
  5 30  1  0  0  0  0
  6  7  2  0  0  0  0
  7  8  1  0  0  0  0
  8  9  1  0  0  0  0
  8 31  1  0  0  0  0
  9 10  2  0  0  0  0
  9 11  1  0  0  0  0
 11 12  1  0  0  0  0
 11 32  1  0  0  0  0
 12 13  1  0  0  0  0
 12 33  1  0  0  0  0
 12 34  1  0  0  0  0
 13 14  1  0  0  0  0
 13 19  1  0  0  0  0
 13 35  1  0  0  0  0
 14 18  1  0  0  0  0
 14 15  1  0  0  0  0
 14 36  1  0  0  0  0
 15 16  1  0  0  0  0
 15 37  1  0  0  0  0
 15 38  1  0  0  0  0
 16 17  1  0  0  0  0
 16 39  1  0  0  0  0
 16 40  1  0  0  0  0
 17 18  1  0  0  0  0
 18 41  1  0  0  0  0
 18 42  1  0  0  0  0
 19 24  1  0  0  0  0
 19 20  1  0  0  0  0
 20 21  1  0  0  0  0
 20 43  1  0  0  0  0
 20 44  1  0  0  0  0
 21 22  1  0  0  0  0
 21 45  1  0  0  0  0
 21 46  1  0  0  0  0
 22 23  1  0  0  0  0
 23 24  1  0  0  0  0
 23 47  1  0  0  0  0
 23 48  1  0  0  0  0
 24 49  1  0  0  0  0
 24 50  1  0  0  0  0
M  END
> <s_m_source_file>
AV-unprocessed.smi

> <i_m_source_file_index>
1734

> <i_lp_mmshare_version>
43012

> <i_f3d_flags>
0

> <s_epik_input>
W0NIM11jMVtjSF1bY0hdW2NIXW5jMVtOSF1DKD1PKVtOSF1bQ0gyXVtDQEhdKFtDQEBIXTJbQ0gyXVtDSDJdT1tDSDJdMilOM1tDSDJdW0NIMl1PW0NIMl1bQ0gyXTM=

> <s_epik_cmdline>
J2VwaWtfcHl0aG9uJywgJy1waCcsICc3LjAnLCAnLXRuJywgJzgnLCAnLW1hJywgJzIwMCcsICctbWV0YWxfYmluZGluZycsICctaW1hZScsICc8aW5maWxlLm1hZT4nLCAnLW9tYWUnLCAnPG91dGZpbGUubWFlPic=

> <r_epik_Ionization_Penalty>
0.125073

> <r_epik_Ionization_Penalty_Charging>
0

> <r_epik_Ionization_Penalty_Neutral>
0.125073

> <r_epik_State_Penalty>
0.114484

> <r_epik_Charging_Adjusted_Penalty>
0.114484

> <i_epik_Tot_Q>
0

> <i_epik_Tot_abs_Q>
0

> <r_epik_Metal_State_Penalty>
0.114483

> <b_epik_Metal_Only>
0

> <s_lp_Force_Field>
OPLS_2005

> <r_lp_Energy>
55.6911

> <b_lp_Chiralities_Consistent>
1

> <s_lp_Variant>
AV-unprocessed.smi:1734-4

> <Gold.Version>
5.8.1

> <Gold.Id.Protein>
6NUR|6NUR_protein|mol2

> <Gold.PLP.Fitness>
44.8169

> <Gold.PLP.PLP>
-36.3693

> <Gold.PLP.part.hbond>
-2.0000

> <Gold.PLP.part.metal>
0.0000

> <Gold.PLP.part.buried>
-5.4700

> <Gold.PLP.part.nonpolar>
-29.7582

> <Gold.PLP.part.repulsive>
0.7284

> <Gold.PLP.ligand.clash>
0.0000

> <Gold.PLP.ligand.torsion>
0.5547

> <Gold.PLP.Chemscore.Hbond>
2.0000

> <Gold.PLP.Chemscore.CHOScore>
1.0000

> <Gold.PLP.Chemscore.Metal>
0.0000

> <Gold.Chemscore.Hbonds>
donor molecule, donor type, donor heavy atom, donor atom, acceptor molecule, acceptor atom, score
      L1  H     8    31       P1  7948  1.00
      L1  H    11    32       P1  7948  1.00
      L1  C     5    30       P1 10186  1.00

> <Gold.PLP.Chemscore.Internal.Correction>
0.5570

> <Gold.Rescore>
     Score         DG    S(hbond)    S(metal)    S(lipo)     H(rot)  DE(clash)    DE(int)     intcor
     16.48     -18.05       1.96        0.00      87.44       1.65       0.04       1.52       ----

> <Gold.Chemscore.Fitness>
16.4845

> <Gold.Chemscore.DG>
-18.0468

> <Gold.Chemscore.ZeroCoef>
-5.4800

> <Gold.Chemscore.Hbond>
1.9627

> <Gold.Chemscore.Metal>
0.0000

> <Gold.Chemscore.Lipo>
87.4383

> <Gold.Chemscore.Internal_Hbond>
0.0000

> <Gold.Chemscore.DEClash>
0.0447

> <Gold.Chemscore.DEInternal>
1.5176

> <Gold.Chemscore.Rot>
1.6480

> <Gold.Chemscore.Internal.Correction>
   9.000000E+99

> <Gold.Chemscore.Hbonds>
donor molecule, donor type, donor heavy atom, donor atom, acceptor molecule, acceptor atom, score
      L1  H     8    31       P1  7948  0.97
      L1  H    11    32       P1  7948  0.95

> <Gold.Chemscore.Hbond.Weighted>
-6.5553

> <Gold.Chemscore.Metal.Weighted>
-0.0000

> <Gold.Chemscore.Lipo.Weighted>
-10.2303

> <Gold.Chemscore.Internal_Hbond.Weighted>
0.0000

> <Gold.Chemscore.DEClash.Weighted>
0.0447

> <Gold.Chemscore.DEInternal.Weighted>
1.5176

> <Gold.Chemscore.Rot.Weighted>
4.2188

> <Gold.Chemscore.Internal.Correction.Weighted>
   9.000000E+99

> <Gold.Protein.RotatedTorsions>
[ 6907 6896 6895 6894 ] final  -53.06 input  -60.11 | X-H torsion
[ 7974 7965 7964 7962 ] final  151.29 input  175.53 | X-H torsion
[ 8008 7997 7996 7995 ] final  -65.35 input   59.86 | X-H torsion
[ 10167 10162 10161 10158 ] final  125.87 input  -65.29 | X-H torsion
[ 10718 10713 10712 10709 ] final -122.05 input   66.30 | X-H torsion
[ 10763 10752 10751 10750 ] final   -6.14 input  -60.55 | X-H torsion
[ 11005 11000 10999 10996 ] final -163.89 input  -57.11 | X-H torsion

> <Gold.Protein.ActiveResidues>
 VAL166  LYS551  ARG553  GLY616  TRP617  ASP618  TYR619  PRO620  LYS621  CYS622 
 ASP623  PHE694  ASN695  SER759  ASP760  ASP761  ALA762  ILE779  LEU786  VAL792 
 PHE793  MET794  SER795  GLU796  ALA797  LYS798  CYS799  TRP800  GLU811  SER814 

> <Gold.Protein.RotatedAtoms>
  150.8461  134.7770  159.6971 H   0  0  0  0  0  0  0  0  0  0  0  0  # atno 6907 bound_to 6896
  152.4537  134.5334  159.9827 H   0  0  0  0  0  0  0  0  0  0  0  0  # atno 6908 bound_to 6896
  151.5464  133.3386  159.2980 H   0  0  0  0  0  0  0  0  0  0  0  0  # atno 6909 bound_to 6896
  144.8303  139.6519  143.6062 H   0  0  0  0  0  0  0  0  0  0  0  0  # atno 7974 bound_to 7965
  154.4666  140.0935  156.7037 H   0  0  0  0  0  0  0  0  0  0  0  0  # atno 8008 bound_to 7997
  155.4840  140.3468  155.4326 H   0  0  0  0  0  0  0  0  0  0  0  0  # atno 8009 bound_to 7997
  156.0967  140.1411  156.9510 H   0  0  0  0  0  0  0  0  0  0  0  0  # atno 8010 bound_to 7997
  139.5662  144.6912  151.3905 H   0  0  0  0  0  0  0  0  0  0  0  0  # atno 10167 bound_to 10162
  156.1387  130.6449  150.9736 H   0  0  0  0  0  0  0  0  0  0  0  0  # atno 10718 bound_to 10713
  153.4082  135.7007  153.6378 H   0  0  0  0  0  0  0  0  0  0  0  0  # atno 10763 bound_to 10752
  153.4883  135.3678  155.2478 H   0  0  0  0  0  0  0  0  0  0  0  0  # atno 10764 bound_to 10752
  154.8715  135.4082  154.3429 H   0  0  0  0  0  0  0  0  0  0  0  0  # atno 10765 bound_to 10752
  140.5930  134.5025  157.5195 H   0  0  0  0  0  0  0  0  0  0  0  0  # atno 11005 bound_to 11000
  146.2606  139.6402  142.9364 LP  0  0  0  0  0  0  0  0  0  0  0  0  # atno 17320 bound_to 7965
  145.4911  141.0438  143.2593 LP  0  0  0  0  0  0  0  0  0  0  0  0  # atno 17321 bound_to 7965
  140.6945  143.7782  150.7305 LP  0  0  0  0  0  0  0  0  0  0  0  0  # atno 17342 bound_to 10162
  140.1274  143.4556  152.2275 LP  0  0  0  0  0  0  0  0  0  0  0  0  # atno 17343 bound_to 10162
  157.6556  131.0890  150.7955 LP  0  0  0  0  0  0  0  0  0  0  0  0  # atno 17370 bound_to 10713
  156.8033  130.4928  149.5366 LP  0  0  0  0  0  0  0  0  0  0  0  0  # atno 17371 bound_to 10713
  139.9266  134.8045  156.1052 LP  0  0  0  0  0  0  0  0  0  0  0  0  # atno 17394 bound_to 11000
  141.0922  133.6709  156.2566 LP  0  0  0  0  0  0  0  0  0  0  0  0  # atno 17395 bound_to 11000

$$$$
