AV-unprocessed.smi:102|AV-procd|sdf|948|dock7
  -GOLD-   2262017473D 1   1.00000     0.00000
 Structure written by MMmdl.
 44 45  0  0  0  0  0  0  0  0  1 V2000
  151.5510  142.1443  156.2565 C   0  0  0  0  0  0  0  0  0  0  0  0
  152.2687  140.8064  156.1319 C   0  0  0  0  0  0  0  0  0  0  0  0
  153.0796  140.4327  156.9797 O   0  0  0  0  0  0  0  0  0  0  0  0
  151.9135  140.1293  155.0295 O   0  0  0  0  0  0  0  0  0  0  0  0
  152.3129  138.7771  154.8822 C   0  0  0  0  0  0  0  0  0  0  0  0
  151.1619  137.9689  154.2528 C   0  0  1  0  0  0  0  0  0  0  0  0
  151.4142  136.5787  154.4270 O   0  0  0  0  0  0  0  0  0  0  0  0
  150.9453  136.1737  155.6778 C   0  0  2  0  0  0  0  0  0  0  0  0
  150.4267  134.7575  155.5682 N   0  0  0  0  0  0  0  0  0  0  0  0
  149.4514  134.4418  154.6315 C   0  0  0  0  0  0  0  0  0  0  0  0
  148.9212  133.2022  154.5059 C   0  0  0  0  0  0  0  0  0  0  0  0
  147.9843  132.9732  153.5701 F   0  0  0  0  0  0  0  0  0  0  0  0
  149.3532  132.1154  155.3795 C   0  0  0  0  0  0  0  0  0  0  0  0
  148.9387  130.9588  155.3376 O   0  0  0  0  0  0  0  0  0  0  0  0
  150.3154  132.4839  156.3239 N   0  0  0  0  0  0  0  0  0  0  0  0
  150.8648  133.7591  156.4686 C   0  0  0  0  0  0  0  0  0  0  0  0
  151.6894  133.9704  157.3556 O   0  0  0  0  0  0  0  0  0  0  0  0
  149.8684  137.1783  156.1323 C   0  0  1  0  0  0  0  0  0  0  0  0
  150.3094  137.8096  157.3318 O   0  0  0  0  0  0  0  0  0  0  0  0
  150.5998  137.0786  158.4225 C   0  0  0  0  0  0  0  0  0  0  0  0
  151.4317  137.8548  159.4342 C   0  0  0  0  0  0  0  0  0  0  0  0
  150.2504  135.9173  158.6331 O   0  0  0  0  0  0  0  0  0  0  0  0
  149.8066  138.1468  154.9510 C   0  0  1  0  0  0  0  0  0  0  0  0
  149.5173  139.4850  155.3440 O   0  0  0  0  0  0  0  0  0  0  0  0
  149.2456  140.4219  154.4202 C   0  0  0  0  0  0  0  0  0  0  0  0
  148.4699  141.5974  154.9989 C   0  0  0  0  0  0  0  0  0  0  0  0
  149.5718  140.3864  153.2339 O   0  0  0  0  0  0  0  0  0  0  0  0
  150.6352  131.7682  156.9602 H   0  0  0  0  0  0  0  0  0  0  0  0
  150.7809  142.2475  155.4915 H   0  0  0  0  0  0  0  0  0  0  0  0
  152.2613  142.9637  156.1452 H   0  0  0  0  0  0  0  0  0  0  0  0
  151.0772  142.2285  157.2346 H   0  0  0  0  0  0  0  0  0  0  0  0
  153.2202  138.7101  154.2808 H   0  0  0  0  0  0  0  0  0  0  0  0
  152.5491  138.3813  155.8707 H   0  0  0  0  0  0  0  0  0  0  0  0
  151.0782  138.2113  153.1929 H   0  0  0  0  0  0  0  0  0  0  0  0
  151.7906  136.1324  156.3667 H   0  0  0  0  0  0  0  0  0  0  0  0
  149.0914  135.2091  153.9612 H   0  0  0  0  0  0  0  0  0  0  0  0
  148.9154  136.6687  156.2786 H   0  0  0  0  0  0  0  0  0  0  0  0
  152.2976  138.3056  158.9488 H   0  0  0  0  0  0  0  0  0  0  0  0
  151.7853  137.1948  160.2269 H   0  0  0  0  0  0  0  0  0  0  0  0
  150.8343  138.6472  159.8854 H   0  0  0  0  0  0  0  0  0  0  0  0
  149.0251  137.7917  154.2785 H   0  0  0  0  0  0  0  0  0  0  0  0
  147.6839  141.2436  155.6665 H   0  0  0  0  0  0  0  0  0  0  0  0
  148.0095  142.1819  154.2019 H   0  0  0  0  0  0  0  0  0  0  0  0
  149.1382  142.2476  155.5637 H   0  0  0  0  0  0  0  0  0  0  0  0
  1  2  1  0  0  0  0
  1 29  1  0  0  0  0
  1 30  1  0  0  0  0
  1 31  1  0  0  0  0
  2  3  2  0  0  0  0
  2  4  1  0  0  0  0
  4  5  1  0  0  0  0
  5  6  1  0  0  0  0
  5 32  1  0  0  0  0
  5 33  1  0  0  0  0
  6 23  1  0  0  0  0
  6  7  1  0  0  0  0
  6 34  1  0  0  0  0
  7  8  1  0  0  0  0
  8  9  1  0  0  0  0
  8 18  1  0  0  0  0
  8 35  1  0  0  0  0
  9 16  1  0  0  0  0
  9 10  1  0  0  0  0
 10 11  2  0  0  0  0
 10 36  1  0  0  0  0
 11 12  1  0  0  0  0
 11 13  1  0  0  0  0
 13 14  2  0  0  0  0
 13 15  1  0  0  0  0
 15 28  1  0  0  0  0
 15 16  1  0  0  0  0
 16 17  2  0  0  0  0
 18 19  1  0  0  0  0
 18 23  1  0  0  0  0
 18 37  1  0  0  0  0
 19 20  1  0  0  0  0
 20 21  1  0  0  0  0
 20 22  2  0  0  0  0
 21 38  1  0  0  0  0
 21 39  1  0  0  0  0
 21 40  1  0  0  0  0
 23 24  1  0  0  0  0
 23 41  1  0  0  0  0
 24 25  1  0  0  0  0
 25 26  1  0  0  0  0
 25 27  2  0  0  0  0
 26 42  1  0  0  0  0
 26 43  1  0  0  0  0
 26 44  1  0  0  0  0
M  END
> <s_m_source_file>
AV-unprocessed.smi

> <i_m_source_file_index>
102

> <i_lp_mmshare_version>
43012

> <i_f3d_flags>
0

> <s_epik_input>
W0NIM11DKD1PKU9bQ0gyXVtDQEBIXTFPW0NASF0oW0NAQEhdKE9DKD1PKVtDSDNdKVtDQEhdMU9DKD1PKVtDSDNdKW4yW2NIXWMoRiljKD1PKVtuSF1jMj1P

> <s_epik_cmdline>
J2VwaWtfcHl0aG9uJywgJy1waCcsICc3LjAnLCAnLXRuJywgJzgnLCAnLW1hJywgJzIwMCcsICctbWV0YWxfYmluZGluZycsICctaW1hZScsICc8aW5maWxlLm1hZT4nLCAnLW9tYWUnLCAnPG91dGZpbGUubWFlPic=

> <r_lp_tautomer_probability>
0.999537

> <r_epik_Ionization_Penalty>
0.058267

> <r_epik_Ionization_Penalty_Charging>
0.058267

> <r_epik_Ionization_Penalty_Neutral>
6.57791e-16

> <r_epik_State_Penalty>
0.0503774

> <r_epik_Charging_Adjusted_Penalty>
0.108644

> <i_epik_Tot_Q>
0

> <i_epik_Tot_abs_Q>
0

> <r_epik_Metal_State_Penalty>
2.6644

> <b_epik_Metal_Only>
0

> <s_epik_Chemistry_Notes>
This compound has an ester and may undergo hydrolysis at high or low pH. This compound contains an acetal/aminal-like group ( X-CH(R)-Y where X, Y are N, S, or O) that may be acid/base labile, releasing an aldehyde.

> <s_lp_Force_Field>
OPLS_2005

> <r_lp_Energy>
11.7279

> <b_lp_Chiralities_Consistent>
1

> <s_lp_Variant>
AV-unprocessed.smi:102-4

> <Gold.Version>
5.8.1

> <Gold.Id.Protein>
6NUR|6NUR_protein|mol2

> <Gold.PLP.Fitness>
50.1061

> <Gold.PLP.PLP>
-37.1396

> <Gold.PLP.part.hbond>
-6.3820

> <Gold.PLP.part.metal>
0.0000

> <Gold.PLP.part.buried>
-5.4397

> <Gold.PLP.part.nonpolar>
-32.5564

> <Gold.PLP.part.repulsive>
7.0730

> <Gold.PLP.ligand.clash>
0.0000

> <Gold.PLP.ligand.torsion>
1.1727

> <Gold.PLP.Chemscore.Hbond>
4.1000

> <Gold.PLP.Chemscore.CHOScore>
0.9619

> <Gold.PLP.Chemscore.Metal>
0.0000

> <Gold.Chemscore.Hbonds>
donor molecule, donor type, donor heavy atom, donor atom, acceptor molecule, acceptor atom, score
      P1  H  6896  6907       L1    22  1.00
      P1  H  6896  6909       L1    17  0.27
      P1  H  7989  7998       L1    27  0.30
      P1  H  7997  8010       L1     3  0.50
      P1  H  8011  8017       L1    27  0.52
      P1  H 10752 10763       L1     7  0.80
      L1  C    10    36       P1  7948  1.00

> <Gold.PLP.Chemscore.Internal.Correction>
0.1261

> <Gold.Rescore>
     Score         DG    S(hbond)    S(metal)    S(lipo)     H(rot)  DE(clash)    DE(int)     intcor
      1.32      -8.97       2.33        0.00      51.97       4.05       2.73       4.92       ----

> <Gold.Chemscore.Fitness>
1.3198

> <Gold.Chemscore.DG>
-8.9686

> <Gold.Chemscore.ZeroCoef>
-5.4800

> <Gold.Chemscore.Hbond>
2.3296

> <Gold.Chemscore.Metal>
0.0000

> <Gold.Chemscore.Lipo>
51.9724

> <Gold.Chemscore.Internal_Hbond>
0.0000

> <Gold.Chemscore.DEClash>
2.7313

> <Gold.Chemscore.DEInternal>
4.9175

> <Gold.Chemscore.Rot>
4.0520

> <Gold.Chemscore.Internal.Correction>
   9.000000E+99

> <Gold.Chemscore.Hbonds>
donor molecule, donor type, donor heavy atom, donor atom, acceptor molecule, acceptor atom, score
      P1  H  6896  6907       L1    22  0.94
      P1  H  6896  6909       L1    17  0.27
      P1  H  7989  7998       L1    27  0.07
      P1  H  7997  8010       L1     3  0.49
      P1  H  8011  8017       L1    27  0.46
      P1  H 10752 10763       L1     7  0.12

> <Gold.Chemscore.Hbond.Weighted>
-7.7810

> <Gold.Chemscore.Metal.Weighted>
-0.0000

> <Gold.Chemscore.Lipo.Weighted>
-6.0808

> <Gold.Chemscore.Internal_Hbond.Weighted>
0.0000

> <Gold.Chemscore.DEClash.Weighted>
2.7313

> <Gold.Chemscore.DEInternal.Weighted>
4.9175

> <Gold.Chemscore.Rot.Weighted>
10.3732

> <Gold.Chemscore.Internal.Correction.Weighted>
   9.000000E+99

> <Gold.Protein.RotatedTorsions>
[ 6907 6896 6895 6894 ] final  -50.38 input  -60.11 | X-H torsion
[ 7974 7965 7964 7962 ] final -133.97 input  175.53 | X-H torsion
[ 8008 7997 7996 7995 ] final   60.56 input   59.86 | X-H torsion
[ 10167 10162 10161 10158 ] final  -75.55 input  -65.29 | X-H torsion
[ 10718 10713 10712 10709 ] final  -98.78 input   66.30 | X-H torsion
[ 10763 10752 10751 10750 ] final   53.75 input  -60.55 | X-H torsion
[ 11005 11000 10999 10996 ] final   86.77 input  -57.11 | X-H torsion

> <Gold.Protein.ActiveResidues>
 VAL166  LYS551  ARG553  GLY616  TRP617  ASP618  TYR619  PRO620  LYS621  CYS622 
 ASP623  PHE694  ASN695  SER759  ASP760  ASP761  ALA762  ILE779  LEU786  VAL792 
 PHE793  MET794  SER795  GLU796  ALA797  LYS798  CYS799  TRP800  GLU811  SER814 

> <Gold.Protein.RotatedAtoms>
  150.8713  134.8087  159.7156 H   0  0  0  0  0  0  0  0  0  0  0  0  # atno 6907 bound_to 6896
  152.4716  134.4943  159.9715 H   0  0  0  0  0  0  0  0  0  0  0  0  # atno 6908 bound_to 6896
  151.5031  133.3462  159.2908 H   0  0  0  0  0  0  0  0  0  0  0  0  # atno 6909 bound_to 6896
  144.9145  140.6937  143.5004 H   0  0  0  0  0  0  0  0  0  0  0  0  # atno 7974 bound_to 7965
  155.5843  140.3492  155.4549 H   0  0  0  0  0  0  0  0  0  0  0  0  # atno 8008 bound_to 7997
  156.0349  140.1283  157.0243 H   0  0  0  0  0  0  0  0  0  0  0  0  # atno 8009 bound_to 7997
  154.4367  140.1036  156.6139 H   0  0  0  0  0  0  0  0  0  0  0  0  # atno 8010 bound_to 7997
  140.4933  143.2376  151.7872 H   0  0  0  0  0  0  0  0  0  0  0  0  # atno 10167 bound_to 10162
  156.0116  130.5253  150.6573 H   0  0  0  0  0  0  0  0  0  0  0  0  # atno 10718 bound_to 10713
  152.9798  135.5768  154.4792 H   0  0  0  0  0  0  0  0  0  0  0  0  # atno 10763 bound_to 10752
  154.4343  135.2774  155.1893 H   0  0  0  0  0  0  0  0  0  0  0  0  # atno 10764 bound_to 10752
  154.3588  135.6193  153.5734 H   0  0  0  0  0  0  0  0  0  0  0  0  # atno 10765 bound_to 10752
  139.8936  134.8378  156.2767 H   0  0  0  0  0  0  0  0  0  0  0  0  # atno 11005 bound_to 11000
  145.3399  139.1735  143.4491 LP  0  0  0  0  0  0  0  0  0  0  0  0  # atno 17320 bound_to 7965
  146.3175  140.3439  142.8650 LP  0  0  0  0  0  0  0  0  0  0  0  0  # atno 17321 bound_to 7965
  139.4856  144.4620  151.9529 LP  0  0  0  0  0  0  0  0  0  0  0  0  # atno 17342 bound_to 10162
  140.3707  144.2858  150.5920 LP  0  0  0  0  0  0  0  0  0  0  0  0  # atno 17343 bound_to 10162
  157.4322  131.0851  151.1027 LP  0  0  0  0  0  0  0  0  0  0  0  0  # atno 17370 bound_to 10713
  157.1596  130.6220  149.5606 LP  0  0  0  0  0  0  0  0  0  0  0  0  # atno 17371 bound_to 10713
  141.0065  133.7120  156.1043 LP  0  0  0  0  0  0  0  0  0  0  0  0  # atno 17394 bound_to 11000
  140.7426  134.4133  157.5552 LP  0  0  0  0  0  0  0  0  0  0  0  0  # atno 17395 bound_to 11000

$$$$
