AV-unprocessed.smi:1970|AV-procd|sdf|7960|dock1
  -GOLD-   2272010133D 1   1.00000     0.00000
 Structure written by MMmdl.
 33 34  0  0  0  0  0  0  0  0  1 V2000
  150.1896  140.1156  154.3156 O   0  0  0  0  0  0  0  0  0  0  0  0
  149.4040  141.0276  154.5731 C   0  0  0  0  0  0  0  0  0  0  0  0
  148.1478  141.2173  153.7190 C   0  0  0  0  0  0  0  0  0  0  0  0
  147.0275  141.6991  154.5292 N   0  0  0  0  0  0  0  0  0  0  0  0
  146.2421  142.8316  154.0502 C   0  0  0  0  0  0  0  0  0  0  0  0
  145.2655  143.4152  155.4591 S   0  0  0  0  0  0  0  0  0  0  0  0
  145.5016  141.8800  156.3695 C   0  0  0  0  0  0  0  0  0  0  0  0
  146.6683  141.1655  155.7099 C   0  0  0  0  0  0  0  0  0  0  0  0
  147.2107  140.1973  156.2418 O   0  0  0  0  0  0  0  0  0  0  0  0
  149.5776  141.8915  155.5857 N   0  0  0  0  0  0  0  0  0  0  0  0
  150.7272  141.9229  156.4871 C   0  0  0  0  0  0  0  0  0  0  0  0
  150.3223  141.7830  157.9693 C   0  0  0  0  0  0  0  0  0  0  0  0
  150.8396  142.9033  158.8566 C   0  0  0  0  0  0  0  0  0  0  0  0
  151.6500  143.9305  158.3267 C   0  0  0  0  0  0  0  0  0  0  0  0
  152.1381  144.9197  159.2018 C   0  0  0  0  0  0  0  0  0  0  0  0
  151.7924  144.8494  160.5648 C   0  0  0  0  0  0  0  0  0  0  0  0
  150.9678  143.7900  160.9930 C   0  0  0  0  0  0  0  0  0  0  0  0
  150.4959  142.8353  160.1625 N   0  0  0  0  0  0  0  0  0  0  0  0
  148.3681  141.9396  152.9318 H   0  0  0  0  0  0  0  0  0  0  0  0
  147.8809  140.2876  153.2127 H   0  0  0  0  0  0  0  0  0  0  0  0
  146.8761  143.6342  153.6723 H   0  0  0  0  0  0  0  0  0  0  0  0
  145.5781  142.5064  153.2490 H   0  0  0  0  0  0  0  0  0  0  0  0
  145.7054  142.0845  157.4206 H   0  0  0  0  0  0  0  0  0  0  0  0
  144.6056  141.2629  156.2998 H   0  0  0  0  0  0  0  0  0  0  0  0
  148.8737  142.6024  155.7237 H   0  0  0  0  0  0  0  0  0  0  0  0
  151.3840  141.0967  156.2147 H   0  0  0  0  0  0  0  0  0  0  0  0
  151.3090  142.8339  156.3373 H   0  0  0  0  0  0  0  0  0  0  0  0
  149.2354  141.7364  158.0492 H   0  0  0  0  0  0  0  0  0  0  0  0
  150.6925  140.8339  158.3585 H   0  0  0  0  0  0  0  0  0  0  0  0
  151.9063  143.9519  157.2780 H   0  0  0  0  0  0  0  0  0  0  0  0
  152.7695  145.7153  158.8350 H   0  0  0  0  0  0  0  0  0  0  0  0
  152.1497  145.5895  161.2654 H   0  0  0  0  0  0  0  0  0  0  0  0
  150.6808  143.7059  162.0307 H   0  0  0  0  0  0  0  0  0  0  0  0
  1  2  2  0  0  0  0
  2  3  1  0  0  0  0
  2 10  1  0  0  0  0
  3  4  1  0  0  0  0
  3 19  1  0  0  0  0
  3 20  1  0  0  0  0
  4  8  1  0  0  0  0
  4  5  1  0  0  0  0
  5  6  1  0  0  0  0
  5 21  1  0  0  0  0
  5 22  1  0  0  0  0
  6  7  1  0  0  0  0
  7  8  1  0  0  0  0
  7 23  1  0  0  0  0
  7 24  1  0  0  0  0
  8  9  2  0  0  0  0
 10 11  1  0  0  0  0
 10 25  1  0  0  0  0
 11 12  1  0  0  0  0
 11 26  1  0  0  0  0
 11 27  1  0  0  0  0
 12 13  1  0  0  0  0
 12 28  1  0  0  0  0
 12 29  1  0  0  0  0
 13 18  1  0  0  0  0
 13 14  2  0  0  0  0
 14 15  1  0  0  0  0
 14 30  1  0  0  0  0
 15 16  2  0  0  0  0
 15 31  1  0  0  0  0
 16 17  1  0  0  0  0
 16 32  1  0  0  0  0
 17 18  2  0  0  0  0
 17 33  1  0  0  0  0
M  END
> <s_m_source_file>
AV-unprocessed.smi

> <i_m_source_file_index>
1970

> <i_lp_mmshare_version>
43012

> <i_f3d_flags>
0

> <s_epik_input>
Tz1DMVtDSDJdU1tDSDJdTjFbQ0gyXUMoPU8pW05IXVtDSDJdW0NIMl1jMltjSF1bY0hdW2NIXVtjSF1uMg==

> <s_epik_cmdline>
J2VwaWtfcHl0aG9uJywgJy1waCcsICc3LjAnLCAnLXRuJywgJzgnLCAnLW1hJywgJzIwMCcsICctbWV0YWxfYmluZGluZycsICctaW1hZScsICc8aW5maWxlLm1hZT4nLCAnLW9tYWUnLCAnPG91dGZpbGUubWFlPic=

> <r_epik_Ionization_Penalty>
0.0255556

> <r_epik_Ionization_Penalty_Charging>
0

> <r_epik_Ionization_Penalty_Neutral>
0.0255556

> <r_epik_State_Penalty>
0.0208108

> <r_epik_Charging_Adjusted_Penalty>
0.0208108

> <i_epik_Tot_Q>
0

> <i_epik_Tot_abs_Q>
0

> <r_epik_Metal_State_Penalty>
0.0199448

> <b_epik_Metal_Only>
0

> <s_epik_Chemistry_Notes>
This compound contains an acetal/aminal-like group ( X-CH(R)-Y where X, Y are N, S, or O) that may be acid/base labile, releasing an aldehyde.

> <s_lp_Force_Field>
OPLS_2005

> <r_lp_Energy>
5.35786

> <b_lp_Chiralities_Consistent>
1

> <s_lp_Variant>
AV-unprocessed.smi:1970-1

> <Gold.Version>
5.8.1

> <Gold.Id.Protein>
6NUR|6NUR_protein|mol2

> <Gold.PLP.Fitness>
47.0083

> <Gold.PLP.PLP>
-43.3725

> <Gold.PLP.part.hbond>
-3.0000

> <Gold.PLP.part.metal>
0.0000

> <Gold.PLP.part.buried>
-5.9989

> <Gold.PLP.part.nonpolar>
-35.2576

> <Gold.PLP.part.repulsive>
0.3710

> <Gold.PLP.ligand.clash>
0.0000

> <Gold.PLP.ligand.torsion>
0.8652

> <Gold.PLP.Chemscore.Hbond>
1.7520

> <Gold.PLP.Chemscore.CHOScore>
0.0000

> <Gold.PLP.Chemscore.Metal>
0.0000

> <Gold.Chemscore.Hbonds>
donor molecule, donor type, donor heavy atom, donor atom, acceptor molecule, acceptor atom, score
      L1  H    10    25       P1  8028  0.55
      P1  H  7989  7998       L1     1  1.00

> <Gold.PLP.Chemscore.Internal.Correction>
0.1103

> <Gold.Rescore>
     Score         DG    S(hbond)    S(metal)    S(lipo)     H(rot)  DE(clash)    DE(int)     intcor
     15.38     -16.33       1.43        0.00      93.84       1.92       0.22       0.73       ----

> <Gold.Chemscore.Fitness>
15.3801

> <Gold.Chemscore.DG>
-16.3292

> <Gold.Chemscore.ZeroCoef>
-5.4800

> <Gold.Chemscore.Hbond>
1.4340

> <Gold.Chemscore.Metal>
0.0000

> <Gold.Chemscore.Lipo>
93.8354

> <Gold.Chemscore.Internal_Hbond>
0.0000

> <Gold.Chemscore.DEClash>
0.2160

> <Gold.Chemscore.DEInternal>
0.7332

> <Gold.Chemscore.Rot>
1.9215

> <Gold.Chemscore.Internal.Correction>
   9.000000E+99

> <Gold.Chemscore.Hbonds>
donor molecule, donor type, donor heavy atom, donor atom, acceptor molecule, acceptor atom, score
      L1  H    10    25       P1  8028  0.55
      P1  H  7989  7998       L1     1  0.58

> <Gold.Chemscore.Hbond.Weighted>
-4.7895

> <Gold.Chemscore.Metal.Weighted>
-0.0000

> <Gold.Chemscore.Lipo.Weighted>
-10.9787

> <Gold.Chemscore.Internal_Hbond.Weighted>
0.0000

> <Gold.Chemscore.DEClash.Weighted>
0.2160

> <Gold.Chemscore.DEInternal.Weighted>
0.7332

> <Gold.Chemscore.Rot.Weighted>
4.9190

> <Gold.Chemscore.Internal.Correction.Weighted>
   9.000000E+99

> <Gold.Protein.RotatedTorsions>
[ 6907 6896 6895 6894 ] final -146.62 input  -60.11 | X-H torsion
[ 7974 7965 7964 7962 ] final  155.43 input  175.53 | X-H torsion
[ 8008 7997 7996 7995 ] final  -61.89 input   59.86 | X-H torsion
[ 10167 10162 10161 10158 ] final  153.11 input  -65.29 | X-H torsion
[ 10718 10713 10712 10709 ] final -140.03 input   66.30 | X-H torsion
[ 10763 10752 10751 10750 ] final -111.58 input  -60.55 | X-H torsion
[ 11005 11000 10999 10996 ] final  160.32 input  -57.11 | X-H torsion

> <Gold.Protein.ActiveResidues>
 VAL166  LYS551  ARG553  GLY616  TRP617  ASP618  TYR619  PRO620  LYS621  CYS622 
 ASP623  PHE694  ASN695  SER759  ASP760  ASP761  ALA762  ILE779  LEU786  VAL792 
 PHE793  MET794  SER795  GLU796  ALA797  LYS798  CYS799  TRP800  GLU811  SER814 

> <Gold.Protein.RotatedAtoms>
  151.1442  133.4950  159.2596 H   0  0  0  0  0  0  0  0  0  0  0  0  # atno 6907 bound_to 6896
  151.1622  135.0278  159.8725 H   0  0  0  0  0  0  0  0  0  0  0  0  # atno 6908 bound_to 6896
  152.5463  134.1315  159.8494 H   0  0  0  0  0  0  0  0  0  0  0  0  # atno 6909 bound_to 6896
  144.8025  139.7067  143.6176 H   0  0  0  0  0  0  0  0  0  0  0  0  # atno 7974 bound_to 7965
  154.4471  140.1008  156.6501 H   0  0  0  0  0  0  0  0  0  0  0  0  # atno 8008 bound_to 7997
  155.5407  140.3483  155.4427 H   0  0  0  0  0  0  0  0  0  0  0  0  # atno 8009 bound_to 7997
  156.0599  140.1324  156.9942 H   0  0  0  0  0  0  0  0  0  0  0  0  # atno 8010 bound_to 7997
  139.4829  144.5301  151.7736 H   0  0  0  0  0  0  0  0  0  0  0  0  # atno 10167 bound_to 10162
  156.3176  130.7516  151.1606 H   0  0  0  0  0  0  0  0  0  0  0  0  # atno 10718 bound_to 10713
  154.8307  135.4522  154.1060 H   0  0  0  0  0  0  0  0  0  0  0  0  # atno 10763 bound_to 10752
  153.2336  135.6908  153.7868 H   0  0  0  0  0  0  0  0  0  0  0  0  # atno 10764 bound_to 10752
  153.7242  135.3337  155.3249 H   0  0  0  0  0  0  0  0  0  0  0  0  # atno 10765 bound_to 10752
  140.2048  134.8311  157.3057 H   0  0  0  0  0  0  0  0  0  0  0  0  # atno 11005 bound_to 11000
  146.2310  139.5813  142.9555 LP  0  0  0  0  0  0  0  0  0  0  0  0  # atno 17320 bound_to 7965
  145.5518  141.0412  143.2274 LP  0  0  0  0  0  0  0  0  0  0  0  0  # atno 17321 bound_to 7965
  140.4826  144.1427  150.5935 LP  0  0  0  0  0  0  0  0  0  0  0  0  # atno 17342 bound_to 10162
  140.4260  143.2589  151.9655 LP  0  0  0  0  0  0  0  0  0  0  0  0  # atno 17343 bound_to 10162
  157.7405  131.0516  150.5163 LP  0  0  0  0  0  0  0  0  0  0  0  0  # atno 17370 bound_to 10713
  156.5311  130.4185  149.6201 LP  0  0  0  0  0  0  0  0  0  0  0  0  # atno 17371 bound_to 10713
  140.2015  134.4249  155.7660 LP  0  0  0  0  0  0  0  0  0  0  0  0  # atno 17394 bound_to 11000
  141.2227  133.7074  156.8190 LP  0  0  0  0  0  0  0  0  0  0  0  0  # atno 17395 bound_to 11000

$$$$
