AV-unprocessed.smi:45|AV-procd|sdf|414|dock9
  -GOLD-   2262016283D 1   1.00000     0.00000
 Structure written by MMmdl.
 59 62  0  0  0  0  0  0  0  0  2 V2000
  149.6141  140.8653  155.5095 C   0  0  0  0  0  0  0  0  0  0  0  0
  150.6036  139.9654  155.0327 O   0  0  0  0  0  0  0  0  0  0  0  0
  150.3266  138.6141  155.0636 C   0  0  0  0  0  0  0  0  0  0  0  0
  149.0242  138.0792  155.2337 C   0  0  0  0  0  0  0  0  0  0  0  0
  148.8193  136.6863  155.2538 C   0  0  0  0  0  0  0  0  0  0  0  0
  149.9087  135.8054  155.1043 C   0  0  0  0  0  0  0  0  0  0  0  0
  149.6875  134.3062  155.1235 C   0  0  0  0  0  0  0  0  0  0  0  0
  149.9323  133.6759  153.8350 N   0  0  0  0  0  0  0  0  0  0  0  0
  148.9911  132.8093  153.2541 C   0  0  0  0  0  0  0  0  0  0  0  0
  148.0329  133.3564  152.4675 N   0  0  0  0  0  0  0  0  0  0  0  0
  147.1451  132.5374  151.9012 C   0  0  0  0  0  0  0  0  0  0  0  0
  146.1683  133.1437  151.1269 N   0  0  0  0  0  0  0  0  0  0  0  0
  146.0994  132.8441  149.6984 C   0  0  0  0  0  0  0  0  0  0  0  0
  144.6140  132.8042  149.3168 C   0  0  0  0  0  0  0  0  0  0  0  0
  143.9259  133.5648  150.4445 C   0  0  0  0  0  0  0  0  0  0  0  0
  144.8049  133.2027  151.6429 C   0  0  2  0  0  0  0  0  0  0  0  0
  144.6370  134.0924  152.8927 C   0  0  0  0  0  0  0  0  0  0  0  0
  143.3013  134.1041  153.3537 O   0  0  0  0  0  0  0  0  0  0  0  0
  147.0980  131.2096  152.0355 N   0  0  0  0  0  0  0  0  0  0  0  0
  148.0449  130.6430  152.8135 C   0  0  0  0  0  0  0  0  0  0  0  0
  149.0455  131.4038  153.4654 C   0  0  0  0  0  0  0  0  0  0  0  0
  150.0646  130.7415  154.3584 C   0  0  0  0  0  0  0  0  0  0  0  0
  150.0506  131.0065  155.5657 O   0  0  0  0  0  0  0  0  0  0  0  0
  150.9017  129.9301  153.6554 N   0  5  0  0  0  0  0  0  0  0  0  0
  151.8957  129.0466  154.2647 C   0  0  0  0  0  0  0  0  0  0  0  0
  153.2986  129.6268  154.1552 C   0  0  0  0  0  0  0  0  0  0  0  0
  153.7617  130.2939  155.2200 N   0  0  0  0  0  0  0  0  0  0  0  0
  155.0168  130.7850  155.1378 C   0  0  0  0  0  0  0  0  0  0  0  0
  155.8081  130.6095  153.9850 C   0  0  0  0  0  0  0  0  0  0  0  0
  155.2148  129.8954  152.9247 C   0  0  0  0  0  0  0  0  0  0  0  0
  153.9591  129.4062  153.0115 N   0  0  0  0  0  0  0  0  0  0  0  0
  151.2052  136.3288  154.9349 C   0  0  0  0  0  0  0  0  0  0  0  0
  151.4125  137.7219  154.9163 C   0  0  0  0  0  0  0  0  0  0  0  0
  153.0160  138.3303  154.7093 Cl  0  0  0  0  0  0  0  0  0  0  0  0
  144.5490  132.1840  151.9399 H   0  0  0  0  0  0  0  0  0  0  0  0
  149.9799  141.8871  155.4088 H   0  0  0  0  0  0  0  0  0  0  0  0
  149.3954  140.6962  156.5647 H   0  0  0  0  0  0  0  0  0  0  0  0
  148.6925  140.7868  154.9314 H   0  0  0  0  0  0  0  0  0  0  0  0
  148.1619  138.7176  155.3518 H   0  0  0  0  0  0  0  0  0  0  0  0
  147.8213  136.2941  155.3851 H   0  0  0  0  0  0  0  0  0  0  0  0
  150.3510  133.8689  155.8706 H   0  0  0  0  0  0  0  0  0  0  0  0
  148.6655  134.0919  155.4383 H   0  0  0  0  0  0  0  0  0  0  0  0
  150.7910  133.8783  153.3424 H   0  0  0  0  0  0  0  0  0  0  0  0
  146.6018  133.6504  149.1636 H   0  0  0  0  0  0  0  0  0  0  0  0
  146.6019  131.9137  149.4322 H   0  0  0  0  0  0  0  0  0  0  0  0
  144.4174  133.2307  148.3331 H   0  0  0  0  0  0  0  0  0  0  0  0
  144.2669  131.7702  149.3094 H   0  0  0  0  0  0  0  0  0  0  0  0
  143.9598  134.6353  150.2382 H   0  0  0  0  0  0  0  0  0  0  0  0
  142.8833  133.2756  150.5789 H   0  0  0  0  0  0  0  0  0  0  0  0
  145.2658  133.7121  153.6981 H   0  0  0  0  0  0  0  0  0  0  0  0
  144.9645  135.1140  152.7000 H   0  0  0  0  0  0  0  0  0  0  0  0
  143.1440  133.3066  153.8352 H   0  0  0  0  0  0  0  0  0  0  0  0
  147.9881  129.5698  152.9241 H   0  0  0  0  0  0  0  0  0  0  0  0
  151.6733  128.8712  155.3185 H   0  0  0  0  0  0  0  0  0  0  0  0
  151.9068  128.0540  153.8104 H   0  0  0  0  0  0  0  0  0  0  0  0
  155.3925  131.3207  155.9969 H   0  0  0  0  0  0  0  0  0  0  0  0
  156.8122  131.0003  153.9178 H   0  0  0  0  0  0  0  0  0  0  0  0
  155.7498  129.7157  152.0042 H   0  0  0  0  0  0  0  0  0  0  0  0
  152.0471  135.6615  154.8208 H   0  0  0  0  0  0  0  0  0  0  0  0
  1  2  1  0  0  0  0
  1 36  1  0  0  0  0
  1 37  1  0  0  0  0
  1 38  1  0  0  0  0
  2  3  1  0  0  0  0
  3 33  1  0  0  0  0
  3  4  2  0  0  0  0
  4  5  1  0  0  0  0
  4 39  1  0  0  0  0
  5  6  2  0  0  0  0
  5 40  1  0  0  0  0
  6  7  1  0  0  0  0
  6 32  1  0  0  0  0
  7  8  1  0  0  0  0
  7 41  1  0  0  0  0
  7 42  1  0  0  0  0
  8  9  1  0  0  0  0
  8 43  1  0  0  0  0
  9 21  1  0  0  0  0
  9 10  2  0  0  0  0
 10 11  1  0  0  0  0
 11 12  1  0  0  0  0
 11 19  2  0  0  0  0
 12 16  1  0  0  0  0
 12 13  1  0  0  0  0
 13 14  1  0  0  0  0
 13 44  1  0  0  0  0
 13 45  1  0  0  0  0
 14 15  1  0  0  0  0
 14 46  1  0  0  0  0
 14 47  1  0  0  0  0
 15 16  1  0  0  0  0
 15 48  1  0  0  0  0
 15 49  1  0  0  0  0
 16 35  1  0  0  0  0
 16 17  1  0  0  0  0
 17 18  1  0  0  0  0
 17 50  1  0  0  0  0
 17 51  1  0  0  0  0
 18 52  1  0  0  0  0
 19 20  1  0  0  0  0
 20 21  2  0  0  0  0
 20 53  1  0  0  0  0
 21 22  1  0  0  0  0
 22 23  2  0  0  0  0
 22 24  1  0  0  0  0
 24 25  1  0  0  0  0
 25 26  1  0  0  0  0
 25 54  1  0  0  0  0
 25 55  1  0  0  0  0
 26 31  1  0  0  0  0
 26 27  2  0  0  0  0
 27 28  1  0  0  0  0
 28 29  2  0  0  0  0
 28 56  1  0  0  0  0
 29 30  1  0  0  0  0
 29 57  1  0  0  0  0
 30 31  2  0  0  0  0
 30 58  1  0  0  0  0
 32 33  2  0  0  0  0
 32 59  1  0  0  0  0
 33 34  1  0  0  0  0
M  CHG  1  24  -1
M  END
> <s_m_source_file>
AV-unprocessed.smi

> <i_m_source_file_index>
45

> <i_lp_mmshare_version>
43012

> <i_f3d_flags>
0

> <s_epik_input>
W0NIM11PYzFbY0hdW2NIXWMoW2NIXWMxQ2wpW0NIMl1bTkhdYzJuYyhOM1tDSDJdW0NIMl1bQ0gyXVtDQEhdM1tDSDJdW09IXSluW2NIXWMyQyg9TylbTkhdW0NIMl1jNG5bY0hdW2NIXVtjSF1uNA==

> <s_epik_cmdline>
J2VwaWtfcHl0aG9uJywgJy1waCcsICc3LjAnLCAnLXRuJywgJzgnLCAnLW1hJywgJzIwMCcsICctbWV0YWxfYmluZGluZycsICctaW1hZScsICc8aW5maWxlLm1hZT4nLCAnLW9tYWUnLCAnPG91dGZpbGUubWFlPic=

> <r_lp_tautomer_probability>
1

> <r_epik_Ionization_Penalty>
7.35269

> <r_epik_Ionization_Penalty_Charging>
6.82087

> <r_epik_Ionization_Penalty_Neutral>
0.53182

> <r_epik_State_Penalty>
6.85781

> <r_epik_Charging_Adjusted_Penalty>
13.6787

> <i_epik_Tot_Q>
-1

> <i_epik_Tot_abs_Q>
1

> <r_epik_Metal_State_Penalty>
2.8146

> <b_epik_Metal_Only>
1

> <s_epik_Chemistry_Notes>
This compound contains an electron-poor aromatic ring that is susceptible to covalent hydrolysis at low pH, typically resulting in measured values for nitrogen ring protonation that are around two units higher than predicted values.

> <s_lp_Force_Field>
OPLS_2005

> <r_lp_Energy>
50.4559

> <b_lp_Chiralities_Consistent>
1

> <s_lp_Variant>
AV-unprocessed.smi:45-8

> <Gold.Version>
5.8.1

> <Gold.Id.Protein>
6NUR|6NUR_protein|mol2

> <Gold.PLP.Fitness>
55.6689

> <Gold.PLP.PLP>
-54.6247

> <Gold.PLP.part.hbond>
-2.0000

> <Gold.PLP.part.metal>
0.0000

> <Gold.PLP.part.buried>
-6.1454

> <Gold.PLP.part.nonpolar>
-47.4113

> <Gold.PLP.part.repulsive>
1.4459

> <Gold.PLP.ligand.clash>
0.0000

> <Gold.PLP.ligand.torsion>
2.8885

> <Gold.PLP.Chemscore.Hbond>
1.9913

> <Gold.PLP.Chemscore.CHOScore>
0.0000

> <Gold.PLP.Chemscore.Metal>
0.0000

> <Gold.Chemscore.Hbonds>
donor molecule, donor type, donor heavy atom, donor atom, acceptor molecule, acceptor atom, score
      L1  H    18    52       P1 10957  1.00
      P1  H  7989  7998       L1     2  0.94
      L1  C    30    58       P1 10713  1.00

> <Gold.PLP.Chemscore.Internal.Correction>
0.8474

> <Gold.Rescore>
     Score         DG    S(hbond)    S(metal)    S(lipo)     H(rot)  DE(clash)    DE(int)     intcor
     14.97     -18.14       1.92        0.00     121.50       3.11       0.15       3.03       ----

> <Gold.Chemscore.Fitness>
14.9663

> <Gold.Chemscore.DG>
-18.1426

> <Gold.Chemscore.ZeroCoef>
-5.4800

> <Gold.Chemscore.Hbond>
1.9171

> <Gold.Chemscore.Metal>
0.0000

> <Gold.Chemscore.Lipo>
121.4966

> <Gold.Chemscore.Internal_Hbond>
0.0000

> <Gold.Chemscore.DEClash>
0.1505

> <Gold.Chemscore.DEInternal>
3.0258

> <Gold.Chemscore.Rot>
3.1077

> <Gold.Chemscore.Internal.Correction>
   9.000000E+99

> <Gold.Chemscore.Hbonds>
donor molecule, donor type, donor heavy atom, donor atom, acceptor molecule, acceptor atom, score
      L1  H    18    52       P1 10957  1.00
      P1  H  7989  7998       L1     2  0.62

> <Gold.Chemscore.Hbond.Weighted>
-6.4032

> <Gold.Chemscore.Metal.Weighted>
-0.0000

> <Gold.Chemscore.Lipo.Weighted>
-14.2151

> <Gold.Chemscore.Internal_Hbond.Weighted>
0.0000

> <Gold.Chemscore.DEClash.Weighted>
0.1505

> <Gold.Chemscore.DEInternal.Weighted>
3.0258

> <Gold.Chemscore.Rot.Weighted>
7.9557

> <Gold.Chemscore.Internal.Correction.Weighted>
   9.000000E+99

> <Gold.Protein.RotatedTorsions>
[ 6907 6896 6895 6894 ] final   42.93 input  -60.11 | X-H torsion
[ 7974 7965 7964 7962 ] final   12.78 input  175.53 | X-H torsion
[ 8008 7997 7996 7995 ] final -174.31 input   59.86 | X-H torsion
[ 10167 10162 10161 10158 ] final -100.03 input  -65.29 | X-H torsion
[ 10718 10713 10712 10709 ] final   25.72 input   66.30 | X-H torsion
[ 10763 10752 10751 10750 ] final  122.42 input  -60.55 | X-H torsion
[ 11005 11000 10999 10996 ] final    6.94 input  -57.11 | X-H torsion

> <Gold.Protein.ActiveResidues>
 VAL166  LYS551  ARG553  GLY616  TRP617  ASP618  TYR619  PRO620  LYS621  CYS622 
 ASP623  PHE694  ASN695  SER759  ASP760  ASP761  ALA762  ILE779  LEU786  VAL792 
 PHE793  MET794  SER795  GLU796  ALA797  LYS798  CYS799  TRP800  GLU811  SER814 

> <Gold.Protein.RotatedAtoms>
  152.2139  134.8476  160.0493 H   0  0  0  0  0  0  0  0  0  0  0  0  # atno 6907 bound_to 6896
  151.9284  133.3599  159.3930 H   0  0  0  0  0  0  0  0  0  0  0  0  # atno 6908 bound_to 6896
  150.6983  134.4488  159.5370 H   0  0  0  0  0  0  0  0  0  0  0  0  # atno 6909 bound_to 6896
  146.2344  139.9286  142.8499 H   0  0  0  0  0  0  0  0  0  0  0  0  # atno 7974 bound_to 7965
  155.9684  140.1158  157.0834 H   0  0  0  0  0  0  0  0  0  0  0  0  # atno 8008 bound_to 7997
  154.4150  140.1168  156.5341 H   0  0  0  0  0  0  0  0  0  0  0  0  # atno 8009 bound_to 7997
  155.6628  140.3473  155.4791 H   0  0  0  0  0  0  0  0  0  0  0  0  # atno 8010 bound_to 7997
  140.2563  143.3438  152.0668 H   0  0  0  0  0  0  0  0  0  0  0  0  # atno 10167 bound_to 10162
  157.1971  130.6873  149.6173 H   0  0  0  0  0  0  0  0  0  0  0  0  # atno 10718 bound_to 10713
  153.6295  135.3398  155.3037 H   0  0  0  0  0  0  0  0  0  0  0  0  # atno 10763 bound_to 10752
  154.8583  135.4292  154.2121 H   0  0  0  0  0  0  0  0  0  0  0  0  # atno 10764 bound_to 10752
  153.3013  135.7025  153.7274 H   0  0  0  0  0  0  0  0  0  0  0  0  # atno 10765 bound_to 10752
  140.5539  134.0257  155.7947 H   0  0  0  0  0  0  0  0  0  0  0  0  # atno 11005 bound_to 11000
  145.2066  140.9878  143.4125 LP  0  0  0  0  0  0  0  0  0  0  0  0  # atno 17320 bound_to 7965
  144.9727  139.3863  143.6301 LP  0  0  0  0  0  0  0  0  0  0  0  0  # atno 17321 bound_to 7965
  139.5030  144.6747  151.6156 LP  0  0  0  0  0  0  0  0  0  0  0  0  # atno 17342 bound_to 10162
  140.6001  143.9624  150.6381 LP  0  0  0  0  0  0  0  0  0  0  0  0  # atno 17343 bound_to 10162
  155.9704  130.4595  150.6038 LP  0  0  0  0  0  0  0  0  0  0  0  0  # atno 17370 bound_to 10713
  157.3803  131.0780  151.1482 LP  0  0  0  0  0  0  0  0  0  0  0  0  # atno 17371 bound_to 10713
  141.1155  133.9547  157.2830 LP  0  0  0  0  0  0  0  0  0  0  0  0  # atno 17394 bound_to 11000
  139.9441  135.0187  156.8800 LP  0  0  0  0  0  0  0  0  0  0  0  0  # atno 17395 bound_to 11000

$$$$
