AV-unprocessed.smi:483|AV-procd|sdf|2685|dock10
  -GOLD-   2262023113D 1   1.00000     0.00000
 Structure written by MMmdl.
 44 44  0  0  0  0  0  0  0  0  1 V2000
  152.4092  142.6230  159.9197 C   0  0  0  0  0  0  0  0  0  0  0  0
  151.5932  141.5318  159.2191 C   0  0  0  0  0  0  0  0  0  0  0  0
  152.4416  140.7010  158.2426 C   0  0  0  0  0  0  0  0  0  0  0  0
  151.6480  139.6700  157.5843 N   0  0  0  0  0  0  0  0  0  0  0  0
  152.0460  138.9491  156.5250 C   0  0  0  0  0  0  0  0  0  0  0  0
  153.1509  139.0817  155.9955 O   0  0  0  0  0  0  0  0  0  0  0  0
  151.0457  137.9059  156.0003 C   0  0  2  0  0  0  0  0  0  0  0  0
  150.6971  138.2729  154.5482 C   0  0  0  0  0  0  0  0  0  0  0  0
  149.8106  137.9374  156.7827 N   0  0  0  0  0  0  0  0  0  0  0  0
  149.6113  137.2919  157.9425 C   0  0  0  0  0  0  0  0  0  0  0  0
  150.4687  136.5876  158.4778 O   0  0  0  0  0  0  0  0  0  0  0  0
  148.2404  137.4979  158.6025 C   0  0  0  0  0  0  0  0  0  0  0  0
  147.9579  136.5221  159.6655 N   0  0  0  0  0  0  0  0  0  0  0  0
  147.7560  137.0860  160.9105 N   0  0  0  0  0  0  0  0  0  0  0  0
  147.5148  136.3555  161.9493 C   0  0  0  0  0  0  0  0  0  0  0  0
  147.3235  137.0802  163.2546 C   0  0  0  0  0  0  0  0  0  0  0  0
  147.4406  134.9042  161.8115 C   0  0  0  0  0  0  0  0  0  0  0  0
  147.1502  134.0932  163.0671 C   0  0  0  0  0  0  0  0  0  0  0  0
  147.6415  134.3625  160.5842 C   0  0  0  0  0  0  0  0  0  0  0  0
  147.5969  132.9542  160.3552 C   0  0  0  0  0  0  0  0  0  0  0  0
  147.5800  131.8106  160.1754 N   0  0  0  0  0  0  0  0  0  0  0  0
  147.9220  135.1836  159.4042 C   0  0  0  0  0  0  0  0  0  0  0  0
  148.1114  134.7234  158.2770 O   0  0  0  0  0  0  0  0  0  0  0  0
  151.7834  143.1972  160.6033 H   0  0  0  0  0  0  0  0  0  0  0  0
  152.8393  143.3182  159.1981 H   0  0  0  0  0  0  0  0  0  0  0  0
  153.2261  142.1917  160.4989 H   0  0  0  0  0  0  0  0  0  0  0  0
  151.1506  140.8803  159.9737 H   0  0  0  0  0  0  0  0  0  0  0  0
  150.7622  141.9926  158.6835 H   0  0  0  0  0  0  0  0  0  0  0  0
  152.8601  141.3481  157.4713 H   0  0  0  0  0  0  0  0  0  0  0  0
  153.2889  140.2481  158.7607 H   0  0  0  0  0  0  0  0  0  0  0  0
  150.7260  139.4952  157.9574 H   0  0  0  0  0  0  0  0  0  0  0  0
  151.4859  136.9071  156.0313 H   0  0  0  0  0  0  0  0  0  0  0  0
  151.5832  138.2558  153.9122 H   0  0  0  0  0  0  0  0  0  0  0  0
  150.2530  139.2670  154.4739 H   0  0  0  0  0  0  0  0  0  0  0  0
  149.9847  137.5622  154.1279 H   0  0  0  0  0  0  0  0  0  0  0  0
  149.0585  138.5054  156.4205 H   0  0  0  0  0  0  0  0  0  0  0  0
  148.2100  138.5127  159.0035 H   0  0  0  0  0  0  0  0  0  0  0  0
  147.4560  137.4611  157.8440 H   0  0  0  0  0  0  0  0  0  0  0  0
  146.2959  136.9806  163.6045 H   0  0  0  0  0  0  0  0  0  0  0  0
  147.5398  138.1458  163.1632 H   0  0  0  0  0  0  0  0  0  0  0  0
  147.9840  136.6777  164.0230 H   0  0  0  0  0  0  0  0  0  0  0  0
  146.9612  133.0438  162.8437 H   0  0  0  0  0  0  0  0  0  0  0  0
  146.2688  134.4760  163.5827 H   0  0  0  0  0  0  0  0  0  0  0  0
  147.9975  134.1394  163.7523 H   0  0  0  0  0  0  0  0  0  0  0  0
  1  2  1  0  0  0  0
  1 24  1  0  0  0  0
  1 25  1  0  0  0  0
  1 26  1  0  0  0  0
  2  3  1  0  0  0  0
  2 27  1  0  0  0  0
  2 28  1  0  0  0  0
  3  4  1  0  0  0  0
  3 29  1  0  0  0  0
  3 30  1  0  0  0  0
  4  5  1  0  0  0  0
  4 31  1  0  0  0  0
  5  6  2  0  0  0  0
  5  7  1  0  0  0  0
  7  8  1  0  0  0  0
  7  9  1  0  0  0  0
  7 32  1  0  0  0  0
  8 33  1  0  0  0  0
  8 34  1  0  0  0  0
  8 35  1  0  0  0  0
  9 10  1  0  0  0  0
  9 36  1  0  0  0  0
 10 11  2  0  0  0  0
 10 12  1  0  0  0  0
 12 13  1  0  0  0  0
 12 37  1  0  0  0  0
 12 38  1  0  0  0  0
 13 22  1  0  0  0  0
 13 14  1  0  0  0  0
 14 15  2  0  0  0  0
 15 16  1  0  0  0  0
 15 17  1  0  0  0  0
 16 39  1  0  0  0  0
 16 40  1  0  0  0  0
 16 41  1  0  0  0  0
 17 18  1  0  0  0  0
 17 19  2  0  0  0  0
 18 42  1  0  0  0  0
 18 43  1  0  0  0  0
 18 44  1  0  0  0  0
 19 20  1  0  0  0  0
 19 22  1  0  0  0  0
 20 21  3  0  0  0  0
 22 23  2  0  0  0  0
M  END
> <s_m_source_file>
AV-unprocessed.smi

> <i_m_source_file_index>
483

> <i_lp_mmshare_version>
43012

> <i_f3d_flags>
0

> <s_epik_input>
W0NIM11bQ0gyXVtDSDJdW05IXUMoPU8pW0NASF0oW0NIM10pW05IXUMoPU8pW0NIMl1uMW5jKFtDSDNdKWMoW0NIM10pYyhDI04pYzE9Tw==

> <s_epik_cmdline>
J2VwaWtfcHl0aG9uJywgJy1waCcsICc3LjAnLCAnLXRuJywgJzgnLCAnLW1hJywgJzIwMCcsICctbWV0YWxfYmluZGluZycsICctaW1hZScsICc8aW5maWxlLm1hZT4nLCAnLW9tYWUnLCAnPG91dGZpbGUubWFlPic=

> <r_lp_tautomer_probability>
1

> <r_epik_Ionization_Penalty>
5.96698e-08

> <r_epik_Ionization_Penalty_Charging>
1.88177e-11

> <r_epik_Ionization_Penalty_Neutral>
5.9651e-08

> <r_epik_State_Penalty>
-0

> <r_epik_Charging_Adjusted_Penalty>
1.88177e-11

> <i_epik_Tot_Q>
0

> <i_epik_Tot_abs_Q>
0

> <r_epik_Metal_State_Penalty>
-0

> <b_epik_Metal_Only>
0

> <s_lp_Force_Field>
OPLS_2005

> <r_lp_Energy>
17.9954

> <b_lp_Chiralities_Consistent>
1

> <s_lp_Variant>
AV-unprocessed.smi:483-1

> <Gold.Version>
5.8.1

> <Gold.Id.Protein>
6NUR|6NUR_protein|mol2

> <Gold.PLP.Fitness>
45.2716

> <Gold.PLP.PLP>
-35.1516

> <Gold.PLP.part.hbond>
-3.9646

> <Gold.PLP.part.metal>
0.0000

> <Gold.PLP.part.buried>
-3.7621

> <Gold.PLP.part.nonpolar>
-29.6681

> <Gold.PLP.part.repulsive>
0.0695

> <Gold.PLP.ligand.clash>
0.0000

> <Gold.PLP.ligand.torsion>
0.5879

> <Gold.PLP.Chemscore.Hbond>
3.7428

> <Gold.PLP.Chemscore.CHOScore>
0.0000

> <Gold.PLP.Chemscore.Metal>
0.0000

> <Gold.Chemscore.Hbonds>
donor molecule, donor type, donor heavy atom, donor atom, acceptor molecule, acceptor atom, score
      P1  H  6896  6908       L1    11  0.79
      P1  H  6931  6943       L1    14  0.60
      P1  H  6934  6947       L1    14  0.88
      P1  H  7997  8008       L1     6  1.00

> <Gold.PLP.Chemscore.Internal.Correction>
0.0675

> <Gold.Rescore>
     Score         DG    S(hbond)    S(metal)    S(lipo)     H(rot)  DE(clash)    DE(int)     intcor
     17.55     -18.32       2.74        0.00      83.63       2.38       0.03       0.75       ----

> <Gold.Chemscore.Fitness>
17.5467

> <Gold.Chemscore.DG>
-18.3243

> <Gold.Chemscore.ZeroCoef>
-5.4800

> <Gold.Chemscore.Hbond>
2.7390

> <Gold.Chemscore.Metal>
0.0000

> <Gold.Chemscore.Lipo>
83.6341

> <Gold.Chemscore.Internal_Hbond>
0.0000

> <Gold.Chemscore.DEClash>
0.0279

> <Gold.Chemscore.DEInternal>
0.7497

> <Gold.Chemscore.Rot>
2.3785

> <Gold.Chemscore.Internal.Correction>
   9.000000E+99

> <Gold.Chemscore.Hbonds>
donor molecule, donor type, donor heavy atom, donor atom, acceptor molecule, acceptor atom, score
      P1  H  6896  6908       L1    11  0.73
      P1  H  6931  6943       L1    14  0.05
      P1  H  6934  6947       L1    14  0.73
      P1  H  7997  8008       L1     6  0.98

> <Gold.Chemscore.Hbond.Weighted>
-9.1481

> <Gold.Chemscore.Metal.Weighted>
-0.0000

> <Gold.Chemscore.Lipo.Weighted>
-9.7852

> <Gold.Chemscore.Internal_Hbond.Weighted>
0.0000

> <Gold.Chemscore.DEClash.Weighted>
0.0279

> <Gold.Chemscore.DEInternal.Weighted>
0.7497

> <Gold.Chemscore.Rot.Weighted>
6.0890

> <Gold.Chemscore.Internal.Correction.Weighted>
   9.000000E+99

> <Gold.Protein.RotatedTorsions>
[ 6907 6896 6895 6894 ] final -157.97 input  -60.11 | X-H torsion
[ 7974 7965 7964 7962 ] final   16.98 input  175.53 | X-H torsion
[ 8008 7997 7996 7995 ] final  -37.60 input   59.86 | X-H torsion
[ 10167 10162 10161 10158 ] final   39.63 input  -65.29 | X-H torsion
[ 10718 10713 10712 10709 ] final  124.81 input   66.30 | X-H torsion
[ 10763 10752 10751 10750 ] final   -2.39 input  -60.55 | X-H torsion
[ 11005 11000 10999 10996 ] final  177.38 input  -57.11 | X-H torsion

> <Gold.Protein.ActiveResidues>
 VAL166  LYS551  ARG553  GLY616  TRP617  ASP618  TYR619  PRO620  LYS621  CYS622 
 ASP623  PHE694  ASN695  SER759  ASP760  ASP761  ALA762  ILE779  LEU786  VAL792 
 PHE793  MET794  SER795  GLU796  ALA797  LYS798  CYS799  TRP800  GLU811  SER814 

> <Gold.Protein.RotatedAtoms>
  151.3110  133.4080  159.2646 H   0  0  0  0  0  0  0  0  0  0  0  0  # atno 6907 bound_to 6896
  151.0114  134.9400  159.8019 H   0  0  0  0  0  0  0  0  0  0  0  0  # atno 6908 bound_to 6896
  152.5301  134.3075  159.9153 H   0  0  0  0  0  0  0  0  0  0  0  0  # atno 6909 bound_to 6896
  146.2233  139.8669  142.8594 H   0  0  0  0  0  0  0  0  0  0  0  0  # atno 7974 bound_to 7965
  154.4050  140.1600  156.2564 H   0  0  0  0  0  0  0  0  0  0  0  0  # atno 8008 bound_to 7997
  155.9075  140.3429  155.6050 H   0  0  0  0  0  0  0  0  0  0  0  0  # atno 8009 bound_to 7997
  155.7376  140.0788  157.2251 H   0  0  0  0  0  0  0  0  0  0  0  0  # atno 8010 bound_to 7997
  140.3821  144.1966  150.6130 H   0  0  0  0  0  0  0  0  0  0  0  0  # atno 10167 bound_to 10162
  157.5555  131.1092  150.8630 H   0  0  0  0  0  0  0  0  0  0  0  0  # atno 10718 bound_to 10713
  153.3574  135.6988  153.6740 H   0  0  0  0  0  0  0  0  0  0  0  0  # atno 10763 bound_to 10752
  153.5442  135.3567  155.2732 H   0  0  0  0  0  0  0  0  0  0  0  0  # atno 10764 bound_to 10752
  154.8663  135.4211  154.2823 H   0  0  0  0  0  0  0  0  0  0  0  0  # atno 10765 bound_to 10752
  140.3835  134.6926  157.4465 H   0  0  0  0  0  0  0  0  0  0  0  0  # atno 11005 bound_to 11000
  145.2647  141.0089  143.3806 LP  0  0  0  0  0  0  0  0  0  0  0  0  # atno 17320 bound_to 7965
  144.9270  139.4343  143.6513 LP  0  0  0  0  0  0  0  0  0  0  0  0  # atno 17321 bound_to 7965
  140.4927  143.2342  151.8795 LP  0  0  0  0  0  0  0  0  0  0  0  0  # atno 17342 bound_to 10162
  139.4794  144.5148  151.8883 LP  0  0  0  0  0  0  0  0  0  0  0  0  # atno 17343 bound_to 10162
  156.9142  130.5292  149.5280 LP  0  0  0  0  0  0  0  0  0  0  0  0  # atno 17370 bound_to 10713
  156.0614  130.5666  150.9201 LP  0  0  0  0  0  0  0  0  0  0  0  0  # atno 17371 bound_to 10713
  140.0461  134.6198  155.8920 LP  0  0  0  0  0  0  0  0  0  0  0  0  # atno 17394 bound_to 11000
  141.1915  133.6572  156.5461 LP  0  0  0  0  0  0  0  0  0  0  0  0  # atno 17395 bound_to 11000

$$$$
