AV-unprocessed.smi:2083|AV-procd|sdf|8500|dock5
  -GOLD-   2272011213D 1   1.00000     0.00000
 Structure written by MMmdl.
 44 45  0  0  0  0  0  0  0  0  3 V2000
  149.1999  133.2882  155.3098 C   0  0  0  0  0  0  0  0  0  0  0  0
  149.8463  134.3459  156.1374 C   0  0  0  0  0  0  0  0  0  0  0  0
  150.3716  135.5696  155.8331 C   0  0  0  0  0  0  0  0  0  0  0  0
  150.8141  136.0552  157.0941 C   0  0  0  0  0  0  0  0  0  0  0  0
  151.4155  137.2333  157.3200 N   0  5  0  0  0  0  0  0  0  0  0  0
  151.7134  137.6121  158.5833 C   0  0  0  0  0  0  0  0  0  0  0  0
  151.3497  137.0532  159.6208 O   0  0  0  0  0  0  0  0  0  0  0  0
  152.4771  138.7118  158.6507 N   0  0  0  0  0  0  0  0  0  0  0  0
  152.9392  139.3539  159.8778 C   0  0  0  0  0  0  0  0  0  0  0  0
  153.6454  140.7144  159.6185 C   0  0  2  0  0  0  0  0  0  0  0  0
  154.4768  141.1292  160.8534 C   0  0  0  0  0  0  0  0  0  0  0  0
  152.7179  141.8293  159.2355 N   0  3  2  0  0  0  0  0  0  0  0  0
  151.8507  141.5836  158.0463 C   0  0  0  0  0  0  0  0  0  0  0  0
  150.8423  142.7253  157.8337 C   0  0  0  0  0  0  0  0  0  0  0  0
  151.5436  144.0843  157.7284 C   0  0  0  0  0  0  0  0  0  0  0  0
  152.4699  144.3188  158.9324 C   0  0  1  0  0  0  0  0  0  0  0  0
  151.7039  144.6362  160.2289 C   0  0  0  0  0  0  0  0  0  0  0  0
  153.4366  143.1302  159.1012 C   0  0  0  0  0  0  0  0  0  0  0  0
  150.5935  135.1943  158.0734 N   0  0  0  0  0  0  0  0  0  0  0  0
  149.9680  134.0974  157.4692 O   0  0  0  0  0  0  0  0  0  0  0  0
  149.9257  132.8275  154.6397 H   0  0  0  0  0  0  0  0  0  0  0  0
  148.3982  133.7097  154.7036 H   0  0  0  0  0  0  0  0  0  0  0  0
  148.7728  132.5046  155.9360 H   0  0  0  0  0  0  0  0  0  0  0  0
  150.4273  136.0441  154.8649 H   0  0  0  0  0  0  0  0  0  0  0  0
  152.7573  139.1350  157.7777 H   0  0  0  0  0  0  0  0  0  0  0  0
  152.0725  139.4697  160.5302 H   0  0  0  0  0  0  0  0  0  0  0  0
  153.6211  138.6642  160.3764 H   0  0  0  0  0  0  0  0  0  0  0  0
  154.3297  140.5633  158.7823 H   0  0  0  0  0  0  0  0  0  0  0  0
  155.2142  140.3711  161.1176 H   0  0  0  0  0  0  0  0  0  0  0  0
  153.8362  141.2812  161.7226 H   0  0  0  0  0  0  0  0  0  0  0  0
  155.0356  142.0496  160.6939 H   0  0  0  0  0  0  0  0  0  0  0  0
  152.4724  141.4541  157.1589 H   0  0  0  0  0  0  0  0  0  0  0  0
  151.2661  140.6730  158.1712 H   0  0  0  0  0  0  0  0  0  0  0  0
  150.2603  142.5406  156.9303 H   0  0  0  0  0  0  0  0  0  0  0  0
  150.1268  142.7397  158.6564 H   0  0  0  0  0  0  0  0  0  0  0  0
  152.1322  144.1116  156.8102 H   0  0  0  0  0  0  0  0  0  0  0  0
  150.8096  144.8866  157.6453 H   0  0  0  0  0  0  0  0  0  0  0  0
  153.0722  145.2002  158.7085 H   0  0  0  0  0  0  0  0  0  0  0  0
  151.0897  143.7974  160.5564 H   0  0  0  0  0  0  0  0  0  0  0  0
  151.0472  145.4962  160.0956 H   0  0  0  0  0  0  0  0  0  0  0  0
  152.3928  144.8737  161.0402 H   0  0  0  0  0  0  0  0  0  0  0  0
  154.0764  143.3185  159.9616 H   0  0  0  0  0  0  0  0  0  0  0  0
  154.1016  143.0759  158.2375 H   0  0  0  0  0  0  0  0  0  0  0  0
  152.0813  141.9291  160.0129 H   0  0  0  0  0  0  0  0  0  0  0  0
  1  2  1  0  0  0  0
  1 21  1  0  0  0  0
  1 22  1  0  0  0  0
  1 23  1  0  0  0  0
  2 20  1  0  0  0  0
  2  3  2  0  0  0  0
  3  4  1  0  0  0  0
  3 24  1  0  0  0  0
  4  5  1  0  0  0  0
  4 19  2  0  0  0  0
  5  6  1  0  0  0  0
  6  7  2  0  0  0  0
  6  8  1  0  0  0  0
  8  9  1  0  0  0  0
  8 25  1  0  0  0  0
  9 10  1  0  0  0  0
  9 26  1  0  0  0  0
  9 27  1  0  0  0  0
 10 11  1  0  0  0  0
 10 12  1  0  0  0  0
 10 28  1  0  0  0  0
 11 29  1  0  0  0  0
 11 30  1  0  0  0  0
 11 31  1  0  0  0  0
 12 18  1  0  0  0  0
 12 13  1  0  0  0  0
 12 44  1  0  0  0  0
 13 14  1  0  0  0  0
 13 32  1  0  0  0  0
 13 33  1  0  0  0  0
 14 15  1  0  0  0  0
 14 34  1  0  0  0  0
 14 35  1  0  0  0  0
 15 16  1  0  0  0  0
 15 36  1  0  0  0  0
 15 37  1  0  0  0  0
 16 17  1  0  0  0  0
 16 18  1  0  0  0  0
 16 38  1  0  0  0  0
 17 39  1  0  0  0  0
 17 40  1  0  0  0  0
 17 41  1  0  0  0  0
 18 42  1  0  0  0  0
 18 43  1  0  0  0  0
 19 20  1  0  0  0  0
M  CHG  1   5  -1
M  CHG  1  12   1
M  END
> <s_m_source_file>
AV-unprocessed.smi

> <i_m_source_file_index>
2083

> <i_lp_mmshare_version>
43012

> <i_f3d_flags>
0

> <s_epik_input>
W0NIM11jMVtjSF1jKG5vMSlbTkhdQyg9TylbTkhdW0NIMl1bQ0BIXShbQ0gzXSlOMltDSDJdW0NIMl1bQ0gyXVtDQEBIXShbQ0gzXSlbQ0gyXTI=

> <s_epik_cmdline>
J2VwaWtfcHl0aG9uJywgJy1waCcsICc3LjAnLCAnLXRuJywgJzgnLCAnLW1hJywgJzIwMCcsICctbWV0YWxfYmluZGluZycsICctaW1hZScsICc8aW5maWxlLm1hZT4nLCAnLW9tYWUnLCAnPG91dGZpbGUubWFlPic=

> <r_epik_Ionization_Penalty>
6.22434

> <r_epik_Ionization_Penalty_Charging>
6.22425

> <r_epik_Ionization_Penalty_Neutral>
9.62407e-05

> <r_epik_State_Penalty>
6.22423

> <r_epik_Charging_Adjusted_Penalty>
12.4485

> <i_epik_Tot_Q>
0

> <i_epik_Tot_abs_Q>
2

> <r_epik_Metal_State_Penalty>
2.16764

> <b_epik_Metal_Only>
1

> <s_lp_Force_Field>
OPLS_2005

> <r_lp_Energy>
12.2094

> <b_lp_Chiralities_Consistent>
1

> <s_lp_Variant>
AV-unprocessed.smi:2083-11

> <Gold.Version>
5.8.1

> <Gold.Id.Protein>
6NUR|6NUR_protein|mol2

> <Gold.PLP.Fitness>
41.9123

> <Gold.PLP.PLP>
-39.1064

> <Gold.PLP.part.hbond>
-2.2263

> <Gold.PLP.part.metal>
0.0000

> <Gold.PLP.part.buried>
-6.1019

> <Gold.PLP.part.nonpolar>
-32.1125

> <Gold.PLP.part.repulsive>
0.1603

> <Gold.PLP.ligand.clash>
0.0000

> <Gold.PLP.ligand.torsion>
0.1967

> <Gold.PLP.Chemscore.Hbond>
1.0363

> <Gold.PLP.Chemscore.CHOScore>
0.0000

> <Gold.PLP.Chemscore.Metal>
0.0000

> <Gold.Chemscore.Hbonds>
donor molecule, donor type, donor heavy atom, donor atom, acceptor molecule, acceptor atom, score
      P1  H  6896  6909       L1     7  1.00

> <Gold.PLP.Chemscore.Internal.Correction>
0.0903

> <Gold.Rescore>
     Score         DG    S(hbond)    S(metal)    S(lipo)     H(rot)  DE(clash)    DE(int)     intcor
     14.61     -17.58       0.99        0.00     108.28       1.52       0.01       2.97       ----

> <Gold.Chemscore.Fitness>
14.6059

> <Gold.Chemscore.DG>
-17.5798

> <Gold.Chemscore.ZeroCoef>
-5.4800

> <Gold.Chemscore.Hbond>
0.9937

> <Gold.Chemscore.Metal>
0.0000

> <Gold.Chemscore.Lipo>
108.2850

> <Gold.Chemscore.Internal_Hbond>
0.0000

> <Gold.Chemscore.DEClash>
0.0081

> <Gold.Chemscore.DEInternal>
2.9658

> <Gold.Chemscore.Rot>
1.5190

> <Gold.Chemscore.Internal.Correction>
   9.000000E+99

> <Gold.Chemscore.Hbonds>
donor molecule, donor type, donor heavy atom, donor atom, acceptor molecule, acceptor atom, score
      P1  H  6896  6909       L1     7  0.98

> <Gold.Chemscore.Hbond.Weighted>
-3.3191

> <Gold.Chemscore.Metal.Weighted>
-0.0000

> <Gold.Chemscore.Lipo.Weighted>
-12.6693

> <Gold.Chemscore.Internal_Hbond.Weighted>
0.0000

> <Gold.Chemscore.DEClash.Weighted>
0.0081

> <Gold.Chemscore.DEInternal.Weighted>
2.9658

> <Gold.Chemscore.Rot.Weighted>
3.8886

> <Gold.Chemscore.Internal.Correction.Weighted>
   9.000000E+99

> <Gold.Protein.RotatedTorsions>
[ 6907 6896 6895 6894 ] final  123.21 input  -60.11 | X-H torsion
[ 7974 7965 7964 7962 ] final  119.11 input  175.53 | X-H torsion
[ 8008 7997 7996 7995 ] final   52.79 input   59.86 | X-H torsion
[ 10167 10162 10161 10158 ] final -139.04 input  -65.29 | X-H torsion
[ 10718 10713 10712 10709 ] final   62.04 input   66.30 | X-H torsion
[ 10763 10752 10751 10750 ] final   53.73 input  -60.55 | X-H torsion
[ 11005 11000 10999 10996 ] final   49.56 input  -57.11 | X-H torsion

> <Gold.Protein.ActiveResidues>
 VAL166  LYS551  ARG553  GLY616  TRP617  ASP618  TYR619  PRO620  LYS621  CYS622 
 ASP623  PHE694  ASN695  SER759  ASP760  ASP761  ALA762  ILE779  LEU786  VAL792 
 PHE793  MET794  SER795  GLU796  ALA797  LYS798  CYS799  TRP800  GLU811  SER814 

> <Gold.Protein.RotatedAtoms>
  152.4180  133.7070  159.6456 H   0  0  0  0  0  0  0  0  0  0  0  0  # atno 6907 bound_to 6896
  150.8056  133.8505  159.3213 H   0  0  0  0  0  0  0  0  0  0  0  0  # atno 6908 bound_to 6896
  151.6229  135.1032  160.0157 H   0  0  0  0  0  0  0  0  0  0  0  0  # atno 6909 bound_to 6896
  145.1471  139.3233  143.4586 H   0  0  0  0  0  0  0  0  0  0  0  0  # atno 7974 bound_to 7965
  155.4577  140.3460  155.4308 H   0  0  0  0  0  0  0  0  0  0  0  0  # atno 8008 bound_to 7997
  156.1181  140.1479  156.9274 H   0  0  0  0  0  0  0  0  0  0  0  0  # atno 8009 bound_to 7997
  154.4803  140.0872  156.7341 H   0  0  0  0  0  0  0  0  0  0  0  0  # atno 8010 bound_to 7997
  139.8419  143.7311  152.2663 H   0  0  0  0  0  0  0  0  0  0  0  0  # atno 10167 bound_to 10162
  157.5872  130.9028  149.9537 H   0  0  0  0  0  0  0  0  0  0  0  0  # atno 10718 bound_to 10713
  152.9798  135.5769  154.4789 H   0  0  0  0  0  0  0  0  0  0  0  0  # atno 10763 bound_to 10752
  154.4340  135.2774  155.1895 H   0  0  0  0  0  0  0  0  0  0  0  0  # atno 10764 bound_to 10752
  154.3591  135.6192  153.5735 H   0  0  0  0  0  0  0  0  0  0  0  0  # atno 10765 bound_to 10752
  140.1093  134.4976  155.8692 H   0  0  0  0  0  0  0  0  0  0  0  0  # atno 11005 bound_to 11000
  146.3499  140.1531  142.8592 LP  0  0  0  0  0  0  0  0  0  0  0  0  # atno 17320 bound_to 7965
  145.0470  140.8989  143.5018 LP  0  0  0  0  0  0  0  0  0  0  0  0  # atno 17321 bound_to 7965
  139.7551  144.7523  151.0448 LP  0  0  0  0  0  0  0  0  0  0  0  0  # atno 17342 bound_to 10162
  140.7797  143.4815  151.0011 LP  0  0  0  0  0  0  0  0  0  0  0  0  # atno 17343 bound_to 10162
  156.0922  130.3662  150.0373 LP  0  0  0  0  0  0  0  0  0  0  0  0  # atno 17370 bound_to 10713
  156.8502  130.9456  151.3626 LP  0  0  0  0  0  0  0  0  0  0  0  0  # atno 17371 bound_to 10713
  141.2126  133.6722  156.6673 LP  0  0  0  0  0  0  0  0  0  0  0  0  # atno 17394 bound_to 11000
  140.3113  134.8084  157.4178 LP  0  0  0  0  0  0  0  0  0  0  0  0  # atno 17395 bound_to 11000

$$$$
