AV-unprocessed.smi:1071|AV-procd|sdf|4679|dock2
  -GOLD-   22720 3193D 1   1.00000     0.00000
 Structure written by MMmdl.
 47 48  0  0  0  0  0  0  0  0  2 V2000
  152.0312  144.7033  158.9908 C   0  0  0  0  0  0  0  0  0  0  0  0
  151.4347  143.4196  158.8899 O   0  0  0  0  0  0  0  0  0  0  0  0
  151.2405  142.9768  157.5539 C   0  0  0  0  0  0  0  0  0  0  0  0
  150.9529  141.4700  157.4859 C   0  0  0  0  0  0  0  0  0  0  0  0
  151.1782  141.0244  156.1521 O   0  0  0  0  0  0  0  0  0  0  0  0
  150.1834  140.3067  155.5201 C   0  0  0  0  0  0  0  0  0  0  0  0
  148.9199  140.2193  156.1378 C   0  0  0  0  0  0  0  0  0  0  0  0
  147.8982  139.4904  155.4995 C   0  0  0  0  0  0  0  0  0  0  0  0
  148.1720  138.8767  154.2541 C   0  0  0  0  0  0  0  0  0  0  0  0
  147.2345  138.0987  153.5226 N   0  0  0  0  0  0  0  0  0  0  0  0
  145.9668  137.7783  153.8504 C   0  0  0  0  0  0  0  0  0  0  0  0
  145.4007  138.2351  154.8438 O   0  0  0  0  0  0  0  0  0  0  0  0
  145.3346  136.9831  152.9438 N   0  0  0  0  0  0  0  0  0  0  0  0
  145.8254  136.7010  151.5772 C   0  0  0  0  0  0  0  0  0  0  0  0
  145.9129  135.1910  151.3105 C   0  0  0  0  0  0  0  0  0  0  0  0
  144.6158  134.5307  151.5713 N   0  3  1  0  0  0  0  0  0  0  0  0
  144.6334  133.0919  151.2307 C   0  0  0  0  0  0  0  0  0  0  0  0
  144.1353  134.7813  152.9485 C   0  0  0  0  0  0  0  0  0  0  0  0
  144.0740  136.2868  153.2844 C   0  0  2  0  0  0  0  0  0  0  0  0
  142.8650  137.0028  152.6570 C   0  0  0  0  0  0  0  0  0  0  0  0
  149.4737  139.0104  153.7287 C   0  0  0  0  0  0  0  0  0  0  0  0
  150.4570  139.7079  154.3347 N   0  0  0  0  0  0  0  0  0  0  0  0
  152.1817  144.9511  160.0414 H   0  0  0  0  0  0  0  0  0  0  0  0
  151.4020  145.4796  158.5559 H   0  0  0  0  0  0  0  0  0  0  0  0
  153.0049  144.7257  158.5000 H   0  0  0  0  0  0  0  0  0  0  0  0
  150.4572  143.5521  157.0578 H   0  0  0  0  0  0  0  0  0  0  0  0
  152.1644  143.1823  157.0125 H   0  0  0  0  0  0  0  0  0  0  0  0
  151.6173  140.9415  158.1716 H   0  0  0  0  0  0  0  0  0  0  0  0
  149.9241  141.2646  157.7833 H   0  0  0  0  0  0  0  0  0  0  0  0
  148.7384  140.6994  157.0880 H   0  0  0  0  0  0  0  0  0  0  0  0
  146.9368  139.4054  155.9819 H   0  0  0  0  0  0  0  0  0  0  0  0
  147.5514  137.7791  152.6190 H   0  0  0  0  0  0  0  0  0  0  0  0
  145.1462  137.1651  150.8612 H   0  0  0  0  0  0  0  0  0  0  0  0
  146.8067  137.1237  151.3622 H   0  0  0  0  0  0  0  0  0  0  0  0
  146.2087  135.0194  150.2750 H   0  0  0  0  0  0  0  0  0  0  0  0
  146.6839  134.7443  151.9407 H   0  0  0  0  0  0  0  0  0  0  0  0
  145.3398  132.5489  151.8601 H   0  0  0  0  0  0  0  0  0  0  0  0
  144.9210  132.9459  150.1890 H   0  0  0  0  0  0  0  0  0  0  0  0
  143.6453  132.6511  151.3673 H   0  0  0  0  0  0  0  0  0  0  0  0
  143.1536  134.3258  153.0876 H   0  0  0  0  0  0  0  0  0  0  0  0
  144.8097  134.2838  153.6477 H   0  0  0  0  0  0  0  0  0  0  0  0
  143.8975  136.3202  154.3602 H   0  0  0  0  0  0  0  0  0  0  0  0
  141.9301  136.5439  152.9791 H   0  0  0  0  0  0  0  0  0  0  0  0
  142.8899  136.9656  151.5679 H   0  0  0  0  0  0  0  0  0  0  0  0
  142.8329  138.0517  152.9539 H   0  0  0  0  0  0  0  0  0  0  0  0
  149.7357  138.5470  152.7886 H   0  0  0  0  0  0  0  0  0  0  0  0
  143.9454  134.9648  150.9529 H   0  0  0  0  0  0  0  0  0  0  0  0
  1  2  1  0  0  0  0
  1 23  1  0  0  0  0
  1 24  1  0  0  0  0
  1 25  1  0  0  0  0
  2  3  1  0  0  0  0
  3  4  1  0  0  0  0
  3 26  1  0  0  0  0
  3 27  1  0  0  0  0
  4  5  1  0  0  0  0
  4 28  1  0  0  0  0
  4 29  1  0  0  0  0
  5  6  1  0  0  0  0
  6 22  1  0  0  0  0
  6  7  2  0  0  0  0
  7  8  1  0  0  0  0
  7 30  1  0  0  0  0
  8  9  2  0  0  0  0
  8 31  1  0  0  0  0
  9 10  1  0  0  0  0
  9 21  1  0  0  0  0
 10 11  1  0  0  0  0
 10 32  1  0  0  0  0
 11 12  2  0  0  0  0
 11 13  1  0  0  0  0
 13 19  1  0  0  0  0
 13 14  1  0  0  0  0
 14 15  1  0  0  0  0
 14 33  1  0  0  0  0
 14 34  1  0  0  0  0
 15 16  1  0  0  0  0
 15 35  1  0  0  0  0
 15 36  1  0  0  0  0
 16 17  1  0  0  0  0
 16 18  1  0  0  0  0
 16 47  1  0  0  0  0
 17 37  1  0  0  0  0
 17 38  1  0  0  0  0
 17 39  1  0  0  0  0
 18 19  1  0  0  0  0
 18 40  1  0  0  0  0
 18 41  1  0  0  0  0
 19 20  1  0  0  0  0
 19 42  1  0  0  0  0
 20 43  1  0  0  0  0
 20 44  1  0  0  0  0
 20 45  1  0  0  0  0
 21 22  2  0  0  0  0
 21 46  1  0  0  0  0
M  CHG  1  16   1
M  END
> <s_m_source_file>
AV-unprocessed.smi

> <i_m_source_file_index>
1071

> <i_lp_mmshare_version>
43012

> <i_f3d_flags>
0

> <s_epik_input>
W0NIM11PW0NIMl1bQ0gyXU9jMVtjSF1bY0hdYyhbY0hdbjEpW05IXUMoPU8pTjJbQ0gyXVtDSDJdTihbQ0gzXSlbQ0gyXVtDQEhdMltDSDNd

> <s_epik_cmdline>
J2VwaWtfcHl0aG9uJywgJy1waCcsICc3LjAnLCAnLXRuJywgJzgnLCAnLW1hJywgJzIwMCcsICctbWV0YWxfYmluZGluZycsICctaW1hZScsICc8aW5maWxlLm1hZT4nLCAnLW9tYWUnLCAnPG91dGZpbGUubWFlPic=

> <r_lp_tautomer_probability>
1

> <r_epik_Ionization_Penalty>
0.25455

> <r_epik_Ionization_Penalty_Charging>
0.254506

> <r_epik_Ionization_Penalty_Neutral>
4.43365e-05

> <r_epik_State_Penalty>
0.245983

> <r_epik_Charging_Adjusted_Penalty>
0.500488

> <i_epik_Tot_Q>
1

> <i_epik_Tot_abs_Q>
1

> <r_epik_Metal_State_Penalty>
0.245987

> <b_epik_Metal_Only>
0

> <s_lp_Force_Field>
OPLS_2005

> <r_lp_Energy>
58.5188

> <b_lp_Chiralities_Consistent>
1

> <s_lp_Variant>
AV-unprocessed.smi:1071-3

> <Gold.Version>
5.8.1

> <Gold.Id.Protein>
6NUR|6NUR_protein|mol2

> <Gold.PLP.Fitness>
36.8647

> <Gold.PLP.PLP>
-29.3867

> <Gold.PLP.part.hbond>
-2.0000

> <Gold.PLP.part.metal>
0.0000

> <Gold.PLP.part.buried>
-2.4211

> <Gold.PLP.part.nonpolar>
-25.9526

> <Gold.PLP.part.repulsive>
0.3272

> <Gold.PLP.ligand.clash>
0.3165

> <Gold.PLP.ligand.torsion>
0.6923

> <Gold.PLP.Chemscore.Hbond>
1.4969

> <Gold.PLP.Chemscore.CHOScore>
1.5475

> <Gold.PLP.Chemscore.Metal>
0.0000

> <Gold.Chemscore.Hbonds>
donor molecule, donor type, donor heavy atom, donor atom, acceptor molecule, acceptor atom, score
      L1  H    10    32       P1  7948  0.42
      P1  H  7989  7998       L1    22  1.00
      L1  C    21    46       P1  7948  0.90
      L1  C    21    46       P1  7957  0.62

> <Gold.PLP.Chemscore.Internal.Correction>
0.0460

> <Gold.Rescore>
     Score         DG    S(hbond)    S(metal)    S(lipo)     H(rot)  DE(clash)    DE(int)     intcor
     10.96     -14.11       1.17        0.00      75.53       1.60       1.31       1.84       ----

> <Gold.Chemscore.Fitness>
10.9595

> <Gold.Chemscore.DG>
-14.1086

> <Gold.Chemscore.ZeroCoef>
-5.4800

> <Gold.Chemscore.Hbond>
1.1673

> <Gold.Chemscore.Metal>
0.0000

> <Gold.Chemscore.Lipo>
75.5331

> <Gold.Chemscore.Internal_Hbond>
0.0000

> <Gold.Chemscore.DEClash>
1.3097

> <Gold.Chemscore.DEInternal>
1.8394

> <Gold.Chemscore.Rot>
1.6045

> <Gold.Chemscore.Internal.Correction>
   9.000000E+99

> <Gold.Chemscore.Hbonds>
donor molecule, donor type, donor heavy atom, donor atom, acceptor molecule, acceptor atom, score
      L1  H    10    32       P1  7948  0.42
      P1  H  7989  7998       L1    22  0.50

> <Gold.Chemscore.Hbond.Weighted>
-3.8987

> <Gold.Chemscore.Metal.Weighted>
-0.0000

> <Gold.Chemscore.Lipo.Weighted>
-8.8374

> <Gold.Chemscore.Internal_Hbond.Weighted>
0.0000

> <Gold.Chemscore.DEClash.Weighted>
1.3097

> <Gold.Chemscore.DEInternal.Weighted>
1.8394

> <Gold.Chemscore.Rot.Weighted>
4.1075

> <Gold.Chemscore.Internal.Correction.Weighted>
   9.000000E+99

> <Gold.Protein.RotatedTorsions>
[ 6907 6896 6895 6894 ] final -143.04 input  -60.11 | X-H torsion
[ 7974 7965 7964 7962 ] final  159.11 input  175.53 | X-H torsion
[ 8008 7997 7996 7995 ] final  120.18 input   59.86 | X-H torsion
[ 10167 10162 10161 10158 ] final  165.51 input  -65.29 | X-H torsion
[ 10718 10713 10712 10709 ] final  108.62 input   66.30 | X-H torsion
[ 10763 10752 10751 10750 ] final  178.19 input  -60.55 | X-H torsion
[ 11005 11000 10999 10996 ] final  -17.34 input  -57.11 | X-H torsion

> <Gold.Protein.ActiveResidues>
 VAL166  LYS551  ARG553  GLY616  TRP617  ASP618  TYR619  PRO620  LYS621  CYS622 
 ASP623  PHE694  ASN695  SER759  ASP760  ASP761  ALA762  ILE779  LEU786  VAL792 
 PHE793  MET794  SER795  GLU796  ALA797  LYS798  CYS799  TRP800  GLU811  SER814 

> <Gold.Protein.RotatedAtoms>
  151.0952  133.5285  159.2612 H   0  0  0  0  0  0  0  0  0  0  0  0  # atno 6907 bound_to 6896
  151.2137  135.0491  159.8931 H   0  0  0  0  0  0  0  0  0  0  0  0  # atno 6908 bound_to 6896
  152.5438  134.0764  159.8270 H   0  0  0  0  0  0  0  0  0  0  0  0  # atno 6909 bound_to 6896
  144.7808  139.7572  143.6260 H   0  0  0  0  0  0  0  0  0  0  0  0  # atno 7974 bound_to 7965
  156.2631  140.2836  156.1109 H   0  0  0  0  0  0  0  0  0  0  0  0  # atno 8008 bound_to 7997
  155.1259  140.0393  157.2779 H   0  0  0  0  0  0  0  0  0  0  0  0  # atno 8009 bound_to 7997
  154.6636  140.2572  155.7088 H   0  0  0  0  0  0  0  0  0  0  0  0  # atno 8010 bound_to 7997
  139.4907  144.4125  151.9283 H   0  0  0  0  0  0  0  0  0  0  0  0  # atno 10167 bound_to 10162
  157.6578  131.0897  150.6333 H   0  0  0  0  0  0  0  0  0  0  0  0  # atno 10718 bound_to 10713
  154.5044  135.2785  155.1394 H   0  0  0  0  0  0  0  0  0  0  0  0  # atno 10763 bound_to 10752
  154.3015  135.6247  153.5430 H   0  0  0  0  0  0  0  0  0  0  0  0  # atno 10764 bound_to 10752
  152.9908  135.5698  154.5494 H   0  0  0  0  0  0  0  0  0  0  0  0  # atno 10765 bound_to 10752
  140.8158  133.8106  155.9609 H   0  0  0  0  0  0  0  0  0  0  0  0  # atno 11005 bound_to 11000
  146.2015  139.5313  142.9740 LP  0  0  0  0  0  0  0  0  0  0  0  0  # atno 17320 bound_to 7965
  145.6056  141.0348  143.1995 LP  0  0  0  0  0  0  0  0  0  0  0  0  # atno 17321 bound_to 7965
  140.3567  144.3023  150.5940 LP  0  0  0  0  0  0  0  0  0  0  0  0  # atno 17342 bound_to 10162
  140.5439  143.2218  151.8040 LP  0  0  0  0  0  0  0  0  0  0  0  0  # atno 17343 bound_to 10162
  156.6638  130.4520  149.5679 LP  0  0  0  0  0  0  0  0  0  0  0  0  # atno 17370 bound_to 10713
  156.2048  130.6642  151.1206 LP  0  0  0  0  0  0  0  0  0  0  0  0  # atno 17371 bound_to 10713
  140.9150  134.2213  157.4962 LP  0  0  0  0  0  0  0  0  0  0  0  0  # atno 17394 bound_to 11000
  139.8711  134.9767  156.4931 LP  0  0  0  0  0  0  0  0  0  0  0  0  # atno 17395 bound_to 11000

$$$$
