AV-unprocessed.smi:2784|AV-procd|sdf|10737|dock6
  -GOLD-   2272015173D 1   1.00000     0.00000
 Structure written by MMmdl.
 31 32  0  0  0  0  0  0  0  0  1 V2000
  153.7472  141.1996  161.4858 C   0  0  0  0  0  0  0  0  0  0  0  0
  153.6419  141.6660  160.1505 O   0  0  0  0  0  0  0  0  0  0  0  0
  152.4849  142.4562  159.9118 C   0  0  1  0  0  0  0  0  0  0  0  0
  152.3509  143.5984  160.9280 C   0  0  0  0  0  0  0  0  0  0  0  0
  151.6681  144.7192  160.1526 C   0  0  0  0  0  0  0  0  0  0  0  0
  152.2882  144.6290  158.7594 C   0  0  0  0  0  0  0  0  0  0  0  0
  152.5833  143.1361  158.5267 C   0  0  2  0  0  0  0  0  0  0  0  0
  151.6222  142.5738  157.5809 N   0  0  0  0  0  0  0  0  0  0  0  0
  151.5449  141.2812  157.2311 C   0  0  0  0  0  0  0  0  0  0  0  0
  152.3203  140.4355  157.6887 O   0  0  0  0  0  0  0  0  0  0  0  0
  150.5380  141.0932  156.2976 N   0  0  0  0  0  0  0  0  0  0  0  0
  150.5868  140.0563  155.5190 C   0  0  0  0  0  0  0  0  0  0  0  0
  151.5083  139.0217  155.3786 N   0  0  0  0  0  0  0  0  0  0  0  0
  151.0687  138.1922  154.3852 C   0  0  0  0  0  0  0  0  0  0  0  0
  149.9228  138.6794  153.9186 C   0  0  0  0  0  0  0  0  0  0  0  0
  149.6026  139.8196  154.5930 O   0  0  0  0  0  0  0  0  0  0  0  0
  154.6472  140.5937  161.5888 H   0  0  0  0  0  0  0  0  0  0  0  0
  152.8924  140.5775  161.7537 H   0  0  0  0  0  0  0  0  0  0  0  0
  153.8168  142.0239  162.1962 H   0  0  0  0  0  0  0  0  0  0  0  0
  151.5875  141.8348  159.9525 H   0  0  0  0  0  0  0  0  0  0  0  0
  151.7958  143.3057  161.8195 H   0  0  0  0  0  0  0  0  0  0  0  0
  153.3398  143.9318  161.2458 H   0  0  0  0  0  0  0  0  0  0  0  0
  150.5960  144.5269  160.0933 H   0  0  0  0  0  0  0  0  0  0  0  0
  151.8093  145.6970  160.6135 H   0  0  0  0  0  0  0  0  0  0  0  0
  151.6488  145.0711  157.9942 H   0  0  0  0  0  0  0  0  0  0  0  0
  153.2269  145.1845  158.7509 H   0  0  0  0  0  0  0  0  0  0  0  0
  153.5904  143.0401  158.1158 H   0  0  0  0  0  0  0  0  0  0  0  0
  150.9658  143.2162  157.1614 H   0  0  0  0  0  0  0  0  0  0  0  0
  152.3640  138.8726  155.8945 H   0  0  0  0  0  0  0  0  0  0  0  0
  151.6396  137.3176  154.1105 H   0  0  0  0  0  0  0  0  0  0  0  0
  149.2461  138.3479  153.1450 H   0  0  0  0  0  0  0  0  0  0  0  0
  1  2  1  0  0  0  0
  1 17  1  0  0  0  0
  1 18  1  0  0  0  0
  1 19  1  0  0  0  0
  2  3  1  0  0  0  0
  3  7  1  0  0  0  0
  3  4  1  0  0  0  0
  3 20  1  0  0  0  0
  4  5  1  0  0  0  0
  4 21  1  0  0  0  0
  4 22  1  0  0  0  0
  5  6  1  0  0  0  0
  5 23  1  0  0  0  0
  5 24  1  0  0  0  0
  6  7  1  0  0  0  0
  6 25  1  0  0  0  0
  6 26  1  0  0  0  0
  7  8  1  0  0  0  0
  7 27  1  0  0  0  0
  8 28  1  0  0  0  0
  8  9  1  0  0  0  0
  9 11  1  0  0  0  0
  9 10  2  0  0  0  0
 11 12  2  0  0  0  0
 12 16  1  0  0  0  0
 12 13  1  0  0  0  0
 13 29  1  0  0  0  0
 13 14  1  0  0  0  0
 14 30  1  0  0  0  0
 14 15  2  0  0  0  0
 15 31  1  0  0  0  0
 15 16  1  0  0  0  0
M  END
> <s_m_source_file>
AV-unprocessed.smi

> <i_m_source_file_index>
2784

> <i_lp_mmshare_version>
43012

> <i_f3d_flags>
0

> <s_epik_input>
W0NIM11PW0NAQEhdMVtDSDJdW0NIMl1bQ0gyXVtDQEhdMVtOSF1DKD1PKVtOSF1jMm5bY0hdW2NIXW8y

> <s_epik_cmdline>
J2VwaWtfcHl0aG9uJywgJy1waCcsICc3LjAnLCAnLXRuJywgJzgnLCAnLW1hJywgJzIwMCcsICctbWV0YWxfYmluZGluZycsICctaW1hZScsICc8aW5maWxlLm1hZT4nLCAnLW9tYWUnLCAnPG91dGZpbGUubWFlPic=

> <r_lp_tautomer_probability>
0.107061

> <r_epik_Ionization_Penalty>
1.29244

> <r_epik_Ionization_Penalty_Charging>
1.29208

> <r_epik_Ionization_Penalty_Neutral>
0.000359742

> <r_epik_State_Penalty>
2.59896

> <r_epik_Charging_Adjusted_Penalty>
3.89105

> <i_epik_Tot_Q>
0

> <i_epik_Tot_abs_Q>
0

> <r_epik_Metal_State_Penalty>
3.62496

> <b_epik_Metal_Only>
0

> <s_lp_Force_Field>
OPLS_2005

> <r_lp_Energy>
42.837

> <b_lp_Chiralities_Consistent>
1

> <s_lp_Variant>
AV-unprocessed.smi:2784-12

> <Gold.Version>
5.8.1

> <Gold.Id.Protein>
6NUR|6NUR_protein|mol2

> <Gold.PLP.Fitness>
41.8768

> <Gold.PLP.PLP>
-35.8501

> <Gold.PLP.part.hbond>
-1.1432

> <Gold.PLP.part.metal>
0.0000

> <Gold.PLP.part.buried>
-3.7277

> <Gold.PLP.part.nonpolar>
-29.7060

> <Gold.PLP.part.repulsive>
0.3485

> <Gold.PLP.ligand.clash>
0.0000

> <Gold.PLP.ligand.torsion>
0.1629

> <Gold.PLP.Chemscore.Hbond>
0.6625

> <Gold.PLP.Chemscore.CHOScore>
1.4533

> <Gold.PLP.Chemscore.Metal>
0.0000

> <Gold.Chemscore.Hbonds>
donor molecule, donor type, donor heavy atom, donor atom, acceptor molecule, acceptor atom, score
      P1  H  7997  8010       L1    10  0.25
      L1  C    15    31       P1  7948  1.00
      L1  C    15    31       P1  7957  0.40

> <Gold.PLP.Chemscore.Internal.Correction>
0.0052

> <Gold.Rescore>
     Score         DG    S(hbond)    S(metal)    S(lipo)     H(rot)  DE(clash)    DE(int)     intcor
     12.85     -14.77       0.72        0.00      87.83       1.32       0.18       1.74       ----

> <Gold.Chemscore.Fitness>
12.8455

> <Gold.Chemscore.DG>
-14.7657

> <Gold.Chemscore.ZeroCoef>
-5.4800

> <Gold.Chemscore.Hbond>
0.7177

> <Gold.Chemscore.Metal>
0.0000

> <Gold.Chemscore.Lipo>
87.8345

> <Gold.Chemscore.Internal_Hbond>
0.0000

> <Gold.Chemscore.DEClash>
0.1752

> <Gold.Chemscore.DEInternal>
1.7450

> <Gold.Chemscore.Rot>
1.3235

> <Gold.Chemscore.Internal.Correction>
   9.000000E+99

> <Gold.Chemscore.Hbonds>
donor molecule, donor type, donor heavy atom, donor atom, acceptor molecule, acceptor atom, score
      P1  H  7997  8010       L1    10  0.26

> <Gold.Chemscore.Hbond.Weighted>
-2.3972

> <Gold.Chemscore.Metal.Weighted>
-0.0000

> <Gold.Chemscore.Lipo.Weighted>
-10.2766

> <Gold.Chemscore.Internal_Hbond.Weighted>
0.0000

> <Gold.Chemscore.DEClash.Weighted>
0.1752

> <Gold.Chemscore.DEInternal.Weighted>
1.7450

> <Gold.Chemscore.Rot.Weighted>
3.3882

> <Gold.Chemscore.Internal.Correction.Weighted>
   9.000000E+99

> <Gold.Protein.RotatedTorsions>
[ 6907 6896 6895 6894 ] final  174.64 input  -60.11 | X-H torsion
[ 7974 7965 7964 7962 ] final  115.88 input  175.53 | X-H torsion
[ 8008 7997 7996 7995 ] final   52.33 input   59.86 | X-H torsion
[ 10167 10162 10161 10158 ] final   54.33 input  -65.29 | X-H torsion
[ 10718 10713 10712 10709 ] final  -36.54 input   66.30 | X-H torsion
[ 10763 10752 10751 10750 ] final   48.28 input  -60.55 | X-H torsion
[ 11005 11000 10999 10996 ] final   32.01 input  -57.11 | X-H torsion

> <Gold.Protein.ActiveResidues>
 VAL166  LYS551  ARG553  GLY616  TRP617  ASP618  TYR619  PRO620  LYS621  CYS622 
 ASP623  PHE694  ASN695  SER759  ASP760  ASP761  ALA762  ILE779  LEU786  VAL792 
 PHE793  MET794  SER795  GLU796  ALA797  LYS798  CYS799  TRP800  GLU811  SER814 

> <Gold.Protein.RotatedAtoms>
  151.7490  133.3326  159.3386 H   0  0  0  0  0  0  0  0  0  0  0  0  # atno 6907 bound_to 6896
  150.7542  134.6209  159.6145 H   0  0  0  0  0  0  0  0  0  0  0  0  # atno 6908 bound_to 6896
  152.3481  134.7046  160.0296 H   0  0  0  0  0  0  0  0  0  0  0  0  # atno 6909 bound_to 6896
  145.1866  139.3022  143.4390 H   0  0  0  0  0  0  0  0  0  0  0  0  # atno 7974 bound_to 7965
  155.4500  140.3458  155.4299 H   0  0  0  0  0  0  0  0  0  0  0  0  # atno 8008 bound_to 7997
  156.1226  140.1491  156.9212 H   0  0  0  0  0  0  0  0  0  0  0  0  # atno 8009 bound_to 7997
  154.4835  140.0862  156.7411 H   0  0  0  0  0  0  0  0  0  0  0  0  # atno 8010 bound_to 7997
  140.2312  144.3684  150.6414 H   0  0  0  0  0  0  0  0  0  0  0  0  # atno 10167 bound_to 10162
  156.3257  130.4272  149.7919 H   0  0  0  0  0  0  0  0  0  0  0  0  # atno 10718 bound_to 10713
  152.9793  135.5949  154.3900 H   0  0  0  0  0  0  0  0  0  0  0  0  # atno 10763 bound_to 10752
  154.3556  135.2767  155.2350 H   0  0  0  0  0  0  0  0  0  0  0  0  # atno 10764 bound_to 10752
  154.4370  135.6022  153.6160 H   0  0  0  0  0  0  0  0  0  0  0  0  # atno 10765 bound_to 10752
  140.2779  134.3007  155.7809 H   0  0  0  0  0  0  0  0  0  0  0  0  # atno 11005 bound_to 11000
  146.3444  140.2063  142.8589 LP  0  0  0  0  0  0  0  0  0  0  0  0  # atno 17320 bound_to 7965
  145.0083  140.8692  143.5239 LP  0  0  0  0  0  0  0  0  0  0  0  0  # atno 17321 bound_to 7965
  140.6183  143.2174  151.6746 LP  0  0  0  0  0  0  0  0  0  0  0  0  # atno 17342 bound_to 10162
  139.5109  144.3526  152.0637 LP  0  0  0  0  0  0  0  0  0  0  0  0  # atno 17343 bound_to 10162
  156.5210  130.8215  151.3203 LP  0  0  0  0  0  0  0  0  0  0  0  0  # atno 17370 bound_to 10713
  157.7420  130.9883  150.2489 LP  0  0  0  0  0  0  0  0  0  0  0  0  # atno 17371 bound_to 10713
  141.2167  133.7507  156.9435 LP  0  0  0  0  0  0  0  0  0  0  0  0  # atno 17394 bound_to 11000
  140.1311  134.9355  157.2338 LP  0  0  0  0  0  0  0  0  0  0  0  0  # atno 17395 bound_to 11000

$$$$
