AV-unprocessed.smi:972|AV-procd|sdf|4296|dock4
  -GOLD-   22720 2203D 1   1.00000     0.00000
 Structure written by MMmdl.
 51 53  0  0  0  0  0  0  0  0  2 V2000
  152.4959  143.3688  160.8903 C   0  0  0  0  0  0  0  0  0  0  0  0
  151.6540  143.8893  159.7011 C   0  0  0  0  0  0  0  0  0  0  0  0
  150.4790  144.6800  160.3236 C   0  0  0  0  0  0  0  0  0  0  0  0
  152.5106  144.8332  158.8376 C   0  0  0  0  0  0  0  0  0  0  0  0
  151.1407  142.7263  158.8341 C   0  0  0  0  0  0  0  0  0  0  0  0
  150.3475  143.0390  157.8012 N   0  0  0  0  0  0  0  0  0  0  0  0
  149.7838  142.0266  157.1085 C   0  0  0  0  0  0  0  0  0  0  0  0
  149.9842  140.6737  157.4751 C   0  0  0  0  0  0  0  0  0  0  0  0
  149.4444  139.5442  156.8008 N   0  0  0  0  0  0  0  0  0  0  0  0
  148.3653  139.4744  156.0025 C   0  0  0  0  0  0  0  0  0  0  0  0
  147.6131  140.4098  155.7329 O   0  0  0  0  0  0  0  0  0  0  0  0
  148.1907  138.2308  155.5320 N   0  0  0  0  0  0  0  0  0  0  0  0
  147.1184  137.8170  154.6307 C   0  0  2  0  0  0  0  0  0  0  0  0
  147.1227  136.2898  154.4292 C   0  0  0  0  0  0  0  0  0  0  0  0
  146.0584  135.8628  153.4043 C   0  0  0  0  0  0  0  0  0  0  0  0
  146.2507  136.5639  152.1106 N   0  3  1  0  0  0  0  0  0  0  0  0
  145.3079  136.0901  151.0741 C   0  0  0  0  0  0  0  0  0  0  0  0
  143.9629  135.6704  151.6202 C   0  0  0  0  0  0  0  0  0  0  0  0
  144.9656  134.6229  151.1897 C   0  0  0  0  0  0  0  0  0  0  0  0
  146.2082  138.0386  152.2731 C   0  0  0  0  0  0  0  0  0  0  0  0
  147.2776  138.5161  153.2703 C   0  0  0  0  0  0  0  0  0  0  0  0
  150.8092  140.4622  158.5980 C   0  0  0  0  0  0  0  0  0  0  0  0
  151.3659  141.4839  159.2812 N   0  0  0  0  0  0  0  0  0  0  0  0
  152.8227  144.1866  161.5333 H   0  0  0  0  0  0  0  0  0  0  0  0
  153.3970  142.8519  160.5584 H   0  0  0  0  0  0  0  0  0  0  0  0
  151.9250  142.6749  161.5082 H   0  0  0  0  0  0  0  0  0  0  0  0
  149.8358  144.0319  160.9201 H   0  0  0  0  0  0  0  0  0  0  0  0
  149.8573  145.1545  159.5634 H   0  0  0  0  0  0  0  0  0  0  0  0
  150.8377  145.4763  160.9768 H   0  0  0  0  0  0  0  0  0  0  0  0
  152.8913  145.6718  159.4216 H   0  0  0  0  0  0  0  0  0  0  0  0
  151.9333  145.2446  158.0088 H   0  0  0  0  0  0  0  0  0  0  0  0
  153.3688  144.3113  158.4129 H   0  0  0  0  0  0  0  0  0  0  0  0
  149.1853  142.3263  156.2634 H   0  0  0  0  0  0  0  0  0  0  0  0
  149.9310  138.6747  156.9639 H   0  0  0  0  0  0  0  0  0  0  0  0
  148.8549  137.5223  155.8081 H   0  0  0  0  0  0  0  0  0  0  0  0
  146.1598  138.1172  155.0590 H   0  0  0  0  0  0  0  0  0  0  0  0
  148.1063  135.9624  154.0888 H   0  0  0  0  0  0  0  0  0  0  0  0
  146.9395  135.7819  155.3768 H   0  0  0  0  0  0  0  0  0  0  0  0
  146.1162  134.7846  153.2489 H   0  0  0  0  0  0  0  0  0  0  0  0
  145.0594  136.0737  153.7890 H   0  0  0  0  0  0  0  0  0  0  0  0
  145.3822  136.5659  150.0977 H   0  0  0  0  0  0  0  0  0  0  0  0
  143.7809  135.7829  152.6875 H   0  0  0  0  0  0  0  0  0  0  0  0
  143.0937  135.8194  150.9827 H   0  0  0  0  0  0  0  0  0  0  0  0
  144.7563  134.0818  150.2692 H   0  0  0  0  0  0  0  0  0  0  0  0
  145.4481  134.0395  151.9722 H   0  0  0  0  0  0  0  0  0  0  0  0
  146.3712  138.5182  151.3072 H   0  0  0  0  0  0  0  0  0  0  0  0
  145.2159  138.3405  152.6127 H   0  0  0  0  0  0  0  0  0  0  0  0
  147.2085  139.5977  153.3945 H   0  0  0  0  0  0  0  0  0  0  0  0
  148.2690  138.3139  152.8614 H   0  0  0  0  0  0  0  0  0  0  0  0
  151.0199  139.4660  158.9587 H   0  0  0  0  0  0  0  0  0  0  0  0
  147.1786  136.3313  151.7862 H   0  0  0  0  0  0  0  0  0  0  0  0
  1  2  1  0  0  0  0
  1 24  1  0  0  0  0
  1 25  1  0  0  0  0
  1 26  1  0  0  0  0
  2  3  1  0  0  0  0
  2  4  1  0  0  0  0
  2  5  1  0  0  0  0
  3 27  1  0  0  0  0
  3 28  1  0  0  0  0
  3 29  1  0  0  0  0
  4 30  1  0  0  0  0
  4 31  1  0  0  0  0
  4 32  1  0  0  0  0
  5 23  1  0  0  0  0
  5  6  2  0  0  0  0
  6  7  1  0  0  0  0
  7  8  2  0  0  0  0
  7 33  1  0  0  0  0
  8  9  1  0  0  0  0
  8 22  1  0  0  0  0
  9 10  1  0  0  0  0
  9 34  1  0  0  0  0
 10 11  2  0  0  0  0
 10 12  1  0  0  0  0
 12 13  1  0  0  0  0
 12 35  1  0  0  0  0
 13 21  1  0  0  0  0
 13 14  1  0  0  0  0
 13 36  1  0  0  0  0
 14 15  1  0  0  0  0
 14 37  1  0  0  0  0
 14 38  1  0  0  0  0
 15 16  1  0  0  0  0
 15 39  1  0  0  0  0
 15 40  1  0  0  0  0
 16 17  1  0  0  0  0
 16 20  1  0  0  0  0
 16 51  1  0  0  0  0
 17 19  1  0  0  0  0
 17 18  1  0  0  0  0
 17 41  1  0  0  0  0
 18 19  1  0  0  0  0
 18 42  1  0  0  0  0
 18 43  1  0  0  0  0
 19 44  1  0  0  0  0
 19 45  1  0  0  0  0
 20 21  1  0  0  0  0
 20 46  1  0  0  0  0
 20 47  1  0  0  0  0
 21 48  1  0  0  0  0
 21 49  1  0  0  0  0
 22 23  2  0  0  0  0
 22 50  1  0  0  0  0
M  CHG  1  16   1
M  END
> <s_m_source_file>
AV-unprocessed.smi

> <i_m_source_file_index>
972

> <i_lp_mmshare_version>
43012

> <i_f3d_flags>
0

> <s_epik_input>
W0NIM11DKFtDSDNdKShbQ0gzXSljMW5bY0hdYyhbY0hdbjEpW05IXUMoPU8pW05IXVtDSF0yW0NIMl1bQ0gyXU4oW0NIMl1bQ0gyXTIpW0NIXTNbQ0gyXVtDSDJdMw==

> <s_epik_cmdline>
J2VwaWtfcHl0aG9uJywgJy1waCcsICc3LjAnLCAnLXRuJywgJzgnLCAnLW1hJywgJzIwMCcsICctbWV0YWxfYmluZGluZycsICctaW1hZScsICc8aW5maWxlLm1hZT4nLCAnLW9tYWUnLCAnPG91dGZpbGUubWFlPic=

> <r_lp_tautomer_probability>
1

> <r_epik_Ionization_Penalty>
0.123264

> <r_epik_Ionization_Penalty_Charging>
0.123242

> <r_epik_Ionization_Penalty_Neutral>
2.24743e-05

> <r_epik_State_Penalty>
0.112739

> <r_epik_Charging_Adjusted_Penalty>
0.235981

> <i_epik_Tot_Q>
1

> <i_epik_Tot_abs_Q>
1

> <r_epik_Metal_State_Penalty>
0.112739

> <b_epik_Metal_Only>
0

> <s_lp_Force_Field>
OPLS_2005

> <r_lp_Energy>
25.9284

> <b_lp_Chiralities_Consistent>
1

> <s_lp_Variant>
AV-unprocessed.smi:972-1

> <Gold.Version>
5.8.1

> <Gold.Id.Protein>
6NUR|6NUR_protein|mol2

> <Gold.PLP.Fitness>
41.9460

> <Gold.PLP.PLP>
-33.7632

> <Gold.PLP.part.hbond>
-1.0110

> <Gold.PLP.part.metal>
0.0000

> <Gold.PLP.part.buried>
-3.0279

> <Gold.PLP.part.nonpolar>
-29.8277

> <Gold.PLP.part.repulsive>
0.5255

> <Gold.PLP.ligand.clash>
0.0000

> <Gold.PLP.ligand.torsion>
0.8635

> <Gold.PLP.Chemscore.Hbond>
2.0000

> <Gold.PLP.Chemscore.CHOScore>
0.8375

> <Gold.PLP.Chemscore.Metal>
0.0000

> <Gold.Chemscore.Hbonds>
donor molecule, donor type, donor heavy atom, donor atom, acceptor molecule, acceptor atom, score
      L1  H    16    51       P1  7948  2.00
      L1  C     7    33       P1  8028  0.84

> <Gold.PLP.Chemscore.Internal.Correction>
1.3973

> <Gold.Rescore>
     Score         DG    S(hbond)    S(metal)    S(lipo)     H(rot)  DE(clash)    DE(int)     intcor
     14.69     -16.51       0.99        0.00      94.86       1.32       0.12       1.70       ----

> <Gold.Chemscore.Fitness>
14.6876

> <Gold.Chemscore.DG>
-16.5089

> <Gold.Chemscore.ZeroCoef>
-5.4800

> <Gold.Chemscore.Hbond>
0.9915

> <Gold.Chemscore.Metal>
0.0000

> <Gold.Chemscore.Lipo>
94.8571

> <Gold.Chemscore.Internal_Hbond>
0.0000

> <Gold.Chemscore.DEClash>
0.1245

> <Gold.Chemscore.DEInternal>
1.6968

> <Gold.Chemscore.Rot>
1.3207

> <Gold.Chemscore.Internal.Correction>
   9.000000E+99

> <Gold.Chemscore.Hbonds>
donor molecule, donor type, donor heavy atom, donor atom, acceptor molecule, acceptor atom, score
      L1  H    16    51       P1  7948  0.99

> <Gold.Chemscore.Hbond.Weighted>
-3.3115

> <Gold.Chemscore.Metal.Weighted>
-0.0000

> <Gold.Chemscore.Lipo.Weighted>
-11.0983

> <Gold.Chemscore.Internal_Hbond.Weighted>
0.0000

> <Gold.Chemscore.DEClash.Weighted>
0.1245

> <Gold.Chemscore.DEInternal.Weighted>
1.6968

> <Gold.Chemscore.Rot.Weighted>
3.3809

> <Gold.Chemscore.Internal.Correction.Weighted>
   9.000000E+99

> <Gold.Protein.RotatedTorsions>
[ 6907 6896 6895 6894 ] final  -51.71 input  -60.11 | X-H torsion
[ 7974 7965 7964 7962 ] final -116.16 input  175.53 | X-H torsion
[ 8008 7997 7996 7995 ] final  -46.50 input   59.86 | X-H torsion
[ 10167 10162 10161 10158 ] final -159.56 input  -65.29 | X-H torsion
[ 10718 10713 10712 10709 ] final -146.12 input   66.30 | X-H torsion
[ 10763 10752 10751 10750 ] final   87.15 input  -60.55 | X-H torsion
[ 11005 11000 10999 10996 ] final  -67.07 input  -57.11 | X-H torsion

> <Gold.Protein.ActiveResidues>
 VAL166  LYS551  ARG553  GLY616  TRP617  ASP618  TYR619  PRO620  LYS621  CYS622 
 ASP623  PHE694  ASN695  SER759  ASP760  ASP761  ALA762  ILE779  LEU786  VAL792 
 PHE793  MET794  SER795  GLU796  ALA797  LYS798  CYS799  TRP800  GLU811  SER814 

> <Gold.Protein.RotatedAtoms>
  150.8586  134.7931  159.7064 H   0  0  0  0  0  0  0  0  0  0  0  0  # atno 6907 bound_to 6896
  152.4630  134.5138  159.9771 H   0  0  0  0  0  0  0  0  0  0  0  0  # atno 6908 bound_to 6896
  151.5246  133.3422  159.2943 H   0  0  0  0  0  0  0  0  0  0  0  0  # atno 6909 bound_to 6896
  145.1000  140.8545  143.3932 H   0  0  0  0  0  0  0  0  0  0  0  0  # atno 7974 bound_to 7965
  154.4008  140.1370  156.4021 H   0  0  0  0  0  0  0  0  0  0  0  0  # atno 8008 bound_to 7997
  155.7814  140.3481  155.5279 H   0  0  0  0  0  0  0  0  0  0  0  0  # atno 8009 bound_to 7997
  155.8670  140.0965  157.1566 H   0  0  0  0  0  0  0  0  0  0  0  0  # atno 8010 bound_to 7997
  139.6606  143.9920  152.2222 H   0  0  0  0  0  0  0  0  0  0  0  0  # atno 10167 bound_to 10162
  156.3909  130.7885  151.2087 H   0  0  0  0  0  0  0  0  0  0  0  0  # atno 10718 bound_to 10713
  153.1640  135.4554  154.9811 H   0  0  0  0  0  0  0  0  0  0  0  0  # atno 10763 bound_to 10752
  154.7918  135.3223  154.7761 H   0  0  0  0  0  0  0  0  0  0  0  0  # atno 10764 bound_to 10752
  153.8247  135.6944  153.4877 H   0  0  0  0  0  0  0  0  0  0  0  0  # atno 10765 bound_to 10752
  141.1499  133.6712  156.6236 H   0  0  0  0  0  0  0  0  0  0  0  0  # atno 11005 bound_to 11000
  145.0966  139.2852  143.5707 LP  0  0  0  0  0  0  0  0  0  0  0  0  # atno 17320 bound_to 7965
  146.3530  140.0520  142.8635 LP  0  0  0  0  0  0  0  0  0  0  0  0  # atno 17321 bound_to 7965
  139.9658  144.6527  150.8036 LP  0  0  0  0  0  0  0  0  0  0  0  0  # atno 17342 bound_to 10162
  140.7578  143.3094  151.2882 LP  0  0  0  0  0  0  0  0  0  0  0  0  # atno 17343 bound_to 10162
  157.7499  131.0316  150.4188 LP  0  0  0  0  0  0  0  0  0  0  0  0  # atno 17370 bound_to 10713
  156.4449  130.3999  149.6673 LP  0  0  0  0  0  0  0  0  0  0  0  0  # atno 17371 bound_to 10713
  140.3521  134.7760  157.4474 LP  0  0  0  0  0  0  0  0  0  0  0  0  # atno 17394 bound_to 11000
  140.0852  134.5676  155.8499 LP  0  0  0  0  0  0  0  0  0  0  0  0  # atno 17395 bound_to 11000

$$$$
