AV-unprocessed.smi:1599|AV-procd|sdf|6426|dock6
  -GOLD-   22720 7 63D 1   1.00000     0.00000
 Structure written by MMmdl.
 39 40  0  0  0  0  0  0  0  0  1 V2000
  148.0636  139.0118  153.4838 C   0  0  0  0  0  0  0  0  0  0  0  0
  146.8483  139.7471  152.8926 C   0  0  1  0  0  0  0  0  0  0  0  0
  146.0798  138.8293  152.0556 N   0  0  0  0  0  0  0  0  0  0  0  0
  145.8205  137.5468  152.3476 C   0  0  0  0  0  0  0  0  0  0  0  0
  146.1896  136.9955  153.3847 O   0  0  0  0  0  0  0  0  0  0  0  0
  145.1135  136.9570  151.3697 N   0  0  0  0  0  0  0  0  0  0  0  0
  144.6692  135.6114  151.3221 C   0  0  0  0  0  0  0  0  0  0  0  0
  144.3783  134.8136  152.4591 C   0  0  0  0  0  0  0  0  0  0  0  0
  143.9820  133.6005  152.1049 N   0  0  0  0  0  0  0  0  0  0  0  0
  144.0146  133.6012  150.7485 N   0  0  0  0  0  0  0  0  0  0  0  0
  143.6315  132.4037  150.0175 C   0  0  0  0  0  0  0  0  0  0  0  0
  143.3306  132.6763  148.5378 C   0  0  0  0  0  0  0  0  0  0  0  0
  142.1251  132.3047  148.0999 N   0  0  0  0  0  0  0  0  0  0  0  0
  144.1570  133.2069  147.7966 O   0  0  0  0  0  0  0  0  0  0  0  0
  144.4289  134.8160  150.2377 C   0  0  0  0  0  0  0  0  0  0  0  0
  145.9269  140.3256  153.9831 C   0  0  1  0  0  0  0  0  0  0  0  0
  145.5202  139.3325  155.0732 C   0  0  0  0  0  0  0  0  0  0  0  0
  145.2378  140.2144  156.2803 C   0  0  0  0  0  0  0  0  0  0  0  0
  145.8413  141.5700  155.9036 C   0  0  0  0  0  0  0  0  0  0  0  0
  146.6064  141.3209  154.7336 O   0  0  0  0  0  0  0  0  0  0  0  0
  148.6821  139.6828  154.0799 H   0  0  0  0  0  0  0  0  0  0  0  0
  148.6985  138.6023  152.6974 H   0  0  0  0  0  0  0  0  0  0  0  0
  147.7545  138.1858  154.1251 H   0  0  0  0  0  0  0  0  0  0  0  0
  147.2075  140.5749  152.2785 H   0  0  0  0  0  0  0  0  0  0  0  0
  145.7396  139.1953  151.1784 H   0  0  0  0  0  0  0  0  0  0  0  0
  144.8727  137.5288  150.5734 H   0  0  0  0  0  0  0  0  0  0  0  0
  144.4384  135.0683  153.5069 H   0  0  0  0  0  0  0  0  0  0  0  0
  144.4286  131.6627  150.0951 H   0  0  0  0  0  0  0  0  0  0  0  0
  142.7488  131.9778  150.4962 H   0  0  0  0  0  0  0  0  0  0  0  0
  141.8676  132.4591  147.1359 H   0  0  0  0  0  0  0  0  0  0  0  0
  141.4731  131.8706  148.7372 H   0  0  0  0  0  0  0  0  0  0  0  0
  144.5116  134.9918  149.1755 H   0  0  0  0  0  0  0  0  0  0  0  0
  145.0358  140.7702  153.5351 H   0  0  0  0  0  0  0  0  0  0  0  0
  144.6632  138.7222  154.7871 H   0  0  0  0  0  0  0  0  0  0  0  0
  146.3490  138.6609  155.3009 H   0  0  0  0  0  0  0  0  0  0  0  0
  144.1678  140.3087  156.4684 H   0  0  0  0  0  0  0  0  0  0  0  0
  145.7018  139.8029  157.1773 H   0  0  0  0  0  0  0  0  0  0  0  0
  145.0547  142.2892  155.6710 H   0  0  0  0  0  0  0  0  0  0  0  0
  146.4613  141.9881  156.6968 H   0  0  0  0  0  0  0  0  0  0  0  0
  1  2  1  0  0  0  0
  1 21  1  0  0  0  0
  1 22  1  0  0  0  0
  1 23  1  0  0  0  0
  2  3  1  0  0  0  0
  2 16  1  0  0  0  0
  2 24  1  0  0  0  0
  3  4  1  0  0  0  0
  3 25  1  0  0  0  0
  4  5  2  0  0  0  0
  4  6  1  0  0  0  0
  6  7  1  0  0  0  0
  6 26  1  0  0  0  0
  7 15  2  0  0  0  0
  7  8  1  0  0  0  0
  8  9  2  0  0  0  0
  8 27  1  0  0  0  0
  9 10  1  0  0  0  0
 10 11  1  0  0  0  0
 10 15  1  0  0  0  0
 11 12  1  0  0  0  0
 11 28  1  0  0  0  0
 11 29  1  0  0  0  0
 12 13  1  0  0  0  0
 12 14  2  0  0  0  0
 13 30  1  0  0  0  0
 13 31  1  0  0  0  0
 15 32  1  0  0  0  0
 16 20  1  0  0  0  0
 16 17  1  0  0  0  0
 16 33  1  0  0  0  0
 17 18  1  0  0  0  0
 17 34  1  0  0  0  0
 17 35  1  0  0  0  0
 18 19  1  0  0  0  0
 18 36  1  0  0  0  0
 18 37  1  0  0  0  0
 19 20  1  0  0  0  0
 19 38  1  0  0  0  0
 19 39  1  0  0  0  0
M  END
> <s_m_source_file>
AV-unprocessed.smi

> <i_m_source_file_index>
1599

> <i_lp_mmshare_version>
43012

> <i_f3d_flags>
0

> <s_epik_input>
TzFbQ0gyXVtDSDJdW0NIMl1bQ0BIXTFbQ0BIXShbQ0gzXSlbTkhdQyg9TylbTkhdYzJbY0hdbm4oW2NIXTIpW0NIMl1DKD1PKVtOSDJd

> <s_epik_cmdline>
J2VwaWtfcHl0aG9uJywgJy1waCcsICc3LjAnLCAnLXRuJywgJzgnLCAnLW1hJywgJzIwMCcsICctbWV0YWxfYmluZGluZycsICctaW1hZScsICc8aW5maWxlLm1hZT4nLCAnLW9tYWUnLCAnPG91dGZpbGUubWFlPic=

> <r_lp_tautomer_probability>
1

> <r_epik_Ionization_Penalty>
4.15391e-05

> <r_epik_Ionization_Penalty_Charging>
0

> <r_epik_Ionization_Penalty_Neutral>
4.15391e-05

> <r_epik_State_Penalty>
-0

> <r_epik_Charging_Adjusted_Penalty>
0

> <i_epik_Tot_Q>
0

> <i_epik_Tot_abs_Q>
0

> <r_epik_Metal_State_Penalty>
-0

> <b_epik_Metal_Only>
0

> <s_lp_Force_Field>
OPLS_2005

> <r_lp_Energy>
23.4533

> <b_lp_Chiralities_Consistent>
1

> <s_lp_Variant>
AV-unprocessed.smi:1599-4

> <Gold.Version>
5.8.1

> <Gold.Id.Protein>
6NUR|6NUR_protein|mol2

> <Gold.PLP.Fitness>
38.7750

> <Gold.PLP.PLP>
-26.3184

> <Gold.PLP.part.hbond>
-6.5436

> <Gold.PLP.part.metal>
0.0000

> <Gold.PLP.part.buried>
0.1480

> <Gold.PLP.part.nonpolar>
-25.3094

> <Gold.PLP.part.repulsive>
4.6452

> <Gold.PLP.ligand.clash>
0.0000

> <Gold.PLP.ligand.torsion>
0.7592

> <Gold.PLP.Chemscore.Hbond>
3.6444

> <Gold.PLP.Chemscore.CHOScore>
1.0000

> <Gold.PLP.Chemscore.Metal>
0.0000

> <Gold.Chemscore.Hbonds>
donor molecule, donor type, donor heavy atom, donor atom, acceptor molecule, acceptor atom, score
      L1  H     3    25       P1 10171  0.10
      L1  H     6    26       P1 10171  1.00
      L1  H    13    30       P1 10195  1.00
      L1  H    13    31       P1 10952  1.00
      P1  H  7918  7932       L1    14  0.54
      L1  C    15    32       P1  7921  1.00

> <Gold.PLP.Chemscore.Internal.Correction>
0.0417

> <Gold.Rescore>
     Score         DG    S(hbond)    S(metal)    S(lipo)     H(rot)  DE(clash)    DE(int)     intcor
      8.01     -15.53       3.18        0.00      45.09       2.28       2.79       4.74       ----

> <Gold.Chemscore.Fitness>
8.0073

> <Gold.Chemscore.DG>
-15.5327

> <Gold.Chemscore.ZeroCoef>
-5.4800

> <Gold.Chemscore.Hbond>
3.1795

> <Gold.Chemscore.Metal>
0.0000

> <Gold.Chemscore.Lipo>
45.0917

> <Gold.Chemscore.Internal_Hbond>
0.0000

> <Gold.Chemscore.DEClash>
2.7858

> <Gold.Chemscore.DEInternal>
4.7397

> <Gold.Chemscore.Rot>
2.2823

> <Gold.Chemscore.Internal.Correction>
   9.000000E+99

> <Gold.Chemscore.Hbonds>
donor molecule, donor type, donor heavy atom, donor atom, acceptor molecule, acceptor atom, score
      L1  H     3    25       P1 10171  0.12
      L1  H     6    26       P1 10171  0.96
      L1  H    13    30       P1 10195  0.99
      L1  H    13    31       P1 10952  0.95
      P1  H  7918  7932       L1    14  0.52

> <Gold.Chemscore.Hbond.Weighted>
-10.6197

> <Gold.Chemscore.Metal.Weighted>
-0.0000

> <Gold.Chemscore.Lipo.Weighted>
-5.2757

> <Gold.Chemscore.Internal_Hbond.Weighted>
0.0000

> <Gold.Chemscore.DEClash.Weighted>
2.7858

> <Gold.Chemscore.DEInternal.Weighted>
4.7397

> <Gold.Chemscore.Rot.Weighted>
5.8427

> <Gold.Chemscore.Internal.Correction.Weighted>
   9.000000E+99

> <Gold.Protein.RotatedTorsions>
[ 6907 6896 6895 6894 ] final  -89.10 input  -60.11 | X-H torsion
[ 7974 7965 7964 7962 ] final   92.27 input  175.53 | X-H torsion
[ 8008 7997 7996 7995 ] final   46.86 input   59.86 | X-H torsion
[ 10167 10162 10161 10158 ] final -139.98 input  -65.29 | X-H torsion
[ 10718 10713 10712 10709 ] final   19.73 input   66.30 | X-H torsion
[ 10763 10752 10751 10750 ] final  -87.26 input  -60.55 | X-H torsion
[ 11005 11000 10999 10996 ] final   50.96 input  -57.11 | X-H torsion

> <Gold.Protein.ActiveResidues>
 VAL166  LYS551  ARG553  GLY616  TRP617  ASP618  TYR619  PRO620  LYS621  CYS622 
 ASP623  PHE694  ASN695  SER759  ASP760  ASP761  ALA762  ILE779  LEU786  VAL792 
 PHE793  MET794  SER795  GLU796  ALA797  LYS798  CYS799  TRP800  GLU811  SER814 

> <Gold.Protein.RotatedAtoms>
  150.6872  134.2638  159.4560 H   0  0  0  0  0  0  0  0  0  0  0  0  # atno 6907 bound_to 6896
  152.0566  134.9618  160.0584 H   0  0  0  0  0  0  0  0  0  0  0  0  # atno 6908 bound_to 6896
  152.1061  133.4241  159.4646 H   0  0  0  0  0  0  0  0  0  0  0  0  # atno 6909 bound_to 6896
  145.4945  139.2276  143.2812 H   0  0  0  0  0  0  0  0  0  0  0  0  # atno 7974 bound_to 7965
  155.3595  140.3418  155.4240 H   0  0  0  0  0  0  0  0  0  0  0  0  # atno 8008 bound_to 7997
  156.1721  140.1635  156.8463 H   0  0  0  0  0  0  0  0  0  0  0  0  # atno 8009 bound_to 7997
  154.5244  140.0759  156.8213 H   0  0  0  0  0  0  0  0  0  0  0  0  # atno 8010 bound_to 7997
  139.8326  143.7427  152.2665 H   0  0  0  0  0  0  0  0  0  0  0  0  # atno 10167 bound_to 10162
  157.1145  130.6523  149.5906 H   0  0  0  0  0  0  0  0  0  0  0  0  # atno 10718 bound_to 10713
  154.6316  135.5420  153.7687 H   0  0  0  0  0  0  0  0  0  0  0  0  # atno 10763 bound_to 10752
  153.0287  135.6437  154.1292 H   0  0  0  0  0  0  0  0  0  0  0  0  # atno 10764 bound_to 10752
  154.1222  135.2919  155.3185 H   0  0  0  0  0  0  0  0  0  0  0  0  # atno 10765 bound_to 10752
  140.0973  134.5129  155.8795 H   0  0  0  0  0  0  0  0  0  0  0  0  # atno 11005 bound_to 11000
  146.2264  140.5741  142.8994 LP  0  0  0  0  0  0  0  0  0  0  0  0  # atno 17320 bound_to 7965
  144.7815  140.5850  143.6602 LP  0  0  0  0  0  0  0  0  0  0  0  0  # atno 17321 bound_to 7965
  139.7639  144.7498  151.0323 LP  0  0  0  0  0  0  0  0  0  0  0  0  # atno 17342 bound_to 10162
  140.7805  143.4720  151.0134 LP  0  0  0  0  0  0  0  0  0  0  0  0  # atno 17343 bound_to 10162
  155.9843  130.4866  150.6974 LP  0  0  0  0  0  0  0  0  0  0  0  0  # atno 17370 bound_to 10713
  157.4530  131.0874  151.0826 LP  0  0  0  0  0  0  0  0  0  0  0  0  # atno 17371 bound_to 10713
  141.2095  133.6685  156.6447 LP  0  0  0  0  0  0  0  0  0  0  0  0  # atno 17394 bound_to 11000
  140.3269  134.7961  157.4296 LP  0  0  0  0  0  0  0  0  0  0  0  0  # atno 17395 bound_to 11000

$$$$
