#       Name:                AV-unprocessed.smi:1803
#       Creating user name   scv26
#       Creation time:       Fri Mar 27 08:54:14 2020


#       File generated by GOLD software.
#

@<TRIPOS>MOLECULE
AV-unprocessed.smi:1803
    40    42     1
SMALL
NO_CHARGES


@<TRIPOS>ATOM
      1 ****        -2.7014  -2.0613  -0.2504 O.2            1 S1                 0.0000
      2 ****        -1.5376  -2.1597  -0.6345 C.2            1 S1                 0.0000
      3 ****        -0.9222  -3.3591  -0.7009 N.am           1 S1                 0.0000
      4 ****        -1.3868  -4.6693  -0.3855 C.2            1 S1                 0.0000
      5 ****        -2.6629  -4.9696  -0.0916 N.2            1 S1                 0.0000
      6 ****        -2.8387  -6.3251   0.1497 N.2            1 S1                 0.0000
      7 ****        -1.6931  -6.9989   0.0150 C.2            1 S1                 0.0000
      8 ****        -0.2878  -6.0411  -0.4185 S.3            1 S1                 0.0000
      9 ****        -0.8040  -1.0991  -1.0118 N.am           1 S1                 0.0000
     10 ****        -1.2358   0.2961  -0.9798 C.3            1 S1                 0.0000
     11 ****        -0.6025   1.1398  -2.1035 C.3            1 S1                 0.0000
     12 ****        -0.2061   2.4565  -1.4280 C.3            1 S1                 0.0000
     13 ****         0.1343   2.0370  -0.0636 N.4            1 S1                 1.0000
     14 ****         0.3310   3.0788   0.9649 C.3            1 S1                 0.0000
     15 ****         0.8479   2.4030   2.2532 C.3            1 S1                 0.0000
     16 ****        -0.0525   1.2290   2.6997 C.3            1 S1                 0.0000
     17 ****        -0.3226   0.2425   1.5432 C.3            1 S1                 0.0000
     18 ****        -0.8609   1.0255   0.3316 C.3            1 S1                 0.0000
     19 ****        -0.0037  -3.3355  -1.1199 H              1 S1                 0.0000
     20 ****        -1.6760  -8.0677   0.1688 H              1 S1                 0.0000
     21 ****         0.1416  -1.2746  -1.3211 H              1 S1                 0.0000
     22 ****        -2.3203   0.3384  -1.0984 H              1 S1                 0.0000
     23 ****         0.2947   0.6499  -2.4860 H              1 S1                 0.0000
     24 ****        -1.2774   1.2913  -2.9464 H              1 S1                 0.0000
     25 ****         0.6291   2.9509  -1.9246 H              1 S1                 0.0000
     26 ****        -1.0524   3.1448  -1.4020 H              1 S1                 0.0000
     27 ****         1.0532   3.8149   0.6101 H              1 S1                 0.0000
     28 ****        -0.6061   3.6060   1.1502 H              1 S1                 0.0000
     29 ****         1.8576   2.0285   2.0791 H              1 S1                 0.0000
     30 ****         0.9287   3.1379   3.0548 H              1 S1                 0.0000
     31 ****         0.4041   0.7052   3.5400 H              1 S1                 0.0000
     32 ****        -1.0015   1.6246   3.0639 H              1 S1                 0.0000
     33 ****         0.5960  -0.2842   1.2800 H              1 S1                 0.0000
     34 ****        -1.0424  -0.5119   1.8622 H              1 S1                 0.0000
     35 ****        -1.7589   1.5587   0.6513 H              1 S1                 0.0000
     36 ****         1.0128   1.5452  -0.1451 H              1 S1                 0.0000
     37 ****        -3.2096  -2.8791   0.0199 LP             1 S1                 0.0000
     38 ****        -3.1398  -1.1635  -0.2082 LP             1 S1                 0.0000
     39 ****        -3.4001  -4.2952  -0.0514 LP             1 S1                 0.0000
     40 ****        -3.7130  -6.7447   0.3937 LP             1 S1                 0.0000
@<TRIPOS>BOND
    1    1    2 2     
    2    2    3 am    
    3    2    9 am    
    4    3    4 1     
    5    3   19 1     
    6    4    8 1     
    7    4    5 2     
    8    5    6 1     
    9    6    7 2     
   10    7    8 1     
   11    7   20 1     
   12    9   10 1     
   13    9   21 1     
   14   10   18 1     
   15   10   11 1     
   16   10   22 1     
   17   11   12 1     
   18   11   23 1     
   19   11   24 1     
   20   12   13 1     
   21   12   25 1     
   22   12   26 1     
   23   13   18 1     
   24   13   14 1     
   25   13   36 1     
   26   14   15 1     
   27   14   27 1     
   28   14   28 1     
   29   15   16 1     
   30   15   29 1     
   31   15   30 1     
   32   16   17 1     
   33   16   31 1     
   34   16   32 1     
   35   17   18 1     
   36   17   33 1     
   37   17   34 1     
   38   18   35 1     
   39    1   37 1     
   40    1   38 1     
   41    5   39 1     
   42    6   40 1     
@<TRIPOS>SUBSTRUCTURE
      1 S1             1
@<TRIPOS>SET
LONE_PAIRS      STATIC     ATOMS    <user>   **** ""
4 37 38 39 40
DONOR_HYDROGENS      STATIC     ATOMS    <user>   **** ""
3 19 21 36
ATOM$BLUE        STATIC     ATOMS    COLORGROUP SYSTEM
4 37 38 39 40
ATOM$RED        STATIC     ATOMS    COLORGROUP SYSTEM
3 19 21 36
