AV-unprocessed.smi:2800|AV-procd|sdf|10793|dock2
  -GOLD-   2272015223D 1   1.00000     0.00000
 Structure written by MMmdl.
 51 52  0  0  0  0  0  0  0  0  1 V2000
  151.3660  137.9657  154.0737 C   0  0  0  0  0  0  0  0  0  0  0  0
  150.5183  138.8321  154.9888 C   0  0  0  0  0  0  0  0  0  0  0  0
  151.1969  139.7574  155.7014 N   0  0  0  0  0  0  0  0  0  0  0  0
  150.5184  140.5753  156.5398 C   0  0  0  0  0  0  0  0  0  0  0  0
  151.2668  141.5229  157.2656 N   0  0  0  0  0  0  0  0  0  0  0  0
  150.7174  142.8201  157.6278 C   0  0  0  0  0  0  0  0  0  0  0  0
  151.7919  143.4635  158.5027 C   0  0  0  0  0  0  0  0  0  0  0  0
  152.4235  142.2655  159.2120 C   0  0  0  0  0  0  0  0  0  0  0  0
  152.3196  141.1267  158.1905 C   0  0  0  0  0  0  0  0  0  0  0  0
  149.1159  140.4819  156.6936 C   0  0  0  0  0  0  0  0  0  0  0  0
  148.4079  139.5173  155.9525 C   0  0  0  0  0  0  0  0  0  0  0  0
  149.1175  138.6584  155.0810 C   0  0  0  0  0  0  0  0  0  0  0  0
  148.4867  137.6732  154.2713 N   0  0  0  0  0  0  0  0  0  0  0  0
  147.3218  137.0381  154.4834 C   0  0  0  0  0  0  0  0  0  0  0  0
  146.5942  137.1975  155.4630 O   0  0  0  0  0  0  0  0  0  0  0  0
  147.0559  136.1822  153.4856 N   0  0  0  0  0  0  0  0  0  0  0  0
  145.8881  135.3026  153.3772 C   0  0  2  0  0  0  0  0  0  0  0  0
  146.3935  133.8460  153.2277 C   0  0  0  0  0  0  0  0  0  0  0  0
  147.5371  133.7773  152.4011 O   0  0  0  0  0  0  0  0  0  0  0  0
  144.9116  135.8069  152.2613 C   0  0  0  0  0  0  0  0  0  0  0  0
  144.3241  137.1757  152.6725 C   0  0  0  0  0  0  0  0  0  0  0  0
  143.7287  134.8329  152.0814 C   0  0  0  0  0  0  0  0  0  0  0  0
  145.6233  135.9799  150.9000 C   0  0  0  0  0  0  0  0  0  0  0  0
  145.3452  135.3453  154.3237 H   0  0  0  0  0  0  0  0  0  0  0  0
  151.2633  136.9150  154.3456 H   0  0  0  0  0  0  0  0  0  0  0  0
  152.4229  138.2275  154.1385 H   0  0  0  0  0  0  0  0  0  0  0  0
  151.0521  138.0872  153.0367 H   0  0  0  0  0  0  0  0  0  0  0  0
  150.4969  143.4263  156.7484 H   0  0  0  0  0  0  0  0  0  0  0  0
  149.7945  142.6792  158.1918 H   0  0  0  0  0  0  0  0  0  0  0  0
  152.5365  143.9533  157.8735 H   0  0  0  0  0  0  0  0  0  0  0  0
  151.3899  144.2067  159.1918 H   0  0  0  0  0  0  0  0  0  0  0  0
  153.4484  142.4520  159.5338 H   0  0  0  0  0  0  0  0  0  0  0  0
  151.8357  142.0165  160.0963 H   0  0  0  0  0  0  0  0  0  0  0  0
  152.1003  140.1797  158.6850 H   0  0  0  0  0  0  0  0  0  0  0  0
  153.2522  141.0177  157.6361 H   0  0  0  0  0  0  0  0  0  0  0  0
  148.5755  141.1309  157.3663 H   0  0  0  0  0  0  0  0  0  0  0  0
  147.3352  139.4654  156.0566 H   0  0  0  0  0  0  0  0  0  0  0  0
  149.0177  137.3696  153.4683 H   0  0  0  0  0  0  0  0  0  0  0  0
  147.7213  136.1294  152.7286 H   0  0  0  0  0  0  0  0  0  0  0  0
  146.6016  133.3789  154.1890 H   0  0  0  0  0  0  0  0  0  0  0  0
  145.6336  133.2300  152.7448 H   0  0  0  0  0  0  0  0  0  0  0  0
  147.7992  134.6567  152.1754 H   0  0  0  0  0  0  0  0  0  0  0  0
  143.5964  137.5320  151.9425 H   0  0  0  0  0  0  0  0  0  0  0  0
  145.0936  137.9436  152.7552 H   0  0  0  0  0  0  0  0  0  0  0  0
  143.8161  137.1160  153.6357 H   0  0  0  0  0  0  0  0  0  0  0  0
  143.2133  134.6535  153.0256 H   0  0  0  0  0  0  0  0  0  0  0  0
  144.0535  133.8686  151.6911 H   0  0  0  0  0  0  0  0  0  0  0  0
  142.9936  135.2260  151.3782 H   0  0  0  0  0  0  0  0  0  0  0  0
  144.9327  136.3530  150.1429 H   0  0  0  0  0  0  0  0  0  0  0  0
  146.0253  135.0395  150.5250 H   0  0  0  0  0  0  0  0  0  0  0  0
  146.4470  136.6919  150.9563 H   0  0  0  0  0  0  0  0  0  0  0  0
  1  2  1  0  0  0  0
  1 25  1  0  0  0  0
  1 26  1  0  0  0  0
  1 27  1  0  0  0  0
  2 12  1  0  0  0  0
  2  3  2  0  0  0  0
  3  4  1  0  0  0  0
  4  5  1  0  0  0  0
  4 10  2  0  0  0  0
  5  9  1  0  0  0  0
  5  6  1  0  0  0  0
  6  7  1  0  0  0  0
  6 28  1  0  0  0  0
  6 29  1  0  0  0  0
  7  8  1  0  0  0  0
  7 30  1  0  0  0  0
  7 31  1  0  0  0  0
  8  9  1  0  0  0  0
  8 32  1  0  0  0  0
  8 33  1  0  0  0  0
  9 34  1  0  0  0  0
  9 35  1  0  0  0  0
 10 11  1  0  0  0  0
 10 36  1  0  0  0  0
 11 12  2  0  0  0  0
 11 37  1  0  0  0  0
 12 13  1  0  0  0  0
 13 14  1  0  0  0  0
 13 38  1  0  0  0  0
 14 15  2  0  0  0  0
 14 16  1  0  0  0  0
 16 17  1  0  0  0  0
 16 39  1  0  0  0  0
 17 24  1  0  0  0  0
 17 18  1  0  0  0  0
 17 20  1  0  0  0  0
 18 19  1  0  0  0  0
 18 40  1  0  0  0  0
 18 41  1  0  0  0  0
 19 42  1  0  0  0  0
 20 21  1  0  0  0  0
 20 22  1  0  0  0  0
 20 23  1  0  0  0  0
 21 43  1  0  0  0  0
 21 44  1  0  0  0  0
 21 45  1  0  0  0  0
 22 46  1  0  0  0  0
 22 47  1  0  0  0  0
 22 48  1  0  0  0  0
 23 49  1  0  0  0  0
 23 50  1  0  0  0  0
 23 51  1  0  0  0  0
M  END
> <s_m_source_file>
AV-unprocessed.smi

> <i_m_source_file_index>
2800

> <i_lp_mmshare_version>
43012

> <i_f3d_flags>
0

> <s_epik_input>
W0NIMl0xW0NIMl1bQ0gyXVtDSDJdTjFjKG5jMltDSDNdKVtjSF1bY0hdYzJbTkhdQyg9TylbTkhdW0NASF0oW0NIMl1bT0hdKUMoW0NIM10pKFtDSDNdKVtDSDNd

> <s_epik_cmdline>
J2VwaWtfcHl0aG9uJywgJy1waCcsICc3LjAnLCAnLXRuJywgJzgnLCAnLW1hJywgJzIwMCcsICctbWV0YWxfYmluZGluZycsICctaW1hZScsICc8aW5maWxlLm1hZT4nLCAnLW9tYWUnLCAnPG91dGZpbGUubWFlPic=

> <r_lp_tautomer_probability>
1

> <r_epik_Ionization_Penalty>
0.307546

> <r_epik_Ionization_Penalty_Charging>
0

> <r_epik_Ionization_Penalty_Neutral>
0.307546

> <r_epik_State_Penalty>
0.300796

> <r_epik_Charging_Adjusted_Penalty>
0.300796

> <i_epik_Tot_Q>
0

> <i_epik_Tot_abs_Q>
0

> <r_epik_Metal_State_Penalty>
0.196869

> <b_epik_Metal_Only>
0

> <s_lp_Force_Field>
OPLS_2005

> <r_lp_Energy>
36.8798

> <b_lp_Chiralities_Consistent>
1

> <s_lp_Variant>
AV-unprocessed.smi:2800-1

> <Gold.Version>
5.8.1

> <Gold.Id.Protein>
6NUR|6NUR_protein|mol2

> <Gold.PLP.Fitness>
40.4877

> <Gold.PLP.PLP>
-34.1283

> <Gold.PLP.part.hbond>
-2.9884

> <Gold.PLP.part.metal>
0.0000

> <Gold.PLP.part.buried>
-4.2422

> <Gold.PLP.part.nonpolar>
-27.2007

> <Gold.PLP.part.repulsive>
0.0332

> <Gold.PLP.ligand.clash>
0.0000

> <Gold.PLP.ligand.torsion>
1.3132

> <Gold.PLP.Chemscore.Hbond>
2.9120

> <Gold.PLP.Chemscore.CHOScore>
0.0000

> <Gold.PLP.Chemscore.Metal>
0.0000

> <Gold.Chemscore.Hbonds>
donor molecule, donor type, donor heavy atom, donor atom, acceptor molecule, acceptor atom, score
      L1  H    13    38       P1  7948  0.90
      L1  H    16    39       P1  7948  0.94
      L1  H    19    42       P1  7948  1.00

> <Gold.PLP.Chemscore.Internal.Correction>
0.2498

> <Gold.Rescore>
     Score         DG    S(hbond)    S(metal)    S(lipo)     H(rot)  DE(clash)    DE(int)     intcor
     17.30     -19.77       2.73        0.00      86.36       1.92       0.07       2.40       ----

> <Gold.Chemscore.Fitness>
17.3048

> <Gold.Chemscore.DG>
-19.7731

> <Gold.Chemscore.ZeroCoef>
-5.4800

> <Gold.Chemscore.Hbond>
2.7276

> <Gold.Chemscore.Metal>
0.0000

> <Gold.Chemscore.Lipo>
86.3566

> <Gold.Chemscore.Internal_Hbond>
0.0000

> <Gold.Chemscore.DEClash>
0.0708

> <Gold.Chemscore.DEInternal>
2.3974

> <Gold.Chemscore.Rot>
1.9222

> <Gold.Chemscore.Internal.Correction>
   9.000000E+99

> <Gold.Chemscore.Hbonds>
donor molecule, donor type, donor heavy atom, donor atom, acceptor molecule, acceptor atom, score
      L1  H    13    38       P1  7948  0.87
      L1  H    16    39       P1  7948  0.90
      L1  H    19    42       P1  7948  0.55

> <Gold.Chemscore.Hbond.Weighted>
-9.1101

> <Gold.Chemscore.Metal.Weighted>
-0.0000

> <Gold.Chemscore.Lipo.Weighted>
-10.1037

> <Gold.Chemscore.Internal_Hbond.Weighted>
0.0000

> <Gold.Chemscore.DEClash.Weighted>
0.0708

> <Gold.Chemscore.DEInternal.Weighted>
2.3974

> <Gold.Chemscore.Rot.Weighted>
4.9208

> <Gold.Chemscore.Internal.Correction.Weighted>
   9.000000E+99

> <Gold.Protein.RotatedTorsions>
[ 6907 6896 6895 6894 ] final -129.12 input  -60.11 | X-H torsion
[ 7974 7965 7964 7962 ] final   83.79 input  175.53 | X-H torsion
[ 8008 7997 7996 7995 ] final   87.74 input   59.86 | X-H torsion
[ 10167 10162 10161 10158 ] final  -91.11 input  -65.29 | X-H torsion
[ 10718 10713 10712 10709 ] final -154.29 input   66.30 | X-H torsion
[ 10763 10752 10751 10750 ] final  -11.81 input  -60.55 | X-H torsion
[ 11005 11000 10999 10996 ] final  169.90 input  -57.11 | X-H torsion

> <Gold.Protein.ActiveResidues>
 VAL166  LYS551  ARG553  GLY616  TRP617  ASP618  TYR619  PRO620  LYS621  CYS622 
 ASP623  PHE694  ASN695  SER759  ASP760  ASP761  ALA762  ILE779  LEU786  VAL792 
 PHE793  MET794  SER795  GLU796  ALA797  LYS798  CYS799  TRP800  GLU811  SER814 

> <Gold.Protein.RotatedAtoms>
  150.9252  133.6832  159.2822 H   0  0  0  0  0  0  0  0  0  0  0  0  # atno 6907 bound_to 6896
  151.4273  135.1004  159.9641 H   0  0  0  0  0  0  0  0  0  0  0  0  # atno 6908 bound_to 6896
  152.4999  133.8690  159.7344 H   0  0  0  0  0  0  0  0  0  0  0  0  # atno 6909 bound_to 6896
  145.6073  139.2362  143.2212 H   0  0  0  0  0  0  0  0  0  0  0  0  # atno 7974 bound_to 7965
  155.9791  140.3379  155.6646 H   0  0  0  0  0  0  0  0  0  0  0  0  # atno 8008 bound_to 7997
  155.6573  140.0712  157.2584 H   0  0  0  0  0  0  0  0  0  0  0  0  # atno 8009 bound_to 7997
  154.4187  140.1715  156.1726 H   0  0  0  0  0  0  0  0  0  0  0  0  # atno 8010 bound_to 7997
  140.3482  143.2905  151.9757 H   0  0  0  0  0  0  0  0  0  0  0  0  # atno 10167 bound_to 10162
  156.4973  130.8375  151.2595 H   0  0  0  0  0  0  0  0  0  0  0  0  # atno 10718 bound_to 10713
  153.4893  135.7017  153.5893 H   0  0  0  0  0  0  0  0  0  0  0  0  # atno 10763 bound_to 10752
  153.4073  135.3857  155.2027 H   0  0  0  0  0  0  0  0  0  0  0  0  # atno 10764 bound_to 10752
  154.8717  135.3896  154.4351 H   0  0  0  0  0  0  0  0  0  0  0  0  # atno 10765 bound_to 10752
  140.3026  134.7582  157.3928 H   0  0  0  0  0  0  0  0  0  0  0  0  # atno 11005 bound_to 11000
  146.1531  140.6897  142.9313 LP  0  0  0  0  0  0  0  0  0  0  0  0  # atno 17320 bound_to 7965
  144.7284  140.4598  143.6955 LP  0  0  0  0  0  0  0  0  0  0  0  0  # atno 17321 bound_to 7965
  139.4830  144.6099  151.7453 LP  0  0  0  0  0  0  0  0  0  0  0  0  # atno 17342 bound_to 10162
  140.5244  144.0828  150.6033 LP  0  0  0  0  0  0  0  0  0  0  0  0  # atno 17343 bound_to 10162
  157.7467  130.9993  150.2885 LP  0  0  0  0  0  0  0  0  0  0  0  0  # atno 17370 bound_to 10713
  156.3367  130.3809  149.7444 LP  0  0  0  0  0  0  0  0  0  0  0  0  # atno 17371 bound_to 10713
  140.1095  134.5364  155.8279 LP  0  0  0  0  0  0  0  0  0  0  0  0  # atno 17394 bound_to 11000
  141.2125  133.6720  156.6663 LP  0  0  0  0  0  0  0  0  0  0  0  0  # atno 17395 bound_to 11000

$$$$
