AV-unprocessed.smi:2478|AV-procd|sdf|9764|dock8
  -GOLD-   2272013403D 1   1.00000     0.00000
 Structure written by MMmdl.
 42 43  0  0  0  0  0  0  0  0  1 V2000
  151.6871  140.5142  157.2709 C   0  0  0  0  0  0  0  0  0  0  0  0
  151.2417  139.9894  155.8971 C   0  0  1  0  0  0  0  0  0  0  0  0
  152.2267  138.9446  155.3343 C   0  0  0  0  0  0  0  0  0  0  0  0
  151.7935  138.4512  153.9443 C   0  0  0  0  0  0  0  0  0  0  0  0
  150.3589  137.9030  153.9680 C   0  0  0  0  0  0  0  0  0  0  0  0
  149.3752  138.9440  154.5268 C   0  0  0  0  0  0  0  0  0  0  0  0
  149.7997  139.4350  155.9277 C   0  0  1  0  0  0  0  0  0  0  0  0
  149.7490  138.3653  156.8656 O   0  0  0  0  0  0  0  0  0  0  0  0
  148.4378  137.9611  157.2335 C   0  0  0  0  0  0  0  0  0  0  0  0
  148.5266  136.9367  158.3645 C   0  0  0  0  0  0  0  0  0  0  0  0
  149.1013  135.8633  158.1782 O   0  0  0  0  0  0  0  0  0  0  0  0
  147.9405  137.3028  159.5192 N   0  0  0  0  0  0  0  0  0  0  0  0
  147.8428  136.5721  160.7353 C   0  0  0  0  0  0  0  0  0  0  0  0
  148.2763  137.0562  161.9260 N   0  0  0  0  0  0  0  0  0  0  0  0
  148.1473  136.3003  163.0349 C   0  0  0  0  0  0  0  0  0  0  0  0
  147.5757  135.0168  163.0255 C   0  0  0  0  0  0  0  0  0  0  0  0
  147.1217  134.5022  161.7991 C   0  0  0  0  0  0  0  0  0  0  0  0
  147.2619  135.2830  160.6261 C   0  0  0  0  0  0  0  0  0  0  0  0
  146.8238  134.8474  159.3935 O   0  0  0  0  0  0  0  0  0  0  0  0
  146.1770  133.6550  159.3010 C   0  0  0  0  0  0  0  0  0  0  0  0
  145.5992  133.5231  158.0816 F   0  0  0  0  0  0  0  0  0  0  0  0
  147.0643  132.6414  159.4460 F   0  0  0  0  0  0  0  0  0  0  0  0
  151.7400  139.7117  158.0072 H   0  0  0  0  0  0  0  0  0  0  0  0
  150.9939  141.2665  157.6478 H   0  0  0  0  0  0  0  0  0  0  0  0
  152.6734  140.9751  157.2130 H   0  0  0  0  0  0  0  0  0  0  0  0
  151.2475  140.8425  155.2168 H   0  0  0  0  0  0  0  0  0  0  0  0
  153.2282  139.3715  155.2724 H   0  0  0  0  0  0  0  0  0  0  0  0
  152.2968  138.0960  156.0162 H   0  0  0  0  0  0  0  0  0  0  0  0
  151.8584  139.2720  153.2288 H   0  0  0  0  0  0  0  0  0  0  0  0
  152.4798  137.6800  153.5933 H   0  0  0  0  0  0  0  0  0  0  0  0
  150.0575  137.6091  152.9622 H   0  0  0  0  0  0  0  0  0  0  0  0
  150.3220  136.9990  154.5775 H   0  0  0  0  0  0  0  0  0  0  0  0
  149.3338  139.7964  153.8476 H   0  0  0  0  0  0  0  0  0  0  0  0
  148.3678  138.5297  154.5455 H   0  0  0  0  0  0  0  0  0  0  0  0
  149.1310  140.2359  156.2486 H   0  0  0  0  0  0  0  0  0  0  0  0
  147.8595  138.8266  157.5619 H   0  0  0  0  0  0  0  0  0  0  0  0
  147.9129  137.5053  156.3943 H   0  0  0  0  0  0  0  0  0  0  0  0
  147.5107  138.2163  159.5304 H   0  0  0  0  0  0  0  0  0  0  0  0
  148.5072  136.7335  163.9562 H   0  0  0  0  0  0  0  0  0  0  0  0
  147.4847  134.4437  163.9363 H   0  0  0  0  0  0  0  0  0  0  0  0
  146.6680  133.5228  161.7712 H   0  0  0  0  0  0  0  0  0  0  0  0
  145.4175  133.5466  160.0759 H   0  0  0  0  0  0  0  0  0  0  0  0
  1  2  1  0  0  0  0
  1 23  1  0  0  0  0
  1 24  1  0  0  0  0
  1 25  1  0  0  0  0
  2  7  1  0  0  0  0
  2  3  1  0  0  0  0
  2 26  1  0  0  0  0
  3  4  1  0  0  0  0
  3 27  1  0  0  0  0
  3 28  1  0  0  0  0
  4  5  1  0  0  0  0
  4 29  1  0  0  0  0
  4 30  1  0  0  0  0
  5  6  1  0  0  0  0
  5 31  1  0  0  0  0
  5 32  1  0  0  0  0
  6  7  1  0  0  0  0
  6 33  1  0  0  0  0
  6 34  1  0  0  0  0
  7  8  1  0  0  0  0
  7 35  1  0  0  0  0
  8  9  1  0  0  0  0
  9 10  1  0  0  0  0
  9 36  1  0  0  0  0
  9 37  1  0  0  0  0
 10 11  2  0  0  0  0
 10 12  1  0  0  0  0
 12 13  1  0  0  0  0
 12 38  1  0  0  0  0
 13 18  1  0  0  0  0
 13 14  2  0  0  0  0
 14 15  1  0  0  0  0
 15 16  2  0  0  0  0
 15 39  1  0  0  0  0
 16 17  1  0  0  0  0
 16 40  1  0  0  0  0
 17 18  2  0  0  0  0
 17 41  1  0  0  0  0
 18 19  1  0  0  0  0
 19 20  1  0  0  0  0
 20 21  1  0  0  0  0
 20 22  1  0  0  0  0
 20 42  1  0  0  0  0
M  END
> <s_m_source_file>
AV-unprocessed.smi

> <i_m_source_file_index>
2478

> <i_lp_mmshare_version>
43012

> <i_f3d_flags>
0

> <s_epik_input>
W0NIM11bQ0BASF0xW0NIMl1bQ0gyXVtDSDJdW0NIMl1bQ0BIXTFPW0NIMl1DKD1PKVtOSF1jMm5bY0hdW2NIXVtjSF1jMk9bQ0hdKEYpRg==

> <s_epik_cmdline>
J2VwaWtfcHl0aG9uJywgJy1waCcsICc3LjAnLCAnLXRuJywgJzgnLCAnLW1hJywgJzIwMCcsICctbWV0YWxfYmluZGluZycsICctaW1hZScsICc8aW5maWxlLm1hZT4nLCAnLW9tYWUnLCAnPG91dGZpbGUubWFlPic=

> <r_lp_tautomer_probability>
1

> <r_epik_Ionization_Penalty>
6.06012e-05

> <r_epik_Ionization_Penalty_Charging>
0

> <r_epik_Ionization_Penalty_Neutral>
6.06012e-05

> <r_epik_State_Penalty>
-0

> <r_epik_Charging_Adjusted_Penalty>
0

> <i_epik_Tot_Q>
0

> <i_epik_Tot_abs_Q>
0

> <r_epik_Metal_State_Penalty>
-0

> <b_epik_Metal_Only>
0

> <s_lp_Force_Field>
OPLS_2005

> <r_lp_Energy>
14.9607

> <b_lp_Chiralities_Consistent>
1

> <s_lp_Variant>
AV-unprocessed.smi:2478-2

> <Gold.Version>
5.8.1

> <Gold.Id.Protein>
6NUR|6NUR_protein|mol2

> <Gold.PLP.Fitness>
45.3793

> <Gold.PLP.PLP>
-38.7953

> <Gold.PLP.part.hbond>
-3.0000

> <Gold.PLP.part.metal>
0.0000

> <Gold.PLP.part.buried>
-3.0120

> <Gold.PLP.part.nonpolar>
-32.5625

> <Gold.PLP.part.repulsive>
0.1646

> <Gold.PLP.ligand.clash>
0.0000

> <Gold.PLP.ligand.torsion>
0.7096

> <Gold.PLP.Chemscore.Hbond>
2.6484

> <Gold.PLP.Chemscore.CHOScore>
0.0000

> <Gold.PLP.Chemscore.Metal>
0.0000

> <Gold.Chemscore.Hbonds>
donor molecule, donor type, donor heavy atom, donor atom, acceptor molecule, acceptor atom, score
      P1  H  6931  6943       L1    14  0.70

> <Gold.PLP.Chemscore.Internal.Correction>
0.0579

> <Gold.Rescore>
     Score         DG    S(hbond)    S(metal)    S(lipo)     H(rot)  DE(clash)    DE(int)     intcor
     13.00     -17.07       1.92        0.00      84.70       1.85       0.06       4.01       ----

> <Gold.Chemscore.Fitness>
13.0042

> <Gold.Chemscore.DG>
-17.0710

> <Gold.Chemscore.ZeroCoef>
-5.4800

> <Gold.Chemscore.Hbond>
1.9197

> <Gold.Chemscore.Metal>
0.0000

> <Gold.Chemscore.Lipo>
84.7043

> <Gold.Chemscore.Internal_Hbond>
0.0000

> <Gold.Chemscore.DEClash>
0.0609

> <Gold.Chemscore.DEInternal>
4.0059

> <Gold.Chemscore.Rot>
1.8481

> <Gold.Chemscore.Internal.Correction>
   9.000000E+99

> <Gold.Chemscore.Hbonds>
donor molecule, donor type, donor heavy atom, donor atom, acceptor molecule, acceptor atom, score
      P1  H  6896  6909       L1    11  0.04
      P1  H  6931  6943       L1    14  0.65

> <Gold.Chemscore.Hbond.Weighted>
-6.4117

> <Gold.Chemscore.Metal.Weighted>
-0.0000

> <Gold.Chemscore.Lipo.Weighted>
-9.9104

> <Gold.Chemscore.Internal_Hbond.Weighted>
0.0000

> <Gold.Chemscore.DEClash.Weighted>
0.0609

> <Gold.Chemscore.DEInternal.Weighted>
4.0059

> <Gold.Chemscore.Rot.Weighted>
4.7311

> <Gold.Chemscore.Internal.Correction.Weighted>
   9.000000E+99

> <Gold.Protein.RotatedTorsions>
[ 6907 6896 6895 6894 ] final   60.02 input  -60.11 | X-H torsion
[ 7974 7965 7964 7962 ] final  -93.17 input  175.53 | X-H torsion
[ 8008 7997 7996 7995 ] final  100.95 input   59.86 | X-H torsion
[ 10167 10162 10161 10158 ] final -100.05 input  -65.29 | X-H torsion
[ 10718 10713 10712 10709 ] final  104.72 input   66.30 | X-H torsion
[ 10763 10752 10751 10750 ] final    4.81 input  -60.55 | X-H torsion
[ 11005 11000 10999 10996 ] final   14.09 input  -57.11 | X-H torsion

> <Gold.Protein.ActiveResidues>
 VAL166  LYS551  ARG553  GLY616  TRP617  ASP618  TYR619  PRO620  LYS621  CYS622 
 ASP623  PHE694  ASN695  SER759  ASP760  ASP761  ALA762  ILE779  LEU786  VAL792 
 PHE793  MET794  SER795  GLU796  ALA797  LYS798  CYS799  TRP800  GLU811  SER814 

> <Gold.Protein.RotatedAtoms>
  152.3966  134.6355  160.0086 H   0  0  0  0  0  0  0  0  0  0  0  0  # atno 6907 bound_to 6896
  151.6572  133.3313  159.3173 H   0  0  0  0  0  0  0  0  0  0  0  0  # atno 6908 bound_to 6896
  150.7873  134.6911  159.6542 H   0  0  0  0  0  0  0  0  0  0  0  0  # atno 6909 bound_to 6896
  145.3901  140.9527  143.2345 H   0  0  0  0  0  0  0  0  0  0  0  0  # atno 7974 bound_to 7965
  156.1253  140.3205  155.8268 H   0  0  0  0  0  0  0  0  0  0  0  0  # atno 8008 bound_to 7997
  155.4431  140.0527  157.3025 H   0  0  0  0  0  0  0  0  0  0  0  0  # atno 8009 bound_to 7997
  154.4858  140.2072  155.9673 H   0  0  0  0  0  0  0  0  0  0  0  0  # atno 8010 bound_to 7997
  140.2560  143.3440  152.0671 H   0  0  0  0  0  0  0  0  0  0  0  0  # atno 10167 bound_to 10162
  157.6730  131.0810  150.5748 H   0  0  0  0  0  0  0  0  0  0  0  0  # atno 10718 bound_to 10713
  153.2668  135.6928  153.7522 H   0  0  0  0  0  0  0  0  0  0  0  0  # atno 10763 bound_to 10752
  153.6560  135.3368  155.3114 H   0  0  0  0  0  0  0  0  0  0  0  0  # atno 10764 bound_to 10752
  154.8450  135.4466  154.1677 H   0  0  0  0  0  0  0  0  0  0  0  0  # atno 10765 bound_to 10752
  140.4734  134.1008  155.7737 H   0  0  0  0  0  0  0  0  0  0  0  0  # atno 11005 bound_to 11000
  144.8446  139.5417  143.6884 LP  0  0  0  0  0  0  0  0  0  0  0  0  # atno 17320 bound_to 7965
  146.2802  139.6856  142.9235 LP  0  0  0  0  0  0  0  0  0  0  0  0  # atno 17321 bound_to 7965
  139.5031  144.6749  151.6152 LP  0  0  0  0  0  0  0  0  0  0  0  0  # atno 17342 bound_to 10162
  140.6004  143.9621  150.6382 LP  0  0  0  0  0  0  0  0  0  0  0  0  # atno 17343 bound_to 10162
  156.6049  130.4364  149.5882 LP  0  0  0  0  0  0  0  0  0  0  0  0  # atno 17370 bound_to 10713
  156.2476  130.6888  151.1615 LP  0  0  0  0  0  0  0  0  0  0  0  0  # atno 17371 bound_to 10713
  141.1566  133.8871  157.1961 LP  0  0  0  0  0  0  0  0  0  0  0  0  # atno 17394 bound_to 11000
  139.9871  135.0078  156.9888 LP  0  0  0  0  0  0  0  0  0  0  0  0  # atno 17395 bound_to 11000

$$$$
