AV-unprocessed.smi:1797|AV-procd|sdf|7258|dock10
  -GOLD-   22720 8513D 1   1.00000     0.00000
 Structure written by MMmdl.
 29 30  0  0  0  0  0  0  0  0  2 V2000
  152.3153  143.6962  161.7451 C   0  0  0  0  0  0  0  0  0  0  0  0
  151.9064  143.1418  160.4237 C   0  0  0  0  0  0  0  0  0  0  0  0
  151.7113  141.8372  160.2164 N   0  0  0  0  0  0  0  0  0  0  0  0
  151.3372  141.5659  158.9083 N   0  0  0  0  0  0  0  0  0  0  0  0
  151.2421  142.6671  158.1494 C   0  0  0  0  0  0  0  0  0  0  0  0
  150.8886  142.6246  156.8515 N   0  5  0  0  0  0  0  0  0  0  0  0
  150.1879  141.5906  156.3158 C   0  0  0  0  0  0  0  0  0  0  0  0
  150.3304  140.4224  156.6746 O   0  0  0  0  0  0  0  0  0  0  0  0
  149.2950  141.8709  155.3464 N   0  0  0  0  0  0  0  0  0  0  0  0
  148.4546  140.9101  154.6383 C   0  0  1  0  0  0  0  0  0  0  0  0
  147.6529  141.5981  153.5232 C   0  0  0  0  0  0  0  0  0  0  0  0
  146.7668  140.5881  152.7765 C   0  0  0  0  0  0  0  0  0  0  0  0
  147.4931  139.2838  152.4150 C   0  0  0  0  0  0  0  0  0  0  0  0
  147.0130  138.5416  151.5609 O   0  0  0  0  0  0  0  0  0  0  0  0
  148.6230  138.9627  153.0695 N   0  0  0  0  0  0  0  0  0  0  0  0
  149.3342  139.8009  154.0344 C   0  0  0  0  0  0  0  0  0  0  0  0
  151.6374  144.1525  159.0136 S   0  0  0  0  0  0  0  0  0  0  0  0
  151.4475  143.7758  162.3999 H   0  0  0  0  0  0  0  0  0  0  0  0
  152.7527  144.6869  161.6207 H   0  0  0  0  0  0  0  0  0  0  0  0
  153.0537  143.0464  162.2158 H   0  0  0  0  0  0  0  0  0  0  0  0
  149.1939  142.8395  155.0807 H   0  0  0  0  0  0  0  0  0  0  0  0
  147.7598  140.4509  155.3443 H   0  0  0  0  0  0  0  0  0  0  0  0
  147.0277  142.3895  153.9380 H   0  0  0  0  0  0  0  0  0  0  0  0
  148.3328  142.0807  152.8193 H   0  0  0  0  0  0  0  0  0  0  0  0
  145.9127  140.3255  153.4016 H   0  0  0  0  0  0  0  0  0  0  0  0
  146.3631  141.0442  151.8722 H   0  0  0  0  0  0  0  0  0  0  0  0
  149.0592  138.0829  152.8342 H   0  0  0  0  0  0  0  0  0  0  0  0
  150.1870  140.2407  153.5151 H   0  0  0  0  0  0  0  0  0  0  0  0
  149.7410  139.1688  154.8243 H   0  0  0  0  0  0  0  0  0  0  0  0
  1  2  1  0  0  0  0
  1 18  1  0  0  0  0
  1 19  1  0  0  0  0
  1 20  1  0  0  0  0
  2 17  1  0  0  0  0
  2  3  2  0  0  0  0
  3  4  1  0  0  0  0
  4  5  2  0  0  0  0
  5  6  1  0  0  0  0
  5 17  1  0  0  0  0
  6  7  1  0  0  0  0
  7  8  2  0  0  0  0
  7  9  1  0  0  0  0
  9 10  1  0  0  0  0
  9 21  1  0  0  0  0
 10 16  1  0  0  0  0
 10 11  1  0  0  0  0
 10 22  1  0  0  0  0
 11 12  1  0  0  0  0
 11 23  1  0  0  0  0
 11 24  1  0  0  0  0
 12 13  1  0  0  0  0
 12 25  1  0  0  0  0
 12 26  1  0  0  0  0
 13 14  2  0  0  0  0
 13 15  1  0  0  0  0
 15 16  1  0  0  0  0
 15 27  1  0  0  0  0
 16 28  1  0  0  0  0
 16 29  1  0  0  0  0
M  CHG  1   6  -1
M  END
> <s_m_source_file>
AV-unprocessed.smi

> <i_m_source_file_index>
1797

> <i_lp_mmshare_version>
43012

> <i_f3d_flags>
0

> <s_epik_input>
W0NIM11jMW5uYyhzMSlbTkhdQyg9TylbTkhdW0NAQEhdMltDSDJdW0NIMl1DKD1PKVtOSF1bQ0gyXTI=

> <s_epik_cmdline>
J2VwaWtfcHl0aG9uJywgJy1waCcsICc3LjAnLCAnLXRuJywgJzgnLCAnLW1hJywgJzIwMCcsICctbWV0YWxfYmluZGluZycsICctaW1hZScsICc8aW5maWxlLm1hZT4nLCAnLW9tYWUnLCAnPG91dGZpbGUubWFlPic=

> <r_lp_tautomer_probability>
1

> <r_epik_Ionization_Penalty>
3.31792

> <r_epik_Ionization_Penalty_Charging>
3.17379

> <r_epik_Ionization_Penalty_Neutral>
0.144127

> <r_epik_State_Penalty>
3.17099

> <r_epik_Charging_Adjusted_Penalty>
6.34478

> <i_epik_Tot_Q>
-1

> <i_epik_Tot_abs_Q>
1

> <r_epik_Metal_State_Penalty>
0.468583

> <b_epik_Metal_Only>
1

> <s_lp_Force_Field>
OPLS_2005

> <r_lp_Energy>
8.48183

> <b_lp_Chiralities_Consistent>
1

> <s_lp_Variant>
AV-unprocessed.smi:1797-4

> <Gold.Version>
5.8.1

> <Gold.Id.Protein>
6NUR|6NUR_protein|mol2

> <Gold.PLP.Fitness>
36.7796

> <Gold.PLP.PLP>
-29.4956

> <Gold.PLP.part.hbond>
-3.9167

> <Gold.PLP.part.metal>
0.0000

> <Gold.PLP.part.buried>
0.8769

> <Gold.PLP.part.nonpolar>
-27.8349

> <Gold.PLP.part.repulsive>
2.4578

> <Gold.PLP.ligand.clash>
0.0000

> <Gold.PLP.ligand.torsion>
0.3819

> <Gold.PLP.Chemscore.Hbond>
2.6823

> <Gold.PLP.Chemscore.CHOScore>
0.0000

> <Gold.PLP.Chemscore.Metal>
0.0000

> <Gold.Chemscore.Hbonds>
donor molecule, donor type, donor heavy atom, donor atom, acceptor molecule, acceptor atom, score
      L1  H     9    21       P1  8028  0.98
      L1  H    15    27       P1  7948  0.92
      P1  H  7954  7966       L1    14  0.75

> <Gold.PLP.Chemscore.Internal.Correction>
0.0012

> <Gold.Rescore>
     Score         DG    S(hbond)    S(metal)    S(lipo)     H(rot)  DE(clash)    DE(int)     intcor
     12.22     -17.53       2.07        0.00      65.81       1.00       2.13       3.17       ----

> <Gold.Chemscore.Fitness>
12.2248

> <Gold.Chemscore.DG>
-17.5317

> <Gold.Chemscore.ZeroCoef>
-5.4800

> <Gold.Chemscore.Hbond>
2.0694

> <Gold.Chemscore.Metal>
0.0000

> <Gold.Chemscore.Lipo>
65.8108

> <Gold.Chemscore.Internal_Hbond>
0.0000

> <Gold.Chemscore.DEClash>
2.1347

> <Gold.Chemscore.DEInternal>
3.1722

> <Gold.Chemscore.Rot>
1.0000

> <Gold.Chemscore.Internal.Correction>
   9.000000E+99

> <Gold.Chemscore.Hbonds>
donor molecule, donor type, donor heavy atom, donor atom, acceptor molecule, acceptor atom, score
      L1  H     9    21       P1  8028  0.91
      L1  H    15    27       P1  7948  0.83
      P1  H  7954  7966       L1    14  0.73

> <Gold.Chemscore.Hbond.Weighted>
-6.9118

> <Gold.Chemscore.Metal.Weighted>
-0.0000

> <Gold.Chemscore.Lipo.Weighted>
-7.6999

> <Gold.Chemscore.Internal_Hbond.Weighted>
0.0000

> <Gold.Chemscore.DEClash.Weighted>
2.1347

> <Gold.Chemscore.DEInternal.Weighted>
3.1722

> <Gold.Chemscore.Rot.Weighted>
2.5600

> <Gold.Chemscore.Internal.Correction.Weighted>
   9.000000E+99

> <Gold.Protein.RotatedTorsions>
[ 6907 6896 6895 6894 ] final  -27.46 input  -60.11 | X-H torsion
[ 7974 7965 7964 7962 ] final  104.10 input  175.53 | X-H torsion
[ 8008 7997 7996 7995 ] final  120.29 input   59.86 | X-H torsion
[ 10167 10162 10161 10158 ] final   40.10 input  -65.29 | X-H torsion
[ 10718 10713 10712 10709 ] final   -6.57 input   66.30 | X-H torsion
[ 10763 10752 10751 10750 ] final   41.06 input  -60.55 | X-H torsion
[ 11005 11000 10999 10996 ] final -102.68 input  -57.11 | X-H torsion

> <Gold.Protein.ActiveResidues>
 VAL166  LYS551  ARG553  GLY616  TRP617  ASP618  TYR619  PRO620  LYS621  CYS622 
 ASP623  PHE694  ASN695  SER759  ASP760  ASP761  ALA762  ILE779  LEU786  VAL792 
 PHE793  MET794  SER795  GLU796  ALA797  LYS798  CYS799  TRP800  GLU811  SER814 

> <Gold.Protein.RotatedAtoms>
  151.1465  135.0206  159.8648 H   0  0  0  0  0  0  0  0  0  0  0  0  # atno 6907 bound_to 6896
  152.5453  134.1438  159.8500 H   0  0  0  0  0  0  0  0  0  0  0  0  # atno 6908 bound_to 6896
  151.1519  133.4856  159.2628 H   0  0  0  0  0  0  0  0  0  0  0  0  # atno 6909 bound_to 6896
  145.3371  139.2471  143.3629 H   0  0  0  0  0  0  0  0  0  0  0  0  # atno 7974 bound_to 7965
  156.2635  140.2834  156.1126 H   0  0  0  0  0  0  0  0  0  0  0  0  # atno 8008 bound_to 7997
  155.1242  140.0392  157.2775 H   0  0  0  0  0  0  0  0  0  0  0  0  # atno 8009 bound_to 7997
  154.6648  140.2574  155.7076 H   0  0  0  0  0  0  0  0  0  0  0  0  # atno 8010 bound_to 7997
  140.3775  144.2024  150.6131 H   0  0  0  0  0  0  0  0  0  0  0  0  # atno 10167 bound_to 10162
  156.7299  130.5177  149.5848 H   0  0  0  0  0  0  0  0  0  0  0  0  # atno 10718 bound_to 10713
  152.9918  135.6173  154.2727 H   0  0  0  0  0  0  0  0  0  0  0  0  # atno 10763 bound_to 10752
  154.2459  135.2787  155.2837 H   0  0  0  0  0  0  0  0  0  0  0  0  # atno 10764 bound_to 10752
  154.5330  135.5783  153.6832 H   0  0  0  0  0  0  0  0  0  0  0  0  # atno 10765 bound_to 10752
  141.1179  133.8578  157.1390 H   0  0  0  0  0  0  0  0  0  0  0  0  # atno 11005 bound_to 11000
  146.3022  140.3961  142.8700 LP  0  0  0  0  0  0  0  0  0  0  0  0  # atno 17320 bound_to 7965
  144.8819  140.7411  143.5981 LP  0  0  0  0  0  0  0  0  0  0  0  0  # atno 17321 bound_to 7965
  140.4971  143.2329  151.8733 LP  0  0  0  0  0  0  0  0  0  0  0  0  # atno 17342 bound_to 10162
  139.4798  144.5101  151.8944 LP  0  0  0  0  0  0  0  0  0  0  0  0  # atno 17343 bound_to 10162
  156.1536  130.6326  151.0628 LP  0  0  0  0  0  0  0  0  0  0  0  0  # atno 17370 bound_to 10713
  157.6863  131.0824  150.7233 LP  0  0  0  0  0  0  0  0  0  0  0  0  # atno 17371 bound_to 10713
  140.0114  134.9986  157.0402 LP  0  0  0  0  0  0  0  0  0  0  0  0  # atno 17394 bound_to 11000
  140.4593  134.1500  155.7189 LP  0  0  0  0  0  0  0  0  0  0  0  0  # atno 17395 bound_to 11000

$$$$
