AV-unprocessed.smi:62|AV-procd|sdf|605|dock5
  -GOLD-   2262016503D 1   1.00000     0.00000
 Structure written by MMmdl.
 30 31  0  0  0  0  0  0  0  0  2 V2000
  151.3126  144.9067  158.7073 C   0  0  0  0  0  0  0  0  0  0  0  0
  151.5050  143.5513  158.2387 N   0  0  0  0  0  0  0  0  0  0  0  0
  151.1519  143.0004  157.0284 C   0  0  0  0  0  0  0  0  0  0  0  0
  151.5275  141.6856  157.0369 C   0  0  0  0  0  0  0  0  0  0  0  0
  151.3190  140.6990  155.9124 C   0  0  0  0  0  0  0  0  0  0  0  0
  149.9098  140.5214  155.5760 N   0  0  0  0  0  0  0  0  0  0  0  0
  149.2920  141.6876  154.9662 C   0  0  0  0  0  0  0  0  0  0  0  0
  148.0390  141.1862  154.2341 C   0  0  0  0  0  0  0  0  0  0  0  0
  148.2359  139.6633  154.1568 C   0  0  1  0  0  0  0  0  0  0  0  0
  148.0153  139.1459  152.8614 O   0  0  0  0  0  0  0  0  0  0  0  0
  149.6811  139.4646  154.6143 C   0  0  0  0  0  0  0  0  0  0  0  0
  152.1226  141.5264  158.3350 C   0  0  0  0  0  0  0  0  0  0  0  0
  152.6999  140.2182  158.8091 C   0  0  0  0  0  0  0  0  0  0  0  0
  152.8774  139.2788  158.0029 O   0  0  0  0  0  0  0  0  0  0  0  0
  152.9948  140.1164  160.0208 O   0  5  0  0  0  0  0  0  0  0  0  0
  152.0994  142.6495  159.0414 N   0  0  0  0  0  0  0  0  0  0  0  0
  150.9204  145.5289  157.9025 H   0  0  0  0  0  0  0  0  0  0  0  0
  152.2637  145.3206  159.0440 H   0  0  0  0  0  0  0  0  0  0  0  0
  150.6055  144.9114  159.5373 H   0  0  0  0  0  0  0  0  0  0  0  0
  150.6600  143.5824  156.2633 H   0  0  0  0  0  0  0  0  0  0  0  0
  151.8651  141.0152  155.0225 H   0  0  0  0  0  0  0  0  0  0  0  0
  151.7494  139.7324  156.1746 H   0  0  0  0  0  0  0  0  0  0  0  0
  149.0584  142.4498  155.7102 H   0  0  0  0  0  0  0  0  0  0  0  0
  149.9732  142.1331  154.2394 H   0  0  0  0  0  0  0  0  0  0  0  0
  147.1319  141.4274  154.7892 H   0  0  0  0  0  0  0  0  0  0  0  0
  147.9611  141.6495  153.2495 H   0  0  0  0  0  0  0  0  0  0  0  0
  147.5609  139.1718  154.8589 H   0  0  0  0  0  0  0  0  0  0  0  0
  148.7793  139.3254  152.3349 H   0  0  0  0  0  0  0  0  0  0  0  0
  150.3615  139.5797  153.7685 H   0  0  0  0  0  0  0  0  0  0  0  0
  149.8497  138.4796  155.0508 H   0  0  0  0  0  0  0  0  0  0  0  0
  1  2  1  0  0  0  0
  1 17  1  0  0  0  0
  1 18  1  0  0  0  0
  1 19  1  0  0  0  0
  2 16  1  0  0  0  0
  2  3  1  0  0  0  0
  3  4  2  0  0  0  0
  3 20  1  0  0  0  0
  4  5  1  0  0  0  0
  4 12  1  0  0  0  0
  5  6  1  0  0  0  0
  5 21  1  0  0  0  0
  5 22  1  0  0  0  0
  6 11  1  0  0  0  0
  6  7  1  0  0  0  0
  7  8  1  0  0  0  0
  7 23  1  0  0  0  0
  7 24  1  0  0  0  0
  8  9  1  0  0  0  0
  8 25  1  0  0  0  0
  8 26  1  0  0  0  0
  9 10  1  0  0  0  0
  9 11  1  0  0  0  0
  9 27  1  0  0  0  0
 10 28  1  0  0  0  0
 11 29  1  0  0  0  0
 11 30  1  0  0  0  0
 12 13  1  0  0  0  0
 12 16  2  0  0  0  0
 13 14  2  0  0  0  0
 13 15  1  0  0  0  0
M  CHG  1  15  -1
M  END
> <s_m_source_file>
AV-unprocessed.smi

> <i_m_source_file_index>
62

> <i_lp_mmshare_version>
43012

> <i_f3d_flags>
0

> <s_epik_input>
W0NIM11uMVtjSF1jKGMobjEpQyg9TylbT0hdKVtDSDJdTjJbQ0gyXVtDSDJdW0NAQEhdKFtPSF0pW0NIMl0y

> <s_epik_cmdline>
J2VwaWtfcHl0aG9uJywgJy1waCcsICc3LjAnLCAnLXRuJywgJzgnLCAnLW1hJywgJzIwMCcsICctbWV0YWxfYmluZGluZycsICctaW1hZScsICc8aW5maWxlLm1hZT4nLCAnLW9tYWUnLCAnPG91dGZpbGUubWFlPic=

> <r_epik_Ionization_Penalty>
1.46526

> <r_epik_Ionization_Penalty_Charging>
0.000523675

> <r_epik_Ionization_Penalty_Neutral>
1.46474

> <r_epik_State_Penalty>
1.55202

> <r_epik_Charging_Adjusted_Penalty>
1.55254

> <i_epik_Tot_Q>
-1

> <i_epik_Tot_abs_Q>
1

> <r_epik_Metal_State_Penalty>
1.552

> <b_epik_Metal_Only>
0

> <s_lp_Force_Field>
OPLS_2005

> <r_lp_Energy>
37.4644

> <b_lp_Chiralities_Consistent>
1

> <s_lp_Variant>
AV-unprocessed.smi:62-5

> <Gold.Version>
5.8.1

> <Gold.Id.Protein>
6NUR|6NUR_protein|mol2

> <Gold.PLP.Fitness>
41.4377

> <Gold.PLP.PLP>
-29.7796

> <Gold.PLP.part.hbond>
-2.5992

> <Gold.PLP.part.metal>
0.0000

> <Gold.PLP.part.buried>
-4.4197

> <Gold.PLP.part.nonpolar>
-22.3121

> <Gold.PLP.part.repulsive>
0.0525

> <Gold.PLP.ligand.clash>
0.0000

> <Gold.PLP.ligand.torsion>
0.0904

> <Gold.PLP.Chemscore.Hbond>
2.9440

> <Gold.PLP.Chemscore.CHOScore>
1.0000

> <Gold.PLP.Chemscore.Metal>
0.0000

> <Gold.Chemscore.Hbonds>
donor molecule, donor type, donor heavy atom, donor atom, acceptor molecule, acceptor atom, score
      L1  H    10    28       P1  7957  1.00
      P1  H  7997  8010       L1    14  1.51
      L1  C     3    20       P1  8028  1.00

> <Gold.PLP.Chemscore.Internal.Correction>
0.0068

> <Gold.Rescore>
     Score         DG    S(hbond)    S(metal)    S(lipo)     H(rot)  DE(clash)    DE(int)     intcor
     13.82     -15.15       1.91        0.00      66.84       1.77       0.08       1.25       ----

> <Gold.Chemscore.Fitness>
13.8197

> <Gold.Chemscore.DG>
-15.1511

> <Gold.Chemscore.ZeroCoef>
-5.4800

> <Gold.Chemscore.Hbond>
1.9086

> <Gold.Chemscore.Metal>
0.0000

> <Gold.Chemscore.Lipo>
66.8446

> <Gold.Chemscore.Internal_Hbond>
0.0000

> <Gold.Chemscore.DEClash>
0.0799

> <Gold.Chemscore.DEInternal>
1.2515

> <Gold.Chemscore.Rot>
1.7674

> <Gold.Chemscore.Internal.Correction>
   9.000000E+99

> <Gold.Chemscore.Hbonds>
donor molecule, donor type, donor heavy atom, donor atom, acceptor molecule, acceptor atom, score
      L1  H    10    28       P1  7957  0.96
      P1  H  7997  8010       L1    14  0.17

> <Gold.Chemscore.Hbond.Weighted>
-6.3748

> <Gold.Chemscore.Metal.Weighted>
-0.0000

> <Gold.Chemscore.Lipo.Weighted>
-7.8208

> <Gold.Chemscore.Internal_Hbond.Weighted>
0.0000

> <Gold.Chemscore.DEClash.Weighted>
0.0799

> <Gold.Chemscore.DEInternal.Weighted>
1.2515

> <Gold.Chemscore.Rot.Weighted>
4.5245

> <Gold.Chemscore.Internal.Correction.Weighted>
   9.000000E+99

> <Gold.Protein.RotatedTorsions>
[ 6907 6896 6895 6894 ] final  -27.49 input  -60.11 | X-H torsion
[ 7974 7965 7964 7962 ] final  -43.75 input  175.53 | X-H torsion
[ 8008 7997 7996 7995 ] final   34.85 input   59.86 | X-H torsion
[ 10167 10162 10161 10158 ] final    1.31 input  -65.29 | X-H torsion
[ 10718 10713 10712 10709 ] final  -63.90 input   66.30 | X-H torsion
[ 10763 10752 10751 10750 ] final  -87.32 input  -60.55 | X-H torsion
[ 11005 11000 10999 10996 ] final   17.19 input  -57.11 | X-H torsion

> <Gold.Protein.ActiveResidues>
 VAL166  LYS551  ARG553  GLY616  TRP617  ASP618  TYR619  PRO620  LYS621  CYS622 
 ASP623  PHE694  ASN695  SER759  ASP760  ASP761  ALA762  ILE779  LEU786  VAL792 
 PHE793  MET794  SER795  GLU796  ALA797  LYS798  CYS799  TRP800  GLU811  SER814 

> <Gold.Protein.RotatedAtoms>
  151.1461  135.0204  159.8647 H   0  0  0  0  0  0  0  0  0  0  0  0  # atno 6907 bound_to 6896
  152.5453  134.1442  159.8502 H   0  0  0  0  0  0  0  0  0  0  0  0  # atno 6908 bound_to 6896
  151.1523  133.4854  159.2628 H   0  0  0  0  0  0  0  0  0  0  0  0  # atno 6909 bound_to 6896
  145.9988  140.7098  142.9281 H   0  0  0  0  0  0  0  0  0  0  0  0  # atno 7974 bound_to 7965
  155.1615  140.3284  155.4410 H   0  0  0  0  0  0  0  0  0  0  0  0  # atno 8008 bound_to 7997
  156.2541  140.1959  156.6673 H   0  0  0  0  0  0  0  0  0  0  0  0  # atno 8009 bound_to 7997
  154.6401  140.0571  156.9822 H   0  0  0  0  0  0  0  0  0  0  0  0  # atno 8010 bound_to 7997
  140.6689  143.7105  150.7881 H   0  0  0  0  0  0  0  0  0  0  0  0  # atno 10167 bound_to 10162
  156.0762  130.4226  150.1343 H   0  0  0  0  0  0  0  0  0  0  0  0  # atno 10718 bound_to 10713
  154.6323  135.5417  153.7694 H   0  0  0  0  0  0  0  0  0  0  0  0  # atno 10763 bound_to 10752
  153.0291  135.6439  154.1283 H   0  0  0  0  0  0  0  0  0  0  0  0  # atno 10764 bound_to 10752
  154.1212  135.2920  155.3188 H   0  0  0  0  0  0  0  0  0  0  0  0  # atno 10765 bound_to 10752
  140.4387  134.1345  155.7688 H   0  0  0  0  0  0  0  0  0  0  0  0  # atno 11005 bound_to 11000
  144.6912  140.3197  143.7234 LP  0  0  0  0  0  0  0  0  0  0  0  0  # atno 17320 bound_to 7965
  145.7519  139.1796  143.2316 LP  0  0  0  0  0  0  0  0  0  0  0  0  # atno 17321 bound_to 7965
  140.0786  143.4990  152.2542 LP  0  0  0  0  0  0  0  0  0  0  0  0  # atno 17342 bound_to 10162
  139.5948  144.7563  151.3312 LP  0  0  0  0  0  0  0  0  0  0  0  0  # atno 17343 bound_to 10162
  156.9383  130.9736  151.3520 LP  0  0  0  0  0  0  0  0  0  0  0  0  # atno 17370 bound_to 10713
  157.5859  130.8409  149.8588 LP  0  0  0  0  0  0  0  0  0  0  0  0  # atno 17371 bound_to 10713
  141.1715  133.8599  157.1556 LP  0  0  0  0  0  0  0  0  0  0  0  0  # atno 17394 bound_to 11000
  140.0085  134.9998  157.0344 LP  0  0  0  0  0  0  0  0  0  0  0  0  # atno 17395 bound_to 11000

$$$$
