AV-unprocessed.smi:1669|AV-procd|sdf|6687|dock8
  -GOLD-   22720 7413D 1   1.00000     0.00000
 Structure written by MMmdl.
 47 49  0  0  0  0  0  0  0  0  1 V2000
  151.6276  139.7839  156.3893 C   0  0  0  0  0  0  0  0  0  0  0  0
  150.8985  139.3895  157.5912 N   0  0  0  0  0  0  0  0  0  0  0  0
  151.7642  139.4450  158.7734 C   0  0  0  0  0  0  0  0  0  0  0  0
  152.1409  140.8563  159.1894 C   0  0  0  0  0  0  0  0  0  0  0  0
  152.9673  141.0645  160.3140 C   0  0  0  0  0  0  0  0  0  0  0  0
  153.3177  142.3724  160.7019 C   0  0  0  0  0  0  0  0  0  0  0  0
  152.8473  143.4761  159.9641 C   0  0  0  0  0  0  0  0  0  0  0  0
  152.0257  143.2716  158.8385 C   0  0  0  0  0  0  0  0  0  0  0  0
  151.6724  141.9638  158.4516 C   0  0  0  0  0  0  0  0  0  0  0  0
  150.2984  138.0669  157.4016 C   0  0  0  0  0  0  0  0  0  0  0  0
  149.4182  137.5620  158.5631 C   0  0  2  0  0  0  0  0  0  0  0  0
  150.2617  136.9394  159.5105 O   0  0  0  0  0  0  0  0  0  0  0  0
  148.3370  136.5630  158.1010 C   0  0  0  0  0  0  0  0  0  0  0  0
  148.1130  135.5011  159.0718 N   0  0  0  0  0  0  0  0  0  0  0  0
  148.2669  134.1619  158.9161 C   0  0  0  0  0  0  0  0  0  0  0  0
  148.7183  133.5688  157.6120 C   0  0  0  0  0  0  0  0  0  0  0  0
  149.9527  132.8860  157.6924 O   0  0  0  0  0  0  0  0  0  0  0  0
  147.9772  133.4204  159.9885 N   0  0  0  0  0  0  0  0  0  0  0  0
  147.6055  134.3660  160.9242 C   0  0  0  0  0  0  0  0  0  0  0  0
  147.1875  134.2177  162.2661 C   0  0  0  0  0  0  0  0  0  0  0  0
  146.8489  135.3493  163.0370 C   0  0  0  0  0  0  0  0  0  0  0  0
  146.9219  136.6422  162.4786 C   0  0  0  0  0  0  0  0  0  0  0  0
  147.3361  136.8119  161.1437 C   0  0  0  0  0  0  0  0  0  0  0  0
  147.6752  135.6790  160.3800 C   0  0  0  0  0  0  0  0  0  0  0  0
  150.9743  139.7657  155.5165 H   0  0  0  0  0  0  0  0  0  0  0  0
  152.4661  139.1124  156.1992 H   0  0  0  0  0  0  0  0  0  0  0  0
  152.0175  140.7983  156.4768 H   0  0  0  0  0  0  0  0  0  0  0  0
  151.2646  139.0051  159.6346 H   0  0  0  0  0  0  0  0  0  0  0  0
  152.6657  138.8534  158.6074 H   0  0  0  0  0  0  0  0  0  0  0  0
  153.3314  140.2204  160.8820 H   0  0  0  0  0  0  0  0  0  0  0  0
  153.9477  142.5287  161.5652 H   0  0  0  0  0  0  0  0  0  0  0  0
  153.1172  144.4789  160.2607 H   0  0  0  0  0  0  0  0  0  0  0  0
  151.6661  144.1178  158.2717 H   0  0  0  0  0  0  0  0  0  0  0  0
  151.0396  141.8145  157.5889 H   0  0  0  0  0  0  0  0  0  0  0  0
  149.6790  138.0849  156.5035 H   0  0  0  0  0  0  0  0  0  0  0  0
  151.0876  137.3398  157.2030 H   0  0  0  0  0  0  0  0  0  0  0  0
  148.9501  138.4010  159.0761 H   0  0  0  0  0  0  0  0  0  0  0  0
  150.0746  137.3002  160.3636 H   0  0  0  0  0  0  0  0  0  0  0  0
  147.3869  137.0796  157.9595 H   0  0  0  0  0  0  0  0  0  0  0  0
  148.5923  136.1357  157.1314 H   0  0  0  0  0  0  0  0  0  0  0  0
  147.9560  132.8755  157.2559 H   0  0  0  0  0  0  0  0  0  0  0  0
  148.8171  134.3585  156.8675 H   0  0  0  0  0  0  0  0  0  0  0  0
  149.7761  131.9587  157.7436 H   0  0  0  0  0  0  0  0  0  0  0  0
  147.1270  133.2319  162.7028 H   0  0  0  0  0  0  0  0  0  0  0  0
  146.5309  135.2247  164.0618 H   0  0  0  0  0  0  0  0  0  0  0  0
  146.6605  137.5035  163.0756 H   0  0  0  0  0  0  0  0  0  0  0  0
  147.3936  137.8004  160.7125 H   0  0  0  0  0  0  0  0  0  0  0  0
  1  2  1  0  0  0  0
  1 25  1  0  0  0  0
  1 26  1  0  0  0  0
  1 27  1  0  0  0  0
  2  3  1  0  0  0  0
  2 10  1  0  0  0  0
  3  4  1  0  0  0  0
  3 28  1  0  0  0  0
  3 29  1  0  0  0  0
  4  9  1  0  0  0  0
  4  5  2  0  0  0  0
  5  6  1  0  0  0  0
  5 30  1  0  0  0  0
  6  7  2  0  0  0  0
  6 31  1  0  0  0  0
  7  8  1  0  0  0  0
  7 32  1  0  0  0  0
  8  9  2  0  0  0  0
  8 33  1  0  0  0  0
  9 34  1  0  0  0  0
 10 11  1  0  0  0  0
 10 35  1  0  0  0  0
 10 36  1  0  0  0  0
 11 12  1  0  0  0  0
 11 13  1  0  0  0  0
 11 37  1  0  0  0  0
 12 38  1  0  0  0  0
 13 14  1  0  0  0  0
 13 39  1  0  0  0  0
 13 40  1  0  0  0  0
 14 24  1  0  0  0  0
 14 15  1  0  0  0  0
 15 16  1  0  0  0  0
 15 18  2  0  0  0  0
 16 17  1  0  0  0  0
 16 41  1  0  0  0  0
 16 42  1  0  0  0  0
 17 43  1  0  0  0  0
 18 19  1  0  0  0  0
 19 24  2  0  0  0  0
 19 20  1  0  0  0  0
 20 21  2  0  0  0  0
 20 44  1  0  0  0  0
 21 22  1  0  0  0  0
 21 45  1  0  0  0  0
 22 23  2  0  0  0  0
 22 46  1  0  0  0  0
 23 24  1  0  0  0  0
 23 47  1  0  0  0  0
M  END
> <s_m_source_file>
AV-unprocessed.smi

> <i_m_source_file_index>
1669

> <i_lp_mmshare_version>
43012

> <i_f3d_flags>
0

> <s_epik_input>
W2NIXTFbY0hdW2NIXVtjSF1bY0hdYzFbQ0gyXU4oW0NIM10pW0NIMl1bQ0BIXShbT0hdKVtDSDJdbihjKG4yKVtDSDJdW09IXSljKGMyMylbY0hdW2NIXVtjSF1bY0hdMw==

> <s_epik_cmdline>
J2VwaWtfcHl0aG9uJywgJy1waCcsICc3LjAnLCAnLXRuJywgJzgnLCAnLW1hJywgJzIwMCcsICctbWV0YWxfYmluZGluZycsICctaW1hZScsICc8aW5maWxlLm1hZT4nLCAnLW9tYWUnLCAnPG91dGZpbGUubWFlPic=

> <r_epik_Ionization_Penalty>
1.56301

> <r_epik_Ionization_Penalty_Charging>
0

> <r_epik_Ionization_Penalty_Neutral>
1.56301

> <r_epik_State_Penalty>
1.64771

> <r_epik_Charging_Adjusted_Penalty>
1.64771

> <i_epik_Tot_Q>
0

> <i_epik_Tot_abs_Q>
0

> <r_epik_Metal_State_Penalty>
1.61258

> <b_epik_Metal_Only>
0

> <s_lp_Force_Field>
OPLS_2005

> <r_lp_Energy>
20.891

> <b_lp_Chiralities_Consistent>
1

> <s_lp_Variant>
AV-unprocessed.smi:1669-5

> <Gold.Version>
5.8.1

> <Gold.Id.Protein>
6NUR|6NUR_protein|mol2

> <Gold.PLP.Fitness>
50.6095

> <Gold.PLP.PLP>
-46.0884

> <Gold.PLP.part.hbond>
-2.0000

> <Gold.PLP.part.metal>
0.0000

> <Gold.PLP.part.buried>
-4.2534

> <Gold.PLP.part.nonpolar>
-40.1443

> <Gold.PLP.part.repulsive>
0.0000

> <Gold.PLP.ligand.clash>
0.0000

> <Gold.PLP.ligand.torsion>
0.8923

> <Gold.PLP.Chemscore.Hbond>
2.0000

> <Gold.PLP.Chemscore.CHOScore>
0.0000

> <Gold.PLP.Chemscore.Metal>
0.0000

> <Gold.Chemscore.Hbonds>
donor molecule, donor type, donor heavy atom, donor atom, acceptor molecule, acceptor atom, score
      P1  H  6896  6908       L1    17  1.00
      P1  H  6896  6909       L1    12  0.86

> <Gold.PLP.Chemscore.Internal.Correction>
0.3057

> <Gold.Rescore>
     Score         DG    S(hbond)    S(metal)    S(lipo)     H(rot)  DE(clash)    DE(int)     intcor
     15.81     -18.60       1.89        0.00     125.32       3.06       0.81       1.99       ----

> <Gold.Chemscore.Fitness>
15.8059

> <Gold.Chemscore.DG>
-18.6035

> <Gold.Chemscore.ZeroCoef>
-5.4800

> <Gold.Chemscore.Hbond>
1.8852

> <Gold.Chemscore.Metal>
0.0000

> <Gold.Chemscore.Lipo>
125.3221

> <Gold.Chemscore.Internal_Hbond>
0.0000

> <Gold.Chemscore.DEClash>
0.8077

> <Gold.Chemscore.DEInternal>
1.9898

> <Gold.Chemscore.Rot>
3.0609

> <Gold.Chemscore.Internal.Correction>
   9.000000E+99

> <Gold.Chemscore.Hbonds>
donor molecule, donor type, donor heavy atom, donor atom, acceptor molecule, acceptor atom, score
      P1  H  6896  6908       L1    17  0.66
      P1  H  6896  6909       L1    12  0.42

> <Gold.Chemscore.Hbond.Weighted>
-6.2966

> <Gold.Chemscore.Metal.Weighted>
-0.0000

> <Gold.Chemscore.Lipo.Weighted>
-14.6627

> <Gold.Chemscore.Internal_Hbond.Weighted>
0.0000

> <Gold.Chemscore.DEClash.Weighted>
0.8077

> <Gold.Chemscore.DEInternal.Weighted>
1.9898

> <Gold.Chemscore.Rot.Weighted>
7.8358

> <Gold.Chemscore.Internal.Correction.Weighted>
   9.000000E+99

> <Gold.Protein.RotatedTorsions>
[ 6907 6896 6895 6894 ] final   97.82 input  -60.11 | X-H torsion
[ 7974 7965 7964 7962 ] final   31.69 input  175.53 | X-H torsion
[ 8008 7997 7996 7995 ] final -175.38 input   59.86 | X-H torsion
[ 10167 10162 10161 10158 ] final -178.10 input  -65.29 | X-H torsion
[ 10718 10713 10712 10709 ] final  -43.29 input   66.30 | X-H torsion
[ 10763 10752 10751 10750 ] final  167.06 input  -60.55 | X-H torsion
[ 11005 11000 10999 10996 ] final   13.22 input  -57.11 | X-H torsion

> <Gold.Protein.ActiveResidues>
 VAL166  LYS551  ARG553  GLY616  TRP617  ASP618  TYR619  PRO620  LYS621  CYS622 
 ASP623  PHE694  ASN695  SER759  ASP760  ASP761  ALA762  ILE779  LEU786  VAL792 
 PHE793  MET794  SER795  GLU796  ALA797  LYS798  CYS799  TRP800  GLU811  SER814 

> <Gold.Protein.RotatedAtoms>
  152.5418  134.0675  159.8178 H   0  0  0  0  0  0  0  0  0  0  0  0  # atno 6907 bound_to 6896
  151.0794  133.5395  159.2629 H   0  0  0  0  0  0  0  0  0  0  0  0  # atno 6908 bound_to 6896
  151.2228  135.0533  159.9010 H   0  0  0  0  0  0  0  0  0  0  0  0  # atno 6909 bound_to 6896
  146.1534  139.6624  142.9083 H   0  0  0  0  0  0  0  0  0  0  0  0  # atno 7974 bound_to 7965
  155.9818  140.1183  157.0719 H   0  0  0  0  0  0  0  0  0  0  0  0  # atno 8008 bound_to 7997
  154.4185  140.1143  156.5514 H   0  0  0  0  0  0  0  0  0  0  0  0  # atno 8009 bound_to 7997
  155.6460  140.3473  155.4734 H   0  0  0  0  0  0  0  0  0  0  0  0  # atno 8010 bound_to 7997
  139.5448  144.2265  152.0967 H   0  0  0  0  0  0  0  0  0  0  0  0  # atno 10167 bound_to 10162
  156.2505  130.4187  149.8655 H   0  0  0  0  0  0  0  0  0  0  0  0  # atno 10718 bound_to 10713
  154.3483  135.2753  155.2386 H   0  0  0  0  0  0  0  0  0  0  0  0  # atno 10763 bound_to 10752
  154.4626  135.5903  153.6270 H   0  0  0  0  0  0  0  0  0  0  0  0  # atno 10764 bound_to 10752
  152.9852  135.6069  154.3690 H   0  0  0  0  0  0  0  0  0  0  0  0  # atno 10765 bound_to 10752
  140.4832  134.0915  155.7755 H   0  0  0  0  0  0  0  0  0  0  0  0  # atno 11005 bound_to 11000
  145.4767  141.0437  143.2668 LP  0  0  0  0  0  0  0  0  0  0  0  0  # atno 17320 bound_to 7965
  144.7933  139.6285  143.7104 LP  0  0  0  0  0  0  0  0  0  0  0  0  # atno 17321 bound_to 7965
  140.1750  144.4900  150.6559 LP  0  0  0  0  0  0  0  0  0  0  0  0  # atno 17342 bound_to 10162
  140.6692  143.2279  151.5667 LP  0  0  0  0  0  0  0  0  0  0  0  0  # atno 17343 bound_to 10162
  156.6205  130.8624  151.3474 LP  0  0  0  0  0  0  0  0  0  0  0  0  # atno 17370 bound_to 10713
  157.7212  130.9561  150.1448 LP  0  0  0  0  0  0  0  0  0  0  0  0  # atno 17371 bound_to 10713
  141.1521  133.8950  157.2071 LP  0  0  0  0  0  0  0  0  0  0  0  0  # atno 17394 bound_to 11000
  139.9814  135.0097  156.9758 LP  0  0  0  0  0  0  0  0  0  0  0  0  # atno 17395 bound_to 11000

$$$$
