AV-unprocessed.smi:1643|AV-procd|sdf|6575|dock5
  -GOLD-   22720 7263D 1   1.00000     0.00000
 Structure written by MMmdl.
 54 56  0  0  0  0  0  0  0  0  2 V2000
  143.2485  145.3254  155.7031 C   0  0  0  0  0  0  0  0  0  0  0  0
  143.3934  143.8306  156.0052 C   0  0  0  0  0  0  0  0  0  0  0  0
  142.6662  143.3426  156.8703 O   0  0  0  0  0  0  0  0  0  0  0  0
  144.3031  143.1018  155.3122 N   0  0  0  0  0  0  0  0  0  0  0  0
  144.4347  141.6525  155.5283 C   0  0  0  0  0  0  0  0  0  0  0  0
  145.6241  141.3261  156.4492 C   0  0  0  0  0  0  0  0  0  0  0  0
  146.8353  142.2703  156.2942 C   0  0  0  0  0  0  0  0  0  0  0  0
  147.3670  142.3631  154.9071 N   0  3  1  0  0  0  0  0  0  0  0  0
  148.1278  141.1494  154.5043 C   0  0  0  0  0  0  0  0  0  0  0  0
  149.0844  140.6489  155.6045 C   0  0  1  0  0  0  0  0  0  0  0  0
  149.3487  139.2753  155.3903 O   0  0  0  0  0  0  0  0  0  0  0  0
  150.4128  141.4296  155.6090 C   0  0  0  0  0  0  0  0  0  0  0  0
  151.2954  141.0112  156.6830 N   0  0  0  0  0  0  0  0  0  0  0  0
  152.0459  139.8936  156.7345 C   0  0  0  0  0  0  0  0  0  0  0  0
  152.7834  139.7055  157.8248 N   0  0  0  0  0  0  0  0  0  0  0  0
  152.4785  140.8339  158.5665 C   0  0  0  0  0  0  0  0  0  0  0  0
  152.9318  141.2456  159.8389 C   0  0  0  0  0  0  0  0  0  0  0  0
  152.4800  142.4555  160.4125 C   0  0  0  0  0  0  0  0  0  0  0  0
  152.9932  142.8592  161.7835 C   0  0  0  0  0  0  0  0  0  0  0  0
  151.5610  143.2758  159.7098 C   0  0  0  0  0  0  0  0  0  0  0  0
  151.0653  144.5819  160.3051 C   0  0  0  0  0  0  0  0  0  0  0  0
  151.0972  142.8789  158.4382 C   0  0  0  0  0  0  0  0  0  0  0  0
  151.5528  141.6720  157.8791 C   0  0  0  0  0  0  0  0  0  0  0  0
  146.4120  142.8369  153.8570 C   0  0  0  0  0  0  0  0  0  0  0  0
  145.2323  143.7213  154.3432 C   0  0  0  0  0  0  0  0  0  0  0  0
  143.0949  145.4989  154.6380 H   0  0  0  0  0  0  0  0  0  0  0  0
  144.1328  145.8739  156.0277 H   0  0  0  0  0  0  0  0  0  0  0  0
  142.3893  145.7399  156.2313 H   0  0  0  0  0  0  0  0  0  0  0  0
  143.5270  141.2155  155.9479 H   0  0  0  0  0  0  0  0  0  0  0  0
  144.5371  141.1406  154.5728 H   0  0  0  0  0  0  0  0  0  0  0  0
  145.2873  141.3842  157.4849 H   0  0  0  0  0  0  0  0  0  0  0  0
  145.9275  140.2902  156.2954 H   0  0  0  0  0  0  0  0  0  0  0  0
  146.5832  143.2715  156.6452 H   0  0  0  0  0  0  0  0  0  0  0  0
  147.6326  141.9437  156.9628 H   0  0  0  0  0  0  0  0  0  0  0  0
  147.4359  140.3442  154.2529 H   0  0  0  0  0  0  0  0  0  0  0  0
  148.6841  141.3657  153.5911 H   0  0  0  0  0  0  0  0  0  0  0  0
  148.6200  140.7581  156.5846 H   0  0  0  0  0  0  0  0  0  0  0  0
  148.5573  138.7846  155.5528 H   0  0  0  0  0  0  0  0  0  0  0  0
  150.9343  141.3085  154.6582 H   0  0  0  0  0  0  0  0  0  0  0  0
  150.2218  142.4970  155.7263 H   0  0  0  0  0  0  0  0  0  0  0  0
  152.0477  139.1749  155.9279 H   0  0  0  0  0  0  0  0  0  0  0  0
  153.6326  140.6212  160.3733 H   0  0  0  0  0  0  0  0  0  0  0  0
  152.1656  142.9711  162.4845 H   0  0  0  0  0  0  0  0  0  0  0  0
  153.5297  143.8066  161.7263 H   0  0  0  0  0  0  0  0  0  0  0  0
  153.6759  142.1119  162.1892 H   0  0  0  0  0  0  0  0  0  0  0  0
  150.3743  145.0893  159.6315 H   0  0  0  0  0  0  0  0  0  0  0  0
  151.9007  145.2557  160.4966 H   0  0  0  0  0  0  0  0  0  0  0  0
  150.5437  144.4000  161.2449 H   0  0  0  0  0  0  0  0  0  0  0  0
  150.3977  143.4943  157.8924 H   0  0  0  0  0  0  0  0  0  0  0  0
  146.9902  143.4192  153.1391 H   0  0  0  0  0  0  0  0  0  0  0  0
  146.0304  141.9926  153.2827 H   0  0  0  0  0  0  0  0  0  0  0  0
  144.6549  144.0357  153.4727 H   0  0  0  0  0  0  0  0  0  0  0  0
  145.6590  144.6288  154.7725 H   0  0  0  0  0  0  0  0  0  0  0  0
  148.0637  143.0925  154.9699 H   0  0  0  0  0  0  0  0  0  0  0  0
  1  2  1  0  0  0  0
  1 26  1  0  0  0  0
  1 27  1  0  0  0  0
  1 28  1  0  0  0  0
  2  3  2  0  0  0  0
  2  4  1  0  0  0  0
  4 25  1  0  0  0  0
  4  5  1  0  0  0  0
  5  6  1  0  0  0  0
  5 29  1  0  0  0  0
  5 30  1  0  0  0  0
  6  7  1  0  0  0  0
  6 31  1  0  0  0  0
  6 32  1  0  0  0  0
  7  8  1  0  0  0  0
  7 33  1  0  0  0  0
  7 34  1  0  0  0  0
  8  9  1  0  0  0  0
  8 24  1  0  0  0  0
  8 54  1  0  0  0  0
  9 10  1  0  0  0  0
  9 35  1  0  0  0  0
  9 36  1  0  0  0  0
 10 11  1  0  0  0  0
 10 12  1  0  0  0  0
 10 37  1  0  0  0  0
 11 38  1  0  0  0  0
 12 13  1  0  0  0  0
 12 39  1  0  0  0  0
 12 40  1  0  0  0  0
 13 23  1  0  0  0  0
 13 14  1  0  0  0  0
 14 15  2  0  0  0  0
 14 41  1  0  0  0  0
 15 16  1  0  0  0  0
 16 23  2  0  0  0  0
 16 17  1  0  0  0  0
 17 18  2  0  0  0  0
 17 42  1  0  0  0  0
 18 19  1  0  0  0  0
 18 20  1  0  0  0  0
 19 43  1  0  0  0  0
 19 44  1  0  0  0  0
 19 45  1  0  0  0  0
 20 21  1  0  0  0  0
 20 22  2  0  0  0  0
 21 46  1  0  0  0  0
 21 47  1  0  0  0  0
 21 48  1  0  0  0  0
 22 23  1  0  0  0  0
 22 49  1  0  0  0  0
 24 25  1  0  0  0  0
 24 50  1  0  0  0  0
 24 51  1  0  0  0  0
 25 52  1  0  0  0  0
 25 53  1  0  0  0  0
M  CHG  1   8   1
M  END
> <s_m_source_file>
AV-unprocessed.smi

> <i_m_source_file_index>
1643

> <i_lp_mmshare_version>
43012

> <i_f3d_flags>
0

> <s_epik_input>
W0NIM11DKD1PKU4xW0NIMl1bQ0gyXVtDSDJdTihbQ0gyXVtDSDJdMSlbQ0gyXVtDQEhdKFtPSF0pW0NIMl1uKFtjSF1uMiljKGMyMylbY0hdYyhbQ0gzXSljKFtjSF0zKVtDSDNd

> <s_epik_cmdline>
J2VwaWtfcHl0aG9uJywgJy1waCcsICc3LjAnLCAnLXRuJywgJzgnLCAnLW1hJywgJzIwMCcsICctbWV0YWxfYmluZGluZycsICctaW1hZScsICc8aW5maWxlLm1hZT4nLCAnLW9tYWUnLCAnPG91dGZpbGUubWFlPic=

> <r_epik_Ionization_Penalty>
0.189467

> <r_epik_Ionization_Penalty_Charging>
0.101761

> <r_epik_Ionization_Penalty_Neutral>
0.0877056

> <r_epik_State_Penalty>
0.170758

> <r_epik_Charging_Adjusted_Penalty>
0.272519

> <i_epik_Tot_Q>
1

> <i_epik_Tot_abs_Q>
1

> <r_epik_Metal_State_Penalty>
0.0948013

> <b_epik_Metal_Only>
0

> <s_lp_Force_Field>
OPLS_2005

> <r_lp_Energy>
48.4896

> <b_lp_Chiralities_Consistent>
1

> <s_lp_Variant>
AV-unprocessed.smi:1643-4

> <Gold.Version>
5.8.1

> <Gold.Id.Protein>
6NUR|6NUR_protein|mol2

> <Gold.PLP.Fitness>
55.0883

> <Gold.PLP.PLP>
-47.0477

> <Gold.PLP.part.hbond>
-2.0000

> <Gold.PLP.part.metal>
0.0000

> <Gold.PLP.part.buried>
-6.4312

> <Gold.PLP.part.nonpolar>
-37.5675

> <Gold.PLP.part.repulsive>
0.1204

> <Gold.PLP.ligand.clash>
0.0000

> <Gold.PLP.ligand.torsion>
0.5212

> <Gold.PLP.Chemscore.Hbond>
3.0000

> <Gold.PLP.Chemscore.CHOScore>
0.0000

> <Gold.PLP.Chemscore.Metal>
0.0000

> <Gold.Chemscore.Hbonds>
donor molecule, donor type, donor heavy atom, donor atom, acceptor molecule, acceptor atom, score
      L1  H     8    54       P1  8028  2.00
      P1  H  7997  8009       L1    15  1.00

> <Gold.PLP.Chemscore.Internal.Correction>
0.0830

> <Gold.Rescore>
     Score         DG    S(hbond)    S(metal)    S(lipo)     H(rot)  DE(clash)    DE(int)     intcor
     17.41     -18.16       1.17        0.00     121.22       2.12       0.16       0.58       ----

> <Gold.Chemscore.Fitness>
17.4127

> <Gold.Chemscore.DG>
-18.1555

> <Gold.Chemscore.ZeroCoef>
-5.4800

> <Gold.Chemscore.Hbond>
1.1720

> <Gold.Chemscore.Metal>
0.0000

> <Gold.Chemscore.Lipo>
121.2184

> <Gold.Chemscore.Internal_Hbond>
0.0000

> <Gold.Chemscore.DEClash>
0.1648

> <Gold.Chemscore.DEInternal>
0.5779

> <Gold.Chemscore.Rot>
2.1178

> <Gold.Chemscore.Internal.Correction>
   9.000000E+99

> <Gold.Chemscore.Hbonds>
donor molecule, donor type, donor heavy atom, donor atom, acceptor molecule, acceptor atom, score
      L1  H     8    54       P1  8028  0.91
      P1  H  7997  8009       L1    15  0.12

> <Gold.Chemscore.Hbond.Weighted>
-3.9144

> <Gold.Chemscore.Metal.Weighted>
-0.0000

> <Gold.Chemscore.Lipo.Weighted>
-14.1826

> <Gold.Chemscore.Internal_Hbond.Weighted>
0.0000

> <Gold.Chemscore.DEClash.Weighted>
0.1648

> <Gold.Chemscore.DEInternal.Weighted>
0.5779

> <Gold.Chemscore.Rot.Weighted>
5.4215

> <Gold.Chemscore.Internal.Correction.Weighted>
   9.000000E+99

> <Gold.Protein.RotatedTorsions>
[ 6907 6896 6895 6894 ] final  -85.65 input  -60.11 | X-H torsion
[ 7974 7965 7964 7962 ] final -144.80 input  175.53 | X-H torsion
[ 8008 7997 7996 7995 ] final  150.54 input   59.86 | X-H torsion
[ 10167 10162 10161 10158 ] final   96.94 input  -65.29 | X-H torsion
[ 10718 10713 10712 10709 ] final  -43.19 input   66.30 | X-H torsion
[ 10763 10752 10751 10750 ] final  129.29 input  -60.55 | X-H torsion
[ 11005 11000 10999 10996 ] final  121.22 input  -57.11 | X-H torsion

> <Gold.Protein.ActiveResidues>
 VAL166  LYS551  ARG553  GLY616  TRP617  ASP618  TYR619  PRO620  LYS621  CYS622 
 ASP623  PHE694  ASN695  SER759  ASP760  ASP761  ALA762  ILE779  LEU786  VAL792 
 PHE793  MET794  SER795  GLU796  ALA797  LYS798  CYS799  TRP800  GLU811  SER814 

> <Gold.Protein.RotatedAtoms>
  150.6869  134.3173  159.4771 H   0  0  0  0  0  0  0  0  0  0  0  0  # atno 6907 bound_to 6896
  152.1052  134.9311  160.0577 H   0  0  0  0  0  0  0  0  0  0  0  0  # atno 6908 bound_to 6896
  152.0575  133.4012  159.4440 H   0  0  0  0  0  0  0  0  0  0  0  0  # atno 6909 bound_to 6896
  144.8272  140.5664  143.5539 H   0  0  0  0  0  0  0  0  0  0  0  0  # atno 7974 bound_to 7965
  156.2711  140.2072  156.6033 H   0  0  0  0  0  0  0  0  0  0  0  0  # atno 8008 bound_to 7997
  154.6889  140.0532  157.0367 H   0  0  0  0  0  0  0  0  0  0  0  0  # atno 8009 bound_to 7997
  155.0894  140.3195  155.4581 H   0  0  0  0  0  0  0  0  0  0  0  0  # atno 8010 bound_to 7997
  139.7847  144.6875  150.9974 H   0  0  0  0  0  0  0  0  0  0  0  0  # atno 10167 bound_to 10162
  156.2516  130.4188  149.8643 H   0  0  0  0  0  0  0  0  0  0  0  0  # atno 10718 bound_to 10713
  153.7394  135.3226  155.3301 H   0  0  0  0  0  0  0  0  0  0  0  0  # atno 10763 bound_to 10752
  154.8300  135.4541  154.1042 H   0  0  0  0  0  0  0  0  0  0  0  0  # atno 10764 bound_to 10752
  153.2212  135.6948  153.8079 H   0  0  0  0  0  0  0  0  0  0  0  0  # atno 10765 bound_to 10752
  139.9217  134.9638  156.7925 H   0  0  0  0  0  0  0  0  0  0  0  0  # atno 11005 bound_to 11000
  145.4975  139.1485  143.3675 LP  0  0  0  0  0  0  0  0  0  0  0  0  # atno 17320 bound_to 7965
  146.2576  140.5114  142.8867 LP  0  0  0  0  0  0  0  0  0  0  0  0  # atno 17321 bound_to 7965
  140.7819  143.4444  151.0503 LP  0  0  0  0  0  0  0  0  0  0  0  0  # atno 17342 bound_to 10162
  139.8124  143.7933  152.3172 LP  0  0  0  0  0  0  0  0  0  0  0  0  # atno 17343 bound_to 10162
  156.6190  130.8618  151.3471 LP  0  0  0  0  0  0  0  0  0  0  0  0  # atno 17370 bound_to 10713
  157.7216  130.9567  150.1464 LP  0  0  0  0  0  0  0  0  0  0  0  0  # atno 17371 bound_to 10713
  140.6455  133.9779  155.7729 LP  0  0  0  0  0  0  0  0  0  0  0  0  # atno 17394 bound_to 11000
  141.0743  134.0159  157.3481 LP  0  0  0  0  0  0  0  0  0  0  0  0  # atno 17395 bound_to 11000

$$$$
