AV-unprocessed.smi:3194|AV-procd|sdf|12209|dock7
  -GOLD-   2272018 43D 1   1.00000     0.00000
 Structure written by MMmdl.
 28 28  0  0  0  0  0  0  0  0  1 V2000
  148.5704  139.8632  154.0607 C   0  0  0  0  0  0  0  0  0  0  0  0
  148.5425  141.2330  154.7557 C   0  0  1  0  0  0  0  0  0  0  0  0
  147.1076  141.7061  155.0610 C   0  0  0  0  0  0  0  0  0  0  0  0
  146.2957  141.5969  153.9109 O   0  0  0  0  0  0  0  0  0  0  0  0
  149.3250  141.1571  155.9861 N   0  0  0  0  0  0  0  0  0  0  0  0
  150.5695  140.6619  156.0949 C   0  0  0  0  0  0  0  0  0  0  0  0
  151.2032  140.2215  155.1351 O   0  0  0  0  0  0  0  0  0  0  0  0
  151.1909  140.6541  157.4998 C   0  0  0  0  0  0  0  0  0  0  0  0
  150.3580  140.0284  158.3347 F   0  0  0  0  0  0  0  0  0  0  0  0
  152.3342  139.9639  157.4726 F   0  0  0  0  0  0  0  0  0  0  0  0
  151.4462  142.0822  157.9742 C   0  0  0  0  0  0  0  0  0  0  0  0
  152.1110  142.3357  159.1956 C   0  0  0  0  0  0  0  0  0  0  0  0
  152.3089  143.6722  159.5925 C   0  0  0  0  0  0  0  0  0  0  0  0
  151.8364  144.7048  158.7606 C   0  0  0  0  0  0  0  0  0  0  0  0
  151.1824  144.3529  157.5638 C   0  0  0  0  0  0  0  0  0  0  0  0
  150.9872  143.0750  157.1743 N   0  0  0  0  0  0  0  0  0  0  0  0
  149.0195  141.9563  154.0913 H   0  0  0  0  0  0  0  0  0  0  0  0
  148.0336  139.8900  153.1122 H   0  0  0  0  0  0  0  0  0  0  0  0
  148.1112  139.0929  154.6811 H   0  0  0  0  0  0  0  0  0  0  0  0
  149.5939  139.5531  153.8478 H   0  0  0  0  0  0  0  0  0  0  0  0
  146.6690  141.1297  155.8763 H   0  0  0  0  0  0  0  0  0  0  0  0
  147.1032  142.7524  155.3684 H   0  0  0  0  0  0  0  0  0  0  0  0
  146.2698  140.6898  153.6467 H   0  0  0  0  0  0  0  0  0  0  0  0
  148.8796  141.4933  156.8280 H   0  0  0  0  0  0  0  0  0  0  0  0
  152.4588  141.5266  159.8208 H   0  0  0  0  0  0  0  0  0  0  0  0
  152.8129  143.9008  160.5200 H   0  0  0  0  0  0  0  0  0  0  0  0
  151.9706  145.7412  159.0332 H   0  0  0  0  0  0  0  0  0  0  0  0
  150.8051  145.1181  156.9016 H   0  0  0  0  0  0  0  0  0  0  0  0
  1  2  1  0  0  0  0
  1 18  1  0  0  0  0
  1 19  1  0  0  0  0
  1 20  1  0  0  0  0
  2 17  1  0  0  0  0
  2  3  1  0  0  0  0
  2  5  1  0  0  0  0
  3  4  1  0  0  0  0
  3 21  1  0  0  0  0
  3 22  1  0  0  0  0
  4 23  1  0  0  0  0
  5  6  1  0  0  0  0
  5 24  1  0  0  0  0
  6  7  2  0  0  0  0
  6  8  1  0  0  0  0
  8  9  1  0  0  0  0
  8 10  1  0  0  0  0
  8 11  1  0  0  0  0
 11 16  1  0  0  0  0
 11 12  2  0  0  0  0
 12 13  1  0  0  0  0
 12 25  1  0  0  0  0
 13 14  2  0  0  0  0
 13 26  1  0  0  0  0
 14 15  1  0  0  0  0
 14 27  1  0  0  0  0
 15 16  2  0  0  0  0
 15 28  1  0  0  0  0
M  END
> <s_m_source_file>
AV-unprocessed.smi

> <i_m_source_file_index>
3194

> <i_lp_mmshare_version>
43012

> <i_f3d_flags>
0

> <s_epik_input>
W09IXVtDSDJdW0NASF0oW0NIM10pW05IXUMoPU8pQyhGKShGKWMxW2NIXVtjSF1bY0hdW2NIXW4x

> <s_epik_cmdline>
J2VwaWtfcHl0aG9uJywgJy1waCcsICc3LjAnLCAnLXRuJywgJzgnLCAnLW1hJywgJzIwMCcsICctbWV0YWxfYmluZGluZycsICctaW1hZScsICc8aW5maWxlLm1hZT4nLCAnLW9tYWUnLCAnPG91dGZpbGUubWFlPic=

> <r_lp_tautomer_probability>
1

> <r_epik_Ionization_Penalty>
3.67967e-05

> <r_epik_Ionization_Penalty_Charging>
0

> <r_epik_Ionization_Penalty_Neutral>
3.67967e-05

> <r_epik_State_Penalty>
-0

> <r_epik_Charging_Adjusted_Penalty>
0

> <i_epik_Tot_Q>
0

> <i_epik_Tot_abs_Q>
0

> <r_epik_Metal_State_Penalty>
0.0311521

> <b_epik_Metal_Only>
0

> <s_lp_Force_Field>
OPLS_2005

> <r_lp_Energy>
9.58736

> <b_lp_Chiralities_Consistent>
1

> <s_lp_Variant>
AV-unprocessed.smi:3194-1

> <Gold.Version>
5.8.1

> <Gold.Id.Protein>
6NUR|6NUR_protein|mol2

> <Gold.PLP.Fitness>
37.6158

> <Gold.PLP.PLP>
-33.1980

> <Gold.PLP.part.hbond>
-1.0000

> <Gold.PLP.part.metal>
0.0000

> <Gold.PLP.part.buried>
-2.0485

> <Gold.PLP.part.nonpolar>
-30.2102

> <Gold.PLP.part.repulsive>
0.2487

> <Gold.PLP.ligand.clash>
0.0000

> <Gold.PLP.ligand.torsion>
0.3716

> <Gold.PLP.Chemscore.Hbond>
1.0000

> <Gold.PLP.Chemscore.CHOScore>
0.7099

> <Gold.PLP.Chemscore.Metal>
0.0000

> <Gold.Chemscore.Hbonds>
donor molecule, donor type, donor heavy atom, donor atom, acceptor molecule, acceptor atom, score
      P1  H  7989  7998       L1     7  1.00
      L1  C    15    28       P1  8028  0.83

> <Gold.PLP.Chemscore.Internal.Correction>
0.0311

> <Gold.Rescore>
     Score         DG    S(hbond)    S(metal)    S(lipo)     H(rot)  DE(clash)    DE(int)     intcor
      8.90     -11.69       1.00        0.00      79.17       2.50       0.04       2.74       ----

> <Gold.Chemscore.Fitness>
8.9029

> <Gold.Chemscore.DG>
-11.6902

> <Gold.Chemscore.ZeroCoef>
-5.4800

> <Gold.Chemscore.Hbond>
0.9997

> <Gold.Chemscore.Metal>
0.0000

> <Gold.Chemscore.Lipo>
79.1748

> <Gold.Chemscore.Internal_Hbond>
0.0000

> <Gold.Chemscore.DEClash>
0.0431

> <Gold.Chemscore.DEInternal>
2.7442

> <Gold.Chemscore.Rot>
2.4970

> <Gold.Chemscore.Internal.Correction>
   9.000000E+99

> <Gold.Chemscore.Hbonds>
donor molecule, donor type, donor heavy atom, donor atom, acceptor molecule, acceptor atom, score
      P1  H  7989  7998       L1     7  0.98

> <Gold.Chemscore.Hbond.Weighted>
-3.3390

> <Gold.Chemscore.Metal.Weighted>
-0.0000

> <Gold.Chemscore.Lipo.Weighted>
-9.2635

> <Gold.Chemscore.Internal_Hbond.Weighted>
0.0000

> <Gold.Chemscore.DEClash.Weighted>
0.0431

> <Gold.Chemscore.DEInternal.Weighted>
2.7442

> <Gold.Chemscore.Rot.Weighted>
6.3922

> <Gold.Chemscore.Internal.Correction.Weighted>
   9.000000E+99

> <Gold.Protein.RotatedTorsions>
[ 6907 6896 6895 6894 ] final  -43.09 input  -60.11 | X-H torsion
[ 7974 7965 7964 7962 ] final  -44.02 input  175.53 | X-H torsion
[ 8008 7997 7996 7995 ] final  102.26 input   59.86 | X-H torsion
[ 10167 10162 10161 10158 ] final  171.79 input  -65.29 | X-H torsion
[ 10718 10713 10712 10709 ] final   77.07 input   66.30 | X-H torsion
[ 10763 10752 10751 10750 ] final   26.74 input  -60.55 | X-H torsion
[ 11005 11000 10999 10996 ] final -148.41 input  -57.11 | X-H torsion

> <Gold.Protein.ActiveResidues>
 VAL166  LYS551  ARG553  GLY616  TRP617  ASP618  TYR619  PRO620  LYS621  CYS622 
 ASP623  PHE694  ASN695  SER759  ASP760  ASP761  ALA762  ILE779  LEU786  VAL792 
 PHE793  MET794  SER795  GLU796  ALA797  LYS798  CYS799  TRP800  GLU811  SER814 

> <Gold.Protein.RotatedAtoms>
  150.9479  134.8882  159.7653 H   0  0  0  0  0  0  0  0  0  0  0  0  # atno 6907 bound_to 6896
  152.5107  134.3849  159.9374 H   0  0  0  0  0  0  0  0  0  0  0  0  # atno 6908 bound_to 6896
  151.3866  133.3763  159.2751 H   0  0  0  0  0  0  0  0  0  0  0  0  # atno 6909 bound_to 6896
  145.9962  140.7126  142.9293 H   0  0  0  0  0  0  0  0  0  0  0  0  # atno 7974 bound_to 7965
  156.1376  140.3184  155.8445 H   0  0  0  0  0  0  0  0  0  0  0  0  # atno 8008 bound_to 7997
  155.4215  140.0512  157.3042 H   0  0  0  0  0  0  0  0  0  0  0  0  # atno 8009 bound_to 7997
  154.4949  140.2107  155.9480 H   0  0  0  0  0  0  0  0  0  0  0  0  # atno 8010 bound_to 7997
  139.5057  144.3446  151.9984 H   0  0  0  0  0  0  0  0  0  0  0  0  # atno 10167 bound_to 10162
  157.6697  130.9804  150.1588 H   0  0  0  0  0  0  0  0  0  0  0  0  # atno 10718 bound_to 10713
  153.0602  135.6553  154.0480 H   0  0  0  0  0  0  0  0  0  0  0  0  # atno 10763 bound_to 10752
  154.0149  135.2925  155.3389 H   0  0  0  0  0  0  0  0  0  0  0  0  # atno 10764 bound_to 10752
  154.6937  135.5272  153.8496 H   0  0  0  0  0  0  0  0  0  0  0  0  # atno 10765 bound_to 10752
  140.7615  134.3293  157.5100 H   0  0  0  0  0  0  0  0  0  0  0  0  # atno 11005 bound_to 11000
  144.6904  140.3154  143.7241 LP  0  0  0  0  0  0  0  0  0  0  0  0  # atno 17320 bound_to 7965
  145.7556  139.1808  143.2296 LP  0  0  0  0  0  0  0  0  0  0  0  0  # atno 17321 bound_to 7965
  140.2884  144.3782  150.6096 LP  0  0  0  0  0  0  0  0  0  0  0  0  # atno 17342 bound_to 10162
  140.5965  143.2167  151.7153 LP  0  0  0  0  0  0  0  0  0  0  0  0  # atno 17343 bound_to 10162
  156.2370  130.3687  149.8380 LP  0  0  0  0  0  0  0  0  0  0  0  0  # atno 17370 bound_to 10713
  156.6191  130.8619  151.3471 LP  0  0  0  0  0  0  0  0  0  0  0  0  # atno 17371 bound_to 10713
  139.8770  134.9205  156.3252 LP  0  0  0  0  0  0  0  0  0  0  0  0  # atno 17394 bound_to 11000
  140.9659  133.7358  156.0466 LP  0  0  0  0  0  0  0  0  0  0  0  0  # atno 17395 bound_to 11000

$$$$
