AV-unprocessed.smi:1047|AV-procd|sdf|4599|dock2
  -GOLD-   22720 3 83D 1   1.00000     0.00000
 Structure written by MMmdl.
 57 59  0  0  0  0  0  0  0  0  3 V2000
  145.8904  135.0654  156.0915 C   0  0  0  0  0  0  0  0  0  0  0  0
  146.4590  135.8463  154.8982 C   0  0  0  0  0  0  0  0  0  0  0  0
  147.7074  135.2468  154.3634 N   0  3  2  0  0  0  0  0  0  0  0  0
  147.5729  133.8146  154.0002 C   0  0  0  0  0  0  0  0  0  0  0  0
  148.8992  133.2776  153.4375 C   0  0  0  0  0  0  0  0  0  0  0  0
  149.9397  133.4858  154.3841 O   0  0  0  0  0  0  0  0  0  0  0  0
  150.1492  134.8669  154.6611 C   0  0  2  0  0  0  0  0  0  0  0  0
  151.3369  134.9881  155.6275 C   0  0  0  0  0  0  0  0  0  0  0  0
  151.6626  136.3849  155.8971 N   0  0  0  0  0  0  0  0  0  0  0  0
  151.5033  137.2456  154.7283 C   0  0  0  0  0  0  0  0  0  0  0  0
  151.7954  138.7185  155.0607 C   0  0  2  0  0  0  0  0  0  0  0  0
  153.1963  138.8590  155.1795 O   0  0  0  0  0  0  0  0  0  0  0  0
  151.1187  139.1776  156.3695 C   0  0  0  0  0  0  0  0  0  0  0  0
  150.7422  140.5994  156.3551 N   0  0  0  0  0  0  0  0  0  0  0  0
  149.8978  141.2647  155.5208 C   0  0  0  0  0  0  0  0  0  0  0  0
  149.8677  142.5667  155.9189 N   0  3  0  0  0  0  0  0  0  0  0  0
  150.7048  142.7362  157.0236 C   0  0  0  0  0  0  0  0  0  0  0  0
  151.0004  143.8670  157.7758 C   0  0  0  0  0  0  0  0  0  0  0  0
  151.9065  143.7096  158.8487 C   0  0  0  0  0  0  0  0  0  0  0  0
  152.2501  144.9257  159.6923 C   0  0  0  0  0  0  0  0  0  0  0  0
  152.4856  142.4463  159.1352 C   0  0  0  0  0  0  0  0  0  0  0  0
  153.4627  142.2893  160.2880 C   0  0  0  0  0  0  0  0  0  0  0  0
  152.1704  141.3078  158.3593 C   0  0  0  0  0  0  0  0  0  0  0  0
  151.2727  141.4787  157.3076 C   0  0  0  0  0  0  0  0  0  0  0  0
  148.8583  135.4405  155.2777 C   0  0  0  0  0  0  0  0  0  0  0  0
  144.9258  135.4761  156.3913 H   0  0  0  0  0  0  0  0  0  0  0  0
  146.5445  135.1150  156.9616 H   0  0  0  0  0  0  0  0  0  0  0  0
  145.7381  134.0152  155.8412 H   0  0  0  0  0  0  0  0  0  0  0  0
  145.7032  135.8506  154.1117 H   0  0  0  0  0  0  0  0  0  0  0  0
  146.6304  136.8890  155.1685 H   0  0  0  0  0  0  0  0  0  0  0  0
  147.2815  133.2381  154.8798 H   0  0  0  0  0  0  0  0  0  0  0  0
  146.7892  133.6806  153.2555 H   0  0  0  0  0  0  0  0  0  0  0  0
  148.8155  132.2098  153.2342 H   0  0  0  0  0  0  0  0  0  0  0  0
  149.1470  133.7628  152.4920 H   0  0  0  0  0  0  0  0  0  0  0  0
  150.3763  135.4025  153.7368 H   0  0  0  0  0  0  0  0  0  0  0  0
  151.0871  134.4935  156.5671 H   0  0  0  0  0  0  0  0  0  0  0  0
  152.2024  134.4633  155.2209 H   0  0  0  0  0  0  0  0  0  0  0  0
  151.0803  136.7295  156.6541 H   0  0  0  0  0  0  0  0  0  0  0  0
  152.1575  136.9118  153.9216 H   0  0  0  0  0  0  0  0  0  0  0  0
  150.4818  137.1579  154.3548 H   0  0  0  0  0  0  0  0  0  0  0  0
  151.4707  139.3533  154.2351 H   0  0  0  0  0  0  0  0  0  0  0  0
  153.5581  138.0297  155.4523 H   0  0  0  0  0  0  0  0  0  0  0  0
  150.2029  138.6090  156.5352 H   0  0  0  0  0  0  0  0  0  0  0  0
  151.7549  138.9808  157.2324 H   0  0  0  0  0  0  0  0  0  0  0  0
  149.3482  140.8369  154.6947 H   0  0  0  0  0  0  0  0  0  0  0  0
  150.5571  144.8261  157.5508 H   0  0  0  0  0  0  0  0  0  0  0  0
  151.9635  144.7639  160.7316 H   0  0  0  0  0  0  0  0  0  0  0  0
  151.7305  145.8167  159.3385 H   0  0  0  0  0  0  0  0  0  0  0  0
  153.3207  145.1284  159.6552 H   0  0  0  0  0  0  0  0  0  0  0  0
  153.8147  141.2609  160.3765 H   0  0  0  0  0  0  0  0  0  0  0  0
  152.9883  142.5606  161.2312 H   0  0  0  0  0  0  0  0  0  0  0  0
  154.3342  142.9274  160.1415 H   0  0  0  0  0  0  0  0  0  0  0  0
  152.6161  140.3485  158.5770 H   0  0  0  0  0  0  0  0  0  0  0  0
  148.9904  136.5046  155.4781 H   0  0  0  0  0  0  0  0  0  0  0  0
  148.6490  134.9580  156.2341 H   0  0  0  0  0  0  0  0  0  0  0  0
  147.9310  135.7484  153.5157 H   0  0  0  0  0  0  0  0  0  0  0  0
  149.3139  143.2844  155.4688 H   0  0  0  0  0  0  0  0  0  0  0  0
  1  2  1  0  0  0  0
  1 26  1  0  0  0  0
  1 27  1  0  0  0  0
  1 28  1  0  0  0  0
  2  3  1  0  0  0  0
  2 29  1  0  0  0  0
  2 30  1  0  0  0  0
  3 25  1  0  0  0  0
  3  4  1  0  0  0  0
  3 56  1  0  0  0  0
  4  5  1  0  0  0  0
  4 31  1  0  0  0  0
  4 32  1  0  0  0  0
  5  6  1  0  0  0  0
  5 33  1  0  0  0  0
  5 34  1  0  0  0  0
  6  7  1  0  0  0  0
  7  8  1  0  0  0  0
  7 25  1  0  0  0  0
  7 35  1  0  0  0  0
  8  9  1  0  0  0  0
  8 36  1  0  0  0  0
  8 37  1  0  0  0  0
  9 10  1  0  0  0  0
  9 38  1  0  0  0  0
 10 11  1  0  0  0  0
 10 39  1  0  0  0  0
 10 40  1  0  0  0  0
 11 12  1  0  0  0  0
 11 13  1  0  0  0  0
 11 41  1  0  0  0  0
 12 42  1  0  0  0  0
 13 14  1  0  0  0  0
 13 43  1  0  0  0  0
 13 44  1  0  0  0  0
 14 24  1  0  0  0  0
 14 15  1  0  0  0  0
 15 16  2  0  0  0  0
 15 45  1  0  0  0  0
 16 17  1  0  0  0  0
 16 57  1  0  0  0  0
 17 24  2  0  0  0  0
 17 18  1  0  0  0  0
 18 19  2  0  0  0  0
 18 46  1  0  0  0  0
 19 20  1  0  0  0  0
 19 21  1  0  0  0  0
 20 47  1  0  0  0  0
 20 48  1  0  0  0  0
 20 49  1  0  0  0  0
 21 22  1  0  0  0  0
 21 23  2  0  0  0  0
 22 50  1  0  0  0  0
 22 51  1  0  0  0  0
 22 52  1  0  0  0  0
 23 24  1  0  0  0  0
 23 53  1  0  0  0  0
 25 54  1  0  0  0  0
 25 55  1  0  0  0  0
M  CHG  1   3   1
M  CHG  1  16   1
M  END
> <s_m_source_file>
AV-unprocessed.smi

> <i_m_source_file_index>
1047

> <i_lp_mmshare_version>
43012

> <i_f3d_flags>
0

> <s_epik_input>
W0NIM11bQ0gyXU4xW0NIMl1bQ0gyXU9bQ0BIXShbQ0gyXTEpW0NIMl1bTkhdW0NIMl1bQ0BIXShbT0hdKVtDSDJdbihbY0hdbjIpYyhjMjMpW2NIXWMoW0NIM10pYyhbY0hdMylbQ0gzXQ==

> <s_epik_cmdline>
J2VwaWtfcHl0aG9uJywgJy1waCcsICc3LjAnLCAnLXRuJywgJzgnLCAnLW1hJywgJzIwMCcsICctbWV0YWxfYmluZGluZycsICctaW1hZScsICc8aW5maWxlLm1hZT4nLCAnLW9tYWUnLCAnPG91dGZpbGUubWFlPic=

> <r_epik_Ionization_Penalty>
2.03028

> <r_epik_Ionization_Penalty_Charging>
1.21256

> <r_epik_Ionization_Penalty_Neutral>
0.817715

> <r_epik_State_Penalty>
2.54959

> <r_epik_Charging_Adjusted_Penalty>
3.76215

> <i_epik_Tot_Q>
2

> <i_epik_Tot_abs_Q>
2

> <r_epik_Metal_State_Penalty>
6.52811

> <b_epik_Metal_Only>
0

> <s_lp_Force_Field>
OPLS_2005

> <r_lp_Energy>
31.8247

> <b_lp_Chiralities_Consistent>
1

> <s_lp_Variant>
AV-unprocessed.smi:1047-40

> <Gold.Version>
5.8.1

> <Gold.Id.Protein>
6NUR|6NUR_protein|mol2

> <Gold.PLP.Fitness>
57.8070

> <Gold.PLP.PLP>
-44.6534

> <Gold.PLP.part.hbond>
-3.6806

> <Gold.PLP.part.metal>
0.0000

> <Gold.PLP.part.buried>
-4.1525

> <Gold.PLP.part.nonpolar>
-37.8487

> <Gold.PLP.part.repulsive>
0.2416

> <Gold.PLP.ligand.clash>
0.4389

> <Gold.PLP.ligand.torsion>
0.6803

> <Gold.PLP.Chemscore.Hbond>
4.9467

> <Gold.PLP.Chemscore.CHOScore>
0.0000

> <Gold.PLP.Chemscore.Metal>
0.0000

> <Gold.Chemscore.Hbonds>
donor molecule, donor type, donor heavy atom, donor atom, acceptor molecule, acceptor atom, score
      L1  H     3    56       P1  7948  2.00
      L1  H    16    57       P1  8028  1.57
      P1  H  7997  8008       L1    12  1.00

> <Gold.PLP.Chemscore.Internal.Correction>
0.1130

> <Gold.Rescore>
     Score         DG    S(hbond)    S(metal)    S(lipo)     H(rot)  DE(clash)    DE(int)     intcor
     21.21     -22.17       2.82        0.00     121.39       2.71       0.15       0.81       ----

> <Gold.Chemscore.Fitness>
21.2058

> <Gold.Chemscore.DG>
-22.1698

> <Gold.Chemscore.ZeroCoef>
-5.4800

> <Gold.Chemscore.Hbond>
2.8207

> <Gold.Chemscore.Metal>
0.0000

> <Gold.Chemscore.Lipo>
121.3943

> <Gold.Chemscore.Internal_Hbond>
0.0000

> <Gold.Chemscore.DEClash>
0.1539

> <Gold.Chemscore.DEInternal>
0.8101

> <Gold.Chemscore.Rot>
2.7088

> <Gold.Chemscore.Internal.Correction>
   9.000000E+99

> <Gold.Chemscore.Hbonds>
donor molecule, donor type, donor heavy atom, donor atom, acceptor molecule, acceptor atom, score
      L1  H     3    56       P1  7948  0.96
      L1  H    16    57       P1  8028  0.73
      P1  H  7997  8008       L1    12  0.28

> <Gold.Chemscore.Hbond.Weighted>
-9.4213

> <Gold.Chemscore.Metal.Weighted>
-0.0000

> <Gold.Chemscore.Lipo.Weighted>
-14.2031

> <Gold.Chemscore.Internal_Hbond.Weighted>
0.0000

> <Gold.Chemscore.DEClash.Weighted>
0.1539

> <Gold.Chemscore.DEInternal.Weighted>
0.8101

> <Gold.Chemscore.Rot.Weighted>
6.9346

> <Gold.Chemscore.Internal.Correction.Weighted>
   9.000000E+99

> <Gold.Protein.RotatedTorsions>
[ 6907 6896 6895 6894 ] final   37.02 input  -60.11 | X-H torsion
[ 7974 7965 7964 7962 ] final   36.21 input  175.53 | X-H torsion
[ 8008 7997 7996 7995 ] final  -33.94 input   59.86 | X-H torsion
[ 10167 10162 10161 10158 ] final -174.04 input  -65.29 | X-H torsion
[ 10718 10713 10712 10709 ] final -150.40 input   66.30 | X-H torsion
[ 10763 10752 10751 10750 ] final   -5.72 input  -60.55 | X-H torsion
[ 11005 11000 10999 10996 ] final   16.50 input  -57.11 | X-H torsion

> <Gold.Protein.ActiveResidues>
 VAL166  LYS551  ARG553  GLY616  TRP617  ASP618  TYR619  PRO620  LYS621  CYS622 
 ASP623  PHE694  ASN695  SER759  ASP760  ASP761  ALA762  ILE779  LEU786  VAL792 
 PHE793  MET794  SER795  GLU796  ALA797  LYS798  CYS799  TRP800  GLU811  SER814 

> <Gold.Protein.RotatedAtoms>
  152.1376  134.9087  160.0555 H   0  0  0  0  0  0  0  0  0  0  0  0  # atno 6907 bound_to 6896
  152.0168  133.3878  159.4250 H   0  0  0  0  0  0  0  0  0  0  0  0  # atno 6908 bound_to 6896
  150.6862  134.3591  159.4986 H   0  0  0  0  0  0  0  0  0  0  0  0  # atno 6909 bound_to 6896
  146.1228  139.6046  142.9278 H   0  0  0  0  0  0  0  0  0  0  0  0  # atno 7974 bound_to 7965
  154.4134  140.1697  156.1968 H   0  0  0  0  0  0  0  0  0  0  0  0  # atno 8008 bound_to 7997
  155.9557  140.3397  155.6423 H   0  0  0  0  0  0  0  0  0  0  0  0  # atno 8009 bound_to 7997
  155.6813  140.0723  157.2474 H   0  0  0  0  0  0  0  0  0  0  0  0  # atno 8010 bound_to 7997
  139.5655  144.1765  152.1306 H   0  0  0  0  0  0  0  0  0  0  0  0  # atno 10167 bound_to 10162
  156.4456  130.8143  151.2373 H   0  0  0  0  0  0  0  0  0  0  0  0  # atno 10718 bound_to 10713
  153.4025  135.7005  153.6416 H   0  0  0  0  0  0  0  0  0  0  0  0  # atno 10763 bound_to 10752
  153.4944  135.3666  155.2508 H   0  0  0  0  0  0  0  0  0  0  0  0  # atno 10764 bound_to 10752
  154.8711  135.4096  154.3362 H   0  0  0  0  0  0  0  0  0  0  0  0  # atno 10765 bound_to 10752
  140.4464  134.1269  155.7696 H   0  0  0  0  0  0  0  0  0  0  0  0  # atno 11005 bound_to 11000
  145.5430  141.0419  143.2320 LP  0  0  0  0  0  0  0  0  0  0  0  0  # atno 17320 bound_to 7965
  144.7613  139.6950  143.7233 LP  0  0  0  0  0  0  0  0  0  0  0  0  # atno 17321 bound_to 7965
  140.1287  144.5308  150.6816 LP  0  0  0  0  0  0  0  0  0  0  0  0  # atno 17342 bound_to 10162
  140.6939  143.2392  151.5056 LP  0  0  0  0  0  0  0  0  0  0  0  0  # atno 17343 bound_to 10162
  157.7505  131.0154  150.3503 LP  0  0  0  0  0  0  0  0  0  0  0  0  # atno 17370 bound_to 10713
  156.3870  130.3891  149.7058 LP  0  0  0  0  0  0  0  0  0  0  0  0  # atno 17371 bound_to 10713
  141.1683  133.8659  157.1647 LP  0  0  0  0  0  0  0  0  0  0  0  0  # atno 17394 bound_to 11000
  140.0036  135.0018  157.0243 LP  0  0  0  0  0  0  0  0  0  0  0  0  # atno 17395 bound_to 11000

$$$$
