AV-unprocessed.smi:638|AV-procd|sdf|3143|dock7
  -GOLD-   22720 0 73D 1   1.00000     0.00000
 Structure written by MMmdl.
 41 42  0  0  0  0  0  0  0  0  3 V2000
  153.4076  136.4152  156.8864 N   0  0  0  0  0  0  0  0  0  0  0  0
  152.8610  137.4121  157.1022 C   0  0  0  0  0  0  0  0  0  0  0  0
  152.1627  138.6836  157.3766 C   0  0  0  0  0  0  0  0  0  0  0  0
  153.0354  139.5820  158.1415 N   0  0  0  0  0  0  0  0  0  0  0  0
  153.5313  139.3772  159.3728 C   0  0  0  0  0  0  0  0  0  0  0  0
  153.3112  138.3615  160.0327 O   0  0  0  0  0  0  0  0  0  0  0  0
  154.4371  140.4867  159.9238 C   0  0  0  0  0  0  0  0  0  0  0  0
  153.6818  141.6002  160.5214 N   0  0  0  0  0  0  0  0  0  0  0  0
  152.8184  142.3188  159.6709 C   0  0  0  0  0  0  0  0  0  0  0  0
  152.0885  143.3632  160.1091 C   0  0  0  0  0  0  0  0  0  0  0  0
  151.2137  144.0957  159.2200 N   0  3  0  0  0  0  0  0  0  0  0  0
  150.5707  145.0376  159.6718 O   0  0  0  0  0  0  0  0  0  0  0  0
  151.1396  143.7547  158.0432 O   0  5  0  0  0  0  0  0  0  0  0  0
  152.2132  143.7344  161.5054 C   0  0  0  0  0  0  0  0  0  0  0  0
  153.0401  143.0534  162.3228 C   0  0  0  0  0  0  0  0  0  0  0  0
  153.8380  141.9209  161.8421 C   0  0  0  0  0  0  0  0  0  0  0  0
  154.6005  141.2981  162.5814 O   0  0  0  0  0  0  0  0  0  0  0  0
  151.7416  139.3171  156.0213 C   0  0  0  0  0  0  0  0  0  0  0  0
  151.1624  140.7453  156.0985 C   0  0  0  0  0  0  0  0  0  0  0  0
  149.6500  140.8377  156.3647 C   0  0  0  0  0  0  0  0  0  0  0  0
  149.0650  139.8534  157.3921 C   0  0  0  0  0  0  0  0  0  0  0  0
  149.9806  139.5036  158.5757 C   0  0  0  0  0  0  0  0  0  0  0  0
  150.9425  138.3419  158.2596 C   0  0  0  0  0  0  0  0  0  0  0  0
  153.2820  140.4481  157.6851 H   0  0  0  0  0  0  0  0  0  0  0  0
  155.1087  140.0408  160.6587 H   0  0  0  0  0  0  0  0  0  0  0  0
  155.0897  140.8564  159.1305 H   0  0  0  0  0  0  0  0  0  0  0  0
  152.8027  141.9688  158.6487 H   0  0  0  0  0  0  0  0  0  0  0  0
  151.6459  144.5616  161.9056 H   0  0  0  0  0  0  0  0  0  0  0  0
  153.1185  143.3475  163.3592 H   0  0  0  0  0  0  0  0  0  0  0  0
  152.6211  139.3559  155.3777 H   0  0  0  0  0  0  0  0  0  0  0  0
  151.0427  138.6618  155.4999 H   0  0  0  0  0  0  0  0  0  0  0  0
  151.6968  141.3398  156.8385 H   0  0  0  0  0  0  0  0  0  0  0  0
  151.3577  141.2476  155.1505 H   0  0  0  0  0  0  0  0  0  0  0  0
  149.4272  141.8568  156.6824 H   0  0  0  0  0  0  0  0  0  0  0  0
  149.1134  140.7040  155.4247 H   0  0  0  0  0  0  0  0  0  0  0  0
  148.1385  140.2821  157.7754 H   0  0  0  0  0  0  0  0  0  0  0  0
  148.7638  138.9357  156.8853 H   0  0  0  0  0  0  0  0  0  0  0  0
  150.5119  140.3838  158.9392 H   0  0  0  0  0  0  0  0  0  0  0  0
  149.3447  139.1829  159.4013 H   0  0  0  0  0  0  0  0  0  0  0  0
  150.3791  137.5274  157.8020 H   0  0  0  0  0  0  0  0  0  0  0  0
  151.3066  137.9351  159.2044 H   0  0  0  0  0  0  0  0  0  0  0  0
  1  2  3  0  0  0  0
  2  3  1  0  0  0  0
  3 23  1  0  0  0  0
  3  4  1  0  0  0  0
  3 18  1  0  0  0  0
  4  5  1  0  0  0  0
  4 24  1  0  0  0  0
  5  6  2  0  0  0  0
  5  7  1  0  0  0  0
  7  8  1  0  0  0  0
  7 25  1  0  0  0  0
  7 26  1  0  0  0  0
  8 16  1  0  0  0  0
  8  9  1  0  0  0  0
  9 10  2  0  0  0  0
  9 27  1  0  0  0  0
 10 11  1  0  0  0  0
 10 14  1  0  0  0  0
 11 12  2  0  0  0  0
 11 13  1  0  0  0  0
 14 15  2  0  0  0  0
 14 28  1  0  0  0  0
 15 16  1  0  0  0  0
 15 29  1  0  0  0  0
 16 17  2  0  0  0  0
 18 19  1  0  0  0  0
 18 30  1  0  0  0  0
 18 31  1  0  0  0  0
 19 20  1  0  0  0  0
 19 32  1  0  0  0  0
 19 33  1  0  0  0  0
 20 21  1  0  0  0  0
 20 34  1  0  0  0  0
 20 35  1  0  0  0  0
 21 22  1  0  0  0  0
 21 36  1  0  0  0  0
 21 37  1  0  0  0  0
 22 23  1  0  0  0  0
 22 38  1  0  0  0  0
 22 39  1  0  0  0  0
 23 40  1  0  0  0  0
 23 41  1  0  0  0  0
M  CHG  1  11   1
M  CHG  1  13  -1
M  END
> <s_m_source_file>
AV-unprocessed.smi

> <i_m_source_file_index>
638

> <i_lp_mmshare_version>
43012

> <i_f3d_flags>
0

> <s_epik_input>
W0NIMl0xW0NIMl1bQ0gyXVtDSDJdW0NIMl1bQ0gyXUMxKEMjTilbTkhdQyg9TylbQ0gyXW4yW2NIXWMoW04rXSg9TylbTy1dKVtjSF1bY0hdYzI9Tw==

> <s_epik_cmdline>
J2VwaWtfcHl0aG9uJywgJy1waCcsICc3LjAnLCAnLXRuJywgJzgnLCAnLW1hJywgJzIwMCcsICctbWV0YWxfYmluZGluZycsICctaW1hZScsICc8aW5maWxlLm1hZT4nLCAnLW9tYWUnLCAnPG91dGZpbGUubWFlPic=

> <r_lp_tautomer_probability>
1

> <r_epik_Ionization_Penalty>
4.51205e-07

> <r_epik_Ionization_Penalty_Charging>
6.24361e-11

> <r_epik_Ionization_Penalty_Neutral>
4.51142e-07

> <r_epik_State_Penalty>
-0

> <r_epik_Charging_Adjusted_Penalty>
6.24361e-11

> <i_epik_Tot_Q>
0

> <i_epik_Tot_abs_Q>
2

> <r_epik_Metal_State_Penalty>
-0

> <b_epik_Metal_Only>
0

> <s_lp_Force_Field>
OPLS_2005

> <r_lp_Energy>
29.2466

> <b_lp_Chiralities_Consistent>
1

> <s_lp_Variant>
AV-unprocessed.smi:638-1

> <Gold.Version>
5.8.1

> <Gold.Id.Protein>
6NUR|6NUR_protein|mol2

> <Gold.PLP.Fitness>
46.6962

> <Gold.PLP.PLP>
-44.3812

> <Gold.PLP.part.hbond>
-2.0000

> <Gold.PLP.part.metal>
0.0000

> <Gold.PLP.part.buried>
-7.0369

> <Gold.PLP.part.nonpolar>
-36.3903

> <Gold.PLP.part.repulsive>
1.9312

> <Gold.PLP.ligand.clash>
0.0000

> <Gold.PLP.ligand.torsion>
0.3477

> <Gold.PLP.Chemscore.Hbond>
1.0000

> <Gold.PLP.Chemscore.CHOScore>
0.0000

> <Gold.PLP.Chemscore.Metal>
0.0000

> <Gold.Chemscore.Hbonds>
donor molecule, donor type, donor heavy atom, donor atom, acceptor molecule, acceptor atom, score
      P1  H 10752 10763       L1     1  0.88

> <Gold.PLP.Chemscore.Internal.Correction>
0.0105

> <Gold.Rescore>
     Score         DG    S(hbond)    S(metal)    S(lipo)     H(rot)  DE(clash)    DE(int)     intcor
     12.69     -14.92       0.98        0.00      88.29       1.63       0.41       1.82       ----

> <Gold.Chemscore.Fitness>
12.6861

> <Gold.Chemscore.DG>
-14.9211

> <Gold.Chemscore.ZeroCoef>
-5.4800

> <Gold.Chemscore.Hbond>
0.9821

> <Gold.Chemscore.Metal>
0.0000

> <Gold.Chemscore.Lipo>
88.2924

> <Gold.Chemscore.Internal_Hbond>
0.0000

> <Gold.Chemscore.DEClash>
0.4119

> <Gold.Chemscore.DEInternal>
1.8230

> <Gold.Chemscore.Rot>
1.6287

> <Gold.Chemscore.Internal.Correction>
   9.000000E+99

> <Gold.Chemscore.Hbonds>
donor molecule, donor type, donor heavy atom, donor atom, acceptor molecule, acceptor atom, score
      P1  H 10752 10763       L1     1  0.86

> <Gold.Chemscore.Hbond.Weighted>
-3.2803

> <Gold.Chemscore.Metal.Weighted>
-0.0000

> <Gold.Chemscore.Lipo.Weighted>
-10.3302

> <Gold.Chemscore.Internal_Hbond.Weighted>
0.0000

> <Gold.Chemscore.DEClash.Weighted>
0.4119

> <Gold.Chemscore.DEInternal.Weighted>
1.8230

> <Gold.Chemscore.Rot.Weighted>
4.1694

> <Gold.Chemscore.Internal.Correction.Weighted>
   9.000000E+99

> <Gold.Protein.RotatedTorsions>
[ 6907 6896 6895 6894 ] final   91.76 input  -60.11 | X-H torsion
[ 7974 7965 7964 7962 ] final  171.05 input  175.53 | X-H torsion
[ 8008 7997 7996 7995 ] final   97.06 input   59.86 | X-H torsion
[ 10167 10162 10161 10158 ] final  145.34 input  -65.29 | X-H torsion
[ 10718 10713 10712 10709 ] final  -62.13 input   66.30 | X-H torsion
[ 10763 10752 10751 10750 ] final  144.60 input  -60.55 | X-H torsion
[ 11005 11000 10999 10996 ] final -150.67 input  -57.11 | X-H torsion

> <Gold.Protein.ActiveResidues>
 VAL166  LYS551  ARG553  GLY616  TRP617  ASP618  TYR619  PRO620  LYS621  CYS622 
 ASP623  PHE694  ASN695  SER759  ASP760  ASP761  ALA762  ILE779  LEU786  VAL792 
 PHE793  MET794  SER795  GLU796  ALA797  LYS798  CYS799  TRP800  GLU811  SER814 

> <Gold.Protein.RotatedAtoms>
  152.5451  134.1607  159.8556 H   0  0  0  0  0  0  0  0  0  0  0  0  # atno 6907 bound_to 6896
  151.1626  133.4828  159.2601 H   0  0  0  0  0  0  0  0  0  0  0  0  # atno 6908 bound_to 6896
  151.1357  135.0165  159.8658 H   0  0  0  0  0  0  0  0  0  0  0  0  # atno 6909 bound_to 6896
  144.7306  139.9293  143.6424 H   0  0  0  0  0  0  0  0  0  0  0  0  # atno 7974 bound_to 7965
  156.0862  140.3264  155.7757 H   0  0  0  0  0  0  0  0  0  0  0  0  # atno 8008 bound_to 7997
  155.5072  140.0574  157.2947 H   0  0  0  0  0  0  0  0  0  0  0  0  # atno 8009 bound_to 7997
  154.4611  140.1967  156.0260 H   0  0  0  0  0  0  0  0  0  0  0  0  # atno 8010 bound_to 7997
  139.4928  144.5908  151.6684 H   0  0  0  0  0  0  0  0  0  0  0  0  # atno 10167 bound_to 10162
  156.0875  130.4206  150.1092 H   0  0  0  0  0  0  0  0  0  0  0  0  # atno 10718 bound_to 10713
  153.9915  135.2931  155.3411 H   0  0  0  0  0  0  0  0  0  0  0  0  # atno 10763 bound_to 10752
  154.7211  135.5108  153.8817 H   0  0  0  0  0  0  0  0  0  0  0  0  # atno 10764 bound_to 10752
  153.0807  135.6678  154.0167 H   0  0  0  0  0  0  0  0  0  0  0  0  # atno 10765 bound_to 10752
  140.7377  134.3550  157.5154 H   0  0  0  0  0  0  0  0  0  0  0  0  # atno 11005 bound_to 11000
  146.0869  139.3858  143.0429 LP  0  0  0  0  0  0  0  0  0  0  0  0  # atno 17320 bound_to 7965
  145.7764  140.9875  143.1122 LP  0  0  0  0  0  0  0  0  0  0  0  0  # atno 17321 bound_to 7965
  140.5535  144.0387  150.6137 LP  0  0  0  0  0  0  0  0  0  0  0  0  # atno 17342 bound_to 10162
  140.3449  143.2998  152.0549 LP  0  0  0  0  0  0  0  0  0  0  0  0  # atno 17343 bound_to 10162
  156.9110  130.9651  151.3563 LP  0  0  0  0  0  0  0  0  0  0  0  0  # atno 17370 bound_to 10713
  157.6014  130.8515  149.8808 LP  0  0  0  0  0  0  0  0  0  0  0  0  # atno 17371 bound_to 10713
  139.8812  134.9060  156.2912 LP  0  0  0  0  0  0  0  0  0  0  0  0  # atno 17394 bound_to 11000
  140.9865  133.7235  156.0749 LP  0  0  0  0  0  0  0  0  0  0  0  0  # atno 17395 bound_to 11000

$$$$
