AV-unprocessed.smi:2198|AV-procd|sdf|8914|dock2
  -GOLD-   2272012133D 1   1.00000     0.00000
 Structure written by MMmdl.
 43 44  0  0  0  0  0  0  0  0  1 V2000
  146.8577  142.2121  153.0970 C   0  0  0  0  0  0  0  0  0  0  0  0
  147.6197  141.7219  154.3103 C   0  0  0  0  0  0  0  0  0  0  0  0
  147.2501  141.9380  155.5297 N   0  0  0  0  0  0  0  0  0  0  0  0
  148.0410  141.4372  156.5735 C   0  0  0  0  0  0  0  0  0  0  0  0
  147.5396  141.7370  157.9760 C   0  0  0  0  0  0  0  0  0  0  0  0
  149.1835  140.7298  156.3300 C   0  0  0  0  0  0  0  0  0  0  0  0
  150.0686  140.1735  157.4435 C   0  0  0  0  0  0  0  0  0  0  0  0
  151.4254  140.8607  157.6044 C   0  0  0  0  0  0  0  0  0  0  0  0
  152.4508  140.2909  157.2321 O   0  0  0  0  0  0  0  0  0  0  0  0
  151.4165  142.0805  158.1633 N   0  0  0  0  0  0  0  0  0  0  0  0
  152.5923  142.9124  158.4110 C   0  0  1  0  0  0  0  0  0  0  0  0
  152.2690  144.4092  158.2207 C   0  0  0  0  0  0  0  0  0  0  0  0
  151.3577  144.9514  159.3349 C   0  0  0  0  0  0  0  0  0  0  0  0
  151.9569  144.6857  160.7246 C   0  0  0  0  0  0  0  0  0  0  0  0
  152.2403  143.1870  160.9415 C   0  0  2  0  0  0  0  0  0  0  0  0
  152.8416  142.9262  162.3298 C   0  0  0  0  0  0  0  0  0  0  0  0
  153.1519  142.6410  159.8220 C   0  0  0  0  0  0  0  0  0  0  0  0
  149.5937  140.4855  154.9333 C   0  0  0  0  0  0  0  0  0  0  0  0
  150.5971  139.8570  154.6002 O   0  0  0  0  0  0  0  0  0  0  0  0
  148.7737  141.0075  153.9937 N   0  0  0  0  0  0  0  0  0  0  0  0
  149.0127  140.8677  153.0227 H   0  0  0  0  0  0  0  0  0  0  0  0
  145.8508  141.7942  153.0920 H   0  0  0  0  0  0  0  0  0  0  0  0
  147.3517  141.9254  152.1675 H   0  0  0  0  0  0  0  0  0  0  0  0
  146.7775  143.2991  153.1185 H   0  0  0  0  0  0  0  0  0  0  0  0
  148.2890  142.2860  158.5458 H   0  0  0  0  0  0  0  0  0  0  0  0
  147.3055  140.8133  158.5052 H   0  0  0  0  0  0  0  0  0  0  0  0
  146.6336  142.3437  157.9507 H   0  0  0  0  0  0  0  0  0  0  0  0
  149.5521  140.2203  158.4028 H   0  0  0  0  0  0  0  0  0  0  0  0
  150.2208  139.1077  157.2702 H   0  0  0  0  0  0  0  0  0  0  0  0
  150.5250  142.4650  158.4401 H   0  0  0  0  0  0  0  0  0  0  0  0
  153.3643  142.6315  157.6922 H   0  0  0  0  0  0  0  0  0  0  0  0
  153.2007  144.9760  158.2188 H   0  0  0  0  0  0  0  0  0  0  0  0
  151.8105  144.5806  157.2461 H   0  0  0  0  0  0  0  0  0  0  0  0
  151.2029  146.0219  159.1976 H   0  0  0  0  0  0  0  0  0  0  0  0
  150.3729  144.4878  159.2653 H   0  0  0  0  0  0  0  0  0  0  0  0
  152.8800  145.2562  160.8363 H   0  0  0  0  0  0  0  0  0  0  0  0
  151.2739  145.0519  161.4920 H   0  0  0  0  0  0  0  0  0  0  0  0
  151.2888  142.6551  160.8959 H   0  0  0  0  0  0  0  0  0  0  0  0
  153.7990  143.4343  162.4498 H   0  0  0  0  0  0  0  0  0  0  0  0
  153.0073  141.8609  162.4920 H   0  0  0  0  0  0  0  0  0  0  0  0
  152.1765  143.2800  163.1181 H   0  0  0  0  0  0  0  0  0  0  0  0
  153.3130  141.5706  159.9571 H   0  0  0  0  0  0  0  0  0  0  0  0
  154.1355  143.1054  159.9046 H   0  0  0  0  0  0  0  0  0  0  0  0
  1  2  1  0  0  0  0
  1 22  1  0  0  0  0
  1 23  1  0  0  0  0
  1 24  1  0  0  0  0
  2 20  1  0  0  0  0
  2  3  2  0  0  0  0
  3  4  1  0  0  0  0
  4  5  1  0  0  0  0
  4  6  2  0  0  0  0
  5 25  1  0  0  0  0
  5 26  1  0  0  0  0
  5 27  1  0  0  0  0
  6  7  1  0  0  0  0
  6 18  1  0  0  0  0
  7  8  1  0  0  0  0
  7 28  1  0  0  0  0
  7 29  1  0  0  0  0
  8  9  2  0  0  0  0
  8 10  1  0  0  0  0
 10 11  1  0  0  0  0
 10 30  1  0  0  0  0
 11 17  1  0  0  0  0
 11 12  1  0  0  0  0
 11 31  1  0  0  0  0
 12 13  1  0  0  0  0
 12 32  1  0  0  0  0
 12 33  1  0  0  0  0
 13 14  1  0  0  0  0
 13 34  1  0  0  0  0
 13 35  1  0  0  0  0
 14 15  1  0  0  0  0
 14 36  1  0  0  0  0
 14 37  1  0  0  0  0
 15 16  1  0  0  0  0
 15 17  1  0  0  0  0
 15 38  1  0  0  0  0
 16 39  1  0  0  0  0
 16 40  1  0  0  0  0
 16 41  1  0  0  0  0
 17 42  1  0  0  0  0
 17 43  1  0  0  0  0
 18 19  2  0  0  0  0
 18 20  1  0  0  0  0
 20 21  1  0  0  0  0
M  END
> <s_m_source_file>
AV-unprocessed.smi

> <i_m_source_file_index>
2198

> <i_lp_mmshare_version>
43012

> <i_f3d_flags>
0

> <s_epik_input>
W0NIM11jMW5jKFtDSDNdKWMoYyg9TylbbkhdMSlbQ0gyXUMoPU8pW05IXVtDQEBIXTJbQ0gyXVtDSDJdW0NIMl1bQ0BASF0oW0NIM10pW0NIMl0y

> <s_epik_cmdline>
J2VwaWtfcHl0aG9uJywgJy1waCcsICc3LjAnLCAnLXRuJywgJzgnLCAnLW1hJywgJzIwMCcsICctbWV0YWxfYmluZGluZycsICctaW1hZScsICc8aW5maWxlLm1hZT4nLCAnLW9tYWUnLCAnPG91dGZpbGUubWFlPic=

> <r_lp_tautomer_probability>
0.839158

> <r_epik_Ionization_Penalty>
0.000372587

> <r_epik_Ionization_Penalty_Charging>
0.000337977

> <r_epik_Ionization_Penalty_Neutral>
3.46101e-05

> <r_epik_State_Penalty>
0.09125

> <r_epik_Charging_Adjusted_Penalty>
0.091588

> <i_epik_Tot_Q>
0

> <i_epik_Tot_abs_Q>
0

> <r_epik_Metal_State_Penalty>
0.25197

> <b_epik_Metal_Only>
0

> <s_lp_Force_Field>
OPLS_2005

> <r_lp_Energy>
10.5346

> <b_lp_Chiralities_Consistent>
1

> <s_lp_Variant>
AV-unprocessed.smi:2198-4

> <Gold.Version>
5.8.1

> <Gold.Id.Protein>
6NUR|6NUR_protein|mol2

> <Gold.PLP.Fitness>
50.2544

> <Gold.PLP.PLP>
-42.5666

> <Gold.PLP.part.hbond>
-3.0000

> <Gold.PLP.part.metal>
0.0000

> <Gold.PLP.part.buried>
-7.4116

> <Gold.PLP.part.nonpolar>
-32.4280

> <Gold.PLP.part.repulsive>
0.4671

> <Gold.PLP.ligand.clash>
0.0000

> <Gold.PLP.ligand.torsion>
0.6241

> <Gold.PLP.Chemscore.Hbond>
2.9760

> <Gold.PLP.Chemscore.CHOScore>
0.0000

> <Gold.PLP.Chemscore.Metal>
0.0000

> <Gold.Chemscore.Hbonds>
donor molecule, donor type, donor heavy atom, donor atom, acceptor molecule, acceptor atom, score
      L1  H    20    21       P1  7957  0.78
      P1  H  7989  7998       L1    19  1.00
      P1  H  7997  8008       L1     9  0.96

> <Gold.PLP.Chemscore.Internal.Correction>
0.0080

> <Gold.Rescore>
     Score         DG    S(hbond)    S(metal)    S(lipo)     H(rot)  DE(clash)    DE(int)     intcor
     20.40     -22.81       2.61        0.00     105.87       1.48       1.88       0.53       ----

> <Gold.Chemscore.Fitness>
20.4026

> <Gold.Chemscore.DG>
-22.8099

> <Gold.Chemscore.ZeroCoef>
-5.4800

> <Gold.Chemscore.Hbond>
2.6143

> <Gold.Chemscore.Metal>
0.0000

> <Gold.Chemscore.Lipo>
105.8738

> <Gold.Chemscore.Internal_Hbond>
0.0000

> <Gold.Chemscore.DEClash>
1.8794

> <Gold.Chemscore.DEInternal>
0.5279

> <Gold.Chemscore.Rot>
1.4801

> <Gold.Chemscore.Internal.Correction>
   9.000000E+99

> <Gold.Chemscore.Hbonds>
donor molecule, donor type, donor heavy atom, donor atom, acceptor molecule, acceptor atom, score
      L1  H    20    21       P1  7957  0.77
      P1  H  7989  7998       L1    19  0.74
      P1  H  7997  8008       L1     9  0.86

> <Gold.Chemscore.Hbond.Weighted>
-8.7318

> <Gold.Chemscore.Metal.Weighted>
-0.0000

> <Gold.Chemscore.Lipo.Weighted>
-12.3872

> <Gold.Chemscore.Internal_Hbond.Weighted>
0.0000

> <Gold.Chemscore.DEClash.Weighted>
1.8794

> <Gold.Chemscore.DEInternal.Weighted>
0.5279

> <Gold.Chemscore.Rot.Weighted>
3.7891

> <Gold.Chemscore.Internal.Correction.Weighted>
   9.000000E+99

> <Gold.Protein.RotatedTorsions>
[ 6907 6896 6895 6894 ] final  -11.95 input  -60.11 | X-H torsion
[ 7974 7965 7964 7962 ] final  102.32 input  175.53 | X-H torsion
[ 8008 7997 7996 7995 ] final  -66.96 input   59.86 | X-H torsion
[ 10167 10162 10161 10158 ] final   75.18 input  -65.29 | X-H torsion
[ 10718 10713 10712 10709 ] final  -45.53 input   66.30 | X-H torsion
[ 10763 10752 10751 10750 ] final  -36.01 input  -60.55 | X-H torsion
[ 11005 11000 10999 10996 ] final   -9.96 input  -57.11 | X-H torsion

> <Gold.Protein.ActiveResidues>
 VAL166  LYS551  ARG553  GLY616  TRP617  ASP618  TYR619  PRO620  LYS621  CYS622 
 ASP623  PHE694  ASN695  SER759  ASP760  ASP761  ALA762  ILE779  LEU786  VAL792 
 PHE793  MET794  SER795  GLU796  ALA797  LYS798  CYS799  TRP800  GLU811  SER814 

> <Gold.Protein.RotatedAtoms>
  151.3782  135.0935  159.9487 H   0  0  0  0  0  0  0  0  0  0  0  0  # atno 6907 bound_to 6896
  152.5116  133.9097  159.7492 H   0  0  0  0  0  0  0  0  0  0  0  0  # atno 6908 bound_to 6896
  150.9525  133.6478  159.2798 H   0  0  0  0  0  0  0  0  0  0  0  0  # atno 6909 bound_to 6896
  145.3607  139.2418  143.3508 H   0  0  0  0  0  0  0  0  0  0  0  0  # atno 7974 bound_to 7965
  154.4768  140.0902  156.7282 H   0  0  0  0  0  0  0  0  0  0  0  0  # atno 8008 bound_to 7997
  155.4574  140.3459  155.4290 H   0  0  0  0  0  0  0  0  0  0  0  0  # atno 8009 bound_to 7997
  156.1130  140.1453  156.9301 H   0  0  0  0  0  0  0  0  0  0  0  0  # atno 8010 bound_to 7997
  140.0057  144.5652  150.7700 H   0  0  0  0  0  0  0  0  0  0  0  0  # atno 10167 bound_to 10162
  156.2274  130.4170  149.8916 H   0  0  0  0  0  0  0  0  0  0  0  0  # atno 10718 bound_to 10713
  153.8726  135.6829  153.4773 H   0  0  0  0  0  0  0  0  0  0  0  0  # atno 10763 bound_to 10752
  153.1279  135.4711  154.9299 H   0  0  0  0  0  0  0  0  0  0  0  0  # atno 10764 bound_to 10752
  154.7707  135.3238  154.8146 H   0  0  0  0  0  0  0  0  0  0  0  0  # atno 10765 bound_to 10752
  140.7396  133.8681  155.8957 H   0  0  0  0  0  0  0  0  0  0  0  0  # atno 11005 bound_to 11000
  146.2928  140.4241  142.8733 LP  0  0  0  0  0  0  0  0  0  0  0  0  # atno 17320 bound_to 7965
  144.8648  140.7191  143.6084 LP  0  0  0  0  0  0  0  0  0  0  0  0  # atno 17321 bound_to 7965
  140.7401  143.2800  151.3626 LP  0  0  0  0  0  0  0  0  0  0  0  0  # atno 17342 bound_to 10162
  139.6240  144.0851  152.2417 LP  0  0  0  0  0  0  0  0  0  0  0  0  # atno 17343 bound_to 10162
  156.6542  130.8756  151.3536 LP  0  0  0  0  0  0  0  0  0  0  0  0  # atno 17370 bound_to 10713
  157.7117  130.9448  150.1112 LP  0  0  0  0  0  0  0  0  0  0  0  0  # atno 17371 bound_to 10713
  140.9848  134.1357  157.4462 LP  0  0  0  0  0  0  0  0  0  0  0  0  # atno 17394 bound_to 11000
  139.8809  135.0022  156.6112 LP  0  0  0  0  0  0  0  0  0  0  0  0  # atno 17395 bound_to 11000

$$$$
