AV-unprocessed.smi:1323|AV-procd|sdf|5467|dock5
  -GOLD-   22720 5 33D 1   1.00000     0.00000
 Structure written by MMmdl.
 45 46  0  0  0  0  0  0  0  0  1 V2000
  151.6084  141.4581  158.1075 C   0  0  0  0  0  0  0  0  0  0  0  0
  151.3042  142.7562  158.8698 C   0  0  2  0  0  0  0  0  0  0  0  0
  151.6359  144.0055  158.0291 C   0  0  0  0  0  0  0  0  0  0  0  0
  151.2657  145.2985  158.7721 C   0  0  0  0  0  0  0  0  0  0  0  0
  151.9471  145.3662  160.1470 C   0  0  0  0  0  0  0  0  0  0  0  0
  151.6317  144.1188  160.9905 C   0  0  0  0  0  0  0  0  0  0  0  0
  151.9980  142.8183  160.2519 C   0  0  2  0  0  0  0  0  0  0  0  0
  153.4108  142.8045  160.0909 O   0  0  0  0  0  0  0  0  0  0  0  0
  154.0741  141.7070  160.6978 C   0  0  0  0  0  0  0  0  0  0  0  0
  153.8659  140.4557  159.8327 C   0  0  0  0  0  0  0  0  0  0  0  0
  154.4838  139.2772  160.4330 N   0  0  0  0  0  0  0  0  0  0  0  0
  155.4192  138.5109  159.8504 C   0  0  0  0  0  0  0  0  0  0  0  0
  155.8777  138.7402  158.7304 O   0  0  0  0  0  0  0  0  0  0  0  0
  155.9267  137.3202  160.6760 C   0  0  0  0  0  0  0  0  0  0  0  0
  155.4455  137.3362  162.0675 N   0  0  0  0  0  0  0  0  0  0  0  0
  154.5578  136.3104  162.4494 C   0  0  0  0  0  0  0  0  0  0  0  0
  154.0458  136.2386  163.6882 C   0  0  0  0  0  0  0  0  0  0  0  0
  154.4265  137.2519  164.6437 C   0  0  0  0  0  0  0  0  0  0  0  0
  155.2757  138.2368  164.2893 C   0  0  0  0  0  0  0  0  0  0  0  0
  155.8421  138.3153  162.9380 C   0  0  0  0  0  0  0  0  0  0  0  0
  156.6260  139.2061  162.6112 O   0  0  0  0  0  0  0  0  0  0  0  0
  152.6664  141.3805  157.8575 H   0  0  0  0  0  0  0  0  0  0  0  0
  151.0464  141.4116  157.1744 H   0  0  0  0  0  0  0  0  0  0  0  0
  151.3389  140.5829  158.6987 H   0  0  0  0  0  0  0  0  0  0  0  0
  150.2282  142.7642  159.0497 H   0  0  0  0  0  0  0  0  0  0  0  0
  152.6990  144.0182  157.7872 H   0  0  0  0  0  0  0  0  0  0  0  0
  151.1060  143.9681  157.0769 H   0  0  0  0  0  0  0  0  0  0  0  0
  151.5503  146.1644  158.1740 H   0  0  0  0  0  0  0  0  0  0  0  0
  150.1837  145.3508  158.8974 H   0  0  0  0  0  0  0  0  0  0  0  0
  153.0261  145.4569  160.0145 H   0  0  0  0  0  0  0  0  0  0  0  0
  151.6263  146.2635  160.6767 H   0  0  0  0  0  0  0  0  0  0  0  0
  152.1633  144.1694  161.9413 H   0  0  0  0  0  0  0  0  0  0  0  0
  150.5686  144.1085  161.2340 H   0  0  0  0  0  0  0  0  0  0  0  0
  151.6693  141.9766  160.8651 H   0  0  0  0  0  0  0  0  0  0  0  0
  155.1382  141.9336  160.7753 H   0  0  0  0  0  0  0  0  0  0  0  0
  153.7063  141.5303  161.7091 H   0  0  0  0  0  0  0  0  0  0  0  0
  152.8038  140.2886  159.6454 H   0  0  0  0  0  0  0  0  0  0  0  0
  154.3297  140.6091  158.8583 H   0  0  0  0  0  0  0  0  0  0  0  0
  154.1694  139.0194  161.3572 H   0  0  0  0  0  0  0  0  0  0  0  0
  155.6087  136.4028  160.1786 H   0  0  0  0  0  0  0  0  0  0  0  0
  157.0179  137.2950  160.6477 H   0  0  0  0  0  0  0  0  0  0  0  0
  154.3174  135.5985  161.6730 H   0  0  0  0  0  0  0  0  0  0  0  0
  153.3636  135.4470  163.9611 H   0  0  0  0  0  0  0  0  0  0  0  0
  154.0265  137.2213  165.6465 H   0  0  0  0  0  0  0  0  0  0  0  0
  155.5474  138.9880  165.0165 H   0  0  0  0  0  0  0  0  0  0  0  0
  1  2  1  0  0  0  0
  1 22  1  0  0  0  0
  1 23  1  0  0  0  0
  1 24  1  0  0  0  0
  2  7  1  0  0  0  0
  2  3  1  0  0  0  0
  2 25  1  0  0  0  0
  3  4  1  0  0  0  0
  3 26  1  0  0  0  0
  3 27  1  0  0  0  0
  4  5  1  0  0  0  0
  4 28  1  0  0  0  0
  4 29  1  0  0  0  0
  5  6  1  0  0  0  0
  5 30  1  0  0  0  0
  5 31  1  0  0  0  0
  6  7  1  0  0  0  0
  6 32  1  0  0  0  0
  6 33  1  0  0  0  0
  7  8  1  0  0  0  0
  7 34  1  0  0  0  0
  8  9  1  0  0  0  0
  9 10  1  0  0  0  0
  9 35  1  0  0  0  0
  9 36  1  0  0  0  0
 10 11  1  0  0  0  0
 10 37  1  0  0  0  0
 10 38  1  0  0  0  0
 11 12  1  0  0  0  0
 11 39  1  0  0  0  0
 12 13  2  0  0  0  0
 12 14  1  0  0  0  0
 14 15  1  0  0  0  0
 14 40  1  0  0  0  0
 14 41  1  0  0  0  0
 15 20  1  0  0  0  0
 15 16  1  0  0  0  0
 16 17  2  0  0  0  0
 16 42  1  0  0  0  0
 17 18  1  0  0  0  0
 17 43  1  0  0  0  0
 18 19  2  0  0  0  0
 18 44  1  0  0  0  0
 19 20  1  0  0  0  0
 19 45  1  0  0  0  0
 20 21  2  0  0  0  0
M  END
> <s_m_source_file>
AV-unprocessed.smi

> <i_m_source_file_index>
1323

> <i_lp_mmshare_version>
43012

> <i_f3d_flags>
0

> <s_epik_input>
W0NIM11bQ0BASF0xW0NIMl1bQ0gyXVtDSDJdW0NIMl1bQ0BIXTFPW0NIMl1bQ0gyXVtOSF1DKD1PKVtDSDJdbjJbY0hdW2NIXVtjSF1bY0hdYzI9Tw==

> <s_epik_cmdline>
J2VwaWtfcHl0aG9uJywgJy1waCcsICc3LjAnLCAnLXRuJywgJzgnLCAnLW1hJywgJzIwMCcsICctbWV0YWxfYmluZGluZycsICctaW1hZScsICc8aW5maWxlLm1hZT4nLCAnLW9tYWUnLCAnPG91dGZpbGUubWFlPic=

> <r_lp_tautomer_probability>
1

> <r_epik_Ionization_Penalty>
4.02412e-07

> <r_epik_Ionization_Penalty_Charging>
3.74552e-07

> <r_epik_Ionization_Penalty_Neutral>
2.78599e-08

> <r_epik_State_Penalty>
-0

> <r_epik_Charging_Adjusted_Penalty>
3.74552e-07

> <i_epik_Tot_Q>
0

> <i_epik_Tot_abs_Q>
0

> <r_epik_Metal_State_Penalty>
-0

> <b_epik_Metal_Only>
0

> <s_lp_Force_Field>
OPLS_2005

> <r_lp_Energy>
19.1209

> <b_lp_Chiralities_Consistent>
1

> <s_lp_Variant>
AV-unprocessed.smi:1323-3

> <Gold.Version>
5.8.1

> <Gold.Id.Protein>
6NUR|6NUR_protein|mol2

> <Gold.PLP.Fitness>
45.0920

> <Gold.PLP.PLP>
-43.9349

> <Gold.PLP.part.hbond>
-1.0000

> <Gold.PLP.part.metal>
0.0000

> <Gold.PLP.part.buried>
-5.4128

> <Gold.PLP.part.nonpolar>
-37.7536

> <Gold.PLP.part.repulsive>
0.0702

> <Gold.PLP.ligand.clash>
0.0000

> <Gold.PLP.ligand.torsion>
0.9458

> <Gold.PLP.Chemscore.Hbond>
1.0000

> <Gold.PLP.Chemscore.CHOScore>
0.0000

> <Gold.PLP.Chemscore.Metal>
0.0000

> <Gold.Chemscore.Hbonds>
donor molecule, donor type, donor heavy atom, donor atom, acceptor molecule, acceptor atom, score
      P1  H  7997  8010       L1    13  1.00

> <Gold.PLP.Chemscore.Internal.Correction>
0.0487

> <Gold.Rescore>
     Score         DG    S(hbond)    S(metal)    S(lipo)     H(rot)  DE(clash)    DE(int)     intcor
     18.01     -19.11       1.00        0.00     130.48       1.94       0.03       1.07       ----

> <Gold.Chemscore.Fitness>
18.0114

> <Gold.Chemscore.DG>
-19.1090

> <Gold.Chemscore.ZeroCoef>
-5.4800

> <Gold.Chemscore.Hbond>
0.9966

> <Gold.Chemscore.Metal>
0.0000

> <Gold.Chemscore.Lipo>
130.4821

> <Gold.Chemscore.Internal_Hbond>
0.0000

> <Gold.Chemscore.DEClash>
0.0309

> <Gold.Chemscore.DEInternal>
1.0667

> <Gold.Chemscore.Rot>
1.9398

> <Gold.Chemscore.Internal.Correction>
   9.000000E+99

> <Gold.Chemscore.Hbonds>
donor molecule, donor type, donor heavy atom, donor atom, acceptor molecule, acceptor atom, score
      P1  H  7997  8010       L1    13  1.00

> <Gold.Chemscore.Hbond.Weighted>
-3.3286

> <Gold.Chemscore.Metal.Weighted>
-0.0000

> <Gold.Chemscore.Lipo.Weighted>
-15.2664

> <Gold.Chemscore.Internal_Hbond.Weighted>
0.0000

> <Gold.Chemscore.DEClash.Weighted>
0.0309

> <Gold.Chemscore.DEInternal.Weighted>
1.0667

> <Gold.Chemscore.Rot.Weighted>
4.9659

> <Gold.Chemscore.Internal.Correction.Weighted>
   9.000000E+99

> <Gold.Protein.RotatedTorsions>
[ 6907 6896 6895 6894 ] final   30.34 input  -60.11 | X-H torsion
[ 7974 7965 7964 7962 ] final -151.33 input  175.53 | X-H torsion
[ 8008 7997 7996 7995 ] final  -19.12 input   59.86 | X-H torsion
[ 10167 10162 10161 10158 ] final   44.12 input  -65.29 | X-H torsion
[ 10718 10713 10712 10709 ] final -133.61 input   66.30 | X-H torsion
[ 10763 10752 10751 10750 ] final  -80.78 input  -60.55 | X-H torsion
[ 11005 11000 10999 10996 ] final -167.65 input  -57.11 | X-H torsion

> <Gold.Protein.ActiveResidues>
 VAL166  LYS551  ARG553  GLY616  TRP617  ASP618  TYR619  PRO620  LYS621  CYS622 
 ASP623  PHE694  ASN695  SER759  ASP760  ASP761  ALA762  ILE779  LEU786  VAL792 
 PHE793  MET794  SER795  GLU796  ALA797  LYS798  CYS799  TRP800  GLU811  SER814 

> <Gold.Protein.RotatedAtoms>
  152.0446  134.9691  160.0574 H   0  0  0  0  0  0  0  0  0  0  0  0  # atno 6907 bound_to 6896
  152.1116  133.4299  159.4642 H   0  0  0  0  0  0  0  0  0  0  0  0  # atno 6908 bound_to 6896
  150.6844  134.2560  159.4573 H   0  0  0  0  0  0  0  0  0  0  0  0  # atno 6909 bound_to 6896
  144.7856  140.4812  143.5809 H   0  0  0  0  0  0  0  0  0  0  0  0  # atno 7974 bound_to 7965
  154.4858  140.2097  155.9658 H   0  0  0  0  0  0  0  0  0  0  0  0  # atno 8008 bound_to 7997
  156.1234  140.3209  155.8210 H   0  0  0  0  0  0  0  0  0  0  0  0  # atno 8009 bound_to 7997
  155.4427  140.0511  157.2999 H   0  0  0  0  0  0  0  0  0  0  0  0  # atno 8010 bound_to 7997
  140.3375  144.2512  150.6160 H   0  0  0  0  0  0  0  0  0  0  0  0  # atno 10167 bound_to 10162
  156.2467  130.7128  151.1012 H   0  0  0  0  0  0  0  0  0  0  0  0  # atno 10718 bound_to 10713
  154.5554  135.5649  153.6959 H   0  0  0  0  0  0  0  0  0  0  0  0  # atno 10763 bound_to 10752
  153.0002  135.6261  154.2317 H   0  0  0  0  0  0  0  0  0  0  0  0  # atno 10764 bound_to 10752
  154.2253  135.2868  155.2889 H   0  0  0  0  0  0  0  0  0  0  0  0  # atno 10765 bound_to 10752
  140.5509  134.5429  157.5122 H   0  0  0  0  0  0  0  0  0  0  0  0  # atno 11005 bound_to 11000
  145.5931  139.1497  143.3171 LP  0  0  0  0  0  0  0  0  0  0  0  0  # atno 17320 bound_to 7965
  146.2086  140.6056  142.9070 LP  0  0  0  0  0  0  0  0  0  0  0  0  # atno 17321 bound_to 7965
  140.5340  143.2237  151.8193 LP  0  0  0  0  0  0  0  0  0  0  0  0  # atno 17342 bound_to 10162
  139.4846  144.4684  151.9455 LP  0  0  0  0  0  0  0  0  0  0  0  0  # atno 17343 bound_to 10162
  157.7198  131.0688  150.6182 LP  0  0  0  0  0  0  0  0  0  0  0  0  # atno 17370 bound_to 10713
  156.6259  130.4418  149.5804 LP  0  0  0  0  0  0  0  0  0  0  0  0  # atno 17371 bound_to 10713
  139.9456  134.7709  156.0571 LP  0  0  0  0  0  0  0  0  0  0  0  0  # atno 17394 bound_to 11000
  141.1172  133.6624  156.3123 LP  0  0  0  0  0  0  0  0  0  0  0  0  # atno 17395 bound_to 11000

$$$$
