#       Name:                AV-unprocessed.smi:3181
#       Creating user name   scv26
#       Creation time:       Fri Mar 27 17:57:43 2020


#       File generated by GOLD software.
#

@<TRIPOS>MOLECULE
AV-unprocessed.smi:3181
    44    45     1
SMALL
NO_CHARGES


@<TRIPOS>ATOM
      1 ****        -1.5289  -2.4746  -1.8209 C.3            1 S1                 0.0000
      2 ****        -1.1299  -1.5654  -0.6470 C.3            1 S1                 0.0000
      3 ****        -1.6409  -2.0993   0.7089 C.3            1 S1                 0.0000
      4 ****        -3.0859  -2.2210   0.7590 N.pl3          1 S1                 0.0000
      5 ****        -3.8661  -3.3008   0.8314 C.2            1 S1                 0.0000
      6 ****        -5.1614  -3.0225   0.8691 N.2            1 S1                 0.0000
      7 ****        -5.1044  -1.6582   0.8206 C.2            1 S1                 0.0000
      8 ****        -3.8830  -1.1271   0.7568 N.2            1 S1                 0.0000
      9 ****         0.3435  -1.4184  -0.6137 N.4            1 S1                 1.0000
     10 ****         0.8601  -0.0309  -0.5611 C.3            1 S1                 0.0000
     11 ****         2.3780  -0.0353  -0.8168 C.3            1 S1                 0.0000
     12 ****         2.9747   1.3786  -0.7403 C.3            1 S1                 0.0000
     13 ****         2.6554   2.0524   0.6082 C.3            1 S1                 0.0000
     14 ****         3.3208   3.4333   0.7277 C.3            1 S1                 0.0000
     15 ****         1.1305   2.0777   0.8851 C.3            1 S1                 0.0000
     16 ****         0.3448   3.0740   0.0085 C.3            1 S1                 0.0000
     17 ****         0.5458   0.6525   0.7894 C.3            1 S1                 0.0000
     18 ****        -2.6122  -2.5511  -1.9187 H              1 S1                 0.0000
     19 ****        -1.1348  -3.4834  -1.6941 H              1 S1                 0.0000
     20 ****        -1.1482  -2.0843  -2.7653 H              1 S1                 0.0000
     21 ****        -1.5790  -0.5882  -0.8315 H              1 S1                 0.0000
     22 ****        -1.2074  -3.0791   0.9149 H              1 S1                 0.0000
     23 ****        -1.3308  -1.4477   1.5261 H              1 S1                 0.0000
     24 ****        -3.4808  -4.3099   0.8548 H              1 S1                 0.0000
     25 ****        -5.9890  -1.0385   0.8347 H              1 S1                 0.0000
     26 ****         0.7125  -1.9424   0.1669 H              1 S1                 0.0000
     27 ****         0.3862   0.5273  -1.3695 H              1 S1                 0.0000
     28 ****         2.8743  -0.6737  -0.0845 H              1 S1                 0.0000
     29 ****         2.5913  -0.4668  -1.7956 H              1 S1                 0.0000
     30 ****         4.0550   1.3204  -0.8778 H              1 S1                 0.0000
     31 ****         2.5969   1.9845  -1.5644 H              1 S1                 0.0000
     32 ****         3.1037   1.4320   1.3860 H              1 S1                 0.0000
     33 ****         3.0067   4.1048  -0.0717 H              1 S1                 0.0000
     34 ****         4.4062   3.3468   0.6717 H              1 S1                 0.0000
     35 ****         3.0784   3.9069   1.6793 H              1 S1                 0.0000
     36 ****         0.9927   2.4063   1.9163 H              1 S1                 0.0000
     37 ****         0.4635   2.8721  -1.0555 H              1 S1                 0.0000
     38 ****         0.6634   4.1009   0.1871 H              1 S1                 0.0000
     39 ****        -0.7212   3.0319   0.2336 H              1 S1                 0.0000
     40 ****        -0.5306   0.6973   0.9566 H              1 S1                 0.0000
     41 ****         0.9517   0.0476   1.6014 H              1 S1                 0.0000
     42 ****         0.6990  -1.8297  -1.4648 H              1 S1                 0.0000
     43 ****        -5.9513  -3.6337   0.9186 LP             1 S1                 0.0000
     44 ****        -3.6216  -0.1627   0.7172 LP             1 S1                 0.0000
@<TRIPOS>BOND
    1    1    2 1     
    2    1   18 1     
    3    1   19 1     
    4    1   20 1     
    5    2    3 1     
    6    2    9 1     
    7    2   21 1     
    8    3    4 1     
    9    3   22 1     
   10    3   23 1     
   11    4    8 1     
   12    4    5 1     
   13    5    6 2     
   14    5   24 1     
   15    6    7 1     
   16    7    8 2     
   17    7   25 1     
   18    9   10 1     
   19    9   26 1     
   20    9   42 1     
   21   10   17 1     
   22   10   11 1     
   23   10   27 1     
   24   11   12 1     
   25   11   28 1     
   26   11   29 1     
   27   12   13 1     
   28   12   30 1     
   29   12   31 1     
   30   13   14 1     
   31   13   15 1     
   32   13   32 1     
   33   14   33 1     
   34   14   34 1     
   35   14   35 1     
   36   15   16 1     
   37   15   17 1     
   38   15   36 1     
   39   16   37 1     
   40   16   38 1     
   41   16   39 1     
   42   17   40 1     
   43   17   41 1     
   44    6   43 1     
   45    8   44 1     
@<TRIPOS>SUBSTRUCTURE
      1 S1             1
@<TRIPOS>SET
LONE_PAIRS      STATIC     ATOMS    <user>   **** ""
2 43 44
DONOR_HYDROGENS      STATIC     ATOMS    <user>   **** ""
2 26 42
ATOM$BLUE        STATIC     ATOMS    COLORGROUP SYSTEM
2 43 44
ATOM$RED        STATIC     ATOMS    COLORGROUP SYSTEM
2 26 42
