#       Name:                AV-unprocessed.smi:48
#       Creating user name   scv26
#       Creation time:       Thu Mar 26 16:31:53 2020


#       File generated by GOLD software.
#

@<TRIPOS>MOLECULE
AV-unprocessed.smi:48
    41    43     1
SMALL
NO_CHARGES


@<TRIPOS>ATOM
      1 ****        -3.1363   2.7865  -0.8337 O.3            1 S1                 0.0000
      2 ****        -2.3347   1.6903  -1.2199 C.3            1 S1                 0.0000
      3 ****        -0.8759   1.9158  -0.7841 C.3            1 S1                 0.0000
      4 ****        -0.0374   0.8688  -1.2537 O.3            1 S1                 0.0000
      5 ****         1.1554   0.8844  -0.5335 C.3            1 S1                 0.0000
      6 ****         1.6037  -0.5298  -0.3305 N.pl3          1 S1                 0.0000
      7 ****         2.8652  -1.0021  -0.3979 C.2            1 S1                 0.0000
      8 ****         3.0469  -2.3039  -0.1799 N.2            1 S1                 0.0000
      9 ****         1.7497  -2.7272   0.0575 C.ar           1 S1                 0.0000
     10 ****         1.1952  -3.9945   0.3605 C.ar           1 S1                 0.0000
     11 ****         2.1965  -5.3934   0.4970 Cl             1 S1                 0.0000
     12 ****        -0.1438  -4.0865   0.5417 N.ar           1 S1                 0.0000
     13 ****        -0.8974  -2.9859   0.4285 C.ar           1 S1                 0.0000
     14 ****        -0.5190  -1.7339   0.1482 N.ar           1 S1                 0.0000
     15 ****         0.8318  -1.6418  -0.0323 C.ar           1 S1                 0.0000
     16 ****         0.8968   1.6372   0.7904 C.3            1 S1                 0.0000
     17 ****         1.2747   0.9525   1.9727 O.3            1 S1                 0.0000
     18 ****        -0.5946   1.9629   0.7256 C.3            1 S1                 0.0000
     19 ****        -1.3906   1.0244   1.4291 O.3            1 S1                 0.0000
     20 ****        -0.5091   2.8398  -1.2353 H              1 S1                 0.0000
     21 ****         1.9474   1.3425  -1.1278 H              1 S1                 0.0000
     22 ****         1.4659   2.5664   0.7408 H              1 S1                 0.0000
     23 ****        -0.8040   2.9504   1.1383 H              1 S1                 0.0000
     24 ****        -4.0174   2.6376  -1.1420 H              1 S1                 0.0000
     25 ****        -2.7423   0.7688  -0.8032 H              1 S1                 0.0000
     26 ****        -2.3853   1.5947  -2.3047 H              1 S1                 0.0000
     27 ****         3.6995  -0.3517  -0.6166 H              1 S1                 0.0000
     28 ****        -1.9565  -3.1282   0.5843 H              1 S1                 0.0000
     29 ****         0.7136   0.1972   2.0656 H              1 S1                 0.0000
     30 ****        -2.2988   1.2598   1.3154 H              1 S1                 0.0000
     31 ****        -2.7752   3.6271  -1.2375 LP             1 S1                 0.0000
     32 ****        -3.1371   2.8691   0.1629 LP             1 S1                 0.0000
     33 ****         0.1560   1.0045  -2.2254 LP             1 S1                 0.0000
     34 ****        -0.4953  -0.0108  -1.1247 LP             1 S1                 0.0000
     35 ****         3.8946  -2.8344  -0.1861 LP             1 S1                 0.0000
     36 ****        -0.5651  -4.9673   0.7578 LP             1 S1                 0.0000
     37 ****        -1.1482  -0.9598   0.0792 LP             1 S1                 0.0000
     38 ****         1.1659   1.5552   2.7632 LP             1 S1                 0.0000
     39 ****         2.2287   0.6601   1.9052 LP             1 S1                 0.0000
     40 ****        -1.1557   1.0433   2.4009 LP             1 S1                 0.0000
     41 ****        -1.2314   0.1065   1.0656 LP             1 S1                 0.0000
@<TRIPOS>BOND
    1    1    2 1     
    2    1   24 1     
    3    2    3 1     
    4    2   25 1     
    5    2   26 1     
    6    3   20 1     
    7    3   18 1     
    8    3    4 1     
    9    4    5 1     
   10    5   21 1     
   11    5    6 1     
   12    5   16 1     
   13    6   15 1     
   14    6    7 1     
   15    7    8 2     
   16    7   27 1     
   17    8    9 1     
   18    9   15 ar    
   19    9   10 ar    
   20   10   11 1     
   21   10   12 ar    
   22   12   13 ar    
   23   13   14 ar    
   24   13   28 1     
   25   14   15 ar    
   26   16   22 1     
   27   16   17 1     
   28   16   18 1     
   29   17   29 1     
   30   18   23 1     
   31   18   19 1     
   32   19   30 1     
   33    1   31 1     
   34    1   32 1     
   35    4   33 1     
   36    4   34 1     
   37    8   35 1     
   38   12   36 1     
   39   14   37 1     
   40   17   38 1     
   41   17   39 1     
   42   19   40 1     
   43   19   41 1     
@<TRIPOS>SUBSTRUCTURE
      1 S1             1
@<TRIPOS>SET
LONE_PAIRS      STATIC     ATOMS    <user>   **** ""
11 31 32 33 34 35 36 37 38 39 40 41
DONOR_HYDROGENS      STATIC     ATOMS    <user>   **** ""
3 24 29 30
ATOM$BLUE        STATIC     ATOMS    COLORGROUP SYSTEM
11 31 32 33 34 35 36 37 38 39 40 41
ATOM$RED        STATIC     ATOMS    COLORGROUP SYSTEM
3 24 29 30
