AV-unprocessed.smi:1437|AV-procd|sdf|5866|dock8
  -GOLD-   22720 5543D 1   1.00000     0.00000
 Structure written by MMmdl.
 35 36  0  0  0  0  0  0  0  0  3 V2000
  153.6551  138.3222  158.1427 C   0  0  0  0  0  0  0  0  0  0  0  0
  152.8375  137.9356  156.9579 C   0  0  0  0  0  0  0  0  0  0  0  0
  152.1507  138.6630  156.0274 C   0  0  0  0  0  0  0  0  0  0  0  0
  151.5933  137.6649  155.1820 C   0  0  0  0  0  0  0  0  0  0  0  0
  150.8332  137.8834  154.0980 N   0  5  0  0  0  0  0  0  0  0  0  0
  150.0113  138.9562  154.0477 C   0  0  0  0  0  0  0  0  0  0  0  0
  150.1748  140.0333  154.6250 O   0  0  0  0  0  0  0  0  0  0  0  0
  148.9346  138.7687  153.2717 N   0  0  0  0  0  0  0  0  0  0  0  0
  147.8789  139.7445  153.0034 C   0  0  2  0  0  0  0  0  0  0  0  0
  146.9471  139.8659  154.2222 C   0  0  0  0  0  0  0  0  0  0  0  0
  146.0891  138.6017  154.4164 C   0  0  0  0  0  0  0  0  0  0  0  0
  145.3197  138.2815  153.1882 N   0  3  2  0  0  0  0  0  0  0  0  0
  144.4031  137.1378  153.3824 C   0  0  0  0  0  0  0  0  0  0  0  0
  146.1995  138.1040  152.0062 C   0  0  0  0  0  0  0  0  0  0  0  0
  147.0527  139.3605  151.7594 C   0  0  0  0  0  0  0  0  0  0  0  0
  151.9266  136.4412  155.5564 N   0  0  0  0  0  0  0  0  0  0  0  0
  152.7199  136.6057  156.6981 O   0  0  0  0  0  0  0  0  0  0  0  0
  154.6144  138.7347  157.8304 H   0  0  0  0  0  0  0  0  0  0  0  0
  153.8493  137.4620  158.7839 H   0  0  0  0  0  0  0  0  0  0  0  0
  153.1395  139.0762  158.7375 H   0  0  0  0  0  0  0  0  0  0  0  0
  152.0586  139.7368  155.9627 H   0  0  0  0  0  0  0  0  0  0  0  0
  148.8433  137.8651  152.8311 H   0  0  0  0  0  0  0  0  0  0  0  0
  148.3486  140.7151  152.8346 H   0  0  0  0  0  0  0  0  0  0  0  0
  147.5279  140.0672  155.1235 H   0  0  0  0  0  0  0  0  0  0  0  0
  146.2903  140.7262  154.0875 H   0  0  0  0  0  0  0  0  0  0  0  0
  146.7197  137.7524  154.6846 H   0  0  0  0  0  0  0  0  0  0  0  0
  145.4000  138.7563  155.2475 H   0  0  0  0  0  0  0  0  0  0  0  0
  144.9589  136.2237  153.5957 H   0  0  0  0  0  0  0  0  0  0  0  0
  143.8003  136.9714  152.4890 H   0  0  0  0  0  0  0  0  0  0  0  0
  143.7216  137.3264  154.2126 H   0  0  0  0  0  0  0  0  0  0  0  0
  146.8403  137.2325  152.1515 H   0  0  0  0  0  0  0  0  0  0  0  0
  145.5897  137.9025  151.1249 H   0  0  0  0  0  0  0  0  0  0  0  0
  146.3963  140.1911  151.4964 H   0  0  0  0  0  0  0  0  0  0  0  0
  147.7019  139.2070  150.8967 H   0  0  0  0  0  0  0  0  0  0  0  0
  144.7397  139.0854  152.9954 H   0  0  0  0  0  0  0  0  0  0  0  0
  1  2  1  0  0  0  0
  1 18  1  0  0  0  0
  1 19  1  0  0  0  0
  1 20  1  0  0  0  0
  2 17  1  0  0  0  0
  2  3  2  0  0  0  0
  3  4  1  0  0  0  0
  3 21  1  0  0  0  0
  4  5  1  0  0  0  0
  4 16  2  0  0  0  0
  5  6  1  0  0  0  0
  6  7  2  0  0  0  0
  6  8  1  0  0  0  0
  8  9  1  0  0  0  0
  8 22  1  0  0  0  0
  9 15  1  0  0  0  0
  9 10  1  0  0  0  0
  9 23  1  0  0  0  0
 10 11  1  0  0  0  0
 10 24  1  0  0  0  0
 10 25  1  0  0  0  0
 11 12  1  0  0  0  0
 11 26  1  0  0  0  0
 11 27  1  0  0  0  0
 12 13  1  0  0  0  0
 12 14  1  0  0  0  0
 12 35  1  0  0  0  0
 13 28  1  0  0  0  0
 13 29  1  0  0  0  0
 13 30  1  0  0  0  0
 14 15  1  0  0  0  0
 14 31  1  0  0  0  0
 14 32  1  0  0  0  0
 15 33  1  0  0  0  0
 15 34  1  0  0  0  0
 16 17  1  0  0  0  0
M  CHG  1   5  -1
M  CHG  1  12   1
M  END
> <s_m_source_file>
AV-unprocessed.smi

> <i_m_source_file_index>
1437

> <i_lp_mmshare_version>
43012

> <i_f3d_flags>
0

> <s_epik_input>
W0NIM11jMVtjSF1jKG5vMSlbTkhdQyg9TylbTkhdW0NIXTJbQ0gyXVtDSDJdTihbQ0gzXSlbQ0gyXVtDSDJdMg==

> <s_epik_cmdline>
J2VwaWtfcHl0aG9uJywgJy1waCcsICc3LjAnLCAnLXRuJywgJzgnLCAnLW1hJywgJzIwMCcsICctbWV0YWxfYmluZGluZycsICctaW1hZScsICc8aW5maWxlLm1hZT4nLCAnLW9tYWUnLCAnPG91dGZpbGUubWFlPic=

> <r_epik_Ionization_Penalty>
6.28535

> <r_epik_Ionization_Penalty_Charging>
6.28525

> <r_epik_Ionization_Penalty_Neutral>
9.66055e-05

> <r_epik_State_Penalty>
6.28414

> <r_epik_Charging_Adjusted_Penalty>
12.5694

> <i_epik_Tot_Q>
0

> <i_epik_Tot_abs_Q>
2

> <r_epik_Metal_State_Penalty>
2.21724

> <b_epik_Metal_Only>
1

> <s_lp_Force_Field>
OPLS_2005

> <r_lp_Energy>
2.0091

> <b_lp_Chiralities_Consistent>
1

> <s_lp_Variant>
AV-unprocessed.smi:1437-4

> <Gold.Version>
5.8.1

> <Gold.Id.Protein>
6NUR|6NUR_protein|mol2

> <Gold.PLP.Fitness>
36.3909

> <Gold.PLP.PLP>
-22.5622

> <Gold.PLP.part.hbond>
-6.0000

> <Gold.PLP.part.metal>
0.0000

> <Gold.PLP.part.buried>
4.7865

> <Gold.PLP.part.nonpolar>
-21.9203

> <Gold.PLP.part.repulsive>
0.4708

> <Gold.PLP.ligand.clash>
0.0000

> <Gold.PLP.ligand.torsion>
0.5898

> <Gold.PLP.Chemscore.Hbond>
5.0000

> <Gold.PLP.Chemscore.CHOScore>
0.0000

> <Gold.PLP.Chemscore.Metal>
0.0000

> <Gold.Chemscore.Hbonds>
donor molecule, donor type, donor heavy atom, donor atom, acceptor molecule, acceptor atom, score
      L1  H     8    22       P1  7948  1.00
      L1  H    12    35       P1 10175  2.00
      P1  H  7989  7998       L1     7  1.00
      P1  H 10752 10764       L1    16  1.00

> <Gold.PLP.Chemscore.Internal.Correction>
0.0083

> <Gold.Rescore>
     Score         DG    S(hbond)    S(metal)    S(lipo)     H(rot)  DE(clash)    DE(int)     intcor
     13.64     -19.26       2.93        0.00      55.90       1.00       3.64       1.98       ----

> <Gold.Chemscore.Fitness>
13.6402

> <Gold.Chemscore.DG>
-19.2555

> <Gold.Chemscore.ZeroCoef>
-5.4800

> <Gold.Chemscore.Hbond>
2.9329

> <Gold.Chemscore.Metal>
0.0000

> <Gold.Chemscore.Lipo>
55.8956

> <Gold.Chemscore.Internal_Hbond>
0.0000

> <Gold.Chemscore.DEClash>
3.6392

> <Gold.Chemscore.DEInternal>
1.9761

> <Gold.Chemscore.Rot>
1.0000

> <Gold.Chemscore.Internal.Correction>
   9.000000E+99

> <Gold.Chemscore.Hbonds>
donor molecule, donor type, donor heavy atom, donor atom, acceptor molecule, acceptor atom, score
      L1  H     8    22       P1  7948  1.00
      L1  H    12    35       P1 10175  1.00
      P1  H  7989  7998       L1     7  0.28
      P1  H 10752 10764       L1    16  0.31

> <Gold.Chemscore.Hbond.Weighted>
-9.7957

> <Gold.Chemscore.Metal.Weighted>
-0.0000

> <Gold.Chemscore.Lipo.Weighted>
-6.5398

> <Gold.Chemscore.Internal_Hbond.Weighted>
0.0000

> <Gold.Chemscore.DEClash.Weighted>
3.6392

> <Gold.Chemscore.DEInternal.Weighted>
1.9761

> <Gold.Chemscore.Rot.Weighted>
2.5600

> <Gold.Chemscore.Internal.Correction.Weighted>
   9.000000E+99

> <Gold.Protein.RotatedTorsions>
[ 6907 6896 6895 6894 ] final -111.23 input  -60.11 | X-H torsion
[ 7974 7965 7964 7962 ] final  -51.29 input  175.53 | X-H torsion
[ 8008 7997 7996 7995 ] final -159.96 input   59.86 | X-H torsion
[ 10167 10162 10161 10158 ] final   81.73 input  -65.29 | X-H torsion
[ 10718 10713 10712 10709 ] final   58.89 input   66.30 | X-H torsion
[ 10763 10752 10751 10750 ] final  -62.61 input  -60.55 | X-H torsion
[ 11005 11000 10999 10996 ] final  -45.84 input  -57.11 | X-H torsion

> <Gold.Protein.ActiveResidues>
 VAL166  LYS551  ARG553  GLY616  TRP617  ASP618  TYR619  PRO620  LYS621  CYS622 
 ASP623  PHE694  ASN695  SER759  ASP760  ASP761  ALA762  ILE779  LEU786  VAL792 
 PHE793  MET794  SER795  GLU796  ALA797  LYS798  CYS799  TRP800  GLU811  SER814 

> <Gold.Protein.RotatedAtoms>
  150.7676  133.9266  159.3413 H   0  0  0  0  0  0  0  0  0  0  0  0  # atno 6907 bound_to 6896
  151.7160  135.0901  160.0285 H   0  0  0  0  0  0  0  0  0  0  0  0  # atno 6908 bound_to 6896
  152.3679  133.6343  159.6100 H   0  0  0  0  0  0  0  0  0  0  0  0  # atno 6909 bound_to 6896
  145.9205  140.7837  142.9649 H   0  0  0  0  0  0  0  0  0  0  0  0  # atno 7974 bound_to 7965
  155.7704  140.0851  157.2111 H   0  0  0  0  0  0  0  0  0  0  0  0  # atno 8008 bound_to 7997
  154.3996  140.1526  156.2992 H   0  0  0  0  0  0  0  0  0  0  0  0  # atno 8009 bound_to 7997
  155.8753  140.3423  155.5852 H   0  0  0  0  0  0  0  0  0  0  0  0  # atno 8010 bound_to 7997
  139.9361  144.6120  150.8297 H   0  0  0  0  0  0  0  0  0  0  0  0  # atno 10167 bound_to 10162
  157.5632  130.8851  149.9145 H   0  0  0  0  0  0  0  0  0  0  0  0  # atno 10718 bound_to 10713
  154.3024  135.6232  153.5430 H   0  0  0  0  0  0  0  0  0  0  0  0  # atno 10763 bound_to 10752
  152.9839  135.5681  154.5269 H   0  0  0  0  0  0  0  0  0  0  0  0  # atno 10764 bound_to 10752
  154.4902  135.2867  155.1479 H   0  0  0  0  0  0  0  0  0  0  0  0  # atno 10765 bound_to 10752
  141.0541  133.6732  156.3070 H   0  0  0  0  0  0  0  0  0  0  0  0  # atno 11005 bound_to 11000
  144.6752  140.1968  143.7391 LP  0  0  0  0  0  0  0  0  0  0  0  0  # atno 17320 bound_to 7965
  145.8556  139.2197  143.1747 LP  0  0  0  0  0  0  0  0  0  0  0  0  # atno 17321 bound_to 7965
  140.7624  143.3197  151.2651 LP  0  0  0  0  0  0  0  0  0  0  0  0  # atno 17342 bound_to 10162
  139.6742  143.9967  152.2771 LP  0  0  0  0  0  0  0  0  0  0  0  0  # atno 17343 bound_to 10162
  156.0683  130.3689  150.0831 LP  0  0  0  0  0  0  0  0  0  0  0  0  # atno 17370 bound_to 10713
  156.8992  130.9614  151.3578 LP  0  0  0  0  0  0  0  0  0  0  0  0  # atno 17371 bound_to 10713
  140.5998  134.5566  157.5515 LP  0  0  0  0  0  0  0  0  0  0  0  0  # atno 17394 bound_to 11000
  139.9375  134.7848  156.0764 LP  0  0  0  0  0  0  0  0  0  0  0  0  # atno 17395 bound_to 11000

$$$$
