AV-unprocessed.smi:738|AV-procd|sdf|3538|dock5
  -GOLD-   22720 0533D 1   1.00000     0.00000
 Structure written by MMmdl.
 35 37  0  0  0  0  0  0  0  0  1 V2000
  144.1432  138.0928  152.5898 N   0  0  0  0  0  0  0  0  0  0  0  0
  144.8385  137.1641  153.2538 C   0  0  0  0  0  0  0  0  0  0  0  0
  144.4489  136.0034  153.3663 O   0  0  0  0  0  0  0  0  0  0  0  0
  146.1657  137.5978  153.8053 C   0  0  0  0  0  0  0  0  0  0  0  0
  146.5941  138.9368  153.6770 C   0  0  0  0  0  0  0  0  0  0  0  0
  147.7825  139.3857  154.1325 N   0  0  0  0  0  0  0  0  0  0  0  0
  148.6197  138.5108  154.7399 C   0  0  0  0  0  0  0  0  0  0  0  0
  149.8623  138.9920  155.1923 N   0  0  0  0  0  0  0  0  0  0  0  0
  150.9680  138.3669  154.4811 C   0  0  0  0  0  0  0  0  0  0  0  0
  152.2852  138.6731  155.2052 C   0  0  0  0  0  0  0  0  0  0  0  0
  152.4743  140.0823  155.2925 O   0  0  0  0  0  0  0  0  0  0  0  0
  151.3955  140.7965  155.9001 C   0  0  2  0  0  0  0  0  0  0  0  0
  151.2659  140.6337  157.4218 C   0  0  0  0  0  0  0  0  0  0  0  0
  149.7865  140.9073  157.7346 C   0  0  0  0  0  0  0  0  0  0  0  0
  149.0647  141.0413  156.3834 C   0  0  0  0  0  0  0  0  0  0  0  0
  150.0121  140.4437  155.3294 C   0  0  2  0  0  0  0  0  0  0  0  0
  148.2891  137.1440  154.9043 C   0  0  0  0  0  0  0  0  0  0  0  0
  149.3630  136.0366  155.6863 Cl  0  0  0  0  0  0  0  0  0  0  0  0
  147.0463  136.6851  154.4269 C   0  0  0  0  0  0  0  0  0  0  0  0
  143.2456  137.8556  152.1927 H   0  0  0  0  0  0  0  0  0  0  0  0
  144.5163  139.0248  152.4820 H   0  0  0  0  0  0  0  0  0  0  0  0
  145.9683  139.6766  153.1991 H   0  0  0  0  0  0  0  0  0  0  0  0
  150.8230  137.2877  154.4195 H   0  0  0  0  0  0  0  0  0  0  0  0
  151.0028  138.7458  153.4587 H   0  0  0  0  0  0  0  0  0  0  0  0
  152.2979  138.2175  156.1953 H   0  0  0  0  0  0  0  0  0  0  0  0
  153.1223  138.2433  154.6551 H   0  0  0  0  0  0  0  0  0  0  0  0
  151.5751  141.8546  155.7045 H   0  0  0  0  0  0  0  0  0  0  0  0
  151.5111  139.6199  157.7355 H   0  0  0  0  0  0  0  0  0  0  0  0
  151.9343  141.3073  157.9586 H   0  0  0  0  0  0  0  0  0  0  0  0
  149.3690  140.0806  158.3103 H   0  0  0  0  0  0  0  0  0  0  0  0
  149.6645  141.8122  158.3304 H   0  0  0  0  0  0  0  0  0  0  0  0
  148.0714  140.5920  156.3946 H   0  0  0  0  0  0  0  0  0  0  0  0
  148.9255  142.1007  156.1651 H   0  0  0  0  0  0  0  0  0  0  0  0
  149.8716  140.9157  154.3559 H   0  0  0  0  0  0  0  0  0  0  0  0
  146.7822  135.6435  154.5396 H   0  0  0  0  0  0  0  0  0  0  0  0
  1  2  1  0  0  0  0
  1 20  1  0  0  0  0
  1 21  1  0  0  0  0
  2  3  2  0  0  0  0
  2  4  1  0  0  0  0
  4 19  1  0  0  0  0
  4  5  2  0  0  0  0
  5  6  1  0  0  0  0
  5 22  1  0  0  0  0
  6  7  2  0  0  0  0
  7  8  1  0  0  0  0
  7 17  1  0  0  0  0
  8 16  1  0  0  0  0
  8  9  1  0  0  0  0
  9 10  1  0  0  0  0
  9 23  1  0  0  0  0
  9 24  1  0  0  0  0
 10 11  1  0  0  0  0
 10 25  1  0  0  0  0
 10 26  1  0  0  0  0
 11 12  1  0  0  0  0
 12 16  1  0  0  0  0
 12 13  1  0  0  0  0
 12 27  1  0  0  0  0
 13 14  1  0  0  0  0
 13 28  1  0  0  0  0
 13 29  1  0  0  0  0
 14 15  1  0  0  0  0
 14 30  1  0  0  0  0
 14 31  1  0  0  0  0
 15 16  1  0  0  0  0
 15 32  1  0  0  0  0
 15 33  1  0  0  0  0
 16 34  1  0  0  0  0
 17 18  1  0  0  0  0
 17 19  2  0  0  0  0
 19 35  1  0  0  0  0
M  END
> <s_m_source_file>
AV-unprocessed.smi

> <i_m_source_file_index>
738

> <i_lp_mmshare_version>
43012

> <i_f3d_flags>
0

> <s_epik_input>
W05IMl1DKD1PKWMxW2NIXW5jKGMoQ2wpW2NIXTEpTihbQ0gyXVtDSDJdTzIpW0NASF0oW0NASF0yMylbQ0gyXVtDSDJdW0NIMl0z

> <s_epik_cmdline>
J2VwaWtfcHl0aG9uJywgJy1waCcsICc3LjAnLCAnLXRuJywgJzgnLCAnLW1hJywgJzIwMCcsICctbWV0YWxfYmluZGluZycsICctaW1hZScsICc8aW5maWxlLm1hZT4nLCAnLW9tYWUnLCAnPG91dGZpbGUubWFlPic=

> <r_lp_tautomer_probability>
1

> <r_epik_Ionization_Penalty>
6.75978e-06

> <r_epik_Ionization_Penalty_Charging>
0

> <r_epik_Ionization_Penalty_Neutral>
6.75978e-06

> <r_epik_State_Penalty>
-0

> <r_epik_Charging_Adjusted_Penalty>
0

> <i_epik_Tot_Q>
0

> <i_epik_Tot_abs_Q>
0

> <r_epik_Metal_State_Penalty>
-0

> <b_epik_Metal_Only>
0

> <s_lp_Force_Field>
OPLS_2005

> <r_lp_Energy>
42.794

> <b_lp_Chiralities_Consistent>
1

> <s_lp_Variant>
AV-unprocessed.smi:738-1

> <Gold.Version>
5.8.1

> <Gold.Id.Protein>
6NUR|6NUR_protein|mol2

> <Gold.PLP.Fitness>
31.1342

> <Gold.PLP.PLP>
-23.6533

> <Gold.PLP.part.hbond>
-3.5732

> <Gold.PLP.part.metal>
0.0000

> <Gold.PLP.part.buried>
-2.4734

> <Gold.PLP.part.nonpolar>
-17.1235

> <Gold.PLP.part.repulsive>
0.3169

> <Gold.PLP.ligand.clash>
0.0000

> <Gold.PLP.ligand.torsion>
0.2414

> <Gold.PLP.Chemscore.Hbond>
1.5990

> <Gold.PLP.Chemscore.CHOScore>
1.0000

> <Gold.PLP.Chemscore.Metal>
0.0000

> <Gold.Chemscore.Hbonds>
donor molecule, donor type, donor heavy atom, donor atom, acceptor molecule, acceptor atom, score
      L1  H     1    21       P1 10175  0.54
      P1  H  7989  7998       L1    11  0.10
      P1  H  7997  8010       L1    11  0.94
      L1  C     5    22       P1 10175  1.00

> <Gold.PLP.Chemscore.Internal.Correction>
0.1669

> <Gold.Rescore>
     Score         DG    S(hbond)    S(metal)    S(lipo)     H(rot)  DE(clash)    DE(int)     intcor
     13.30     -13.64       1.36        0.00      52.68       1.00       0.00       0.34       ----

> <Gold.Chemscore.Fitness>
13.2985

> <Gold.Chemscore.DG>
-13.6414

> <Gold.Chemscore.ZeroCoef>
-5.4800

> <Gold.Chemscore.Hbond>
1.3646

> <Gold.Chemscore.Metal>
0.0000

> <Gold.Chemscore.Lipo>
52.6809

> <Gold.Chemscore.Internal_Hbond>
0.0000

> <Gold.Chemscore.DEClash>
0.0038

> <Gold.Chemscore.DEInternal>
0.3392

> <Gold.Chemscore.Rot>
1.0000

> <Gold.Chemscore.Internal.Correction>
   9.000000E+99

> <Gold.Chemscore.Hbonds>
donor molecule, donor type, donor heavy atom, donor atom, acceptor molecule, acceptor atom, score
      L1  H     1    21       P1 10175  0.54
      P1  H  7997  8010       L1    11  0.31

> <Gold.Chemscore.Hbond.Weighted>
-4.5578

> <Gold.Chemscore.Metal.Weighted>
-0.0000

> <Gold.Chemscore.Lipo.Weighted>
-6.1637

> <Gold.Chemscore.Internal_Hbond.Weighted>
0.0000

> <Gold.Chemscore.DEClash.Weighted>
0.0038

> <Gold.Chemscore.DEInternal.Weighted>
0.3392

> <Gold.Chemscore.Rot.Weighted>
2.5600

> <Gold.Chemscore.Internal.Correction.Weighted>
   9.000000E+99

> <Gold.Protein.RotatedTorsions>
[ 6907 6896 6895 6894 ] final -169.83 input  -60.11 | X-H torsion
[ 7974 7965 7964 7962 ] final -111.11 input  175.53 | X-H torsion
[ 8008 7997 7996 7995 ] final   98.12 input   59.86 | X-H torsion
[ 10167 10162 10161 10158 ] final  155.10 input  -65.29 | X-H torsion
[ 10718 10713 10712 10709 ] final  -81.31 input   66.30 | X-H torsion
[ 10763 10752 10751 10750 ] final  -34.98 input  -60.55 | X-H torsion
[ 11005 11000 10999 10996 ] final    3.37 input  -57.11 | X-H torsion

> <Gold.Protein.ActiveResidues>
 VAL166  LYS551  ARG553  GLY616  TRP617  ASP618  TYR619  PRO620  LYS621  CYS622 
 ASP623  PHE694  ASN695  SER759  ASP760  ASP761  ALA762  ILE779  LEU786  VAL792 
 PHE793  MET794  SER795  GLU796  ALA797  LYS798  CYS799  TRP800  GLU811  SER814 

> <Gold.Protein.RotatedAtoms>
  151.4979  133.3510  159.2863 H   0  0  0  0  0  0  0  0  0  0  0  0  # atno 6907 bound_to 6896
  150.8792  134.8182  159.7223 H   0  0  0  0  0  0  0  0  0  0  0  0  # atno 6908 bound_to 6896
  152.4751  134.4875  159.9736 H   0  0  0  0  0  0  0  0  0  0  0  0  # atno 6909 bound_to 6896
  145.1601  140.8874  143.3596 H   0  0  0  0  0  0  0  0  0  0  0  0  # atno 7974 bound_to 7965
  156.0972  140.3248  155.7894 H   0  0  0  0  0  0  0  0  0  0  0  0  # atno 8008 bound_to 7997
  155.4897  140.0560  157.2972 H   0  0  0  0  0  0  0  0  0  0  0  0  # atno 8009 bound_to 7997
  154.4674  140.1995  156.0098 H   0  0  0  0  0  0  0  0  0  0  0  0  # atno 8010 bound_to 7997
  139.4822  144.5128  151.7997 H   0  0  0  0  0  0  0  0  0  0  0  0  # atno 10167 bound_to 10162
  156.0053  130.4600  150.3933 H   0  0  0  0  0  0  0  0  0  0  0  0  # atno 10718 bound_to 10713
  153.8557  135.6845  153.4788 H   0  0  0  0  0  0  0  0  0  0  0  0  # atno 10763 bound_to 10752
  153.1371  135.4673  154.9437 H   0  0  0  0  0  0  0  0  0  0  0  0  # atno 10764 bound_to 10752
  154.7782  135.3260  154.7996 H   0  0  0  0  0  0  0  0  0  0  0  0  # atno 10765 bound_to 10752
  140.5939  133.9899  155.8101 H   0  0  0  0  0  0  0  0  0  0  0  0  # atno 11005 bound_to 11000
  145.0340  139.3316  143.6010 LP  0  0  0  0  0  0  0  0  0  0  0  0  # atno 17320 bound_to 7965
  146.3483  139.9688  142.8708 LP  0  0  0  0  0  0  0  0  0  0  0  0  # atno 17321 bound_to 7965
  140.4634  144.1690  150.5909 LP  0  0  0  0  0  0  0  0  0  0  0  0  # atno 17342 bound_to 10162
  140.4460  143.2506  151.9410 LP  0  0  0  0  0  0  0  0  0  0  0  0  # atno 17343 bound_to 10162
  157.2006  131.0437  151.2652 LP  0  0  0  0  0  0  0  0  0  0  0  0  # atno 17370 bound_to 10713
  157.3979  130.7317  149.6745 LP  0  0  0  0  0  0  0  0  0  0  0  0  # atno 17371 bound_to 10713
  141.0917  133.9906  157.3226 LP  0  0  0  0  0  0  0  0  0  0  0  0  # atno 17394 bound_to 11000
  139.9262  135.0201  156.8242 LP  0  0  0  0  0  0  0  0  0  0  0  0  # atno 17395 bound_to 11000

$$$$
