AV-unprocessed.smi:2973|AV-procd|sdf|11346|dock6
  -GOLD-   2272016263D 1   1.00000     0.00000
 Structure written by MMmdl.
 48 50  0  0  0  0  0  0  0  0  2 V2000
  151.4160  144.2570  156.9827 C   0  0  0  0  0  0  0  0  0  0  0  0
  152.0324  143.2652  157.9937 C   0  0  1  0  0  0  0  0  0  0  0  0
  152.6056  144.0158  159.2152 C   0  0  0  0  0  0  0  0  0  0  0  0
  153.3210  143.0659  160.1870 C   0  0  0  0  0  0  0  0  0  0  0  0
  152.3877  141.9388  160.6476 C   0  0  0  0  0  0  0  0  0  0  0  0
  151.8094  141.1688  159.4482 C   0  0  0  0  0  0  0  0  0  0  0  0
  151.0921  142.0941  158.4307 C   0  0  1  0  0  0  0  0  0  0  0  0
  149.8419  142.5833  158.9907 N   0  5  0  0  0  0  0  0  0  0  0  0
  148.8127  142.1152  158.2478 C   0  0  0  0  0  0  0  0  0  0  0  0
  147.6147  142.3201  158.4389 O   0  0  0  0  0  0  0  0  0  0  0  0
  149.2585  141.3539  157.2300 N   0  0  0  0  0  0  0  0  0  0  0  0
  148.4037  140.6710  156.2458 C   0  0  0  0  0  0  0  0  0  0  0  0
  148.2398  139.1570  156.4659 C   0  0  0  0  0  0  0  0  0  0  0  0
  148.3388  138.4001  155.5004 O   0  0  0  0  0  0  0  0  0  0  0  0
  147.9891  138.7157  157.7103 N   0  0  0  0  0  0  0  0  0  0  0  0
  147.7815  137.3228  158.0862 C   0  0  0  0  0  0  0  0  0  0  0  0
  148.7036  136.9103  159.2460 C   0  0  0  0  0  0  0  0  0  0  0  0
  147.9372  136.3027  160.4058 C   0  0  0  0  0  0  0  0  0  0  0  0
  147.7132  134.9107  160.4708 C   0  0  0  0  0  0  0  0  0  0  0  0
  146.9971  134.3966  161.5689 C   0  0  0  0  0  0  0  0  0  0  0  0
  146.5349  135.2890  162.5551 C   0  0  0  0  0  0  0  0  0  0  0  0
  146.8128  136.6617  162.3997 C   0  0  0  0  0  0  0  0  0  0  0  0
  147.4995  137.1650  161.3513 N   0  0  0  0  0  0  0  0  0  0  0  0
  150.5936  141.2736  157.2499 C   0  0  0  0  0  0  0  0  0  0  0  0
  151.3197  140.6519  156.4728 O   0  0  0  0  0  0  0  0  0  0  0  0
  150.5602  144.7823  157.4071 H   0  0  0  0  0  0  0  0  0  0  0  0
  151.0830  143.7583  156.0727 H   0  0  0  0  0  0  0  0  0  0  0  0
  152.1452  145.0108  156.6855 H   0  0  0  0  0  0  0  0  0  0  0  0
  152.8861  142.8120  157.4862 H   0  0  0  0  0  0  0  0  0  0  0  0
  153.3055  144.7838  158.8847 H   0  0  0  0  0  0  0  0  0  0  0  0
  151.8045  144.5389  159.7392 H   0  0  0  0  0  0  0  0  0  0  0  0
  154.2000  142.6391  159.7027 H   0  0  0  0  0  0  0  0  0  0  0  0
  153.6828  143.6232  161.0513 H   0  0  0  0  0  0  0  0  0  0  0  0
  152.9283  141.2536  161.3008 H   0  0  0  0  0  0  0  0  0  0  0  0
  151.5760  142.3558  161.2447 H   0  0  0  0  0  0  0  0  0  0  0  0
  152.6275  140.6452  158.9507 H   0  0  0  0  0  0  0  0  0  0  0  0
  151.1322  140.3914  159.8072 H   0  0  0  0  0  0  0  0  0  0  0  0
  147.4120  141.1261  156.2442 H   0  0  0  0  0  0  0  0  0  0  0  0
  148.7957  140.8295  155.2399 H   0  0  0  0  0  0  0  0  0  0  0  0
  147.9183  139.4034  158.4472 H   0  0  0  0  0  0  0  0  0  0  0  0
  146.7355  137.1568  158.3492 H   0  0  0  0  0  0  0  0  0  0  0  0
  147.9843  136.7059  157.2103 H   0  0  0  0  0  0  0  0  0  0  0  0
  149.4443  136.1899  158.8948 H   0  0  0  0  0  0  0  0  0  0  0  0
  149.2648  137.7732  159.6069 H   0  0  0  0  0  0  0  0  0  0  0  0
  148.0820  134.2515  159.6987 H   0  0  0  0  0  0  0  0  0  0  0  0
  146.8057  133.3371  161.6535 H   0  0  0  0  0  0  0  0  0  0  0  0
  145.9816  134.9307  163.4104 H   0  0  0  0  0  0  0  0  0  0  0  0
  146.4736  137.3743  163.1368 H   0  0  0  0  0  0  0  0  0  0  0  0
  1  2  1  0  0  0  0
  1 26  1  0  0  0  0
  1 27  1  0  0  0  0
  1 28  1  0  0  0  0
  2  7  1  0  0  0  0
  2  3  1  0  0  0  0
  2 29  1  0  0  0  0
  3  4  1  0  0  0  0
  3 30  1  0  0  0  0
  3 31  1  0  0  0  0
  4  5  1  0  0  0  0
  4 32  1  0  0  0  0
  4 33  1  0  0  0  0
  5  6  1  0  0  0  0
  5 34  1  0  0  0  0
  5 35  1  0  0  0  0
  6  7  1  0  0  0  0
  6 36  1  0  0  0  0
  6 37  1  0  0  0  0
  7 24  1  0  0  0  0
  7  8  1  0  0  0  0
  8  9  1  0  0  0  0
  9 10  2  0  0  0  0
  9 11  1  0  0  0  0
 11 12  1  0  0  0  0
 11 24  1  0  0  0  0
 12 13  1  0  0  0  0
 12 38  1  0  0  0  0
 12 39  1  0  0  0  0
 13 14  2  0  0  0  0
 13 15  1  0  0  0  0
 15 16  1  0  0  0  0
 15 40  1  0  0  0  0
 16 17  1  0  0  0  0
 16 41  1  0  0  0  0
 16 42  1  0  0  0  0
 17 18  1  0  0  0  0
 17 43  1  0  0  0  0
 17 44  1  0  0  0  0
 18 23  1  0  0  0  0
 18 19  2  0  0  0  0
 19 20  1  0  0  0  0
 19 45  1  0  0  0  0
 20 21  2  0  0  0  0
 20 46  1  0  0  0  0
 21 22  1  0  0  0  0
 21 47  1  0  0  0  0
 22 23  2  0  0  0  0
 22 48  1  0  0  0  0
 24 25  2  0  0  0  0
M  CHG  1   8  -1
M  END
> <s_m_source_file>
AV-unprocessed.smi

> <i_m_source_file_index>
2973

> <i_lp_mmshare_version>
43012

> <i_f3d_flags>
0

> <s_epik_input>
W0NIMl0xW0NIMl1bQ0gyXVtDSDJdW0NAQEhdKFtDSDNdKVtDQF0xMltOSF1DKD1PKU4oQzI9TylbQ0gyXUMoPU8pW05IXVtDSDJdW0NIMl1jM1tjSF1bY0hdW2NIXVtjSF1uMw==

> <s_epik_cmdline>
J2VwaWtfcHl0aG9uJywgJy1waCcsICc3LjAnLCAnLXRuJywgJzgnLCAnLW1hJywgJzIwMCcsICctbWV0YWxfYmluZGluZycsICctaW1hZScsICc8aW5maWxlLm1hZT4nLCAnLW9tYWUnLCAnPG91dGZpbGUubWFlPic=

> <r_lp_tautomer_probability>
1

> <r_epik_Ionization_Penalty>
6.04175

> <r_epik_Ionization_Penalty_Charging>
6.01728

> <r_epik_Ionization_Penalty_Neutral>
0.0244696

> <r_epik_State_Penalty>
6.03712

> <r_epik_Charging_Adjusted_Penalty>
12.0544

> <i_epik_Tot_Q>
-1

> <i_epik_Tot_abs_Q>
1

> <r_epik_Metal_State_Penalty>
2.01153

> <b_epik_Metal_Only>
1

> <s_lp_Force_Field>
OPLS_2005

> <r_lp_Energy>
16.8957

> <b_lp_Chiralities_Consistent>
1

> <s_lp_Variant>
AV-unprocessed.smi:2973-10

> <Gold.Version>
5.8.1

> <Gold.Id.Protein>
6NUR|6NUR_protein|mol2

> <Gold.PLP.Fitness>
47.9958

> <Gold.PLP.PLP>
-45.0223

> <Gold.PLP.part.hbond>
-3.0256

> <Gold.PLP.part.metal>
0.0000

> <Gold.PLP.part.buried>
-3.8590

> <Gold.PLP.part.nonpolar>
-37.2242

> <Gold.PLP.part.repulsive>
0.3500

> <Gold.PLP.ligand.clash>
0.0000

> <Gold.PLP.ligand.torsion>
1.1530

> <Gold.PLP.Chemscore.Hbond>
1.7520

> <Gold.PLP.Chemscore.CHOScore>
0.0000

> <Gold.PLP.Chemscore.Metal>
0.0000

> <Gold.Chemscore.Hbonds>
donor molecule, donor type, donor heavy atom, donor atom, acceptor molecule, acceptor atom, score
      P1  H  6931  6943       L1    23  0.93
      P1  H  6934  6947       L1    23  0.91

> <Gold.PLP.Chemscore.Internal.Correction>
0.0235

> <Gold.Rescore>
     Score         DG    S(hbond)    S(metal)    S(lipo)     H(rot)  DE(clash)    DE(int)     intcor
     18.11     -18.97       1.41        0.00     114.56       1.81       0.03       0.83       ----

> <Gold.Chemscore.Fitness>
18.1123

> <Gold.Chemscore.DG>
-18.9703

> <Gold.Chemscore.ZeroCoef>
-5.4800

> <Gold.Chemscore.Hbond>
1.4125

> <Gold.Chemscore.Metal>
0.0000

> <Gold.Chemscore.Lipo>
114.5600

> <Gold.Chemscore.Internal_Hbond>
0.0000

> <Gold.Chemscore.DEClash>
0.0271

> <Gold.Chemscore.DEInternal>
0.8309

> <Gold.Chemscore.Rot>
1.8090

> <Gold.Chemscore.Internal.Correction>
   9.000000E+99

> <Gold.Chemscore.Hbonds>
donor molecule, donor type, donor heavy atom, donor atom, acceptor molecule, acceptor atom, score
      P1  H  6931  6943       L1    23  0.50
      P1  H  6934  6947       L1    23  0.80

> <Gold.Chemscore.Hbond.Weighted>
-4.7178

> <Gold.Chemscore.Metal.Weighted>
-0.0000

> <Gold.Chemscore.Lipo.Weighted>
-13.4035

> <Gold.Chemscore.Internal_Hbond.Weighted>
0.0000

> <Gold.Chemscore.DEClash.Weighted>
0.0271

> <Gold.Chemscore.DEInternal.Weighted>
0.8309

> <Gold.Chemscore.Rot.Weighted>
4.6310

> <Gold.Chemscore.Internal.Correction.Weighted>
   9.000000E+99

> <Gold.Protein.RotatedTorsions>
[ 6907 6896 6895 6894 ] final  164.21 input  -60.11 | X-H torsion
[ 7974 7965 7964 7962 ] final  165.77 input  175.53 | X-H torsion
[ 8008 7997 7996 7995 ] final   67.63 input   59.86 | X-H torsion
[ 10167 10162 10161 10158 ] final -139.42 input  -65.29 | X-H torsion
[ 10718 10713 10712 10709 ] final  110.13 input   66.30 | X-H torsion
[ 10763 10752 10751 10750 ] final   39.81 input  -60.55 | X-H torsion
[ 11005 11000 10999 10996 ] final  170.56 input  -57.11 | X-H torsion

> <Gold.Protein.ActiveResidues>
 VAL166  LYS551  ARG553  GLY616  TRP617  ASP618  TYR619  PRO620  LYS621  CYS622 
 ASP623  PHE694  ASN695  SER759  ASP760  ASP761  ALA762  ILE779  LEU786  VAL792 
 PHE793  MET794  SER795  GLU796  ALA797  LYS798  CYS799  TRP800  GLU811  SER814 

> <Gold.Protein.RotatedAtoms>
  151.9134  133.3567  159.3871 H   0  0  0  0  0  0  0  0  0  0  0  0  # atno 6907 bound_to 6896
  150.7053  134.4709  159.5434 H   0  0  0  0  0  0  0  0  0  0  0  0  # atno 6908 bound_to 6896
  152.2319  134.8313  160.0523 H   0  0  0  0  0  0  0  0  0  0  0  0  # atno 6909 bound_to 6896
  144.7489  139.8519  143.6373 H   0  0  0  0  0  0  0  0  0  0  0  0  # atno 7974 bound_to 7965
  155.6959  140.3495  155.4913 H   0  0  0  0  0  0  0  0  0  0  0  0  # atno 8008 bound_to 7997
  155.9483  140.1114  157.1020 H   0  0  0  0  0  0  0  0  0  0  0  0  # atno 8009 bound_to 7997
  154.4116  140.1199  156.5005 H   0  0  0  0  0  0  0  0  0  0  0  0  # atno 8010 bound_to 7997
  139.8381  143.7358  152.2664 H   0  0  0  0  0  0  0  0  0  0  0  0  # atno 10167 bound_to 10162
  157.6509  131.0927  150.6556 H   0  0  0  0  0  0  0  0  0  0  0  0  # atno 10718 bound_to 10713
  152.9955  135.6210  154.2525 H   0  0  0  0  0  0  0  0  0  0  0  0  # atno 10763 bound_to 10752
  154.2263  135.2794  155.2908 H   0  0  0  0  0  0  0  0  0  0  0  0  # atno 10764 bound_to 10752
  154.5486  135.5740  153.6960 H   0  0  0  0  0  0  0  0  0  0  0  0  # atno 10765 bound_to 10752
  140.3097  134.7527  157.3981 H   0  0  0  0  0  0  0  0  0  0  0  0  # atno 11005 bound_to 11000
  146.1410  139.4467  143.0109 LP  0  0  0  0  0  0  0  0  0  0  0  0  # atno 17320 bound_to 7965
  145.7018  141.0133  143.1500 LP  0  0  0  0  0  0  0  0  0  0  0  0  # atno 17321 bound_to 7965
  139.7587  144.7513  151.0397 LP  0  0  0  0  0  0  0  0  0  0  0  0  # atno 17342 bound_to 10162
  140.7801  143.4776  151.0061 LP  0  0  0  0  0  0  0  0  0  0  0  0  # atno 17343 bound_to 10162
  156.6867  130.4583  149.5611 LP  0  0  0  0  0  0  0  0  0  0  0  0  # atno 17370 bound_to 10713
  156.1890  130.6548  151.1040 LP  0  0  0  0  0  0  0  0  0  0  0  0  # atno 17371 bound_to 10713
  140.1036  134.5439  155.8330 LP  0  0  0  0  0  0  0  0  0  0  0  0  # atno 17394 bound_to 11000
  141.2111  133.6702  156.6556 LP  0  0  0  0  0  0  0  0  0  0  0  0  # atno 17395 bound_to 11000

$$$$
