AV-unprocessed.smi:2734|AV-procd|sdf|10539|dock3
  -GOLD-   2272014583D 1   1.00000     0.00000
 Structure written by MMmdl.
 41 43  0  0  0  0  0  0  0  0  2 V2000
  152.1255  144.0823  161.1123 C   0  0  0  0  0  0  0  0  0  0  0  0
  151.9921  143.1939  159.8872 C   0  0  0  0  0  0  0  0  0  0  0  0
  151.0424  143.5443  158.9009 C   0  0  0  0  0  0  0  0  0  0  0  0
  150.9460  142.7147  157.7901 C   0  0  0  0  0  0  0  0  0  0  0  0
  150.1256  142.7859  156.6619 N   0  3  0  0  0  0  0  0  0  0  0  0
  150.3989  141.7392  155.8345 C   0  0  0  0  0  0  0  0  0  0  0  0
  151.3815  141.0014  156.4187 N   0  0  0  0  0  0  0  0  0  0  0  0
  152.0506  139.7806  155.9508 C   0  0  0  0  0  0  0  0  0  0  0  0
  151.1051  138.5646  155.8993 C   0  0  2  0  0  0  0  0  0  0  0  0
  150.1845  138.7290  154.8374 O   0  0  0  0  0  0  0  0  0  0  0  0
  150.3344  138.3798  157.2159 C   0  0  0  0  0  0  0  0  0  0  0  0
  149.8873  136.6402  157.5051 S   0  0  0  0  0  0  0  0  0  0  0  0
  149.0839  136.7905  159.0711 C   0  0  0  0  0  0  0  0  0  0  0  0
  149.6133  136.5350  160.2621 N   0  0  0  0  0  0  0  0  0  0  0  0
  148.5884  136.8046  161.1490 N   0  0  0  0  0  0  0  0  0  0  0  0
  147.5154  137.1951  160.5250 N   0  0  0  0  0  0  0  0  0  0  0  0
  147.8134  137.1920  159.2030 N   0  0  0  0  0  0  0  0  0  0  0  0
  146.8295  137.5809  158.2124 C   0  0  0  0  0  0  0  0  0  0  0  0
  151.7531  141.5705  157.6407 C   0  0  0  0  0  0  0  0  0  0  0  0
  152.6923  141.2090  158.6030 C   0  0  0  0  0  0  0  0  0  0  0  0
  152.8051  142.0397  159.7410 C   0  0  0  0  0  0  0  0  0  0  0  0
  153.8219  141.6715  160.8081 C   0  0  0  0  0  0  0  0  0  0  0  0
  151.4759  144.9556  161.0449 H   0  0  0  0  0  0  0  0  0  0  0  0
  153.1503  144.4386  161.2193 H   0  0  0  0  0  0  0  0  0  0  0  0
  151.8531  143.5328  162.0136 H   0  0  0  0  0  0  0  0  0  0  0  0
  150.4196  144.4206  159.0060 H   0  0  0  0  0  0  0  0  0  0  0  0
  149.9273  141.5347  154.8840 H   0  0  0  0  0  0  0  0  0  0  0  0
  152.4874  139.9802  154.9715 H   0  0  0  0  0  0  0  0  0  0  0  0
  152.8838  139.5843  156.6273 H   0  0  0  0  0  0  0  0  0  0  0  0
  151.6886  137.6648  155.7014 H   0  0  0  0  0  0  0  0  0  0  0  0
  150.4295  138.1438  154.1363 H   0  0  0  0  0  0  0  0  0  0  0  0
  150.9510  138.7171  158.0499 H   0  0  0  0  0  0  0  0  0  0  0  0
  149.4314  138.9919  157.2148 H   0  0  0  0  0  0  0  0  0  0  0  0
  146.6869  136.7687  157.4993 H   0  0  0  0  0  0  0  0  0  0  0  0
  147.1772  138.4665  157.6800 H   0  0  0  0  0  0  0  0  0  0  0  0
  145.8739  137.8053  158.6883 H   0  0  0  0  0  0  0  0  0  0  0  0
  153.3126  140.3324  158.4885 H   0  0  0  0  0  0  0  0  0  0  0  0
  154.3036  140.7183  160.5879 H   0  0  0  0  0  0  0  0  0  0  0  0
  153.3430  141.5825  161.7835 H   0  0  0  0  0  0  0  0  0  0  0  0
  154.6001  142.4326  160.8715 H   0  0  0  0  0  0  0  0  0  0  0  0
  149.4320  143.4964  156.4663 H   0  0  0  0  0  0  0  0  0  0  0  0
  1  2  1  0  0  0  0
  1 23  1  0  0  0  0
  1 24  1  0  0  0  0
  1 25  1  0  0  0  0
  2 21  1  0  0  0  0
  2  3  2  0  0  0  0
  3  4  1  0  0  0  0
  3 26  1  0  0  0  0
  4 19  2  0  0  0  0
  4  5  1  0  0  0  0
  5  6  2  0  0  0  0
  5 41  1  0  0  0  0
  6  7  1  0  0  0  0
  6 27  1  0  0  0  0
  7  8  1  0  0  0  0
  7 19  1  0  0  0  0
  8  9  1  0  0  0  0
  8 28  1  0  0  0  0
  8 29  1  0  0  0  0
  9 10  1  0  0  0  0
  9 11  1  0  0  0  0
  9 30  1  0  0  0  0
 10 31  1  0  0  0  0
 11 12  1  0  0  0  0
 11 32  1  0  0  0  0
 11 33  1  0  0  0  0
 12 13  1  0  0  0  0
 13 17  1  0  0  0  0
 13 14  2  0  0  0  0
 14 15  1  0  0  0  0
 15 16  2  0  0  0  0
 16 17  1  0  0  0  0
 17 18  1  0  0  0  0
 18 34  1  0  0  0  0
 18 35  1  0  0  0  0
 18 36  1  0  0  0  0
 19 20  1  0  0  0  0
 20 21  2  0  0  0  0
 20 37  1  0  0  0  0
 21 22  1  0  0  0  0
 22 38  1  0  0  0  0
 22 39  1  0  0  0  0
 22 40  1  0  0  0  0
M  CHG  1   5   1
M  END
> <s_m_source_file>
AV-unprocessed.smi

> <i_m_source_file_index>
2734

> <i_lp_mmshare_version>
43012

> <i_f3d_flags>
0

> <s_epik_input>
W0NIM11jKFtjSF0xKWMoW0NIM10pW2NIXWMoYzEyKW4oW2NIXW4yKVtDSDJdW0NASF0oW09IXSlbQ0gyXVNjM25ubm4zW0NIM10=

> <s_epik_cmdline>
J2VwaWtfcHl0aG9uJywgJy1waCcsICc3LjAnLCAnLXRuJywgJzgnLCAnLW1hJywgJzIwMCcsICctbWV0YWxfYmluZGluZycsICctaW1hZScsICc8aW5maWxlLm1hZT4nLCAnLW9tYWUnLCAnPG91dGZpbGUubWFlPic=

> <r_lp_tautomer_probability>
1

> <r_epik_Ionization_Penalty>
1.07429

> <r_epik_Ionization_Penalty_Charging>
1.07429

> <r_epik_Ionization_Penalty_Neutral>
3.30514e-06

> <r_epik_State_Penalty>
1.12915

> <r_epik_Charging_Adjusted_Penalty>
2.20344

> <i_epik_Tot_Q>
1

> <i_epik_Tot_abs_Q>
1

> <r_epik_Metal_State_Penalty>
1.22002

> <b_epik_Metal_Only>
0

> <s_lp_Force_Field>
OPLS_2005

> <r_lp_Energy>
14.6731

> <b_lp_Chiralities_Consistent>
1

> <s_lp_Variant>
AV-unprocessed.smi:2734-3

> <Gold.Version>
5.8.1

> <Gold.Id.Protein>
6NUR|6NUR_protein|mol2

> <Gold.PLP.Fitness>
52.3572

> <Gold.PLP.PLP>
-39.2345

> <Gold.PLP.part.hbond>
-5.1869

> <Gold.PLP.part.metal>
0.0000

> <Gold.PLP.part.buried>
-5.2906

> <Gold.PLP.part.nonpolar>
-29.4770

> <Gold.PLP.part.repulsive>
0.0505

> <Gold.PLP.ligand.clash>
0.0000

> <Gold.PLP.ligand.torsion>
0.7097

> <Gold.PLP.Chemscore.Hbond>
4.8288

> <Gold.PLP.Chemscore.CHOScore>
0.0000

> <Gold.PLP.Chemscore.Metal>
0.0000

> <Gold.Chemscore.Hbonds>
donor molecule, donor type, donor heavy atom, donor atom, acceptor molecule, acceptor atom, score
      L1  H     5    41       P1  8028  2.00
      P1  H  6896  6908       L1    14  0.81
      P1  H  6931  6943       L1    15  1.00
      P1  H  6934  6947       L1    16  1.00

> <Gold.PLP.Chemscore.Internal.Correction>
0.0558

> <Gold.Rescore>
     Score         DG    S(hbond)    S(metal)    S(lipo)     H(rot)  DE(clash)    DE(int)     intcor
     16.88     -17.50       2.44        0.00      96.83       2.92       0.11       0.51       ----

> <Gold.Chemscore.Fitness>
16.8806

> <Gold.Chemscore.DG>
-17.5018

> <Gold.Chemscore.ZeroCoef>
-5.4800

> <Gold.Chemscore.Hbond>
2.4426

> <Gold.Chemscore.Metal>
0.0000

> <Gold.Chemscore.Lipo>
96.8338

> <Gold.Chemscore.Internal_Hbond>
0.0000

> <Gold.Chemscore.DEClash>
0.1074

> <Gold.Chemscore.DEInternal>
0.5138

> <Gold.Chemscore.Rot>
2.9164

> <Gold.Chemscore.Internal.Correction>
   9.000000E+99

> <Gold.Chemscore.Hbonds>
donor molecule, donor type, donor heavy atom, donor atom, acceptor molecule, acceptor atom, score
      L1  H     5    41       P1  8028  0.93
      P1  H  6896  6908       L1    14  0.24
      P1  H  6931  6943       L1    15  0.13
      P1  H  6934  6947       L1    16  0.30

> <Gold.Chemscore.Hbond.Weighted>
-8.1582

> <Gold.Chemscore.Metal.Weighted>
-0.0000

> <Gold.Chemscore.Lipo.Weighted>
-11.3296

> <Gold.Chemscore.Internal_Hbond.Weighted>
0.0000

> <Gold.Chemscore.DEClash.Weighted>
0.1074

> <Gold.Chemscore.DEInternal.Weighted>
0.5138

> <Gold.Chemscore.Rot.Weighted>
7.4660

> <Gold.Chemscore.Internal.Correction.Weighted>
   9.000000E+99

> <Gold.Protein.RotatedTorsions>
[ 6907 6896 6895 6894 ] final -162.25 input  -60.11 | X-H torsion
[ 7974 7965 7964 7962 ] final  115.24 input  175.53 | X-H torsion
[ 8008 7997 7996 7995 ] final   14.64 input   59.86 | X-H torsion
[ 10167 10162 10161 10158 ] final  -21.81 input  -65.29 | X-H torsion
[ 10718 10713 10712 10709 ] final -178.40 input   66.30 | X-H torsion
[ 10763 10752 10751 10750 ] final   29.50 input  -60.55 | X-H torsion
[ 11005 11000 10999 10996 ] final   19.89 input  -57.11 | X-H torsion

> <Gold.Protein.ActiveResidues>
 VAL166  LYS551  ARG553  GLY616  TRP617  ASP618  TYR619  PRO620  LYS621  CYS622 
 ASP623  PHE694  ASN695  SER759  ASP760  ASP761  ALA762  ILE779  LEU786  VAL792 
 PHE793  MET794  SER795  GLU796  ALA797  LYS798  CYS799  TRP800  GLU811  SER814 

> <Gold.Protein.RotatedAtoms>
  151.3774  133.3833  159.2705 H   0  0  0  0  0  0  0  0  0  0  0  0  # atno 6907 bound_to 6896
  150.9604  134.8994  159.7737 H   0  0  0  0  0  0  0  0  0  0  0  0  # atno 6908 bound_to 6896
  152.5147  134.3732  159.9378 H   0  0  0  0  0  0  0  0  0  0  0  0  # atno 6909 bound_to 6896
  145.1944  139.2983  143.4351 H   0  0  0  0  0  0  0  0  0  0  0  0  # atno 7974 bound_to 7965
  154.8514  140.2930  155.5596 H   0  0  0  0  0  0  0  0  0  0  0  0  # atno 8008 bound_to 7997
  156.3016  140.2495  156.3405 H   0  0  0  0  0  0  0  0  0  0  0  0  # atno 8009 bound_to 7997
  154.9017  140.0391  157.1886 H   0  0  0  0  0  0  0  0  0  0  0  0  # atno 8010 bound_to 7997
  140.7283  143.4593  151.0403 H   0  0  0  0  0  0  0  0  0  0  0  0  # atno 10167 bound_to 10162
  156.8437  130.9695  151.3098 H   0  0  0  0  0  0  0  0  0  0  0  0  # atno 10718 bound_to 10713
  153.0427  135.6487  154.0900 H   0  0  0  0  0  0  0  0  0  0  0  0  # atno 10763 bound_to 10752
  154.0603  135.2888  155.3327 H   0  0  0  0  0  0  0  0  0  0  0  0  # atno 10764 bound_to 10752
  154.6662  135.5373  153.8145 H   0  0  0  0  0  0  0  0  0  0  0  0  # atno 10765 bound_to 10752
  140.4087  134.1641  155.7666 H   0  0  0  0  0  0  0  0  0  0  0  0  # atno 11005 bound_to 11000
  146.3430  140.2168  142.8591 LP  0  0  0  0  0  0  0  0  0  0  0  0  # atno 17320 bound_to 7965
  145.0009  140.8631  143.5282 LP  0  0  0  0  0  0  0  0  0  0  0  0  # atno 17321 bound_to 7965
  139.8276  143.7735  152.3179 LP  0  0  0  0  0  0  0  0  0  0  0  0  # atno 17342 bound_to 10162
  139.7839  144.7435  151.0049 LP  0  0  0  0  0  0  0  0  0  0  0  0  # atno 17343 bound_to 10162
  157.6341  130.8753  149.9327 LP  0  0  0  0  0  0  0  0  0  0  0  0  # atno 17370 bound_to 10713
  156.0866  130.3667  150.0475 LP  0  0  0  0  0  0  0  0  0  0  0  0  # atno 17371 bound_to 10713
  141.1829  133.8375  157.1192 LP  0  0  0  0  0  0  0  0  0  0  0  0  # atno 17394 bound_to 11000
  140.0283  134.9913  157.0730 LP  0  0  0  0  0  0  0  0  0  0  0  0  # atno 17395 bound_to 11000

$$$$
