#       Name:                AV-unprocessed.smi:2091
#       Creating user name   scv26
#       Creation time:       Fri Mar 27 11:26:15 2020


#       File generated by GOLD software.
#

@<TRIPOS>MOLECULE
AV-unprocessed.smi:2091
    44    45     1
SMALL
NO_CHARGES


@<TRIPOS>ATOM
      1 ****         0.3389   1.1277  -1.1685 O.2            1 S1                 0.0000
      2 ****         0.9809   0.3623  -0.4477 C.2            1 S1                 0.0000
      3 ****         2.5066   0.4839  -0.3366 C.3            1 S1                 0.0000
      4 ****         2.9856   1.8682  -0.4792 N.am           1 S1                 0.0000
      5 ****         3.4646   2.2682  -1.7392 C.2            1 S1                 0.0000
      6 ****         3.9244   3.5144  -1.9617 C.2            1 S1                 0.0000
      7 ****         3.9172   4.4612  -0.8532 C.2            1 S1                 0.0000
      8 ****         4.3389   5.6015  -1.0367 O.2            1 S1                 0.0000
      9 ****         3.4364   4.0273   0.3488 N.pl3          1 S1                -1.0000
     10 ****         2.9694   2.7573   0.5596 C.2            1 S1                 0.0000
     11 ****         2.5375   2.3867   1.6521 O.2            1 S1                 0.0000
     12 ****         0.4161  -0.6319   0.2561 N.am           1 S1                 0.0000
     13 ****        -1.0139  -0.9472   0.2843 C.3            1 S1                 0.0000
     14 ****        -1.3066  -1.6701   1.6192 C.3            1 S1                 0.0000
     15 ****        -2.7799  -1.5925   2.0569 C.3            1 S1                 0.0000
     16 ****        -3.7728  -2.3092   1.1288 C.3            1 S1                 0.0000
     17 ****        -3.8208  -1.7280  -0.2947 C.3            1 S1                 0.0000
     18 ****        -2.6882  -2.1624  -1.1016 N.am           1 S1                 0.0000
     19 ****        -1.3939  -1.8786  -0.8908 C.2            1 S1                 0.0000
     20 ****        -0.5259  -2.3589  -1.6200 O.2            1 S1                 0.0000
     21 ****         2.8431   0.0680   0.6151 H              1 S1                 0.0000
     22 ****         2.9521  -0.1542  -1.1007 H              1 S1                 0.0000
     23 ****         3.4293   1.5093  -2.5070 H              1 S1                 0.0000
     24 ****         4.2865   3.8067  -2.9362 H              1 S1                 0.0000
     25 ****         1.0216  -1.2190   0.8107 H              1 S1                 0.0000
     26 ****        -1.5841  -0.0182   0.2277 H              1 S1                 0.0000
     27 ****        -0.9774  -2.7103   1.5821 H              1 S1                 0.0000
     28 ****        -0.7154  -1.2064   2.4105 H              1 S1                 0.0000
     29 ****        -2.8677  -2.0236   3.0547 H              1 S1                 0.0000
     30 ****        -3.0712  -0.5465   2.1606 H              1 S1                 0.0000
     31 ****        -3.5518  -3.3769   1.0922 H              1 S1                 0.0000
     32 ****        -4.7671  -2.2249   1.5687 H              1 S1                 0.0000
     33 ****        -4.7237  -2.0792  -0.7948 H              1 S1                 0.0000
     34 ****        -3.8845  -0.6389  -0.2765 H              1 S1                 0.0000
     35 ****        -2.9032  -2.7650  -1.8828 H              1 S1                 0.0000
     36 ****         0.8117   1.8383  -1.6896 LP             1 S1                 0.0000
     37 ****        -0.6551   1.0384  -1.2326 LP             1 S1                 0.0000
     38 ****         4.6809   5.8692  -1.9374 LP             1 S1                 0.0000
     39 ****         4.3398   6.2612  -0.2852 LP             1 S1                 0.0000
     40 ****         3.4246   4.6700   1.1148 LP             1 S1                 0.0000
     41 ****         2.2067   1.4500   1.7674 LP             1 S1                 0.0000
     42 ****         2.5176   3.0225   2.4237 LP             1 S1                 0.0000
     43 ****         0.4377  -2.1482  -1.4559 LP             1 S1                 0.0000
     44 ****        -0.7846  -2.9597  -2.3764 LP             1 S1                 0.0000
@<TRIPOS>BOND
    1    1    2 2     
    2    2    3 1     
    3    2   12 am    
    4    3    4 1     
    5    3   21 1     
    6    3   22 1     
    7    4   10 am    
    8    4    5 1     
    9    5    6 2     
   10    5   23 1     
   11    6    7 1     
   12    6   24 1     
   13    7    8 2     
   14    7    9 1     
   15    9   10 1     
   16   10   11 2     
   17   12   13 1     
   18   12   25 1     
   19   13   19 1     
   20   13   14 1     
   21   13   26 1     
   22   14   15 1     
   23   14   27 1     
   24   14   28 1     
   25   15   16 1     
   26   15   29 1     
   27   15   30 1     
   28   16   17 1     
   29   16   31 1     
   30   16   32 1     
   31   17   18 1     
   32   17   33 1     
   33   17   34 1     
   34   18   19 am    
   35   18   35 1     
   36   19   20 2     
   37    1   36 1     
   38    1   37 1     
   39    8   38 1     
   40    8   39 1     
   41    9   40 1     
   42   11   41 1     
   43   11   42 1     
   44   20   43 1     
   45   20   44 1     
@<TRIPOS>SUBSTRUCTURE
      1 S1             1
@<TRIPOS>SET
LONE_PAIRS      STATIC     ATOMS    <user>   **** ""
9 36 37 38 39 40 41 42 43 44
DONOR_HYDROGENS      STATIC     ATOMS    <user>   **** ""
2 25 35
ATOM$BLUE        STATIC     ATOMS    COLORGROUP SYSTEM
9 36 37 38 39 40 41 42 43 44
ATOM$RED        STATIC     ATOMS    COLORGROUP SYSTEM
2 25 35
