AV-unprocessed.smi:316|AV-procd|sdf|2325|dock9
  -GOLD-   2262022223D 1   1.00000     0.00000
 Structure written by MMmdl.
 43 44  0  0  0  0  0  0  0  0  2 V2000
  137.1651  136.8799  157.0079 C   0  0  0  0  0  0  0  0  0  0  0  0
  137.8473  137.5835  155.9326 N   0  0  0  0  0  0  0  0  0  0  0  0
  139.0955  137.3118  155.5263 C   0  0  0  0  0  0  0  0  0  0  0  0
  139.7899  136.4293  156.0320 O   0  0  0  0  0  0  0  0  0  0  0  0
  139.6286  138.1675  154.3724 C   0  0  0  0  0  0  0  0  0  0  0  0
  140.8623  139.0094  154.7556 C   0  0  0  0  0  0  0  0  0  0  0  0
  142.0032  138.7161  153.8954 N   0  0  0  0  0  0  0  0  0  0  0  0
  142.4603  137.4866  153.6203 C   0  0  0  0  0  0  0  0  0  0  0  0
  141.9535  136.4557  154.0623 O   0  0  0  0  0  0  0  0  0  0  0  0
  143.5173  137.5318  152.7921 N   0  0  0  0  0  0  0  0  0  0  0  0
  144.2298  136.4344  152.2318 C   0  0  0  0  0  0  0  0  0  0  0  0
  143.5731  135.2126  151.9344 C   0  0  0  0  0  0  0  0  0  0  0  0
  144.3111  134.1184  151.4459 C   0  0  0  0  0  0  0  0  0  0  0  0
  145.6994  134.2556  151.2778 C   0  0  0  0  0  0  0  0  0  0  0  0
  146.2970  135.4261  151.5820 N   0  3  0  0  0  0  0  0  0  0  0  0
  145.6397  136.5204  152.0411 C   0  0  0  0  0  0  0  0  0  0  0  0
  146.3991  137.6832  152.3053 N   0  0  0  0  0  0  0  0  0  0  0  0
  146.3421  138.8242  151.3989 C   0  0  0  0  0  0  0  0  0  0  0  0
  146.9781  139.9761  152.1719 C   0  0  0  0  0  0  0  0  0  0  0  0
  146.5394  139.6911  153.6053 C   0  0  0  0  0  0  0  0  0  0  0  0
  146.5125  138.1609  153.6801 C   0  0  0  0  0  0  0  0  0  0  0  0
  136.1730  137.3052  157.1597 H   0  0  0  0  0  0  0  0  0  0  0  0
  137.7198  136.9659  157.9433 H   0  0  0  0  0  0  0  0  0  0  0  0
  137.0498  135.8223  156.7667 H   0  0  0  0  0  0  0  0  0  0  0  0
  137.3376  138.3199  155.4659 H   0  0  0  0  0  0  0  0  0  0  0  0
  139.8685  137.5039  153.5408 H   0  0  0  0  0  0  0  0  0  0  0  0
  138.8304  138.8268  154.0276 H   0  0  0  0  0  0  0  0  0  0  0  0
  140.6366  140.0720  154.6569 H   0  0  0  0  0  0  0  0  0  0  0  0
  141.1363  138.8451  155.7995 H   0  0  0  0  0  0  0  0  0  0  0  0
  142.4790  139.5075  153.4872 H   0  0  0  0  0  0  0  0  0  0  0  0
  143.7670  138.4432  152.4365 H   0  0  0  0  0  0  0  0  0  0  0  0
  142.5124  135.0899  152.0953 H   0  0  0  0  0  0  0  0  0  0  0  0
  143.8201  133.1841  151.2162 H   0  0  0  0  0  0  0  0  0  0  0  0
  146.3468  133.4700  150.9162 H   0  0  0  0  0  0  0  0  0  0  0  0
  146.8705  138.6213  150.4669 H   0  0  0  0  0  0  0  0  0  0  0  0
  145.3064  139.0713  151.1613 H   0  0  0  0  0  0  0  0  0  0  0  0
  148.0651  139.9222  152.0975 H   0  0  0  0  0  0  0  0  0  0  0  0
  146.6607  140.9556  151.8135 H   0  0  0  0  0  0  0  0  0  0  0  0
  147.1968  140.1406  154.3503 H   0  0  0  0  0  0  0  0  0  0  0  0
  145.5344  140.0840  153.7645 H   0  0  0  0  0  0  0  0  0  0  0  0
  145.6929  137.8089  154.3081 H   0  0  0  0  0  0  0  0  0  0  0  0
  147.4477  137.7930  154.1031 H   0  0  0  0  0  0  0  0  0  0  0  0
  147.3063  135.4937  151.4506 H   0  0  0  0  0  0  0  0  0  0  0  0
  1  2  1  0  0  0  0
  1 22  1  0  0  0  0
  1 23  1  0  0  0  0
  1 24  1  0  0  0  0
  2  3  1  0  0  0  0
  2 25  1  0  0  0  0
  3  4  2  0  0  0  0
  3  5  1  0  0  0  0
  5  6  1  0  0  0  0
  5 26  1  0  0  0  0
  5 27  1  0  0  0  0
  6  7  1  0  0  0  0
  6 28  1  0  0  0  0
  6 29  1  0  0  0  0
  7  8  1  0  0  0  0
  7 30  1  0  0  0  0
  8  9  2  0  0  0  0
  8 10  1  0  0  0  0
 10 11  1  0  0  0  0
 10 31  1  0  0  0  0
 11 16  1  0  0  0  0
 11 12  2  0  0  0  0
 12 13  1  0  0  0  0
 12 32  1  0  0  0  0
 13 14  2  0  0  0  0
 13 33  1  0  0  0  0
 14 15  1  0  0  0  0
 14 34  1  0  0  0  0
 15 16  2  0  0  0  0
 15 43  1  0  0  0  0
 16 17  1  0  0  0  0
 17 21  1  0  0  0  0
 17 18  1  0  0  0  0
 18 19  1  0  0  0  0
 18 35  1  0  0  0  0
 18 36  1  0  0  0  0
 19 20  1  0  0  0  0
 19 37  1  0  0  0  0
 19 38  1  0  0  0  0
 20 21  1  0  0  0  0
 20 39  1  0  0  0  0
 20 40  1  0  0  0  0
 21 41  1  0  0  0  0
 21 42  1  0  0  0  0
M  CHG  1  15   1
M  END
> <s_m_source_file>
AV-unprocessed.smi

> <i_m_source_file_index>
316

> <i_lp_mmshare_version>
43012

> <i_f3d_flags>
0

> <s_epik_input>
W0NIM11bTkhdQyg9TylbQ0gyXVtDSDJdW05IXUMoPU8pW05IXWMxW2NIXVtjSF1bY0hdbmMxTjJbQ0gyXVtDSDJdW0NIMl1bQ0gyXTI=

> <s_epik_cmdline>
J2VwaWtfcHl0aG9uJywgJy1waCcsICc3LjAnLCAnLXRuJywgJzgnLCAnLW1hJywgJzIwMCcsICctbWV0YWxfYmluZGluZycsICctaW1hZScsICc8aW5maWxlLm1hZT4nLCAnLW9tYWUnLCAnPG91dGZpbGUubWFlPic=

> <r_lp_tautomer_probability>
0.999994

> <r_epik_Ionization_Penalty>
1.15434

> <r_epik_Ionization_Penalty_Charging>
1.15432

> <r_epik_Ionization_Penalty_Neutral>
1.92607e-05

> <r_epik_State_Penalty>
1.21599

> <r_epik_Charging_Adjusted_Penalty>
2.37031

> <i_epik_Tot_Q>
1

> <i_epik_Tot_abs_Q>
1

> <r_epik_Metal_State_Penalty>
1.29606

> <b_epik_Metal_Only>
0

> <s_lp_Force_Field>
OPLS_2005

> <r_lp_Energy>
36.337

> <b_lp_Chiralities_Consistent>
1

> <s_lp_Variant>
AV-unprocessed.smi:316-2

> <Gold.Version>
5.8.1

> <Gold.Id.Protein>
6NUR|6NUR_protein|mol2

> <Gold.PLP.Fitness>
45.4562

> <Gold.PLP.PLP>
-31.8187

> <Gold.PLP.part.hbond>
-4.8023

> <Gold.PLP.part.metal>
0.0000

> <Gold.PLP.part.buried>
-5.9861

> <Gold.PLP.part.nonpolar>
-25.0332

> <Gold.PLP.part.repulsive>
1.4947

> <Gold.PLP.ligand.clash>
0.0000

> <Gold.PLP.ligand.torsion>
0.8679

> <Gold.PLP.Chemscore.Hbond>
4.9913

> <Gold.PLP.Chemscore.CHOScore>
0.0000

> <Gold.PLP.Chemscore.Metal>
0.0000

> <Gold.Chemscore.Hbonds>
donor molecule, donor type, donor heavy atom, donor atom, acceptor molecule, acceptor atom, score
      L1  H     7    30       P1 10175  1.00
      L1  H    10    31       P1 10175  1.00
      L1  H    15    43       P1  7948  2.00
      P1  H 11000 11005       L1     4  0.66

> <Gold.PLP.Chemscore.Internal.Correction>
0.3996

> <Gold.Rescore>
     Score         DG    S(hbond)    S(metal)    S(lipo)     H(rot)  DE(clash)    DE(int)     intcor
     16.39     -20.12       3.92        0.00      56.53       1.98       0.24       3.49       ----

> <Gold.Chemscore.Fitness>
16.3852

> <Gold.Chemscore.DG>
-20.1184

> <Gold.Chemscore.ZeroCoef>
-5.4800

> <Gold.Chemscore.Hbond>
3.9170

> <Gold.Chemscore.Metal>
0.0000

> <Gold.Chemscore.Lipo>
56.5305

> <Gold.Chemscore.Internal_Hbond>
0.0000

> <Gold.Chemscore.DEClash>
0.2420

> <Gold.Chemscore.DEInternal>
3.4912

> <Gold.Chemscore.Rot>
1.9760

> <Gold.Chemscore.Internal.Correction>
   9.000000E+99

> <Gold.Chemscore.Hbonds>
donor molecule, donor type, donor heavy atom, donor atom, acceptor molecule, acceptor atom, score
      L1  H     7    30       P1 10175  1.00
      L1  H    10    31       P1 10175  0.93
      L1  H    15    43       P1  7948  0.91
      P1  H 11000 11005       L1     4  0.66

> <Gold.Chemscore.Hbond.Weighted>
-13.0829

> <Gold.Chemscore.Metal.Weighted>
-0.0000

> <Gold.Chemscore.Lipo.Weighted>
-6.6141

> <Gold.Chemscore.Internal_Hbond.Weighted>
0.0000

> <Gold.Chemscore.DEClash.Weighted>
0.2420

> <Gold.Chemscore.DEInternal.Weighted>
3.4912

> <Gold.Chemscore.Rot.Weighted>
5.0585

> <Gold.Chemscore.Internal.Correction.Weighted>
   9.000000E+99

> <Gold.Protein.RotatedTorsions>
[ 6907 6896 6895 6894 ] final -157.42 input  -60.11 | X-H torsion
[ 7974 7965 7964 7962 ] final   -2.26 input  175.53 | X-H torsion
[ 8008 7997 7996 7995 ] final -129.61 input   59.86 | X-H torsion
[ 10167 10162 10161 10158 ] final   66.28 input  -65.29 | X-H torsion
[ 10718 10713 10712 10709 ] final -170.20 input   66.30 | X-H torsion
[ 10763 10752 10751 10750 ] final  -52.47 input  -60.55 | X-H torsion
[ 11005 11000 10999 10996 ] final   70.20 input  -57.11 | X-H torsion

> <Gold.Protein.ActiveResidues>
 VAL166  LYS551  ARG553  GLY616  TRP617  ASP618  TYR619  PRO620  LYS621  CYS622 
 ASP623  PHE694  ASN695  SER759  ASP760  ASP761  ALA762  ILE779  LEU786  VAL792 
 PHE793  MET794  SER795  GLU796  ALA797  LYS798  CYS799  TRP800  GLU811  SER814 

> <Gold.Protein.RotatedAtoms>
  151.3025  133.4116  159.2640 H   0  0  0  0  0  0  0  0  0  0  0  0  # atno 6907 bound_to 6896
  151.0183  134.9450  159.8055 H   0  0  0  0  0  0  0  0  0  0  0  0  # atno 6908 bound_to 6896
  152.5318  134.2989  159.9123 H   0  0  0  0  0  0  0  0  0  0  0  0  # atno 6909 bound_to 6896
  146.2407  140.1544  142.8333 H   0  0  0  0  0  0  0  0  0  0  0  0  # atno 7974 bound_to 7965
  155.2820  140.0444  157.3016 H   0  0  0  0  0  0  0  0  0  0  0  0  # atno 8008 bound_to 7997
  154.5591  140.2340  155.8332 H   0  0  0  0  0  0  0  0  0  0  0  0  # atno 8009 bound_to 7997
  156.2032  140.3020  155.9578 H   0  0  0  0  0  0  0  0  0  0  0  0  # atno 8010 bound_to 7997
  140.1022  144.4894  150.7030 H   0  0  0  0  0  0  0  0  0  0  0  0  # atno 10167 bound_to 10162
  156.7227  130.9276  151.3098 H   0  0  0  0  0  0  0  0  0  0  0  0  # atno 10718 bound_to 10713
  154.1432  135.6502  153.4947 H   0  0  0  0  0  0  0  0  0  0  0  0  # atno 10763 bound_to 10752
  153.0159  135.5320  154.6883 H   0  0  0  0  0  0  0  0  0  0  0  0  # atno 10764 bound_to 10752
  154.6151  135.2958  155.0360 H   0  0  0  0  0  0  0  0  0  0  0  0  # atno 10765 bound_to 10752
  139.9611  134.7059  156.0644 H   0  0  0  0  0  0  0  0  0  0  0  0  # atno 11005 bound_to 11000
  145.0141  140.8739  143.5206 LP  0  0  0  0  0  0  0  0  0  0  0  0  # atno 17320 bound_to 7965
  145.1582  139.2474  143.5405 LP  0  0  0  0  0  0  0  0  0  0  0  0  # atno 17321 bound_to 7965
  140.6972  143.2411  151.4968 LP  0  0  0  0  0  0  0  0  0  0  0  0  # atno 17342 bound_to 10162
  139.5665  144.2030  152.1773 LP  0  0  0  0  0  0  0  0  0  0  0  0  # atno 17343 bound_to 10162
  157.6891  130.9215  150.0465 LP  0  0  0  0  0  0  0  0  0  0  0  0  # atno 17370 bound_to 10713
  156.1583  130.3643  149.9337 LP  0  0  0  0  0  0  0  0  0  0  0  0  # atno 17371 bound_to 10713
  141.1288  133.6592  156.3408 LP  0  0  0  0  0  0  0  0  0  0  0  0  # atno 17394 bound_to 11000
  140.5498  134.6038  157.5404 LP  0  0  0  0  0  0  0  0  0  0  0  0  # atno 17395 bound_to 11000

$$$$
