#       Name:                AV-unprocessed.smi:1978
#       Creating user name   scv26
#       Creation time:       Fri Mar 27 10:19:29 2020


#       File generated by GOLD software.
#

@<TRIPOS>MOLECULE
AV-unprocessed.smi:1978
    50    51     1
SMALL
NO_CHARGES


@<TRIPOS>ATOM
      1 ****        -6.3353   5.0871   1.1765 C.3            1 S1                 0.0000
      2 ****        -4.9937   4.4812   1.4106 C.2            1 S1                 0.0000
      3 ****        -4.0290   4.0103   0.5658 C.2            1 S1                 0.0000
      4 ****        -3.0090   3.5674   1.4517 C.2            1 S1                 0.0000
      5 ****        -1.8318   3.0294   1.0970 N.pl3          1 S1                -1.0000
      6 ****        -1.7428   1.7096   0.8155 C.2            1 S1                 0.0000
      7 ****        -2.6676   0.8941   0.8189 O.2            1 S1                 0.0000
      8 ****        -0.5018   1.3080   0.5112 N.am           1 S1                 0.0000
      9 ****        -0.1146  -0.0601   0.1864 C.3            1 S1                 0.0000
     10 ****         1.4251  -0.2613   0.2177 C.3            1 S1                 0.0000
     11 ****         1.9787   0.1597   1.6029 C.3            1 S1                 0.0000
     12 ****         1.8322  -1.6683  -0.1288 N.4            1 S1                 1.0000
     13 ****         3.3125  -1.8782  -0.1636 C.3            1 S1                 0.0000
     14 ****         3.6820  -3.3644  -0.3039 C.3            1 S1                 0.0000
     15 ****         3.0314  -3.9898  -1.5384 C.3            1 S1                 0.0000
     16 ****         1.5186  -3.7576  -1.4864 C.3            1 S1                 0.0000
     17 ****         1.1616  -2.2639  -1.3337 C.3            1 S1                 0.0000
     18 ****         1.4196  -1.4705  -2.6342 C.3            1 S1                 0.0000
     19 ****        -3.3206   3.7670   2.7213 N.2            1 S1                 0.0000
     20 ****        -4.5946   4.3471   2.7040 O.3            1 S1                 0.0000
     21 ****        -6.2527   5.9750   0.5497 H              1 S1                 0.0000
     22 ****        -6.8053   5.3796   2.1158 H              1 S1                 0.0000
     23 ****        -6.9951   4.3790   0.6754 H              1 S1                 0.0000
     24 ****        -4.0504   3.9825  -0.5132 H              1 S1                 0.0000
     25 ****         0.2272   2.0063   0.5169 H              1 S1                 0.0000
     26 ****        -0.5916  -0.7558   0.8792 H              1 S1                 0.0000
     27 ****        -0.5282  -0.2504  -0.8030 H              1 S1                 0.0000
     28 ****         1.8621   0.4057  -0.5268 H              1 S1                 0.0000
     29 ****         1.6066   1.1331   1.9207 H              1 S1                 0.0000
     30 ****         3.0624   0.2620   1.6066 H              1 S1                 0.0000
     31 ****         1.7009  -0.5594   2.3741 H              1 S1                 0.0000
     32 ****         3.7543  -1.2961  -0.9727 H              1 S1                 0.0000
     33 ****         3.7828  -1.5335   0.7538 H              1 S1                 0.0000
     34 ****         4.7654  -3.4747  -0.3602 H              1 S1                 0.0000
     35 ****         3.3637  -3.9042   0.5889 H              1 S1                 0.0000
     36 ****         3.4526  -3.5561  -2.4457 H              1 S1                 0.0000
     37 ****         3.2469  -5.0581  -1.5766 H              1 S1                 0.0000
     38 ****         1.0473  -4.1700  -2.3793 H              1 S1                 0.0000
     39 ****         1.1031  -4.3127  -0.6440 H              1 S1                 0.0000
     40 ****         0.0866  -2.2678  -1.1619 H              1 S1                 0.0000
     41 ****         0.9060  -1.9355  -3.4759 H              1 S1                 0.0000
     42 ****         2.4777  -1.4229  -2.8892 H              1 S1                 0.0000
     43 ****         1.0521  -0.4470  -2.5688 H              1 S1                 0.0000
     44 ****         1.5049  -2.2262   0.6469 H              1 S1                 0.0000
     45 ****        -1.0172   3.6067   1.0406 LP             1 S1                 0.0000
     46 ****        -3.5951   1.1908   1.0464 LP             1 S1                 0.0000
     47 ****        -2.4902  -0.0640   0.5941 LP             1 S1                 0.0000
     48 ****        -2.7643   3.5497   3.5234 LP             1 S1                 0.0000
     49 ****        -5.2383   3.7609   3.1959 LP             1 S1                 0.0000
     50 ****        -4.5613   5.2459   3.1410 LP             1 S1                 0.0000
@<TRIPOS>BOND
    1    1    2 1     
    2    1   21 1     
    3    1   22 1     
    4    1   23 1     
    5    2   20 1     
    6    2    3 2     
    7    3    4 1     
    8    3   24 1     
    9    4    5 1     
   10    4   19 2     
   11    5    6 1     
   12    6    7 2     
   13    6    8 am    
   14    8    9 1     
   15    8   25 1     
   16    9   10 1     
   17    9   26 1     
   18    9   27 1     
   19   10   11 1     
   20   10   12 1     
   21   10   28 1     
   22   11   29 1     
   23   11   30 1     
   24   11   31 1     
   25   12   17 1     
   26   12   13 1     
   27   12   44 1     
   28   13   14 1     
   29   13   32 1     
   30   13   33 1     
   31   14   15 1     
   32   14   34 1     
   33   14   35 1     
   34   15   16 1     
   35   15   36 1     
   36   15   37 1     
   37   16   17 1     
   38   16   38 1     
   39   16   39 1     
   40   17   18 1     
   41   17   40 1     
   42   18   41 1     
   43   18   42 1     
   44   18   43 1     
   45   19   20 1     
   46    5   45 1     
   47    7   46 1     
   48    7   47 1     
   49   19   48 1     
   50   20   49 1     
   51   20   50 1     
@<TRIPOS>SUBSTRUCTURE
      1 S1             1
@<TRIPOS>SET
LONE_PAIRS      STATIC     ATOMS    <user>   **** ""
6 45 46 47 48 49 50
DONOR_HYDROGENS      STATIC     ATOMS    <user>   **** ""
2 25 44
ATOM$BLUE        STATIC     ATOMS    COLORGROUP SYSTEM
6 45 46 47 48 49 50
ATOM$RED        STATIC     ATOMS    COLORGROUP SYSTEM
2 25 44
