AV-unprocessed.smi:337|AV-procd|sdf|2373|dock7
  -GOLD-   2262022293D 1   1.00000     0.00000
 Structure written by MMmdl.
 43 44  0  0  0  0  0  0  0  0  1 V2000
  149.0761  135.2469  156.8095 C   0  0  0  0  0  0  0  0  0  0  0  0
  149.7919  135.0096  155.4693 C   0  0  1  0  0  0  0  0  0  0  0  0
  148.7936  135.0523  154.4013 N   0  0  0  0  0  0  0  0  0  0  0  0
  147.5711  134.5035  154.4688 C   0  0  0  0  0  0  0  0  0  0  0  0
  146.8808  134.6603  153.3390 N   0  0  0  0  0  0  0  0  0  0  0  0
  147.1243  133.9144  155.4515 O   0  0  0  0  0  0  0  0  0  0  0  0
  150.8328  136.1203  155.2622 C   0  0  0  0  0  0  0  0  0  0  0  0
  151.7654  136.2596  156.0553 O   0  0  0  0  0  0  0  0  0  0  0  0
  150.6501  136.9126  154.1951 N   0  0  0  0  0  0  0  0  0  0  0  0
  151.4606  138.0845  153.8817 C   0  0  0  0  0  0  0  0  0  0  0  0
  151.5932  139.0627  155.0409 C   0  0  0  0  0  0  0  0  0  0  0  0
  150.6838  140.1255  155.2245 C   0  0  0  0  0  0  0  0  0  0  0  0
  150.8516  140.9869  156.3246 C   0  0  0  0  0  0  0  0  0  0  0  0
  151.9291  140.7678  157.2151 C   0  0  0  0  0  0  0  0  0  0  0  0
  152.1053  141.6123  158.3325 N   0  0  0  0  0  0  0  0  0  0  0  0
  152.3564  140.9882  159.6299 C   0  0  0  0  0  0  0  0  0  0  0  0
  152.7949  142.0462  160.6566 C   0  0  0  0  0  0  0  0  0  0  0  0
  151.8181  143.0796  160.7267 O   0  0  0  0  0  0  0  0  0  0  0  0
  151.6654  143.7482  159.4789 C   0  0  0  0  0  0  0  0  0  0  0  0
  151.1936  142.7515  158.4060 C   0  0  0  0  0  0  0  0  0  0  0  0
  152.8133  139.7572  157.0239 N   0  0  0  0  0  0  0  0  0  0  0  0
  152.6456  138.9321  155.9687 C   0  0  0  0  0  0  0  0  0  0  0  0
  149.7803  135.2264  157.6421 H   0  0  0  0  0  0  0  0  0  0  0  0
  148.3329  134.4709  156.9954 H   0  0  0  0  0  0  0  0  0  0  0  0
  148.5608  136.2085  156.8327 H   0  0  0  0  0  0  0  0  0  0  0  0
  150.2760  134.0309  155.4835 H   0  0  0  0  0  0  0  0  0  0  0  0
  149.0665  135.5084  153.5431 H   0  0  0  0  0  0  0  0  0  0  0  0
  145.9421  134.2974  153.2619 H   0  0  0  0  0  0  0  0  0  0  0  0
  147.3018  135.1502  152.5629 H   0  0  0  0  0  0  0  0  0  0  0  0
  149.8621  136.7248  153.5920 H   0  0  0  0  0  0  0  0  0  0  0  0
  152.4491  137.7686  153.5431 H   0  0  0  0  0  0  0  0  0  0  0  0
  150.9975  138.6062  153.0440 H   0  0  0  0  0  0  0  0  0  0  0  0
  149.8652  140.2839  154.5379 H   0  0  0  0  0  0  0  0  0  0  0  0
  150.1626  141.8061  156.4651 H   0  0  0  0  0  0  0  0  0  0  0  0
  151.4491  140.4894  159.9735 H   0  0  0  0  0  0  0  0  0  0  0  0
  153.1335  140.2281  159.5391 H   0  0  0  0  0  0  0  0  0  0  0  0
  152.9023  141.5912  161.6413 H   0  0  0  0  0  0  0  0  0  0  0  0
  153.7668  142.4664  160.3921 H   0  0  0  0  0  0  0  0  0  0  0  0
  150.9348  144.5490  159.5932 H   0  0  0  0  0  0  0  0  0  0  0  0
  152.6071  144.2164  159.1873 H   0  0  0  0  0  0  0  0  0  0  0  0
  151.1166  143.2698  157.4512 H   0  0  0  0  0  0  0  0  0  0  0  0
  150.1949  142.3861  158.6495 H   0  0  0  0  0  0  0  0  0  0  0  0
  153.3722  138.1391  155.8680 H   0  0  0  0  0  0  0  0  0  0  0  0
  1  2  1  0  0  0  0
  1 23  1  0  0  0  0
  1 24  1  0  0  0  0
  1 25  1  0  0  0  0
  2  3  1  0  0  0  0
  2  7  1  0  0  0  0
  2 26  1  0  0  0  0
  3  4  1  0  0  0  0
  3 27  1  0  0  0  0
  4  5  1  0  0  0  0
  4  6  2  0  0  0  0
  5 28  1  0  0  0  0
  5 29  1  0  0  0  0
  7  8  2  0  0  0  0
  7  9  1  0  0  0  0
  9 10  1  0  0  0  0
  9 30  1  0  0  0  0
 10 11  1  0  0  0  0
 10 31  1  0  0  0  0
 10 32  1  0  0  0  0
 11 22  1  0  0  0  0
 11 12  2  0  0  0  0
 12 13  1  0  0  0  0
 12 33  1  0  0  0  0
 13 14  2  0  0  0  0
 13 34  1  0  0  0  0
 14 15  1  0  0  0  0
 14 21  1  0  0  0  0
 15 20  1  0  0  0  0
 15 16  1  0  0  0  0
 16 17  1  0  0  0  0
 16 35  1  0  0  0  0
 16 36  1  0  0  0  0
 17 18  1  0  0  0  0
 17 37  1  0  0  0  0
 17 38  1  0  0  0  0
 18 19  1  0  0  0  0
 19 20  1  0  0  0  0
 19 39  1  0  0  0  0
 19 40  1  0  0  0  0
 20 41  1  0  0  0  0
 20 42  1  0  0  0  0
 21 22  2  0  0  0  0
 22 43  1  0  0  0  0
M  END
> <s_m_source_file>
AV-unprocessed.smi

> <i_m_source_file_index>
337

> <i_lp_mmshare_version>
43012

> <i_f3d_flags>
0

> <s_epik_input>
W05IMl1DKD1PKVtOSF1bQ0BASF0oW0NIM10pQyg9TylbTkhdW0NIMl1jMVtjSF1bY0hdYyhuW2NIXTEpTjJbQ0gyXVtDSDJdT1tDSDJdW0NIMl0y

> <s_epik_cmdline>
J2VwaWtfcHl0aG9uJywgJy1waCcsICc3LjAnLCAnLXRuJywgJzgnLCAnLW1hJywgJzIwMCcsICctbWV0YWxfYmluZGluZycsICctaW1hZScsICc8aW5maWxlLm1hZT4nLCAnLW9tYWUnLCAnPG91dGZpbGUubWFlPic=

> <r_lp_tautomer_probability>
1

> <r_epik_Ionization_Penalty>
0.0048357

> <r_epik_Ionization_Penalty_Charging>
0

> <r_epik_Ionization_Penalty_Neutral>
0.0048357

> <r_epik_State_Penalty>
0.0034696

> <r_epik_Charging_Adjusted_Penalty>
0.0034696

> <i_epik_Tot_Q>
0

> <i_epik_Tot_abs_Q>
0

> <r_epik_Metal_State_Penalty>
-0

> <b_epik_Metal_Only>
0

> <s_lp_Force_Field>
OPLS_2005

> <r_lp_Energy>
9.87941

> <b_lp_Chiralities_Consistent>
1

> <s_lp_Variant>
AV-unprocessed.smi:337-2

> <Gold.Version>
5.8.1

> <Gold.Id.Protein>
6NUR|6NUR_protein|mol2

> <Gold.PLP.Fitness>
48.3379

> <Gold.PLP.PLP>
-35.8580

> <Gold.PLP.part.hbond>
-6.3506

> <Gold.PLP.part.metal>
0.0000

> <Gold.PLP.part.buried>
-1.9867

> <Gold.PLP.part.nonpolar>
-26.7333

> <Gold.PLP.part.repulsive>
0.1876

> <Gold.PLP.ligand.clash>
0.8795

> <Gold.PLP.ligand.torsion>
0.8569

> <Gold.PLP.Chemscore.Hbond>
4.9120

> <Gold.PLP.Chemscore.CHOScore>
0.0000

> <Gold.PLP.Chemscore.Metal>
0.0000

> <Gold.Chemscore.Hbonds>
donor molecule, donor type, donor heavy atom, donor atom, acceptor molecule, acceptor atom, score
      L1  H     3    27       P1  7948  1.00
      L1  H     5    29       P1  7948  0.86
      L1  H     9    30       P1  7948  1.00
      P1  H  7997  8008       L1    21  1.00
      P1  H 10752 10765       L1     8  1.00

> <Gold.PLP.Chemscore.Internal.Correction>
0.3372

> <Gold.Rescore>
     Score         DG    S(hbond)    S(metal)    S(lipo)     H(rot)  DE(clash)    DE(int)     intcor
     14.52     -18.85       3.11        0.00      83.69       2.66       0.77       3.56       ----

> <Gold.Chemscore.Fitness>
14.5175

> <Gold.Chemscore.DG>
-18.8503

> <Gold.Chemscore.ZeroCoef>
-5.4800

> <Gold.Chemscore.Hbond>
3.1083

> <Gold.Chemscore.Metal>
0.0000

> <Gold.Chemscore.Lipo>
83.6863

> <Gold.Chemscore.Internal_Hbond>
0.0000

> <Gold.Chemscore.DEClash>
0.7734

> <Gold.Chemscore.DEInternal>
3.5594

> <Gold.Chemscore.Rot>
2.6573

> <Gold.Chemscore.Internal.Correction>
   9.000000E+99

> <Gold.Chemscore.Hbonds>
donor molecule, donor type, donor heavy atom, donor atom, acceptor molecule, acceptor atom, score
      L1  H     3    27       P1  7948  0.65
      L1  H     5    29       P1  7948  0.79
      L1  H     9    30       P1  7948  0.33
      P1  H  7997  8008       L1    21  0.24
      P1  H 10752 10765       L1     8  0.35

> <Gold.Chemscore.Hbond.Weighted>
-10.3817

> <Gold.Chemscore.Metal.Weighted>
-0.0000

> <Gold.Chemscore.Lipo.Weighted>
-9.7913

> <Gold.Chemscore.Internal_Hbond.Weighted>
0.0000

> <Gold.Chemscore.DEClash.Weighted>
0.7734

> <Gold.Chemscore.DEInternal.Weighted>
3.5594

> <Gold.Chemscore.Rot.Weighted>
6.8027

> <Gold.Chemscore.Internal.Correction.Weighted>
   9.000000E+99

> <Gold.Protein.RotatedTorsions>
[ 6907 6896 6895 6894 ] final  115.51 input  -60.11 | X-H torsion
[ 7974 7965 7964 7962 ] final   22.87 input  175.53 | X-H torsion
[ 8008 7997 7996 7995 ] final  -77.53 input   59.86 | X-H torsion
[ 10167 10162 10161 10158 ] final   36.03 input  -65.29 | X-H torsion
[ 10718 10713 10712 10709 ] final   80.47 input   66.30 | X-H torsion
[ 10763 10752 10751 10750 ] final -143.96 input  -60.55 | X-H torsion
[ 11005 11000 10999 10996 ] final -110.91 input  -57.11 | X-H torsion

> <Gold.Protein.ActiveResidues>
 VAL166  LYS551  ARG553  GLY616  TRP617  ASP618  TYR619  PRO620  LYS621  CYS622 
 ASP623  PHE694  ASN695  SER759  ASP760  ASP761  ALA762  ILE779  LEU786  VAL792 
 PHE793  MET794  SER795  GLU796  ALA797  LYS798  CYS799  TRP800  GLU811  SER814 

> <Gold.Protein.RotatedAtoms>
  152.4737  133.8088  159.6991 H   0  0  0  0  0  0  0  0  0  0  0  0  # atno 6907 bound_to 6896
  150.8740  133.7455  159.2959 H   0  0  0  0  0  0  0  0  0  0  0  0  # atno 6908 bound_to 6896
  151.4981  135.1064  159.9873 H   0  0  0  0  0  0  0  0  0  0  0  0  # atno 6909 bound_to 6896
  146.2010  139.7825  142.8761 H   0  0  0  0  0  0  0  0  0  0  0  0  # atno 7974 bound_to 7965
  154.5605  140.0709  156.8811 H   0  0  0  0  0  0  0  0  0  0  0  0  # atno 8008 bound_to 7997
  155.2821  140.3372  155.4239 H   0  0  0  0  0  0  0  0  0  0  0  0  # atno 8009 bound_to 7997
  156.2038  140.1732  156.7829 H   0  0  0  0  0  0  0  0  0  0  0  0  # atno 8010 bound_to 7997
  140.4166  144.1518  150.6144 H   0  0  0  0  0  0  0  0  0  0  0  0  # atno 10167 bound_to 10162
  157.6807  130.9961  150.2084 H   0  0  0  0  0  0  0  0  0  0  0  0  # atno 10718 bound_to 10713
  154.8448  135.3453  154.6270 H   0  0  0  0  0  0  0  0  0  0  0  0  # atno 10763 bound_to 10752
  153.6879  135.6976  153.5103 H   0  0  0  0  0  0  0  0  0  0  0  0  # atno 10764 bound_to 10752
  153.2617  135.4320  155.0856 H   0  0  0  0  0  0  0  0  0  0  0  0  # atno 10765 bound_to 10752
  141.0765  133.9293  157.2379 H   0  0  0  0  0  0  0  0  0  0  0  0  # atno 11005 bound_to 11000
  145.3484  141.0302  143.3352 LP  0  0  0  0  0  0  0  0  0  0  0  0  # atno 17320 bound_to 7965
  144.8683  139.5075  143.6780 LP  0  0  0  0  0  0  0  0  0  0  0  0  # atno 17321 bound_to 7965
  140.4580  143.2460  151.9259 LP  0  0  0  0  0  0  0  0  0  0  0  0  # atno 17342 bound_to 10162
  139.4782  144.5496  151.8405 LP  0  0  0  0  0  0  0  0  0  0  0  0  # atno 17343 bound_to 10162
  156.2760  130.3727  149.7983 LP  0  0  0  0  0  0  0  0  0  0  0  0  # atno 17370 bound_to 10713
  156.5686  130.8415  151.3350 LP  0  0  0  0  0  0  0  0  0  0  0  0  # atno 17371 bound_to 10713
  139.9577  135.0161  156.9175 LP  0  0  0  0  0  0  0  0  0  0  0  0  # atno 17394 bound_to 11000
  140.5562  134.0579  155.7384 LP  0  0  0  0  0  0  0  0  0  0  0  0  # atno 17395 bound_to 11000

$$$$
