AV-unprocessed.smi:1979|AV-procd|sdf|8016|dock8
  -GOLD-   2272010213D 1   1.00000     0.00000
 Structure written by MMmdl.
 28 28  0  0  0  0  0  0  0  0  1 V2000
  153.7798  141.9590  162.3148 N   0  0  0  0  0  0  0  0  0  0  0  0
  153.2223  141.9915  161.3016 C   0  0  0  0  0  0  0  0  0  0  0  0
  152.5220  142.0321  160.0293 C   0  0  0  0  0  0  0  0  0  0  0  0
  152.1165  140.8446  159.3896 C   0  0  0  0  0  0  0  0  0  0  0  0
  151.4395  140.9337  158.1576 C   0  0  0  0  0  0  0  0  0  0  0  0
  151.1913  142.2147  157.6078 C   0  0  0  0  0  0  0  0  0  0  0  0
  150.5227  142.3976  156.3907 N   0  0  0  0  0  0  0  0  0  0  0  0
  150.2354  141.2638  155.5254 C   0  0  0  0  0  0  0  0  0  0  0  0
  148.9625  141.4904  154.7035 C   0  0  0  0  0  0  0  0  0  0  0  0
  148.7786  140.3942  153.8231 O   0  0  0  0  0  0  0  0  0  0  0  0
  147.5234  140.4225  153.1637 C   0  0  0  0  0  0  0  0  0  0  0  0
  147.2689  139.0577  152.5127 C   0  0  0  0  0  0  0  0  0  0  0  0
  146.2509  139.1656  151.5409 O   0  0  0  0  0  0  0  0  0  0  0  0
  151.5828  143.3530  158.2215 N   0  0  0  0  0  0  0  0  0  0  0  0
  152.2308  143.2605  159.4030 C   0  0  0  0  0  0  0  0  0  0  0  0
  152.3179  139.8785  159.8301 H   0  0  0  0  0  0  0  0  0  0  0  0
  151.1270  140.0282  157.6594 H   0  0  0  0  0  0  0  0  0  0  0  0
  150.0199  143.2594  156.2339 H   0  0  0  0  0  0  0  0  0  0  0  0
  151.0781  141.1241  154.8476 H   0  0  0  0  0  0  0  0  0  0  0  0
  150.1413  140.3536  156.1190 H   0  0  0  0  0  0  0  0  0  0  0  0
  148.0974  141.6162  155.3569 H   0  0  0  0  0  0  0  0  0  0  0  0
  149.0682  142.4069  154.1214 H   0  0  0  0  0  0  0  0  0  0  0  0
  146.7458  140.6158  153.9042 H   0  0  0  0  0  0  0  0  0  0  0  0
  147.4761  141.2261  152.4264 H   0  0  0  0  0  0  0  0  0  0  0  0
  148.1794  138.6525  152.0703 H   0  0  0  0  0  0  0  0  0  0  0  0
  146.9306  138.3458  153.2660 H   0  0  0  0  0  0  0  0  0  0  0  0
  145.5759  139.7363  151.8748 H   0  0  0  0  0  0  0  0  0  0  0  0
  152.5224  144.1966  159.8570 H   0  0  0  0  0  0  0  0  0  0  0  0
  1  2  3  0  0  0  0
  2  3  1  0  0  0  0
  3 15  1  0  0  0  0
  3  4  2  0  0  0  0
  4  5  1  0  0  0  0
  4 16  1  0  0  0  0
  5  6  2  0  0  0  0
  5 17  1  0  0  0  0
  6  7  1  0  0  0  0
  6 14  1  0  0  0  0
  7  8  1  0  0  0  0
  7 18  1  0  0  0  0
  8  9  1  0  0  0  0
  8 19  1  0  0  0  0
  8 20  1  0  0  0  0
  9 10  1  0  0  0  0
  9 21  1  0  0  0  0
  9 22  1  0  0  0  0
 10 11  1  0  0  0  0
 11 12  1  0  0  0  0
 11 23  1  0  0  0  0
 11 24  1  0  0  0  0
 12 13  1  0  0  0  0
 12 25  1  0  0  0  0
 12 26  1  0  0  0  0
 13 27  1  0  0  0  0
 14 15  2  0  0  0  0
 15 28  1  0  0  0  0
M  END
> <s_m_source_file>
AV-unprocessed.smi

> <i_m_source_file_index>
1979

> <i_lp_mmshare_version>
43012

> <i_f3d_flags>
0

> <s_epik_input>
TiNDYzFbY0hdW2NIXWMobltjSF0xKVtOSF1bQ0gyXVtDSDJdT1tDSDJdW0NIMl1bT0hd

> <s_epik_cmdline>
J2VwaWtfcHl0aG9uJywgJy1waCcsICc3LjAnLCAnLXRuJywgJzgnLCAnLW1hJywgJzIwMCcsICctbWV0YWxfYmluZGluZycsICctaW1hZScsICc8aW5maWxlLm1hZT4nLCAnLW9tYWUnLCAnPG91dGZpbGUubWFlPic=

> <r_lp_tautomer_probability>
1

> <r_epik_Ionization_Penalty>
1.11368e-05

> <r_epik_Ionization_Penalty_Charging>
0

> <r_epik_Ionization_Penalty_Neutral>
1.11368e-05

> <r_epik_State_Penalty>
-0

> <r_epik_Charging_Adjusted_Penalty>
0

> <i_epik_Tot_Q>
0

> <i_epik_Tot_abs_Q>
0

> <r_epik_Metal_State_Penalty>
-0

> <b_epik_Metal_Only>
0

> <s_lp_Force_Field>
OPLS_2005

> <r_lp_Energy>
5.28627

> <b_lp_Chiralities_Consistent>
1

> <s_lp_Variant>
AV-unprocessed.smi:1979-1

> <Gold.Version>
5.8.1

> <Gold.Id.Protein>
6NUR|6NUR_protein|mol2

> <Gold.PLP.Fitness>
39.5639

> <Gold.PLP.PLP>
-34.2237

> <Gold.PLP.part.hbond>
-4.0000

> <Gold.PLP.part.metal>
0.0000

> <Gold.PLP.part.buried>
-5.4432

> <Gold.PLP.part.nonpolar>
-26.6340

> <Gold.PLP.part.repulsive>
0.9290

> <Gold.PLP.ligand.clash>
0.0000

> <Gold.PLP.ligand.torsion>
0.3481

> <Gold.PLP.Chemscore.Hbond>
2.0000

> <Gold.PLP.Chemscore.CHOScore>
0.0000

> <Gold.PLP.Chemscore.Metal>
0.0000

> <Gold.Chemscore.Hbonds>
donor molecule, donor type, donor heavy atom, donor atom, acceptor molecule, acceptor atom, score
      L1  H     7    18       P1  8028  1.00
      L1  H    13    27       P1 10175  0.83

> <Gold.PLP.Chemscore.Internal.Correction>
0.0365

> <Gold.Rescore>
     Score         DG    S(hbond)    S(metal)    S(lipo)     H(rot)  DE(clash)    DE(int)     intcor
     11.86     -12.21       1.97        0.00      64.21       2.88       0.02       0.33       ----

> <Gold.Chemscore.Fitness>
11.8617

> <Gold.Chemscore.DG>
-12.2115

> <Gold.Chemscore.ZeroCoef>
-5.4800

> <Gold.Chemscore.Hbond>
1.9728

> <Gold.Chemscore.Metal>
0.0000

> <Gold.Chemscore.Lipo>
64.2075

> <Gold.Chemscore.Internal_Hbond>
0.0000

> <Gold.Chemscore.DEClash>
0.0158

> <Gold.Chemscore.DEInternal>
0.3341

> <Gold.Chemscore.Rot>
2.8788

> <Gold.Chemscore.Internal.Correction>
   9.000000E+99

> <Gold.Chemscore.Hbonds>
donor molecule, donor type, donor heavy atom, donor atom, acceptor molecule, acceptor atom, score
      L1  H     7    18       P1  8028  0.99
      L1  H    13    27       P1 10175  0.60

> <Gold.Chemscore.Hbond.Weighted>
-6.5891

> <Gold.Chemscore.Metal.Weighted>
-0.0000

> <Gold.Chemscore.Lipo.Weighted>
-7.5123

> <Gold.Chemscore.Internal_Hbond.Weighted>
0.0000

> <Gold.Chemscore.DEClash.Weighted>
0.0158

> <Gold.Chemscore.DEInternal.Weighted>
0.3341

> <Gold.Chemscore.Rot.Weighted>
7.3699

> <Gold.Chemscore.Internal.Correction.Weighted>
   9.000000E+99

> <Gold.Protein.RotatedTorsions>
[ 6907 6896 6895 6894 ] final  149.97 input  -60.11 | X-H torsion
[ 7974 7965 7964 7962 ] final  106.68 input  175.53 | X-H torsion
[ 8008 7997 7996 7995 ] final  -49.65 input   59.86 | X-H torsion
[ 10167 10162 10161 10158 ] final  -22.88 input  -65.29 | X-H torsion
[ 10718 10713 10712 10709 ] final  144.62 input   66.30 | X-H torsion
[ 10763 10752 10751 10750 ] final   11.21 input  -60.55 | X-H torsion
[ 11005 11000 10999 10996 ] final   79.36 input  -57.11 | X-H torsion

> <Gold.Protein.ActiveResidues>
 VAL166  LYS551  ARG553  GLY616  TRP617  ASP618  TYR619  PRO620  LYS621  CYS622 
 ASP623  PHE694  ASN695  SER759  ASP760  ASP761  ALA762  ILE779  LEU786  VAL792 
 PHE793  MET794  SER795  GLU796  ALA797  LYS798  CYS799  TRP800  GLU811  SER814 

> <Gold.Protein.RotatedAtoms>
  152.1208  133.4352  159.4674 H   0  0  0  0  0  0  0  0  0  0  0  0  # atno 6907 bound_to 6896
  150.6872  134.2537  159.4530 H   0  0  0  0  0  0  0  0  0  0  0  0  # atno 6908 bound_to 6896
  152.0414  134.9709  160.0624 H   0  0  0  0  0  0  0  0  0  0  0  0  # atno 6909 bound_to 6896
  145.3034  139.2562  143.3801 H   0  0  0  0  0  0  0  0  0  0  0  0  # atno 7974 bound_to 7965
  154.4048  140.1291  156.4537 H   0  0  0  0  0  0  0  0  0  0  0  0  # atno 8008 bound_to 7997
  155.7341  140.3491  155.5053 H   0  0  0  0  0  0  0  0  0  0  0  0  # atno 8009 bound_to 7997
  155.9100  140.1034  157.1277 H   0  0  0  0  0  0  0  0  0  0  0  0  # atno 8010 bound_to 7997
  140.7287  143.4494  151.0538 H   0  0  0  0  0  0  0  0  0  0  0  0  # atno 10167 bound_to 10162
  157.3550  131.0956  151.0967 H   0  0  0  0  0  0  0  0  0  0  0  0  # atno 10718 bound_to 10713
  153.1950  135.6848  153.8304 H   0  0  0  0  0  0  0  0  0  0  0  0  # atno 10763 bound_to 10752
  153.7590  135.3212  155.3335 H   0  0  0  0  0  0  0  0  0  0  0  0  # atno 10764 bound_to 10752
  154.8139  135.4699  154.0690 H   0  0  0  0  0  0  0  0  0  0  0  0  # atno 10765 bound_to 10752
  139.9176  134.7836  156.1769 H   0  0  0  0  0  0  0  0  0  0  0  0  # atno 11005 bound_to 11000
  146.3144  140.3554  142.8660 LP  0  0  0  0  0  0  0  0  0  0  0  0  # atno 17320 bound_to 7965
  144.9074  140.7717  143.5829 LP  0  0  0  0  0  0  0  0  0  0  0  0  # atno 17321 bound_to 7965
  139.8169  143.7873  152.3175 LP  0  0  0  0  0  0  0  0  0  0  0  0  # atno 17342 bound_to 10162
  139.7942  144.7399  150.9913 LP  0  0  0  0  0  0  0  0  0  0  0  0  # atno 17343 bound_to 10162
  157.2128  130.6445  149.5781 LP  0  0  0  0  0  0  0  0  0  0  0  0  # atno 17370 bound_to 10713
  155.9727  130.4654  150.6253 LP  0  0  0  0  0  0  0  0  0  0  0  0  # atno 17371 bound_to 10713
  141.0666  133.6816  156.2057 LP  0  0  0  0  0  0  0  0  0  0  0  0  # atno 17394 bound_to 11000
  140.6575  134.5003  157.5581 LP  0  0  0  0  0  0  0  0  0  0  0  0  # atno 17395 bound_to 11000

$$$$
