AV-unprocessed.smi:3155|AV-procd|sdf|12026|dock3
  -GOLD-   2272017443D 1   1.00000     0.00000
 Structure written by MMmdl.
 38 39  0  0  0  0  0  0  0  0  2 V2000
  151.6595  140.8470  157.5083 C   0  0  0  0  0  0  0  0  0  0  0  0
  150.7428  142.0838  157.4313 C   0  0  1  0  0  0  0  0  0  0  0  0
  151.4844  143.3873  157.7937 C   0  0  0  0  0  0  0  0  0  0  0  0
  151.7742  143.5014  159.2117 N   0  0  0  0  0  0  0  0  0  0  0  0
  152.4451  142.6135  160.0266 C   0  0  0  0  0  0  0  0  0  0  0  0
  152.4764  143.1564  161.2789 C   0  0  0  0  0  0  0  0  0  0  0  0
  151.7969  144.3973  161.1274 C   0  0  0  0  0  0  0  0  0  0  0  0
  151.3806  144.6020  159.8881 N   0  0  0  0  0  0  0  0  0  0  0  0
  150.1435  142.2219  156.0854 N   0  3  0  0  0  0  0  0  0  0  0  0
  149.0597  141.2646  155.7705 C   0  0  0  0  0  0  0  0  0  0  0  0
  148.2546  141.6820  154.5317 C   0  0  0  0  0  0  0  0  0  0  0  0
  148.7152  141.4770  153.4075 O   0  0  0  0  0  0  0  0  0  0  0  0
  147.0545  142.2684  154.7199 N   0  0  0  0  0  0  0  0  0  0  0  0
  146.4848  142.5386  156.0387 C   0  0  0  0  0  0  0  0  0  0  0  0
  145.2687  143.4309  155.7898 C   0  0  0  0  0  0  0  0  0  0  0  0
  144.8446  143.0924  154.3674 C   0  0  0  0  0  0  0  0  0  0  0  0
  146.1504  142.7220  153.6633 C   0  0  0  0  0  0  0  0  0  0  0  0
  152.0798  140.7236  158.5067 H   0  0  0  0  0  0  0  0  0  0  0  0
  152.4908  140.9274  156.8073 H   0  0  0  0  0  0  0  0  0  0  0  0
  151.1204  139.9278  157.2816 H   0  0  0  0  0  0  0  0  0  0  0  0
  149.9274  141.9558  158.1450 H   0  0  0  0  0  0  0  0  0  0  0  0
  152.4247  143.4526  157.2440 H   0  0  0  0  0  0  0  0  0  0  0  0
  150.8913  144.2547  157.5001 H   0  0  0  0  0  0  0  0  0  0  0  0
  152.8375  141.6790  159.6532 H   0  0  0  0  0  0  0  0  0  0  0  0
  152.9195  142.7332  162.1682 H   0  0  0  0  0  0  0  0  0  0  0  0
  151.5966  145.1506  161.8753 H   0  0  0  0  0  0  0  0  0  0  0  0
  149.7441  143.1477  156.0206 H   0  0  0  0  0  0  0  0  0  0  0  0
  149.4817  140.2741  155.6018 H   0  0  0  0  0  0  0  0  0  0  0  0
  148.3841  141.1991  156.6241 H   0  0  0  0  0  0  0  0  0  0  0  0
  146.1803  141.5946  156.4931 H   0  0  0  0  0  0  0  0  0  0  0  0
  147.2001  143.0213  156.7064 H   0  0  0  0  0  0  0  0  0  0  0  0
  144.4724  143.2735  156.5180 H   0  0  0  0  0  0  0  0  0  0  0  0
  145.5665  144.4788  155.8424 H   0  0  0  0  0  0  0  0  0  0  0  0
  144.1795  142.2277  154.3825 H   0  0  0  0  0  0  0  0  0  0  0  0
  144.3163  143.9104  153.8767 H   0  0  0  0  0  0  0  0  0  0  0  0
  146.5806  143.5979  153.1755 H   0  0  0  0  0  0  0  0  0  0  0  0
  145.9793  141.9572  152.9048 H   0  0  0  0  0  0  0  0  0  0  0  0
  150.8701  142.1424  155.3882 H   0  0  0  0  0  0  0  0  0  0  0  0
  1  2  1  0  0  0  0
  1 18  1  0  0  0  0
  1 19  1  0  0  0  0
  1 20  1  0  0  0  0
  2  3  1  0  0  0  0
  2  9  1  0  0  0  0
  2 21  1  0  0  0  0
  3  4  1  0  0  0  0
  3 22  1  0  0  0  0
  3 23  1  0  0  0  0
  4  8  1  0  0  0  0
  4  5  1  0  0  0  0
  5  6  2  0  0  0  0
  5 24  1  0  0  0  0
  6  7  1  0  0  0  0
  6 25  1  0  0  0  0
  7  8  2  0  0  0  0
  7 26  1  0  0  0  0
  9 10  1  0  0  0  0
  9 27  1  0  0  0  0
  9 38  1  0  0  0  0
 10 11  1  0  0  0  0
 10 28  1  0  0  0  0
 10 29  1  0  0  0  0
 11 12  2  0  0  0  0
 11 13  1  0  0  0  0
 13 17  1  0  0  0  0
 13 14  1  0  0  0  0
 14 15  1  0  0  0  0
 14 30  1  0  0  0  0
 14 31  1  0  0  0  0
 15 16  1  0  0  0  0
 15 32  1  0  0  0  0
 15 33  1  0  0  0  0
 16 17  1  0  0  0  0
 16 34  1  0  0  0  0
 16 35  1  0  0  0  0
 17 36  1  0  0  0  0
 17 37  1  0  0  0  0
M  CHG  1   9   1
M  END
> <s_m_source_file>
AV-unprocessed.smi

> <i_m_source_file_index>
3155

> <i_lp_mmshare_version>
43012

> <i_f3d_flags>
0

> <s_epik_input>
bjFbY0hdW2NIXVtjSF1uMVtDSDJdW0NAQEhdKFtDSDNdKVtOSF1bQ0gyXUMoPU8pTjJbQ0gyXVtDSDJdW0NIMl1bQ0gyXTI=

> <s_epik_cmdline>
J2VwaWtfcHl0aG9uJywgJy1waCcsICc3LjAnLCAnLXRuJywgJzgnLCAnLW1hJywgJzIwMCcsICctbWV0YWxfYmluZGluZycsICctaW1hZScsICc8aW5maWxlLm1hZT4nLCAnLW9tYWUnLCAnPG91dGZpbGUubWFlPic=

> <r_lp_tautomer_probability>
1

> <r_epik_Ionization_Penalty>
0.120138

> <r_epik_Ionization_Penalty_Charging>
0.120135

> <r_epik_Ionization_Penalty_Neutral>
3.43791e-06

> <r_epik_State_Penalty>
0.109683

> <r_epik_Charging_Adjusted_Penalty>
0.229818

> <i_epik_Tot_Q>
1

> <i_epik_Tot_abs_Q>
1

> <r_epik_Metal_State_Penalty>
0.109693

> <b_epik_Metal_Only>
0

> <s_lp_Force_Field>
OPLS_2005

> <r_lp_Energy>
27.7776

> <b_lp_Chiralities_Consistent>
1

> <s_lp_Variant>
AV-unprocessed.smi:3155-2

> <Gold.Version>
5.8.1

> <Gold.Id.Protein>
6NUR|6NUR_protein|mol2

> <Gold.PLP.Fitness>
46.1735

> <Gold.PLP.PLP>
-39.0493

> <Gold.PLP.part.hbond>
-2.0000

> <Gold.PLP.part.metal>
0.0000

> <Gold.PLP.part.buried>
-4.2534

> <Gold.PLP.part.nonpolar>
-32.8233

> <Gold.PLP.part.repulsive>
1.4768

> <Gold.PLP.ligand.clash>
0.0000

> <Gold.PLP.ligand.torsion>
0.5803

> <Gold.PLP.Chemscore.Hbond>
2.7520

> <Gold.PLP.Chemscore.CHOScore>
0.0000

> <Gold.PLP.Chemscore.Metal>
0.0000

> <Gold.Chemscore.Hbonds>
donor molecule, donor type, donor heavy atom, donor atom, acceptor molecule, acceptor atom, score
      L1  H     9    27       P1  8028  2.00
      P1  H  8011  8017       L1    12  0.82

> <Gold.PLP.Chemscore.Internal.Correction>
0.0288

> <Gold.Rescore>
     Score         DG    S(hbond)    S(metal)    S(lipo)     H(rot)  DE(clash)    DE(int)     intcor
     15.23     -16.22       1.76        0.00      81.80       1.84       0.47       0.51       ----

> <Gold.Chemscore.Fitness>
15.2323

> <Gold.Chemscore.DG>
-16.2181

> <Gold.Chemscore.ZeroCoef>
-5.4800

> <Gold.Chemscore.Hbond>
1.7572

> <Gold.Chemscore.Metal>
0.0000

> <Gold.Chemscore.Lipo>
81.7993

> <Gold.Chemscore.Internal_Hbond>
0.0000

> <Gold.Chemscore.DEClash>
0.4745

> <Gold.Chemscore.DEInternal>
0.5113

> <Gold.Chemscore.Rot>
1.8366

> <Gold.Chemscore.Internal.Correction>
   9.000000E+99

> <Gold.Chemscore.Hbonds>
donor molecule, donor type, donor heavy atom, donor atom, acceptor molecule, acceptor atom, score
      L1  H     9    27       P1  8028  1.00
      P1  H  8011  8017       L1    12  0.80

> <Gold.Chemscore.Hbond.Weighted>
-5.8692

> <Gold.Chemscore.Metal.Weighted>
-0.0000

> <Gold.Chemscore.Lipo.Weighted>
-9.5705

> <Gold.Chemscore.Internal_Hbond.Weighted>
0.0000

> <Gold.Chemscore.DEClash.Weighted>
0.4745

> <Gold.Chemscore.DEInternal.Weighted>
0.5113

> <Gold.Chemscore.Rot.Weighted>
4.7017

> <Gold.Chemscore.Internal.Correction.Weighted>
   9.000000E+99

> <Gold.Protein.RotatedTorsions>
[ 6907 6896 6895 6894 ] final -135.44 input  -60.11 | X-H torsion
[ 7974 7965 7964 7962 ] final  -59.83 input  175.53 | X-H torsion
[ 8008 7997 7996 7995 ] final -149.73 input   59.86 | X-H torsion
[ 10167 10162 10161 10158 ] final  121.41 input  -65.29 | X-H torsion
[ 10718 10713 10712 10709 ] final  -83.52 input   66.30 | X-H torsion
[ 10763 10752 10751 10750 ] final  -12.09 input  -60.55 | X-H torsion
[ 11005 11000 10999 10996 ] final   67.46 input  -57.11 | X-H torsion

> <Gold.Protein.ActiveResidues>
 VAL166  LYS551  ARG553  GLY616  TRP617  ASP618  TYR619  PRO620  LYS621  CYS622 
 ASP623  PHE694  ASN695  SER759  ASP760  ASP761  ALA762  ILE779  LEU786  VAL792 
 PHE793  MET794  SER795  GLU796  ALA797  LYS798  CYS799  TRP800  GLU811  SER814 

> <Gold.Protein.RotatedAtoms>
  150.9979  133.6085  159.2698 H   0  0  0  0  0  0  0  0  0  0  0  0  # atno 6907 bound_to 6896
  151.3281  135.0834  159.9339 H   0  0  0  0  0  0  0  0  0  0  0  0  # atno 6908 bound_to 6896
  152.5265  133.9614  159.7773 H   0  0  0  0  0  0  0  0  0  0  0  0  # atno 6909 bound_to 6896
  145.8228  140.8529  143.0124 H   0  0  0  0  0  0  0  0  0  0  0  0  # atno 7974 bound_to 7965
  155.6123  140.0673  157.2702 H   0  0  0  0  0  0  0  0  0  0  0  0  # atno 8008 bound_to 7997
  154.4250  140.1799  156.1333 H   0  0  0  0  0  0  0  0  0  0  0  0  # atno 8009 bound_to 7997
  156.0075  140.3330  155.6911 H   0  0  0  0  0  0  0  0  0  0  0  0  # atno 8010 bound_to 7997
  139.5921  144.7029  151.3265 H   0  0  0  0  0  0  0  0  0  0  0  0  # atno 10167 bound_to 10162
  156.0017  130.4668  150.4269 H   0  0  0  0  0  0  0  0  0  0  0  0  # atno 10718 bound_to 10713
  153.4933  135.7017  153.5872 H   0  0  0  0  0  0  0  0  0  0  0  0  # atno 10763 bound_to 10752
  153.4035  135.3866  155.2003 H   0  0  0  0  0  0  0  0  0  0  0  0  # atno 10764 bound_to 10752
  154.8715  135.3887  154.4396 H   0  0  0  0  0  0  0  0  0  0  0  0  # atno 10765 bound_to 10752
  139.9769  134.6807  156.0336 H   0  0  0  0  0  0  0  0  0  0  0  0  # atno 11005 bound_to 11000
  144.6746  140.0558  143.7477 LP  0  0  0  0  0  0  0  0  0  0  0  0  # atno 17320 bound_to 7965
  145.9656  139.2832  143.1129 LP  0  0  0  0  0  0  0  0  0  0  0  0  # atno 17321 bound_to 7965
  140.7182  143.7209  150.7696 LP  0  0  0  0  0  0  0  0  0  0  0  0  # atno 17342 bound_to 10162
  140.0767  143.5008  152.2551 LP  0  0  0  0  0  0  0  0  0  0  0  0  # atno 17343 bound_to 10162
  157.2321  131.0506  151.2486 LP  0  0  0  0  0  0  0  0  0  0  0  0  # atno 17370 bound_to 10713
  157.3701  130.7176  149.6559 LP  0  0  0  0  0  0  0  0  0  0  0  0  # atno 17371 bound_to 10713
  141.1446  133.6558  156.3828 LP  0  0  0  0  0  0  0  0  0  0  0  0  # atno 17394 bound_to 11000
  140.5175  134.6336  157.5306 LP  0  0  0  0  0  0  0  0  0  0  0  0  # atno 17395 bound_to 11000

$$$$
