AV-unprocessed.smi:2667|AV-procd|sdf|10334|dock8
  -GOLD-   2272014353D 1   1.00000     0.00000
 Structure written by MMmdl.
 44 46  0  0  0  0  0  0  0  0  1 V2000
  152.0892  131.0027  165.5774 C   0  0  0  0  0  0  0  0  0  0  0  0
  153.4136  131.7823  165.5507 C   0  0  0  0  0  0  0  0  0  0  0  0
  153.8871  132.1602  164.1385 C   0  0  0  0  0  0  0  0  0  0  0  0
  154.1827  131.2742  163.3351 O   0  0  0  0  0  0  0  0  0  0  0  0
  153.9646  133.6125  163.8064 C   0  0  0  0  0  0  0  0  0  0  0  0
  154.1863  134.0683  162.4858 C   0  0  0  0  0  0  0  0  0  0  0  0
  154.2592  135.4466  162.2087 C   0  0  0  0  0  0  0  0  0  0  0  0
  154.1133  136.4013  163.2342 C   0  0  0  0  0  0  0  0  0  0  0  0
  154.2042  137.7283  162.8739 O   0  0  0  0  0  0  0  0  0  0  0  0
  154.9778  138.0664  161.7293 C   0  0  0  0  0  0  0  0  0  0  0  0
  155.6044  139.4589  161.9125 C   0  0  2  0  0  0  0  0  0  0  0  0
  156.5992  139.3835  162.9175 O   0  0  0  0  0  0  0  0  0  0  0  0
  154.5677  140.5965  162.1146 C   0  0  0  0  0  0  0  0  0  0  0  0
  153.8864  141.0128  160.8996 N   0  0  0  0  0  0  0  0  0  0  0  0
  153.8152  140.3355  159.7372 C   0  0  0  0  0  0  0  0  0  0  0  0
  153.1468  140.9055  158.7390 N   0  0  0  0  0  0  0  0  0  0  0  0
  152.7299  142.0895  159.3231 C   0  0  0  0  0  0  0  0  0  0  0  0
  151.9698  143.1560  158.7915 C   0  0  0  0  0  0  0  0  0  0  0  0
  151.6601  144.2790  159.5869 C   0  0  0  0  0  0  0  0  0  0  0  0
  152.1012  144.3512  160.9242 C   0  0  0  0  0  0  0  0  0  0  0  0
  152.8581  143.3003  161.4757 C   0  0  0  0  0  0  0  0  0  0  0  0
  153.1710  142.1846  160.6775 C   0  0  0  0  0  0  0  0  0  0  0  0
  153.8872  135.9475  164.5566 C   0  0  0  0  0  0  0  0  0  0  0  0
  153.8148  134.5690  164.8359 C   0  0  0  0  0  0  0  0  0  0  0  0
  151.8071  130.7621  166.6024 H   0  0  0  0  0  0  0  0  0  0  0  0
  152.1688  130.0630  165.0295 H   0  0  0  0  0  0  0  0  0  0  0  0
  151.2760  131.5829  165.1402 H   0  0  0  0  0  0  0  0  0  0  0  0
  153.3037  132.6955  166.1362 H   0  0  0  0  0  0  0  0  0  0  0  0
  154.1904  131.1859  166.0296 H   0  0  0  0  0  0  0  0  0  0  0  0
  154.3052  133.3780  161.6643 H   0  0  0  0  0  0  0  0  0  0  0  0
  154.4290  135.7736  161.1933 H   0  0  0  0  0  0  0  0  0  0  0  0
  155.7553  137.3212  161.5515 H   0  0  0  0  0  0  0  0  0  0  0  0
  154.3300  138.0873  160.8516 H   0  0  0  0  0  0  0  0  0  0  0  0
  156.1524  139.6818  160.9961 H   0  0  0  0  0  0  0  0  0  0  0  0
  156.9319  140.2532  163.0773 H   0  0  0  0  0  0  0  0  0  0  0  0
  153.8083  140.2721  162.8272 H   0  0  0  0  0  0  0  0  0  0  0  0
  155.0312  141.4741  162.5666 H   0  0  0  0  0  0  0  0  0  0  0  0
  154.2872  139.3714  159.6156 H   0  0  0  0  0  0  0  0  0  0  0  0
  151.6247  143.1099  157.7692 H   0  0  0  0  0  0  0  0  0  0  0  0
  151.0797  145.0884  159.1692 H   0  0  0  0  0  0  0  0  0  0  0  0
  151.8578  145.2138  161.5270 H   0  0  0  0  0  0  0  0  0  0  0  0
  153.1930  143.3504  162.5002 H   0  0  0  0  0  0  0  0  0  0  0  0
  153.7671  136.6371  165.3780 H   0  0  0  0  0  0  0  0  0  0  0  0
  153.6429  134.2558  165.8559 H   0  0  0  0  0  0  0  0  0  0  0  0
  1  2  1  0  0  0  0
  1 25  1  0  0  0  0
  1 26  1  0  0  0  0
  1 27  1  0  0  0  0
  2  3  1  0  0  0  0
  2 28  1  0  0  0  0
  2 29  1  0  0  0  0
  3  4  2  0  0  0  0
  3  5  1  0  0  0  0
  5 24  1  0  0  0  0
  5  6  2  0  0  0  0
  6  7  1  0  0  0  0
  6 30  1  0  0  0  0
  7  8  2  0  0  0  0
  7 31  1  0  0  0  0
  8  9  1  0  0  0  0
  8 23  1  0  0  0  0
  9 10  1  0  0  0  0
 10 11  1  0  0  0  0
 10 32  1  0  0  0  0
 10 33  1  0  0  0  0
 11 12  1  0  0  0  0
 11 13  1  0  0  0  0
 11 34  1  0  0  0  0
 12 35  1  0  0  0  0
 13 14  1  0  0  0  0
 13 36  1  0  0  0  0
 13 37  1  0  0  0  0
 14 22  1  0  0  0  0
 14 15  1  0  0  0  0
 15 16  2  0  0  0  0
 15 38  1  0  0  0  0
 16 17  1  0  0  0  0
 17 22  2  0  0  0  0
 17 18  1  0  0  0  0
 18 19  2  0  0  0  0
 18 39  1  0  0  0  0
 19 20  1  0  0  0  0
 19 40  1  0  0  0  0
 20 21  2  0  0  0  0
 20 41  1  0  0  0  0
 21 22  1  0  0  0  0
 21 42  1  0  0  0  0
 23 24  2  0  0  0  0
 23 43  1  0  0  0  0
 24 44  1  0  0  0  0
M  END
> <s_m_source_file>
AV-unprocessed.smi

> <i_m_source_file_index>
2667

> <i_lp_mmshare_version>
43012

> <i_f3d_flags>
0

> <s_epik_input>
W0NIM11bQ0gyXUMoPU8pYzFbY0hdW2NIXWMoW2NIXVtjSF0xKU9bQ0gyXVtDQEhdKFtPSF0pW0NIMl1uKFtjSF1uMiljKGMyMylbY0hdW2NIXVtjSF1bY0hdMw==

> <s_epik_cmdline>
J2VwaWtfcHl0aG9uJywgJy1waCcsICc3LjAnLCAnLXRuJywgJzgnLCAnLW1hJywgJzIwMCcsICctbWV0YWxfYmluZGluZycsICctaW1hZScsICc8aW5maWxlLm1hZT4nLCAnLW9tYWUnLCAnPG91dGZpbGUubWFlPic=

> <r_lp_tautomer_probability>
0.9999

> <r_epik_Ionization_Penalty>
0.0583018

> <r_epik_Ionization_Penalty_Charging>
0

> <r_epik_Ionization_Penalty_Neutral>
0.0583018

> <r_epik_State_Penalty>
0.0504087

> <r_epik_Charging_Adjusted_Penalty>
0.0504087

> <i_epik_Tot_Q>
0

> <i_epik_Tot_abs_Q>
0

> <r_epik_Metal_State_Penalty>
5.26129e-05

> <b_epik_Metal_Only>
0

> <s_lp_Force_Field>
OPLS_2005

> <r_lp_Energy>
26.5089

> <b_lp_Chiralities_Consistent>
1

> <s_lp_Variant>
AV-unprocessed.smi:2667-1

> <Gold.Version>
5.8.1

> <Gold.Id.Protein>
6NUR|6NUR_protein|mol2

> <Gold.PLP.Fitness>
51.3691

> <Gold.PLP.PLP>
-52.3946

> <Gold.PLP.part.hbond>
-1.0000

> <Gold.PLP.part.metal>
0.0000

> <Gold.PLP.part.buried>
-1.7265

> <Gold.PLP.part.nonpolar>
-50.2026

> <Gold.PLP.part.repulsive>
0.0000

> <Gold.PLP.ligand.clash>
0.0000

> <Gold.PLP.ligand.torsion>
1.0573

> <Gold.PLP.Chemscore.Hbond>
0.3083

> <Gold.PLP.Chemscore.CHOScore>
0.0000

> <Gold.PLP.Chemscore.Metal>
0.0000

> <Gold.Chemscore.Hbonds>
donor molecule, donor type, donor heavy atom, donor atom, acceptor molecule, acceptor atom, score
      P1  H  7997  8010       L1    16  0.04

> <Gold.PLP.Chemscore.Internal.Correction>
0.1644

> <Gold.Rescore>
     Score         DG    S(hbond)    S(metal)    S(lipo)     H(rot)  DE(clash)    DE(int)     intcor
     17.00     -18.19       0.43        0.00     150.89       2.49       0.16       1.03       ----

> <Gold.Chemscore.Fitness>
17.0048

> <Gold.Chemscore.DG>
-18.1917

> <Gold.Chemscore.ZeroCoef>
-5.4800

> <Gold.Chemscore.Hbond>
0.4313

> <Gold.Chemscore.Metal>
0.0000

> <Gold.Chemscore.Lipo>
150.8870

> <Gold.Chemscore.Internal_Hbond>
0.0000

> <Gold.Chemscore.DEClash>
0.1568

> <Gold.Chemscore.DEInternal>
1.0301

> <Gold.Chemscore.Rot>
2.4932

> <Gold.Chemscore.Internal.Correction>
   9.000000E+99

> <Gold.Chemscore.Hbond.Weighted>
-1.4406

> <Gold.Chemscore.Metal.Weighted>
-0.0000

> <Gold.Chemscore.Lipo.Weighted>
-17.6538

> <Gold.Chemscore.Internal_Hbond.Weighted>
0.0000

> <Gold.Chemscore.DEClash.Weighted>
0.1568

> <Gold.Chemscore.DEInternal.Weighted>
1.0301

> <Gold.Chemscore.Rot.Weighted>
6.3826

> <Gold.Chemscore.Internal.Correction.Weighted>
   9.000000E+99

> <Gold.Protein.RotatedTorsions>
[ 6907 6896 6895 6894 ] final  -11.38 input  -60.11 | X-H torsion
[ 7974 7965 7964 7962 ] final   48.66 input  175.53 | X-H torsion
[ 8008 7997 7996 7995 ] final   26.08 input   59.86 | X-H torsion
[ 10167 10162 10161 10158 ] final -173.93 input  -65.29 | X-H torsion
[ 10718 10713 10712 10709 ] final   86.88 input   66.30 | X-H torsion
[ 10763 10752 10751 10750 ] final   46.34 input  -60.55 | X-H torsion
[ 11005 11000 10999 10996 ] final  163.27 input  -57.11 | X-H torsion

> <Gold.Protein.ActiveResidues>
 VAL166  LYS551  ARG553  GLY616  TRP617  ASP618  TYR619  PRO620  LYS621  CYS622 
 ASP623  PHE694  ASN695  SER759  ASP760  ASP761  ALA762  ILE779  LEU786  VAL792 
 PHE793  MET794  SER795  GLU796  ALA797  LYS798  CYS799  TRP800  GLU811  SER814 

> <Gold.Protein.RotatedAtoms>
  151.3871  135.0949  159.9514 H   0  0  0  0  0  0  0  0  0  0  0  0  # atno 6907 bound_to 6896
  152.5091  133.9016  159.7454 H   0  0  0  0  0  0  0  0  0  0  0  0  # atno 6908 bound_to 6896
  150.9461  133.6545  159.2809 H   0  0  0  0  0  0  0  0  0  0  0  0  # atno 6909 bound_to 6896
  146.0183  139.4621  142.9913 H   0  0  0  0  0  0  0  0  0  0  0  0  # atno 7974 bound_to 7965
  155.0217  140.3148  155.4791 H   0  0  0  0  0  0  0  0  0  0  0  0  # atno 8008 bound_to 7997
  156.2891  140.2196  156.5277 H   0  0  0  0  0  0  0  0  0  0  0  0  # atno 8009 bound_to 7997
  154.7446  140.0471  157.0829 H   0  0  0  0  0  0  0  0  0  0  0  0  # atno 8010 bound_to 7997
  139.5661  144.1752  152.1314 H   0  0  0  0  0  0  0  0  0  0  0  0  # atno 10167 bound_to 10162
  157.6934  131.0233  150.3039 H   0  0  0  0  0  0  0  0  0  0  0  0  # atno 10718 bound_to 10713
  152.9812  135.6011  154.3584 H   0  0  0  0  0  0  0  0  0  0  0  0  # atno 10763 bound_to 10752
  154.3268  135.2769  155.2494 H   0  0  0  0  0  0  0  0  0  0  0  0  # atno 10764 bound_to 10752
  154.4636  135.5960  153.6328 H   0  0  0  0  0  0  0  0  0  0  0  0  # atno 10765 bound_to 10752
  140.2341  134.8101  157.3346 H   0  0  0  0  0  0  0  0  0  0  0  0  # atno 11005 bound_to 11000
  145.7234  141.0067  143.1390 LP  0  0  0  0  0  0  0  0  0  0  0  0  # atno 17320 bound_to 7965
  144.6979  139.8897  143.7452 LP  0  0  0  0  0  0  0  0  0  0  0  0  # atno 17321 bound_to 7965
  140.1275  144.5318  150.6823 LP  0  0  0  0  0  0  0  0  0  0  0  0  # atno 17342 bound_to 10162
  140.6945  143.2395  151.5040 LP  0  0  0  0  0  0  0  0  0  0  0  0  # atno 17343 bound_to 10162
  156.3550  130.3837  149.7297 LP  0  0  0  0  0  0  0  0  0  0  0  0  # atno 17370 bound_to 10713
  156.4762  130.8020  151.3036 LP  0  0  0  0  0  0  0  0  0  0  0  0  # atno 17371 bound_to 10713
  140.1720  134.4596  155.7825 LP  0  0  0  0  0  0  0  0  0  0  0  0  # atno 17394 bound_to 11000
  141.2215  133.6946  156.7724 LP  0  0  0  0  0  0  0  0  0  0  0  0  # atno 17395 bound_to 11000

$$$$
