#       Name:                AV-unprocessed.smi:245
#       Creating user name   scv26
#       Creation time:       Thu Mar 26 20:51:50 2020


#       File generated by GOLD software.
#

@<TRIPOS>MOLECULE
AV-unprocessed.smi:245
    63    67     1
SMALL
NO_CHARGES


@<TRIPOS>ATOM
      1 ****        -4.9250  -2.5717   1.3227 O.2            1 S1                 0.0000
      2 ****        -4.4937  -1.4975   0.9104 C.2            1 S1                 0.0000
      3 ****        -2.9744  -1.2559   0.8685 C.3            1 S1                 0.0000
      4 ****        -2.5326  -0.0031   0.2258 N.pl3          1 S1                 0.0000
      5 ****        -1.1855   0.2275   0.0985 C.ar           1 S1                 0.0000
      6 ****        -0.7747   1.2368  -0.7179 N.ar           1 S1                 0.0000
      7 ****         0.5186   1.5145  -0.8885 C.ar           1 S1                 0.0000
      8 ****         1.5744   0.9168  -0.3421 N.ar           1 S1                 0.0000
      9 ****         1.1934  -0.0965   0.4858 C.ar           1 S1                 0.0000
     10 ****        -0.1470  -0.5058   0.7628 C.ar           1 S1                 0.0000
     11 ****        -0.1146  -1.5716   1.6584 N.2            1 S1                 0.0000
     12 ****         1.1509  -1.7777   1.8914 C.2            1 S1                 0.0000
     13 ****         2.0106  -0.9359   1.2276 N.pl3          1 S1                 0.0000
     14 ****         3.4451  -0.9472   1.3088 C.3            1 S1                 0.0000
     15 ****         4.2288   0.3134   1.6810 C.3            1 S1                 0.0000
     16 ****         5.3389  -0.0637   0.6741 C.3            1 S1                 0.0000
     17 ****         5.7794   1.0710  -0.2634 C.3            1 S1                 0.0000
     18 ****         6.3926   2.1257   0.4504 O.3            1 S1                 0.0000
     19 ****         6.6197  -0.7038   1.2525 C.3            1 S1                 0.0000
     20 ****         6.3565  -1.8134   2.0881 O.3            1 S1                 0.0000
     21 ****         4.3126  -1.0374   0.0506 C.3            1 S1                 0.0000
     22 ****        -3.4811   0.6950  -0.6595 C.3            1 S1                 0.0000
     23 ****        -3.5652   0.0161  -2.0493 C.3            1 S1                 0.0000
     24 ****        -4.6068   0.6945  -2.9516 C.3            1 S1                 0.0000
     25 ****        -5.9866   0.7255  -2.2785 C.3            1 S1                 0.0000
     26 ****        -5.9150   1.4239  -0.9108 C.3            1 S1                 0.0000
     27 ****        -4.8679   0.7798   0.0194 C.3            1 S1                 0.0000
     28 ****        -5.3154  -0.5296   0.4795 N.am           1 S1                 0.0000
     29 ****        -2.6482  -1.2540   1.9082 H              1 S1                 0.0000
     30 ****        -2.5087  -2.1070   0.3695 H              1 S1                 0.0000
     31 ****         0.7375   2.3327  -1.5584 H              1 S1                 0.0000
     32 ****         1.4909  -2.5555   2.5598 H              1 S1                 0.0000
     33 ****         3.7062  -1.7562   1.9926 H              1 S1                 0.0000
     34 ****         3.7080   1.2330   1.4110 H              1 S1                 0.0000
     35 ****         4.5516   0.3466   2.7221 H              1 S1                 0.0000
     36 ****         6.4717   0.7086  -1.0242 H              1 S1                 0.0000
     37 ****         4.9243   1.4864  -0.7980 H              1 S1                 0.0000
     38 ****         6.6197   2.8099  -0.1609 H              1 S1                 0.0000
     39 ****         7.2786  -1.0408   0.4516 H              1 S1                 0.0000
     40 ****         7.1867   0.0186   1.8406 H              1 S1                 0.0000
     41 ****         7.1791  -2.1438   2.4154 H              1 S1                 0.0000
     42 ****         4.6969  -2.0370  -0.1541 H              1 S1                 0.0000
     43 ****         3.8207  -0.6297  -0.8332 H              1 S1                 0.0000
     44 ****        -3.1746   1.7320  -0.8033 H              1 S1                 0.0000
     45 ****        -2.5922   0.0426  -2.5403 H              1 S1                 0.0000
     46 ****        -3.8198  -1.0387  -1.9417 H              1 S1                 0.0000
     47 ****        -4.2864   1.7119  -3.1798 H              1 S1                 0.0000
     48 ****        -4.6699   0.1684  -3.9046 H              1 S1                 0.0000
     49 ****        -6.7008   1.2414  -2.9209 H              1 S1                 0.0000
     50 ****        -6.3598  -0.2921  -2.1576 H              1 S1                 0.0000
     51 ****        -5.6608   2.4739  -1.0610 H              1 S1                 0.0000
     52 ****        -6.8970   1.4158  -0.4363 H              1 S1                 0.0000
     53 ****        -4.7799   1.4022   0.9115 H              1 S1                 0.0000
     54 ****        -6.3102  -0.7013   0.4968 H              1 S1                 0.0000
     55 ****        -5.9105  -2.7404   1.3424 LP             1 S1                 0.0000
     56 ****        -4.2905  -3.2771   1.6385 LP             1 S1                 0.0000
     57 ****        -1.4590   1.7829  -1.2011 LP             1 S1                 0.0000
     58 ****         2.5240   1.1773  -0.5163 LP             1 S1                 0.0000
     59 ****        -0.8930  -2.0702   2.0398 LP             1 S1                 0.0000
     60 ****         7.2186   1.7907   0.9036 LP             1 S1                 0.0000
     61 ****         5.7579   2.4829   1.1357 LP             1 S1                 0.0000
     62 ****         5.8906  -2.5268   1.5648 LP             1 S1                 0.0000
     63 ****         5.7784  -1.5299   2.8532 LP             1 S1                 0.0000
@<TRIPOS>BOND
    1    1    2 2     
    2    2   28 am    
    3    2    3 1     
    4    3    4 1     
    5    3   29 1     
    6    3   30 1     
    7    4    5 1     
    8    4   22 1     
    9    5   10 ar    
   10    5    6 ar    
   11    6    7 ar    
   12    7    8 ar    
   13    7   31 1     
   14    8    9 ar    
   15    9   13 1     
   16    9   10 ar    
   17   10   11 1     
   18   11   12 2     
   19   12   13 1     
   20   12   32 1     
   21   13   14 1     
   22   14   21 1     
   23   14   15 1     
   24   14   33 1     
   25   15   16 1     
   26   15   34 1     
   27   15   35 1     
   28   16   17 1     
   29   16   19 1     
   30   16   21 1     
   31   17   18 1     
   32   17   36 1     
   33   17   37 1     
   34   18   38 1     
   35   19   20 1     
   36   19   39 1     
   37   19   40 1     
   38   20   41 1     
   39   21   42 1     
   40   21   43 1     
   41   22   27 1     
   42   22   23 1     
   43   22   44 1     
   44   23   24 1     
   45   23   45 1     
   46   23   46 1     
   47   24   25 1     
   48   24   47 1     
   49   24   48 1     
   50   25   26 1     
   51   25   49 1     
   52   25   50 1     
   53   26   27 1     
   54   26   51 1     
   55   26   52 1     
   56   27   28 1     
   57   27   53 1     
   58   28   54 1     
   59    1   55 1     
   60    1   56 1     
   61    6   57 1     
   62    8   58 1     
   63   11   59 1     
   64   18   60 1     
   65   18   61 1     
   66   20   62 1     
   67   20   63 1     
@<TRIPOS>SUBSTRUCTURE
      1 S1             1
@<TRIPOS>SET
LONE_PAIRS      STATIC     ATOMS    <user>   **** ""
9 55 56 57 58 59 60 61 62 63
DONOR_HYDROGENS      STATIC     ATOMS    <user>   **** ""
3 38 41 54
ATOM$BLUE        STATIC     ATOMS    COLORGROUP SYSTEM
9 55 56 57 58 59 60 61 62 63
ATOM$RED        STATIC     ATOMS    COLORGROUP SYSTEM
3 38 41 54
