AV-unprocessed.smi:3079|AV-procd|sdf|11737|dock4
  -GOLD-   2272017133D 1   1.00000     0.00000
 Structure written by MMmdl.
 24 25  0  0  0  0  0  0  0  0  2 V2000
  148.7256  138.7206  153.4067 N   0  3  0  0  0  0  0  0  0  0  0  0
  149.6011  139.0180  154.5523 C   0  0  0  0  0  0  0  0  0  0  0  0
  149.6444  140.5228  154.8482 C   0  0  0  0  0  0  0  0  0  0  0  0
  150.3226  140.8280  156.1413 C   0  0  0  0  0  0  0  0  0  0  0  0
  150.5140  142.0691  156.5952 N   0  0  0  0  0  0  0  0  0  0  0  0
  151.1406  142.0950  157.8444 C   0  0  0  0  0  0  0  0  0  0  0  0
  151.4475  143.4102  158.4917 C   0  0  0  0  0  0  0  0  0  0  0  0
  152.2888  144.4497  157.7873 C   0  0  0  0  0  0  0  0  0  0  0  0
  152.8407  143.7192  158.9875 C   0  0  0  0  0  0  0  0  0  0  0  0
  151.4155  140.8438  158.3380 C   0  0  0  0  0  0  0  0  0  0  0  0
  150.8861  139.5868  157.2543 S   0  0  0  0  0  0  0  0  0  0  0  0
  148.8952  137.7763  153.0902 H   0  0  0  0  0  0  0  0  0  0  0  0
  148.9207  139.3666  152.6552 H   0  0  0  0  0  0  0  0  0  0  0  0
  149.2362  138.4708  155.4221 H   0  0  0  0  0  0  0  0  0  0  0  0
  150.6025  138.6457  154.3334 H   0  0  0  0  0  0  0  0  0  0  0  0
  150.1691  141.0499  154.0505 H   0  0  0  0  0  0  0  0  0  0  0  0
  148.6332  140.9309  154.8798 H   0  0  0  0  0  0  0  0  0  0  0  0
  150.6133  143.7680  159.0917 H   0  0  0  0  0  0  0  0  0  0  0  0
  152.7062  144.1970  156.8145 H   0  0  0  0  0  0  0  0  0  0  0  0
  152.0096  145.4931  157.9181 H   0  0  0  0  0  0  0  0  0  0  0  0
  152.9295  144.2754  159.9184 H   0  0  0  0  0  0  0  0  0  0  0  0
  153.6184  142.9791  158.8096 H   0  0  0  0  0  0  0  0  0  0  0  0
  151.8923  140.5865  159.2724 H   0  0  0  0  0  0  0  0  0  0  0  0
  147.7596  138.8115  153.6876 H   0  0  0  0  0  0  0  0  0  0  0  0
  1  2  1  0  0  0  0
  1 12  1  0  0  0  0
  1 13  1  0  0  0  0
  1 24  1  0  0  0  0
  2  3  1  0  0  0  0
  2 14  1  0  0  0  0
  2 15  1  0  0  0  0
  3  4  1  0  0  0  0
  3 16  1  0  0  0  0
  3 17  1  0  0  0  0
  4 11  1  0  0  0  0
  4  5  2  0  0  0  0
  5  6  1  0  0  0  0
  6  7  1  0  0  0  0
  6 10  2  0  0  0  0
  7  9  1  0  0  0  0
  7  8  1  0  0  0  0
  7 18  1  0  0  0  0
  8  9  1  0  0  0  0
  8 19  1  0  0  0  0
  8 20  1  0  0  0  0
  9 21  1  0  0  0  0
  9 22  1  0  0  0  0
 10 11  1  0  0  0  0
 10 23  1  0  0  0  0
M  CHG  1   1   1
M  END
> <s_m_source_file>
AV-unprocessed.smi

> <i_m_source_file_index>
3079

> <i_lp_mmshare_version>
43012

> <i_f3d_flags>
0

> <s_epik_input>
W05IMl1bQ0gyXVtDSDJdYzFuYyhbY0hdczEpW0NIXTJbQ0gyXVtDSDJdMg==

> <s_epik_cmdline>
J2VwaWtfcHl0aG9uJywgJy1waCcsICc3LjAnLCAnLXRuJywgJzgnLCAnLW1hJywgJzIwMCcsICctbWV0YWxfYmluZGluZycsICctaW1hZScsICc8aW5maWxlLm1hZT4nLCAnLW9tYWUnLCAnPG91dGZpbGUubWFlPic=

> <r_lp_tautomer_probability>
1

> <r_epik_Ionization_Penalty>
0.00466735

> <r_epik_Ionization_Penalty_Charging>
0.00465044

> <r_epik_Ionization_Penalty_Neutral>
1.6915e-05

> <r_epik_State_Penalty>
-0

> <r_epik_Charging_Adjusted_Penalty>
0.00465044

> <i_epik_Tot_Q>
1

> <i_epik_Tot_abs_Q>
1

> <r_epik_Metal_State_Penalty>
-0

> <b_epik_Metal_Only>
0

> <s_lp_Force_Field>
OPLS_2005

> <r_lp_Energy>
-1.43879

> <b_lp_Chiralities_Consistent>
1

> <s_lp_Variant>
AV-unprocessed.smi:3079-1

> <Gold.Version>
5.8.1

> <Gold.Id.Protein>
6NUR|6NUR_protein|mol2

> <Gold.PLP.Fitness>
35.8806

> <Gold.PLP.PLP>
-26.9736

> <Gold.PLP.part.hbond>
-1.8864

> <Gold.PLP.part.metal>
0.0000

> <Gold.PLP.part.buried>
-2.9001

> <Gold.PLP.part.nonpolar>
-23.0004

> <Gold.PLP.part.repulsive>
0.1921

> <Gold.PLP.ligand.clash>
0.0000

> <Gold.PLP.ligand.torsion>
0.1117

> <Gold.PLP.Chemscore.Hbond>
3.0000

> <Gold.PLP.Chemscore.CHOScore>
0.0000

> <Gold.PLP.Chemscore.Metal>
0.0000

> <Gold.Chemscore.Hbonds>
donor molecule, donor type, donor heavy atom, donor atom, acceptor molecule, acceptor atom, score
      L1  H     1    12       P1  7948  2.00
      L1  H     1    13       P1  7957  1.00

> <Gold.PLP.Chemscore.Internal.Correction>
0.1305

> <Gold.Rescore>
     Score         DG    S(hbond)    S(metal)    S(lipo)     H(rot)  DE(clash)    DE(int)     intcor
     17.20     -17.35       1.98        0.00      76.99       1.47       0.03       0.12       ----

> <Gold.Chemscore.Fitness>
17.1971

> <Gold.Chemscore.DG>
-17.3456

> <Gold.Chemscore.ZeroCoef>
-5.4800

> <Gold.Chemscore.Hbond>
1.9833

> <Gold.Chemscore.Metal>
0.0000

> <Gold.Chemscore.Lipo>
76.9923

> <Gold.Chemscore.Internal_Hbond>
0.0000

> <Gold.Chemscore.DEClash>
0.0323

> <Gold.Chemscore.DEInternal>
0.1162

> <Gold.Chemscore.Rot>
1.4714

> <Gold.Chemscore.Internal.Correction>
   9.000000E+99

> <Gold.Chemscore.Hbonds>
donor molecule, donor type, donor heavy atom, donor atom, acceptor molecule, acceptor atom, score
      L1  H     1    12       P1  7948  0.98
      L1  H     1    13       P1  7957  1.00

> <Gold.Chemscore.Hbond.Weighted>
-6.6242

> <Gold.Chemscore.Metal.Weighted>
-0.0000

> <Gold.Chemscore.Lipo.Weighted>
-9.0081

> <Gold.Chemscore.Internal_Hbond.Weighted>
0.0000

> <Gold.Chemscore.DEClash.Weighted>
0.0323

> <Gold.Chemscore.DEInternal.Weighted>
0.1162

> <Gold.Chemscore.Rot.Weighted>
3.7668

> <Gold.Chemscore.Internal.Correction.Weighted>
   9.000000E+99

> <Gold.Protein.RotatedTorsions>
[ 6907 6896 6895 6894 ] final  127.78 input  -60.11 | X-H torsion
[ 7974 7965 7964 7962 ] final   77.47 input  175.53 | X-H torsion
[ 8008 7997 7996 7995 ] final -121.23 input   59.86 | X-H torsion
[ 10167 10162 10161 10158 ] final  119.71 input  -65.29 | X-H torsion
[ 10718 10713 10712 10709 ] final  135.17 input   66.30 | X-H torsion
[ 10763 10752 10751 10750 ] final -165.79 input  -60.55 | X-H torsion
[ 11005 11000 10999 10996 ] final -170.31 input  -57.11 | X-H torsion

> <Gold.Protein.ActiveResidues>
 VAL166  LYS551  ARG553  GLY616  TRP617  ASP618  TYR619  PRO620  LYS621  CYS622 
 ASP623  PHE694  ASN695  SER759  ASP760  ASP761  ALA762  ILE779  LEU786  VAL792 
 PHE793  MET794  SER795  GLU796  ALA797  LYS798  CYS799  TRP800  GLU811  SER814 

> <Gold.Protein.RotatedAtoms>
  152.3780  133.6508  159.6138 H   0  0  0  0  0  0  0  0  0  0  0  0  # atno 6907 bound_to 6896
  150.7719  133.9160  159.3392 H   0  0  0  0  0  0  0  0  0  0  0  0  # atno 6908 bound_to 6896
  151.6971  135.0938  160.0295 H   0  0  0  0  0  0  0  0  0  0  0  0  # atno 6909 bound_to 6896
  145.6896  139.2548  143.1767 H   0  0  0  0  0  0  0  0  0  0  0  0  # atno 7974 bound_to 7965
  155.1447  140.0402  157.2807 H   0  0  0  0  0  0  0  0  0  0  0  0  # atno 8008 bound_to 7997
  154.6448  140.2555  155.7254 H   0  0  0  0  0  0  0  0  0  0  0  0  # atno 8009 bound_to 7997
  156.2549  140.2848  156.0856 H   0  0  0  0  0  0  0  0  0  0  0  0  # atno 8010 bound_to 7997
  139.6029  144.7062  151.3021 H   0  0  0  0  0  0  0  0  0  0  0  0  # atno 10167 bound_to 10162
  157.4597  131.1072  150.9934 H   0  0  0  0  0  0  0  0  0  0  0  0  # atno 10718 bound_to 10713
  154.6897  135.2968  154.9497 H   0  0  0  0  0  0  0  0  0  0  0  0  # atno 10763 bound_to 10752
  154.0464  135.6650  153.4799 H   0  0  0  0  0  0  0  0  0  0  0  0  # atno 10764 bound_to 10752
  153.0604  135.5119  154.7983 H   0  0  0  0  0  0  0  0  0  0  0  0  # atno 10765 bound_to 10752
  140.5210  134.5709  157.5047 H   0  0  0  0  0  0  0  0  0  0  0  0  # atno 11005 bound_to 11000
  146.0893  140.7674  142.9603 LP  0  0  0  0  0  0  0  0  0  0  0  0  # atno 17320 bound_to 7965
  144.7001  140.3612  143.7163 LP  0  0  0  0  0  0  0  0  0  0  0  0  # atno 17321 bound_to 7965
  140.7263  143.6994  150.7857 LP  0  0  0  0  0  0  0  0  0  0  0  0  # atno 17342 bound_to 10162
  140.0574  143.5188  152.2644 LP  0  0  0  0  0  0  0  0  0  0  0  0  # atno 17343 bound_to 10162
  157.0735  130.5874  149.5407 LP  0  0  0  0  0  0  0  0  0  0  0  0  # atno 17370 bound_to 10713
  156.0023  130.5104  150.7708 LP  0  0  0  0  0  0  0  0  0  0  0  0  # atno 17371 bound_to 10713
  139.9606  134.7459  156.0245 LP  0  0  0  0  0  0  0  0  0  0  0  0  # atno 17394 bound_to 11000
  141.1334  133.6581  156.3527 LP  0  0  0  0  0  0  0  0  0  0  0  0  # atno 17395 bound_to 11000

$$$$
