AV-unprocessed.smi:519|AV-procd|sdf|2795|dock9
  -GOLD-   2262023273D 1   1.00000     0.00000
 Structure written by MMmdl.
 36 38  0  0  0  0  0  0  0  0  1 V2000
  152.1065  136.8802  153.8696 O   0  0  0  0  0  0  0  0  0  0  0  0
  151.5726  137.4512  155.0474 C   0  0  0  0  0  0  0  0  0  0  0  0
  150.4820  138.4544  154.8001 C   0  0  0  0  0  0  0  0  0  0  0  0
  149.3574  138.1623  154.1424 N   0  0  0  0  0  0  0  0  0  0  0  0
  148.6687  139.3589  154.1659 C   0  0  0  0  0  0  0  0  0  0  0  0
  147.4065  139.7027  153.6313 C   0  0  0  0  0  0  0  0  0  0  0  0
  146.9001  141.0102  153.7818 C   0  0  0  0  0  0  0  0  0  0  0  0
  147.6456  141.9896  154.4694 C   0  0  0  0  0  0  0  0  0  0  0  0
  148.9046  141.6671  155.0109 C   0  0  0  0  0  0  0  0  0  0  0  0
  149.4070  140.3615  154.8552 C   0  0  0  0  0  0  0  0  0  0  0  0
  150.5835  139.7309  155.2483 N   0  0  0  0  0  0  0  0  0  0  0  0
  151.6830  140.3397  155.9834 C   0  0  0  0  0  0  0  0  0  0  0  0
  151.1986  141.0897  157.2331 C   0  0  0  0  0  0  0  0  0  0  0  0
  152.2054  141.0374  158.2356 O   0  0  0  0  0  0  0  0  0  0  0  0
  152.1874  141.9830  159.2394 C   0  0  0  0  0  0  0  0  0  0  0  0
  151.5192  143.2301  159.1380 C   0  0  0  0  0  0  0  0  0  0  0  0
  151.5484  144.1463  160.2072 C   0  0  0  0  0  0  0  0  0  0  0  0
  152.2445  143.8321  161.3883 C   0  0  0  0  0  0  0  0  0  0  0  0
  152.9101  142.5978  161.5000 C   0  0  0  0  0  0  0  0  0  0  0  0
  152.8804  141.6782  160.4330 C   0  0  0  0  0  0  0  0  0  0  0  0
  153.7028  140.1682  160.5999 Cl  0  0  0  0  0  0  0  0  0  0  0  0
  151.4107  136.7892  153.2372 H   0  0  0  0  0  0  0  0  0  0  0  0
  151.1807  136.6496  155.6739 H   0  0  0  0  0  0  0  0  0  0  0  0
  152.3852  137.9285  155.5952 H   0  0  0  0  0  0  0  0  0  0  0  0
  146.8280  138.9593  153.1033 H   0  0  0  0  0  0  0  0  0  0  0  0
  145.9353  141.2630  153.3671 H   0  0  0  0  0  0  0  0  0  0  0  0
  147.2521  142.9896  154.5784 H   0  0  0  0  0  0  0  0  0  0  0  0
  149.4803  142.4168  155.5330 H   0  0  0  0  0  0  0  0  0  0  0  0
  152.3844  139.5550  156.2694 H   0  0  0  0  0  0  0  0  0  0  0  0
  152.2319  141.0120  155.3242 H   0  0  0  0  0  0  0  0  0  0  0  0
  150.9828  142.1264  156.9713 H   0  0  0  0  0  0  0  0  0  0  0  0
  150.2774  140.6357  157.6012 H   0  0  0  0  0  0  0  0  0  0  0  0
  150.9759  143.5100  158.2485 H   0  0  0  0  0  0  0  0  0  0  0  0
  151.0356  145.0930  160.1194 H   0  0  0  0  0  0  0  0  0  0  0  0
  152.2675  144.5360  162.2073 H   0  0  0  0  0  0  0  0  0  0  0  0
  153.4443  142.3561  162.4070 H   0  0  0  0  0  0  0  0  0  0  0  0
  1  2  1  0  0  0  0
  1 22  1  0  0  0  0
  2  3  1  0  0  0  0
  2 23  1  0  0  0  0
  2 24  1  0  0  0  0
  3 11  1  0  0  0  0
  3  4  2  0  0  0  0
  4  5  1  0  0  0  0
  5 10  2  0  0  0  0
  5  6  1  0  0  0  0
  6  7  2  0  0  0  0
  6 25  1  0  0  0  0
  7  8  1  0  0  0  0
  7 26  1  0  0  0  0
  8  9  2  0  0  0  0
  8 27  1  0  0  0  0
  9 10  1  0  0  0  0
  9 28  1  0  0  0  0
 10 11  1  0  0  0  0
 11 12  1  0  0  0  0
 12 13  1  0  0  0  0
 12 29  1  0  0  0  0
 12 30  1  0  0  0  0
 13 14  1  0  0  0  0
 13 31  1  0  0  0  0
 13 32  1  0  0  0  0
 14 15  1  0  0  0  0
 15 20  1  0  0  0  0
 15 16  2  0  0  0  0
 16 17  1  0  0  0  0
 16 33  1  0  0  0  0
 17 18  2  0  0  0  0
 17 34  1  0  0  0  0
 18 19  1  0  0  0  0
 18 35  1  0  0  0  0
 19 20  2  0  0  0  0
 19 36  1  0  0  0  0
 20 21  1  0  0  0  0
M  END
> <s_m_source_file>
AV-unprocessed.smi

> <i_m_source_file_index>
519

> <i_lp_mmshare_version>
43012

> <i_f3d_flags>
0

> <s_epik_input>
W2NIXTFbY0hdW2NIXVtjSF1jKGMxMiluKGMobjIpW0NIMl1bT0hdKVtDSDJdW0NIMl1PYzNbY0hdW2NIXVtjSF1bY0hdYzNDbA==

> <s_epik_cmdline>
J2VwaWtfcHl0aG9uJywgJy1waCcsICc3LjAnLCAnLXRuJywgJzgnLCAnLW1hJywgJzIwMCcsICctbWV0YWxfYmluZGluZycsICctaW1hZScsICc8aW5maWxlLm1hZT4nLCAnLW9tYWUnLCAnPG91dGZpbGUubWFlPic=

> <r_lp_tautomer_probability>
1

> <r_epik_Ionization_Penalty>
0.045213

> <r_epik_Ionization_Penalty_Charging>
0

> <r_epik_Ionization_Penalty_Neutral>
0.045213

> <r_epik_State_Penalty>
0.0382996

> <r_epik_Charging_Adjusted_Penalty>
0.0382996

> <i_epik_Tot_Q>
0

> <i_epik_Tot_abs_Q>
0

> <r_epik_Metal_State_Penalty>
3.95633e-05

> <b_epik_Metal_Only>
0

> <s_lp_Force_Field>
OPLS_2005

> <r_lp_Energy>
15.9183

> <b_lp_Chiralities_Consistent>
1

> <s_lp_Variant>
AV-unprocessed.smi:519-1

> <Gold.Version>
5.8.1

> <Gold.Id.Protein>
6NUR|6NUR_protein|mol2

> <Gold.PLP.Fitness>
55.1690

> <Gold.PLP.PLP>
-51.1186

> <Gold.PLP.part.hbond>
-1.8189

> <Gold.PLP.part.metal>
0.0000

> <Gold.PLP.part.buried>
-1.7667

> <Gold.PLP.part.nonpolar>
-47.1951

> <Gold.PLP.part.repulsive>
0.9741

> <Gold.PLP.ligand.clash>
0.0000

> <Gold.PLP.ligand.torsion>
0.6922

> <Gold.PLP.Chemscore.Hbond>
1.8000

> <Gold.PLP.Chemscore.CHOScore>
0.0000

> <Gold.PLP.Chemscore.Metal>
0.0000

> <Gold.Chemscore.Hbonds>
donor molecule, donor type, donor heavy atom, donor atom, acceptor molecule, acceptor atom, score
      L1  H     1    22       P1  7949  0.74
      P1  H 10752 10764       L1     1  0.91

> <Gold.PLP.Chemscore.Internal.Correction>
0.0349

> <Gold.Rescore>
     Score         DG    S(hbond)    S(metal)    S(lipo)     H(rot)  DE(clash)    DE(int)     intcor
     19.19     -20.49       1.31        0.00     138.34       2.17       0.72       0.59       ----

> <Gold.Chemscore.Fitness>
19.1906

> <Gold.Chemscore.DG>
-20.4919

> <Gold.Chemscore.ZeroCoef>
-5.4800

> <Gold.Chemscore.Hbond>
1.3145

> <Gold.Chemscore.Metal>
0.0000

> <Gold.Chemscore.Lipo>
138.3392

> <Gold.Chemscore.Internal_Hbond>
0.0000

> <Gold.Chemscore.DEClash>
0.7157

> <Gold.Chemscore.DEInternal>
0.5856

> <Gold.Chemscore.Rot>
2.1735

> <Gold.Chemscore.Internal.Correction>
   9.000000E+99

> <Gold.Chemscore.Hbonds>
donor molecule, donor type, donor heavy atom, donor atom, acceptor molecule, acceptor atom, score
      L1  H     1    22       P1  7949  0.60
      P1  H 10752 10764       L1     1  0.75

> <Gold.Chemscore.Hbond.Weighted>
-4.3904

> <Gold.Chemscore.Metal.Weighted>
-0.0000

> <Gold.Chemscore.Lipo.Weighted>
-16.1857

> <Gold.Chemscore.Internal_Hbond.Weighted>
0.0000

> <Gold.Chemscore.DEClash.Weighted>
0.7157

> <Gold.Chemscore.DEInternal.Weighted>
0.5856

> <Gold.Chemscore.Rot.Weighted>
5.5642

> <Gold.Chemscore.Internal.Correction.Weighted>
   9.000000E+99

> <Gold.Protein.RotatedTorsions>
[ 6907 6896 6895 6894 ] final  -40.52 input  -60.11 | X-H torsion
[ 7974 7965 7964 7962 ] final -128.16 input  175.53 | X-H torsion
[ 8008 7997 7996 7995 ] final -158.25 input   59.86 | X-H torsion
[ 10167 10162 10161 10158 ] final  -15.87 input  -65.29 | X-H torsion
[ 10718 10713 10712 10709 ] final  120.52 input   66.30 | X-H torsion
[ 10763 10752 10751 10750 ] final  -91.72 input  -60.55 | X-H torsion
[ 11005 11000 10999 10996 ] final  -37.40 input  -57.11 | X-H torsion

> <Gold.Protein.ActiveResidues>
 VAL166  LYS551  ARG553  GLY616  TRP617  ASP618  TYR619  PRO620  LYS621  CYS622 
 ASP623  PHE694  ASN695  SER759  ASP760  ASP761  ALA762  ILE779  LEU786  VAL792 
 PHE793  MET794  SER795  GLU796  ALA797  LYS798  CYS799  TRP800  GLU811  SER814 

> <Gold.Protein.RotatedAtoms>
  150.9775  134.9136  159.7824 H   0  0  0  0  0  0  0  0  0  0  0  0  # atno 6907 bound_to 6896
  152.5211  134.3456  159.9243 H   0  0  0  0  0  0  0  0  0  0  0  0  # atno 6908 bound_to 6896
  151.3464  133.3901  159.2710 H   0  0  0  0  0  0  0  0  0  0  0  0  # atno 6909 bound_to 6896
  144.9699  140.7534  143.4677 H   0  0  0  0  0  0  0  0  0  0  0  0  # atno 7974 bound_to 7965
  155.7448  140.0819  157.2229 H   0  0  0  0  0  0  0  0  0  0  0  0  # atno 8008 bound_to 7997
  154.4018  140.1571  156.2712 H   0  0  0  0  0  0  0  0  0  0  0  0  # atno 8009 bound_to 7997
  155.8987  140.3411  155.6012 H   0  0  0  0  0  0  0  0  0  0  0  0  # atno 8010 bound_to 7997
  140.7225  143.5174  150.9675 H   0  0  0  0  0  0  0  0  0  0  0  0  # atno 10167 bound_to 10162
  157.5885  131.1067  150.8046 H   0  0  0  0  0  0  0  0  0  0  0  0  # atno 10718 bound_to 10713
  154.6789  135.5257  153.8236 H   0  0  0  0  0  0  0  0  0  0  0  0  # atno 10763 bound_to 10752
  153.0551  135.6547  154.0607 H   0  0  0  0  0  0  0  0  0  0  0  0  # atno 10764 bound_to 10752
  154.0497  135.2970  155.3322 H   0  0  0  0  0  0  0  0  0  0  0  0  # atno 10765 bound_to 10752
  140.9949  133.6985  156.1916 H   0  0  0  0  0  0  0  0  0  0  0  0  # atno 11005 bound_to 11000
  145.2575  139.2006  143.4910 LP  0  0  0  0  0  0  0  0  0  0  0  0  # atno 17320 bound_to 7965
  146.3379  140.2499  142.8598 LP  0  0  0  0  0  0  0  0  0  0  0  0  # atno 17321 bound_to 7965
  139.8890  143.6977  152.3147 LP  0  0  0  0  0  0  0  0  0  0  0  0  # atno 17342 bound_to 10162
  139.7286  144.7587  151.0839 LP  0  0  0  0  0  0  0  0  0  0  0  0  # atno 17343 bound_to 10162
  156.8474  130.5069  149.5315 LP  0  0  0  0  0  0  0  0  0  0  0  0  # atno 17370 bound_to 10713
  156.0936  130.5915  150.9776 LP  0  0  0  0  0  0  0  0  0  0  0  0  # atno 17371 bound_to 10713
  140.6982  134.4593  157.5587 LP  0  0  0  0  0  0  0  0  0  0  0  0  # atno 17394 bound_to 11000
  139.9010  134.8557  156.1898 LP  0  0  0  0  0  0  0  0  0  0  0  0  # atno 17395 bound_to 11000

$$$$
