AV-unprocessed.smi:794|AV-procd|sdf|3758|dock1
  -GOLD-   22720 1193D 1   1.00000     0.00000
 Structure written by MMmdl.
 41 43  0  0  0  0  0  0  0  0  1 V2000
  147.1373  137.2244  163.4761 C   0  0  0  0  0  0  0  0  0  0  0  0
  147.1104  136.6012  162.1142 C   0  0  0  0  0  0  0  0  0  0  0  0
  147.6832  137.2785  161.0335 N   0  0  0  0  0  0  0  0  0  0  0  0
  147.5802  136.5902  159.8921 C   0  0  0  0  0  0  0  0  0  0  0  0
  148.0769  137.0360  158.6392 N   0  0  0  0  0  0  0  0  0  0  0  0
  149.2052  137.7236  158.3903 C   0  0  0  0  0  0  0  0  0  0  0  0
  150.0184  138.0901  159.2394 O   0  0  0  0  0  0  0  0  0  0  0  0
  149.3426  137.9735  157.0808 N   0  0  0  0  0  0  0  0  0  0  0  0
  150.4547  138.7124  156.4866 C   0  0  2  0  0  0  0  0  0  0  0  0
  150.5648  140.1728  156.9931 C   0  0  2  0  0  0  0  0  0  0  0  0
  149.2189  140.9190  156.8658 C   0  0  0  0  0  0  0  0  0  0  0  0
  149.0672  141.0814  155.3421 C   0  0  0  0  0  0  0  0  0  0  0  0
  150.3559  140.4328  154.8001 C   0  0  1  0  0  0  0  0  0  0  0  0
  151.3663  140.8232  155.8730 C   0  0  0  0  0  0  0  0  0  0  0  0
  150.2635  138.8970  154.9576 C   0  0  1  0  0  0  0  0  0  0  0  0
  151.3114  138.1465  154.1134 C   0  0  0  0  0  0  0  0  0  0  0  0
  151.1821  136.7534  154.3037 O   0  0  0  0  0  0  0  0  0  0  0  0
  146.7606  135.0485  160.0716 S   0  0  0  0  0  0  0  0  0  0  0  0
  146.5698  135.3822  161.7752 C   0  0  0  0  0  0  0  0  0  0  0  0
  145.8904  134.4050  162.6760 C   0  0  0  0  0  0  0  0  0  0  0  0
  146.1444  137.2299  163.9260 H   0  0  0  0  0  0  0  0  0  0  0  0
  147.4868  138.2568  163.4412 H   0  0  0  0  0  0  0  0  0  0  0  0
  147.7995  136.6747  164.1449 H   0  0  0  0  0  0  0  0  0  0  0  0
  147.5067  136.8042  157.8394 H   0  0  0  0  0  0  0  0  0  0  0  0
  148.6315  137.6342  156.4497 H   0  0  0  0  0  0  0  0  0  0  0  0
  151.3900  138.1861  156.6893 H   0  0  0  0  0  0  0  0  0  0  0  0
  151.0153  140.2570  157.9826 H   0  0  0  0  0  0  0  0  0  0  0  0
  148.3808  140.3886  157.3181 H   0  0  0  0  0  0  0  0  0  0  0  0
  149.2791  141.8967  157.3457 H   0  0  0  0  0  0  0  0  0  0  0  0
  148.1661  140.6010  154.9591 H   0  0  0  0  0  0  0  0  0  0  0  0
  149.0207  142.1377  155.0736 H   0  0  0  0  0  0  0  0  0  0  0  0
  150.6084  140.7593  153.7906 H   0  0  0  0  0  0  0  0  0  0  0  0
  151.4787  141.9026  155.9903 H   0  0  0  0  0  0  0  0  0  0  0  0
  152.3525  140.3787  155.7317 H   0  0  0  0  0  0  0  0  0  0  0  0
  149.2735  138.5662  154.6372 H   0  0  0  0  0  0  0  0  0  0  0  0
  151.1681  138.3616  153.0541 H   0  0  0  0  0  0  0  0  0  0  0  0
  152.3261  138.4521  154.3692 H   0  0  0  0  0  0  0  0  0  0  0  0
  150.8299  136.3733  153.5133 H   0  0  0  0  0  0  0  0  0  0  0  0
  146.5385  134.1321  163.5089 H   0  0  0  0  0  0  0  0  0  0  0  0
  145.6276  133.4914  162.1425 H   0  0  0  0  0  0  0  0  0  0  0  0
  144.9740  134.8302  163.0859 H   0  0  0  0  0  0  0  0  0  0  0  0
  1  2  1  0  0  0  0
  1 21  1  0  0  0  0
  1 22  1  0  0  0  0
  1 23  1  0  0  0  0
  2 19  2  0  0  0  0
  2  3  1  0  0  0  0
  3  4  2  0  0  0  0
  4  5  1  0  0  0  0
  4 18  1  0  0  0  0
  5  6  1  0  0  0  0
  5 24  1  0  0  0  0
  6  7  2  0  0  0  0
  6  8  1  0  0  0  0
  8  9  1  0  0  0  0
  8 25  1  0  0  0  0
  9 15  1  0  0  0  0
  9 10  1  0  0  0  0
  9 26  1  0  0  0  0
 10 14  1  0  0  0  0
 10 11  1  0  0  0  0
 10 27  1  0  0  0  0
 11 12  1  0  0  0  0
 11 28  1  0  0  0  0
 11 29  1  0  0  0  0
 12 13  1  0  0  0  0
 12 30  1  0  0  0  0
 12 31  1  0  0  0  0
 13 14  1  0  0  0  0
 13 15  1  0  0  0  0
 13 32  1  0  0  0  0
 14 33  1  0  0  0  0
 14 34  1  0  0  0  0
 15 16  1  0  0  0  0
 15 35  1  0  0  0  0
 16 17  1  0  0  0  0
 16 36  1  0  0  0  0
 16 37  1  0  0  0  0
 17 38  1  0  0  0  0
 18 19  1  0  0  0  0
 19 20  1  0  0  0  0
 20 39  1  0  0  0  0
 20 40  1  0  0  0  0
 20 41  1  0  0  0  0
M  END
> <s_m_source_file>
AV-unprocessed.smi

> <i_m_source_file_index>
794

> <i_lp_mmshare_version>
43012

> <i_f3d_flags>
0

> <s_epik_input>
W0NIM11jMW5jKHNjMVtDSDNdKVtOSF1DKD1PKVtOSF1bQ0BIXShbQ0BASF0yMylbQ0BIXShbQ0gyXVtPSF0pW0NAQEhdKFtDSDJdMylbQ0gyXVtDSDJdMg==

> <s_epik_cmdline>
J2VwaWtfcHl0aG9uJywgJy1waCcsICc3LjAnLCAnLXRuJywgJzgnLCAnLW1hJywgJzIwMCcsICctbWV0YWxfYmluZGluZycsICctaW1hZScsICc8aW5maWxlLm1hZT4nLCAnLW9tYWUnLCAnPG91dGZpbGUubWFlPic=

> <r_lp_tautomer_probability>
0.999

> <r_epik_Ionization_Penalty>
0.000713029

> <r_epik_Ionization_Penalty_Charging>
0

> <r_epik_Ionization_Penalty_Neutral>
0.000713029

> <r_epik_State_Penalty>
0.000177984

> <r_epik_Charging_Adjusted_Penalty>
0.000177984

> <i_epik_Tot_Q>
0

> <i_epik_Tot_abs_Q>
0

> <r_epik_Metal_State_Penalty>
-0

> <b_epik_Metal_Only>
0

> <s_lp_Force_Field>
OPLS_2005

> <r_lp_Energy>
47.0696

> <b_lp_Chiralities_Consistent>
1

> <s_lp_Variant>
AV-unprocessed.smi:794-3

> <Gold.Version>
5.8.1

> <Gold.Id.Protein>
6NUR|6NUR_protein|mol2

> <Gold.PLP.Fitness>
44.9041

> <Gold.PLP.PLP>
-34.4574

> <Gold.PLP.part.hbond>
-4.8340

> <Gold.PLP.part.metal>
0.0000

> <Gold.PLP.part.buried>
-2.6922

> <Gold.PLP.part.nonpolar>
-27.1152

> <Gold.PLP.part.repulsive>
0.1186

> <Gold.PLP.ligand.clash>
0.0000

> <Gold.PLP.ligand.torsion>
0.2836

> <Gold.PLP.Chemscore.Hbond>
3.6595

> <Gold.PLP.Chemscore.CHOScore>
0.0000

> <Gold.PLP.Chemscore.Metal>
0.0000

> <Gold.Chemscore.Hbonds>
donor molecule, donor type, donor heavy atom, donor atom, acceptor molecule, acceptor atom, score
      L1  H    17    38       P1  7949  0.61
      P1  H  6931  6943       L1     3  0.86
      P1  H  6934  6947       L1     3  0.88
      P1  H 10752 10765       L1    17  0.78

> <Gold.PLP.Chemscore.Internal.Correction>
0.0352

> <Gold.Rescore>
     Score         DG    S(hbond)    S(metal)    S(lipo)     H(rot)  DE(clash)    DE(int)     intcor
     12.52     -16.04       1.56        0.00      84.65       1.78       1.50       2.01       ----

> <Gold.Chemscore.Fitness>
12.5209

> <Gold.Chemscore.DG>
-16.0394

> <Gold.Chemscore.ZeroCoef>
-5.4800

> <Gold.Chemscore.Hbond>
1.5603

> <Gold.Chemscore.Metal>
0.0000

> <Gold.Chemscore.Lipo>
84.6510

> <Gold.Chemscore.Internal_Hbond>
0.0000

> <Gold.Chemscore.DEClash>
1.5040

> <Gold.Chemscore.DEInternal>
2.0144

> <Gold.Chemscore.Rot>
1.7798

> <Gold.Chemscore.Internal.Correction>
   9.000000E+99

> <Gold.Chemscore.Hbonds>
donor molecule, donor type, donor heavy atom, donor atom, acceptor molecule, acceptor atom, score
      L1  H    17    38       P1  7949  0.07
      P1  H  6931  6943       L1     3  0.25
      P1  H  6934  6947       L1     3  0.67
      P1  H 10752 10765       L1    17  0.22

> <Gold.Chemscore.Hbond.Weighted>
-5.2114

> <Gold.Chemscore.Metal.Weighted>
-0.0000

> <Gold.Chemscore.Lipo.Weighted>
-9.9042

> <Gold.Chemscore.Internal_Hbond.Weighted>
0.0000

> <Gold.Chemscore.DEClash.Weighted>
1.5040

> <Gold.Chemscore.DEInternal.Weighted>
2.0144

> <Gold.Chemscore.Rot.Weighted>
4.5562

> <Gold.Chemscore.Internal.Correction.Weighted>
   9.000000E+99

> <Gold.Protein.RotatedTorsions>
[ 6907 6896 6895 6894 ] final   93.18 input  -60.11 | X-H torsion
[ 7974 7965 7964 7962 ] final  168.60 input  175.53 | X-H torsion
[ 8008 7997 7996 7995 ] final -166.47 input   59.86 | X-H torsion
[ 10167 10162 10161 10158 ] final    9.63 input  -65.29 | X-H torsion
[ 10718 10713 10712 10709 ] final   68.50 input   66.30 | X-H torsion
[ 10763 10752 10751 10750 ] final -179.42 input  -60.55 | X-H torsion
[ 11005 11000 10999 10996 ] final   53.71 input  -57.11 | X-H torsion

> <Gold.Protein.ActiveResidues>
 VAL166  LYS551  ARG553  GLY616  TRP617  ASP618  TYR619  PRO620  LYS621  CYS622 
 ASP623  PHE694  ASN695  SER759  ASP760  ASP761  ALA762  ILE779  LEU786  VAL792 
 PHE793  MET794  SER795  GLU796  ALA797  LYS798  CYS799  TRP800  GLU811  SER814 

> <Gold.Protein.RotatedAtoms>
  152.5453  134.1388  159.8469 H   0  0  0  0  0  0  0  0  0  0  0  0  # atno 6907 bound_to 6896
  151.1426  133.4954  159.2604 H   0  0  0  0  0  0  0  0  0  0  0  0  # atno 6908 bound_to 6896
  151.1557  135.0259  159.8743 H   0  0  0  0  0  0  0  0  0  0  0  0  # atno 6909 bound_to 6896
  144.7383  139.8931  143.6404 H   0  0  0  0  0  0  0  0  0  0  0  0  # atno 7974 bound_to 7965
  155.8643  140.0983  157.1592 H   0  0  0  0  0  0  0  0  0  0  0  0  # atno 8008 bound_to 7997
  154.3992  140.1359  156.4062 H   0  0  0  0  0  0  0  0  0  0  0  0  # atno 8009 bound_to 7997
  155.7821  140.3458  155.5306 H   0  0  0  0  0  0  0  0  0  0  0  0  # atno 8010 bound_to 7997
  140.6243  143.8135  150.7214 H   0  0  0  0  0  0  0  0  0  0  0  0  # atno 10167 bound_to 10162
  157.6293  130.9377  150.0386 H   0  0  0  0  0  0  0  0  0  0  0  0  # atno 10718 bound_to 10713
  154.5353  135.2802  155.1144 H   0  0  0  0  0  0  0  0  0  0  0  0  # atno 10763 bound_to 10752
  154.2648  135.6315  153.5291 H   0  0  0  0  0  0  0  0  0  0  0  0  # atno 10764 bound_to 10752
  152.9966  135.5614  154.5878 H   0  0  0  0  0  0  0  0  0  0  0  0  # atno 10765 bound_to 10752
  140.0745  134.5424  155.9011 H   0  0  0  0  0  0  0  0  0  0  0  0  # atno 11005 bound_to 11000
  146.1127  139.4134  143.0277 LP  0  0  0  0  0  0  0  0  0  0  0  0  # atno 17320 bound_to 7965
  145.7419  141.0005  143.1296 LP  0  0  0  0  0  0  0  0  0  0  0  0  # atno 17321 bound_to 7965
  140.1732  143.4177  152.1986 LP  0  0  0  0  0  0  0  0  0  0  0  0  # atno 17342 bound_to 10162
  139.5466  144.7303  151.4564 LP  0  0  0  0  0  0  0  0  0  0  0  0  # atno 17343 bound_to 10162
  156.1485  130.3642  149.9473 LP  0  0  0  0  0  0  0  0  0  0  0  0  # atno 17370 bound_to 10713
  156.7498  130.9111  151.3637 LP  0  0  0  0  0  0  0  0  0  0  0  0  # atno 17371 bound_to 10713
  141.2024  133.6625  156.6005 LP  0  0  0  0  0  0  0  0  0  0  0  0  # atno 17394 bound_to 11000
  140.3578  134.7713  157.4513 LP  0  0  0  0  0  0  0  0  0  0  0  0  # atno 17395 bound_to 11000

$$$$
