AV-unprocessed.smi:2331|AV-procd|sdf|9315|dock4
  -GOLD-   2272012533D 1   1.00000     0.00000
 Structure written by MMmdl.
 49 50  0  0  0  0  0  0  0  0  1 V2000
  143.9226  136.1427  152.2108 C   0  0  0  0  0  0  0  0  0  0  0  0
  145.2365  135.6180  151.5951 C   0  0  0  0  0  0  0  0  0  0  0  0
  145.6396  136.6014  150.4697 C   0  0  0  0  0  0  0  0  0  0  0  0
  146.3440  135.6382  152.6802 C   0  0  0  0  0  0  0  0  0  0  0  0
  146.7984  136.9957  152.9665 N   0  0  0  0  0  0  0  0  0  0  0  0
  147.1519  137.4702  154.1714 C   0  0  0  0  0  0  0  0  0  0  0  0
  147.1622  136.7715  155.1852 O   0  0  0  0  0  0  0  0  0  0  0  0
  147.5660  138.7602  154.1479 N   0  0  0  0  0  0  0  0  0  0  0  0
  146.9886  139.7784  153.2585 C   0  0  0  0  0  0  0  0  0  0  0  0
  147.4285  141.1389  153.7954 C   0  0  0  0  0  0  0  0  0  0  0  0
  147.8402  140.8642  155.2348 C   0  0  0  0  0  0  0  0  0  0  0  0
  148.3231  139.4023  155.2374 C   0  0  2  0  0  0  0  0  0  0  0  0
  149.8781  139.2230  155.1371 C   0  0  0  0  0  0  0  0  0  0  0  0
  150.5614  139.7285  156.4233 C   0  0  0  0  0  0  0  0  0  0  0  0
  150.3438  137.7786  154.8651 C   0  0  0  0  0  0  0  0  0  0  0  0
  150.3897  140.0160  154.0827 O   0  0  0  0  0  0  0  0  0  0  0  0
  145.0244  134.1824  151.0753 C   0  0  0  0  0  0  0  0  0  0  0  0
  146.0815  133.3811  150.5774 C   0  0  0  0  0  0  0  0  0  0  0  0
  145.8001  132.0715  150.1401 C   0  0  0  0  0  0  0  0  0  0  0  0
  144.5667  131.5268  150.1673 N   0  0  0  0  0  0  0  0  0  0  0  0
  143.5581  132.2863  150.6406 C   0  0  0  0  0  0  0  0  0  0  0  0
  143.7333  133.6053  151.1032 C   0  0  0  0  0  0  0  0  0  0  0  0
  144.0335  137.1671  152.5684 H   0  0  0  0  0  0  0  0  0  0  0  0
  143.5988  135.5422  153.0611 H   0  0  0  0  0  0  0  0  0  0  0  0
  143.1136  136.1368  151.4794 H   0  0  0  0  0  0  0  0  0  0  0  0
  145.7778  137.6107  150.8592 H   0  0  0  0  0  0  0  0  0  0  0  0
  144.8735  136.6611  149.6958 H   0  0  0  0  0  0  0  0  0  0  0  0
  146.5774  136.3165  149.9916 H   0  0  0  0  0  0  0  0  0  0  0  0
  145.9851  135.1493  153.5876 H   0  0  0  0  0  0  0  0  0  0  0  0
  147.2123  135.0660  152.3513 H   0  0  0  0  0  0  0  0  0  0  0  0
  146.8474  137.6294  152.1819 H   0  0  0  0  0  0  0  0  0  0  0  0
  147.3176  139.6380  152.2277 H   0  0  0  0  0  0  0  0  0  0  0  0
  145.8991  139.7110  153.2763 H   0  0  0  0  0  0  0  0  0  0  0  0
  148.2848  141.5009  153.2257 H   0  0  0  0  0  0  0  0  0  0  0  0
  146.6441  141.8925  153.7221 H   0  0  0  0  0  0  0  0  0  0  0  0
  148.5749  141.5818  155.5979 H   0  0  0  0  0  0  0  0  0  0  0  0
  146.9626  140.9522  155.8767 H   0  0  0  0  0  0  0  0  0  0  0  0
  148.0070  138.9597  156.1842 H   0  0  0  0  0  0  0  0  0  0  0  0
  150.2223  139.1657  157.2936 H   0  0  0  0  0  0  0  0  0  0  0  0
  150.3561  140.7812  156.6150 H   0  0  0  0  0  0  0  0  0  0  0  0
  151.6452  139.6191  156.3684 H   0  0  0  0  0  0  0  0  0  0  0  0
  149.9905  137.0975  155.6394 H   0  0  0  0  0  0  0  0  0  0  0  0
  151.4321  137.7098  154.8488 H   0  0  0  0  0  0  0  0  0  0  0  0
  149.9915  137.4087  153.9020 H   0  0  0  0  0  0  0  0  0  0  0  0
  149.9304  139.7917  153.2879 H   0  0  0  0  0  0  0  0  0  0  0  0
  147.0992  133.7351  150.5234 H   0  0  0  0  0  0  0  0  0  0  0  0
  146.5912  131.4428  149.7592 H   0  0  0  0  0  0  0  0  0  0  0  0
  142.5799  131.8287  150.6542 H   0  0  0  0  0  0  0  0  0  0  0  0
  142.8836  134.1566  151.4774 H   0  0  0  0  0  0  0  0  0  0  0  0
  1  2  1  0  0  0  0
  1 23  1  0  0  0  0
  1 24  1  0  0  0  0
  1 25  1  0  0  0  0
  2  3  1  0  0  0  0
  2  4  1  0  0  0  0
  2 17  1  0  0  0  0
  3 26  1  0  0  0  0
  3 27  1  0  0  0  0
  3 28  1  0  0  0  0
  4  5  1  0  0  0  0
  4 29  1  0  0  0  0
  4 30  1  0  0  0  0
  5  6  1  0  0  0  0
  5 31  1  0  0  0  0
  6  7  2  0  0  0  0
  6  8  1  0  0  0  0
  8 12  1  0  0  0  0
  8  9  1  0  0  0  0
  9 10  1  0  0  0  0
  9 32  1  0  0  0  0
  9 33  1  0  0  0  0
 10 11  1  0  0  0  0
 10 34  1  0  0  0  0
 10 35  1  0  0  0  0
 11 12  1  0  0  0  0
 11 36  1  0  0  0  0
 11 37  1  0  0  0  0
 12 13  1  0  0  0  0
 12 38  1  0  0  0  0
 13 14  1  0  0  0  0
 13 15  1  0  0  0  0
 13 16  1  0  0  0  0
 14 39  1  0  0  0  0
 14 40  1  0  0  0  0
 14 41  1  0  0  0  0
 15 42  1  0  0  0  0
 15 43  1  0  0  0  0
 15 44  1  0  0  0  0
 16 45  1  0  0  0  0
 17 22  1  0  0  0  0
 17 18  2  0  0  0  0
 18 19  1  0  0  0  0
 18 46  1  0  0  0  0
 19 20  2  0  0  0  0
 19 47  1  0  0  0  0
 20 21  1  0  0  0  0
 21 22  2  0  0  0  0
 21 48  1  0  0  0  0
 22 49  1  0  0  0  0
M  END
> <s_m_source_file>
AV-unprocessed.smi

> <i_m_source_file_index>
2331

> <i_lp_mmshare_version>
43012

> <i_f3d_flags>
0

> <s_epik_input>
W2NIXTFbY0hdbltjSF1bY0hdYzFDKFtDSDNdKShbQ0gzXSlbQ0gyXVtOSF1DKD1PKU4yW0NIMl1bQ0gyXVtDSDJdW0NASF0yQyhbQ0gzXSkoW0NIM10pW09IXQ==

> <s_epik_cmdline>
J2VwaWtfcHl0aG9uJywgJy1waCcsICc3LjAnLCAnLXRuJywgJzgnLCAnLW1hJywgJzIwMCcsICctbWV0YWxfYmluZGluZycsICctaW1hZScsICc8aW5maWxlLm1hZT4nLCAnLW9tYWUnLCAnPG91dGZpbGUubWFlPic=

> <r_epik_Ionization_Penalty>
0.0581496

> <r_epik_Ionization_Penalty_Charging>
0

> <r_epik_Ionization_Penalty_Neutral>
0.0581496

> <r_epik_State_Penalty>
0.0501956

> <r_epik_Charging_Adjusted_Penalty>
0.0501956

> <i_epik_Tot_Q>
0

> <i_epik_Tot_abs_Q>
0

> <r_epik_Metal_State_Penalty>
0.0456895

> <b_epik_Metal_Only>
0

> <s_lp_Force_Field>
OPLS_2005

> <r_lp_Energy>
50.0165

> <b_lp_Chiralities_Consistent>
1

> <s_lp_Variant>
AV-unprocessed.smi:2331-2

> <Gold.Version>
5.8.1

> <Gold.Id.Protein>
6NUR|6NUR_protein|mol2

> <Gold.PLP.Fitness>
44.0996

> <Gold.PLP.PLP>
-33.4934

> <Gold.PLP.part.hbond>
-3.6170

> <Gold.PLP.part.metal>
0.0000

> <Gold.PLP.part.buried>
2.1469

> <Gold.PLP.part.nonpolar>
-32.8087

> <Gold.PLP.part.repulsive>
0.2189

> <Gold.PLP.ligand.clash>
0.0000

> <Gold.PLP.ligand.torsion>
0.8949

> <Gold.PLP.Chemscore.Hbond>
2.0482

> <Gold.PLP.Chemscore.CHOScore>
1.9999

> <Gold.PLP.Chemscore.Metal>
0.0000

> <Gold.Chemscore.Hbonds>
donor molecule, donor type, donor heavy atom, donor atom, acceptor molecule, acceptor atom, score
      L1  H    16    45       P1  7957  0.67
      P1  H  7989  7998       L1    16  1.00
      P1  H 10785 10796       L1    20  0.03
      L1  C    19    47       P1 10747  1.00
      L1  C    21    48       P1 10952  0.99

> <Gold.PLP.Chemscore.Internal.Correction>
0.2519

> <Gold.Rescore>
     Score         DG    S(hbond)    S(metal)    S(lipo)     H(rot)  DE(clash)    DE(int)     intcor
     13.61     -17.10       1.58        0.00      96.51       1.94       2.66       0.83       ----

> <Gold.Chemscore.Fitness>
13.6107

> <Gold.Chemscore.DG>
-17.0999

> <Gold.Chemscore.ZeroCoef>
-5.4800

> <Gold.Chemscore.Hbond>
1.5815

> <Gold.Chemscore.Metal>
0.0000

> <Gold.Chemscore.Lipo>
96.5063

> <Gold.Chemscore.Internal_Hbond>
0.0000

> <Gold.Chemscore.DEClash>
2.6567

> <Gold.Chemscore.DEInternal>
0.8325

> <Gold.Chemscore.Rot>
1.9350

> <Gold.Chemscore.Internal.Correction>
   9.000000E+99

> <Gold.Chemscore.Hbonds>
donor molecule, donor type, donor heavy atom, donor atom, acceptor molecule, acceptor atom, score
      L1  H    16    45       P1  7957  0.63
      P1  H  7989  7998       L1    16  0.25
      P1  H 10785 10796       L1    20  0.01

> <Gold.Chemscore.Hbond.Weighted>
-5.2823

> <Gold.Chemscore.Metal.Weighted>
-0.0000

> <Gold.Chemscore.Lipo.Weighted>
-11.2912

> <Gold.Chemscore.Internal_Hbond.Weighted>
0.0000

> <Gold.Chemscore.DEClash.Weighted>
2.6567

> <Gold.Chemscore.DEInternal.Weighted>
0.8325

> <Gold.Chemscore.Rot.Weighted>
4.9536

> <Gold.Chemscore.Internal.Correction.Weighted>
   9.000000E+99

> <Gold.Protein.RotatedTorsions>
[ 6907 6896 6895 6894 ] final  -56.71 input  -60.11 | X-H torsion
[ 7974 7965 7964 7962 ] final -104.80 input  175.53 | X-H torsion
[ 8008 7997 7996 7995 ] final   44.44 input   59.86 | X-H torsion
[ 10167 10162 10161 10158 ] final -140.16 input  -65.29 | X-H torsion
[ 10718 10713 10712 10709 ] final   60.45 input   66.30 | X-H torsion
[ 10763 10752 10751 10750 ] final -111.99 input  -60.55 | X-H torsion
[ 11005 11000 10999 10996 ] final  165.66 input  -57.11 | X-H torsion

> <Gold.Protein.ActiveResidues>
 VAL166  LYS551  ARG553  GLY616  TRP617  ASP618  TYR619  PRO620  LYS621  CYS622 
 ASP623  PHE694  ASN695  SER759  ASP760  ASP761  ALA762  ILE779  LEU786  VAL792 
 PHE793  MET794  SER795  GLU796  ALA797  LYS798  CYS799  TRP800  GLU811  SER814 

> <Gold.Protein.RotatedAtoms>
  150.8145  134.7320  159.6717 H   0  0  0  0  0  0  0  0  0  0  0  0  # atno 6907 bound_to 6896
  152.4265  134.5856  159.9970 H   0  0  0  0  0  0  0  0  0  0  0  0  # atno 6908 bound_to 6896
  151.6056  133.3315  159.3092 H   0  0  0  0  0  0  0  0  0  0  0  0  # atno 6909 bound_to 6896
  145.2386  140.9197  143.3163 H   0  0  0  0  0  0  0  0  0  0  0  0  # atno 7974 bound_to 7965
  155.3193  140.3396  155.4241 H   0  0  0  0  0  0  0  0  0  0  0  0  # atno 8008 bound_to 7997
  156.1917  140.1700  156.8116 H   0  0  0  0  0  0  0  0  0  0  0  0  # atno 8009 bound_to 7997
  154.5450  140.0717  156.8557 H   0  0  0  0  0  0  0  0  0  0  0  0  # atno 8010 bound_to 7997
  139.8309  143.7449  152.2666 H   0  0  0  0  0  0  0  0  0  0  0  0  # atno 10167 bound_to 10162
  157.5753  130.8939  149.9337 H   0  0  0  0  0  0  0  0  0  0  0  0  # atno 10718 bound_to 10713
  154.8328  135.4507  154.1124 H   0  0  0  0  0  0  0  0  0  0  0  0  # atno 10763 bound_to 10752
  153.2383  135.6913  153.7818 H   0  0  0  0  0  0  0  0  0  0  0  0  # atno 10764 bound_to 10752
  153.7175  135.3347  155.3236 H   0  0  0  0  0  0  0  0  0  0  0  0  # atno 10765 bound_to 10752
  140.2584  134.7921  157.3567 H   0  0  0  0  0  0  0  0  0  0  0  0  # atno 11005 bound_to 11000
  144.9610  139.3980  143.6356 LP  0  0  0  0  0  0  0  0  0  0  0  0  # atno 17320 bound_to 7965
  146.3334  139.8663  142.8847 LP  0  0  0  0  0  0  0  0  0  0  0  0  # atno 17321 bound_to 7965
  139.7656  144.7493  151.0300 LP  0  0  0  0  0  0  0  0  0  0  0  0  # atno 17342 bound_to 10162
  140.7807  143.4702  151.0157 LP  0  0  0  0  0  0  0  0  0  0  0  0  # atno 17343 bound_to 10162
  156.0798  130.3674  150.0603 LP  0  0  0  0  0  0  0  0  0  0  0  0  # atno 17370 bound_to 10713
  156.8750  130.9537  151.3605 LP  0  0  0  0  0  0  0  0  0  0  0  0  # atno 17371 bound_to 10713
  140.1488  134.4876  155.7976 LP  0  0  0  0  0  0  0  0  0  0  0  0  # atno 17394 bound_to 11000
  141.2193  133.6854  156.7342 LP  0  0  0  0  0  0  0  0  0  0  0  0  # atno 17395 bound_to 11000

$$$$
