AV-unprocessed.smi:15|AV-procd|sdf|82|dock9
  -GOLD-   2262015213D 1   1.00000     0.00000
 Structure written by MMmdl.
 53 56  0  0  0  0  0  0  0  0  1 V2000
  152.4255  139.3014  155.8621 C   0  0  0  0  0  0  0  0  0  0  0  0
  151.1151  140.0797  155.6860 C   0  0  0  0  0  0  0  0  0  0  0  0
  150.3686  140.2187  156.9360 N   0  0  0  0  0  0  0  0  0  0  0  0
  150.2364  141.5321  157.5697 C   0  0  0  0  0  0  0  0  0  0  0  0
  151.5766  142.1042  158.0719 C   0  0  1  0  0  0  0  0  0  0  0  0
  151.6760  143.6229  157.9486 C   0  0  0  0  0  0  0  0  0  0  0  0
  152.6921  144.0035  159.0151 C   0  0  0  0  0  0  0  0  0  0  0  0
  152.7829  142.7603  159.9039 C   0  0  0  0  0  0  0  0  0  0  0  0
  151.7207  141.9230  159.4726 O   0  0  0  0  0  0  0  0  0  0  0  0
  150.4366  139.1881  157.8126 C   0  0  0  0  0  0  0  0  0  0  0  0
  151.6053  139.0103  158.4797 N   0  0  0  0  0  0  0  0  0  0  0  0
  151.7448  137.9901  159.3308 C   0  0  0  0  0  0  0  0  0  0  0  0
  150.8632  137.0396  159.6458 N   0  0  0  0  0  0  0  0  0  0  0  0
  149.6918  137.2048  158.9672 C   0  0  0  0  0  0  0  0  0  0  0  0
  149.3907  138.2484  158.0467 C   0  0  0  0  0  0  0  0  0  0  0  0
  148.1034  138.0799  157.5494 N   0  0  0  0  0  0  0  0  0  0  0  0
  147.6700  137.0009  158.1403 C   0  0  0  0  0  0  0  0  0  0  0  0
  148.5655  136.4006  158.9957 N   0  0  0  0  0  0  0  0  0  0  0  0
  148.3575  135.1765  159.7538 C   0  0  0  0  0  0  0  0  0  0  0  0
  147.2079  135.2824  160.7865 C   0  0  2  0  0  0  0  0  0  0  0  0
  145.9763  135.2835  160.0832 O   0  0  0  0  0  0  0  0  0  0  0  0
  147.2869  136.5724  161.6097 C   0  0  0  0  0  0  0  0  0  0  0  0
  147.6205  136.0947  163.0184 C   0  0  0  0  0  0  0  0  0  0  0  0
  146.9744  134.8362  163.0876 O   0  0  0  0  0  0  0  0  0  0  0  0
  147.2425  134.1670  161.8645 C   0  0  1  0  0  0  0  0  0  0  0  0
  146.2893  132.9753  161.6743 C   0  0  0  0  0  0  0  0  0  0  0  0
  152.9875  139.2829  154.9282 H   0  0  0  0  0  0  0  0  0  0  0  0
  152.2474  138.2666  156.1536 H   0  0  0  0  0  0  0  0  0  0  0  0
  153.0587  139.7631  156.6202 H   0  0  0  0  0  0  0  0  0  0  0  0
  151.3555  141.0693  155.2945 H   0  0  0  0  0  0  0  0  0  0  0  0
  150.4941  139.5898  154.9361 H   0  0  0  0  0  0  0  0  0  0  0  0
  149.8050  142.2205  156.8443 H   0  0  0  0  0  0  0  0  0  0  0  0
  149.5186  141.4867  158.3897 H   0  0  0  0  0  0  0  0  0  0  0  0
  152.4210  141.6434  157.5570 H   0  0  0  0  0  0  0  0  0  0  0  0
  151.9687  143.9445  156.9487 H   0  0  0  0  0  0  0  0  0  0  0  0
  150.7147  144.0828  158.1818 H   0  0  0  0  0  0  0  0  0  0  0  0
  153.6641  144.2342  158.5781 H   0  0  0  0  0  0  0  0  0  0  0  0
  152.3590  144.8776  159.5755 H   0  0  0  0  0  0  0  0  0  0  0  0
  153.7315  142.2437  159.7490 H   0  0  0  0  0  0  0  0  0  0  0  0
  152.6918  142.9943  160.9648 H   0  0  0  0  0  0  0  0  0  0  0  0
  152.7027  137.9217  159.8250 H   0  0  0  0  0  0  0  0  0  0  0  0
  146.6843  136.6001  157.9539 H   0  0  0  0  0  0  0  0  0  0  0  0
  148.1544  134.3683  159.0498 H   0  0  0  0  0  0  0  0  0  0  0  0
  149.2938  134.9188  160.2509 H   0  0  0  0  0  0  0  0  0  0  0  0
  145.2731  135.2604  160.7144 H   0  0  0  0  0  0  0  0  0  0  0  0
  148.0241  137.2831  161.2343 H   0  0  0  0  0  0  0  0  0  0  0  0
  146.3247  137.0868  161.6302 H   0  0  0  0  0  0  0  0  0  0  0  0
  148.6968  135.9644  163.1434 H   0  0  0  0  0  0  0  0  0  0  0  0
  147.2628  136.7761  163.7904 H   0  0  0  0  0  0  0  0  0  0  0  0
  148.2597  133.7837  161.9520 H   0  0  0  0  0  0  0  0  0  0  0  0
  146.4647  132.4776  160.7206 H   0  0  0  0  0  0  0  0  0  0  0  0
  145.2448  133.2859  161.7062 H   0  0  0  0  0  0  0  0  0  0  0  0
  146.4353  132.2356  162.4615 H   0  0  0  0  0  0  0  0  0  0  0  0
  1  2  1  0  0  0  0
  1 27  1  0  0  0  0
  1 28  1  0  0  0  0
  1 29  1  0  0  0  0
  2  3  1  0  0  0  0
  2 30  1  0  0  0  0
  2 31  1  0  0  0  0
  3  4  1  0  0  0  0
  3 10  1  0  0  0  0
  4  5  1  0  0  0  0
  4 32  1  0  0  0  0
  4 33  1  0  0  0  0
  5  9  1  0  0  0  0
  5  6  1  0  0  0  0
  5 34  1  0  0  0  0
  6  7  1  0  0  0  0
  6 35  1  0  0  0  0
  6 36  1  0  0  0  0
  7  8  1  0  0  0  0
  7 37  1  0  0  0  0
  7 38  1  0  0  0  0
  8  9  1  0  0  0  0
  8 39  1  0  0  0  0
  8 40  1  0  0  0  0
 10 15  1  0  0  0  0
 10 11  2  0  0  0  0
 11 12  1  0  0  0  0
 12 13  2  0  0  0  0
 12 41  1  0  0  0  0
 13 14  1  0  0  0  0
 14 18  1  0  0  0  0
 14 15  2  0  0  0  0
 15 16  1  0  0  0  0
 16 17  2  0  0  0  0
 17 18  1  0  0  0  0
 17 42  1  0  0  0  0
 18 19  1  0  0  0  0
 19 20  1  0  0  0  0
 19 43  1  0  0  0  0
 19 44  1  0  0  0  0
 20 25  1  0  0  0  0
 20 21  1  0  0  0  0
 20 22  1  0  0  0  0
 21 45  1  0  0  0  0
 22 23  1  0  0  0  0
 22 46  1  0  0  0  0
 22 47  1  0  0  0  0
 23 24  1  0  0  0  0
 23 48  1  0  0  0  0
 23 49  1  0  0  0  0
 24 25  1  0  0  0  0
 25 26  1  0  0  0  0
 25 50  1  0  0  0  0
 26 51  1  0  0  0  0
 26 52  1  0  0  0  0
 26 53  1  0  0  0  0
M  END
> <s_m_source_file>
AV-unprocessed.smi

> <i_m_source_file_index>
15

> <i_lp_mmshare_version>
43012

> <i_f3d_flags>
0

> <s_epik_input>
TzFbQ0gyXVtDSDJdW0NIMl1bQ0BIXTFbQ0gyXU4oW0NIMl1bQ0gzXSljKG5bY0hdbjIpYyhjMjMpbltjSF1uM1tDSDJdW0NAQF00KFtPSF0pW0NIMl1bQ0gyXU9bQ0BIXTRbQ0gzXQ==

> <s_epik_cmdline>
J2VwaWtfcHl0aG9uJywgJy1waCcsICc3LjAnLCAnLXRuJywgJzgnLCAnLW1hJywgJzIwMCcsICctbWV0YWxfYmluZGluZycsICctaW1hZScsICc8aW5maWxlLm1hZT4nLCAnLW9tYWUnLCAnPG91dGZpbGUubWFlPic=

> <r_lp_tautomer_probability>
1

> <r_epik_Ionization_Penalty>
0.00360814

> <r_epik_Ionization_Penalty_Charging>
0

> <r_epik_Ionization_Penalty_Neutral>
0.00360814

> <r_epik_State_Penalty>
0.00237482

> <r_epik_Charging_Adjusted_Penalty>
0.00237482

> <i_epik_Tot_Q>
0

> <i_epik_Tot_abs_Q>
0

> <r_epik_Metal_State_Penalty>
-0

> <b_epik_Metal_Only>
0

> <s_lp_Force_Field>
OPLS_2005

> <r_lp_Energy>
44.887

> <b_lp_Chiralities_Consistent>
1

> <s_lp_Variant>
AV-unprocessed.smi:15-4

> <Gold.Version>
5.8.1

> <Gold.Id.Protein>
6NUR|6NUR_protein|mol2

> <Gold.PLP.Fitness>
48.8736

> <Gold.PLP.PLP>
-49.8122

> <Gold.PLP.part.hbond>
-1.5592

> <Gold.PLP.part.metal>
0.0000

> <Gold.PLP.part.buried>
-8.0197

> <Gold.PLP.part.nonpolar>
-41.3981

> <Gold.PLP.part.repulsive>
0.0000

> <Gold.PLP.ligand.clash>
0.0000

> <Gold.PLP.ligand.torsion>
2.4416

> <Gold.PLP.Chemscore.Hbond>
1.0000

> <Gold.PLP.Chemscore.CHOScore>
0.0000

> <Gold.PLP.Chemscore.Metal>
0.0000

> <Gold.Chemscore.Hbonds>
donor molecule, donor type, donor heavy atom, donor atom, acceptor molecule, acceptor atom, score
      P1  H  6896  6909       L1    13  1.00

> <Gold.PLP.Chemscore.Internal.Correction>
0.9446

> <Gold.Rescore>
     Score         DG    S(hbond)    S(metal)    S(lipo)     H(rot)  DE(clash)    DE(int)     intcor
     11.39     -15.40       0.85        0.00     113.86       2.44       0.02       3.99       ----

> <Gold.Chemscore.Fitness>
11.3894

> <Gold.Chemscore.DG>
-15.4021

> <Gold.Chemscore.ZeroCoef>
-5.4800

> <Gold.Chemscore.Hbond>
0.8547

> <Gold.Chemscore.Metal>
0.0000

> <Gold.Chemscore.Lipo>
113.8631

> <Gold.Chemscore.Internal_Hbond>
0.0000

> <Gold.Chemscore.DEClash>
0.0239

> <Gold.Chemscore.DEInternal>
3.9888

> <Gold.Chemscore.Rot>
2.4431

> <Gold.Chemscore.Internal.Correction>
   9.000000E+99

> <Gold.Chemscore.Hbonds>
donor molecule, donor type, donor heavy atom, donor atom, acceptor molecule, acceptor atom, score
      P1  H  6896  6909       L1    13  0.59

> <Gold.Chemscore.Hbond.Weighted>
-2.8545

> <Gold.Chemscore.Metal.Weighted>
-0.0000

> <Gold.Chemscore.Lipo.Weighted>
-13.3220

> <Gold.Chemscore.Internal_Hbond.Weighted>
0.0000

> <Gold.Chemscore.DEClash.Weighted>
0.0239

> <Gold.Chemscore.DEInternal.Weighted>
3.9888

> <Gold.Chemscore.Rot.Weighted>
6.2544

> <Gold.Chemscore.Internal.Correction.Weighted>
   9.000000E+99

> <Gold.Protein.RotatedTorsions>
[ 6907 6896 6895 6894 ] final   93.44 input  -60.11 | X-H torsion
[ 7974 7965 7964 7962 ] final  -45.96 input  175.53 | X-H torsion
[ 8008 7997 7996 7995 ] final   78.14 input   59.86 | X-H torsion
[ 10167 10162 10161 10158 ] final  -27.93 input  -65.29 | X-H torsion
[ 10718 10713 10712 10709 ] final   54.21 input   66.30 | X-H torsion
[ 10763 10752 10751 10750 ] final  -24.06 input  -60.55 | X-H torsion
[ 11005 11000 10999 10996 ] final  -92.62 input  -57.11 | X-H torsion

> <Gold.Protein.ActiveResidues>
 VAL166  LYS551  ARG553  GLY616  TRP617  ASP618  TYR619  PRO620  LYS621  CYS622 
 ASP623  PHE694  ASN695  SER759  ASP760  ASP761  ALA762  ILE779  LEU786  VAL792 
 PHE793  MET794  SER795  GLU796  ALA797  LYS798  CYS799  TRP800  GLU811  SER814 

> <Gold.Protein.RotatedAtoms>
  152.5452  134.1347  159.8453 H   0  0  0  0  0  0  0  0  0  0  0  0  # atno 6907 bound_to 6896
  151.1389  133.4978  159.2605 H   0  0  0  0  0  0  0  0  0  0  0  0  # atno 6908 bound_to 6896
  151.1594  135.0276  159.8758 H   0  0  0  0  0  0  0  0  0  0  0  0  # atno 6909 bound_to 6896
  145.9768  140.7326  142.9383 H   0  0  0  0  0  0  0  0  0  0  0  0  # atno 7974 bound_to 7965
  155.8516  140.3458  155.5697 H   0  0  0  0  0  0  0  0  0  0  0  0  # atno 8008 bound_to 7997
  155.8032  140.0888  157.1965 H   0  0  0  0  0  0  0  0  0  0  0  0  # atno 8009 bound_to 7997
  154.4008  140.1461  156.3286 H   0  0  0  0  0  0  0  0  0  0  0  0  # atno 8010 bound_to 7997
  140.7274  143.4052  151.1197 H   0  0  0  0  0  0  0  0  0  0  0  0  # atno 10167 bound_to 10162
  157.5237  130.8582  149.8593 H   0  0  0  0  0  0  0  0  0  0  0  0  # atno 10718 bound_to 10713
  153.6777  135.6968  153.5127 H   0  0  0  0  0  0  0  0  0  0  0  0  # atno 10763 bound_to 10752
  153.2509  135.4275  155.0795 H   0  0  0  0  0  0  0  0  0  0  0  0  # atno 10764 bound_to 10752
  154.8409  135.3531  154.6321 H   0  0  0  0  0  0  0  0  0  0  0  0  # atno 10765 bound_to 10752
  141.1517  133.7833  157.0046 H   0  0  0  0  0  0  0  0  0  0  0  0  # atno 11005 bound_to 11000
  144.6851  140.2841  143.7288 LP  0  0  0  0  0  0  0  0  0  0  0  0  # atno 17320 bound_to 7965
  145.7827  139.1897  143.2148 LP  0  0  0  0  0  0  0  0  0  0  0  0  # atno 17321 bound_to 7965
  139.7678  143.8539  152.3114 LP  0  0  0  0  0  0  0  0  0  0  0  0  # atno 17342 bound_to 10162
  139.8447  144.7193  150.9287 LP  0  0  0  0  0  0  0  0  0  0  0  0  # atno 17343 bound_to 10162
  156.0371  130.3748  150.1531 LP  0  0  0  0  0  0  0  0  0  0  0  0  # atno 17370 bound_to 10713
  156.9718  130.9837  151.3457 LP  0  0  0  0  0  0  0  0  0  0  0  0  # atno 17371 bound_to 10713
  140.0918  134.9588  157.1787 LP  0  0  0  0  0  0  0  0  0  0  0  0  # atno 17394 bound_to 11000
  140.3436  134.2676  155.7208 LP  0  0  0  0  0  0  0  0  0  0  0  0  # atno 17395 bound_to 11000

$$$$
