AV-unprocessed.smi:2213|AV-procd|sdf|8956|dock4
  -GOLD-   2272012173D 1   1.00000     0.00000
 Structure written by MMmdl.
 38 39  0  0  0  0  0  0  0  0  1 V2000
  146.5705  137.8205  153.5490 C   0  0  0  0  0  0  0  0  0  0  0  0
  147.7400  138.6204  154.0948 C   0  0  0  0  0  0  0  0  0  0  0  0
  148.6121  137.9197  154.9331 N   0  0  0  0  0  0  0  0  0  0  0  0
  149.6323  138.5220  155.4505 C   0  0  0  0  0  0  0  0  0  0  0  0
  149.8978  139.8769  155.1932 N   0  0  0  0  0  0  0  0  0  0  0  0
  151.0874  140.4442  155.8496 C   0  0  0  0  0  0  0  0  0  0  0  0
  151.2411  139.9580  157.3085 C   0  0  2  0  0  0  0  0  0  0  0  0
  150.1324  140.3649  158.0853 O   0  0  0  0  0  0  0  0  0  0  0  0
  152.5119  140.4939  157.9900 C   0  0  0  0  0  0  0  0  0  0  0  0
  152.2095  141.6879  158.7012 O   0  0  0  0  0  0  0  0  0  0  0  0
  152.7264  141.8505  159.9694 C   0  0  0  0  0  0  0  0  0  0  0  0
  153.6276  140.9408  160.5793 C   0  0  0  0  0  0  0  0  0  0  0  0
  154.1094  141.1765  161.8819 C   0  0  0  0  0  0  0  0  0  0  0  0
  155.2045  140.0599  162.6106 Cl  0  0  0  0  0  0  0  0  0  0  0  0
  153.6993  142.3210  162.5902 C   0  0  0  0  0  0  0  0  0  0  0  0
  152.8072  143.2303  161.9936 C   0  0  0  0  0  0  0  0  0  0  0  0
  152.3243  142.9967  160.6910 C   0  0  0  0  0  0  0  0  0  0  0  0
  151.2312  144.1302  159.9804 Cl  0  0  0  0  0  0  0  0  0  0  0  0
  149.1067  140.6300  154.3754 C   0  0  0  0  0  0  0  0  0  0  0  0
  149.3608  141.8130  154.1404 O   0  0  0  0  0  0  0  0  0  0  0  0
  147.9445  139.9334  153.8005 C   0  0  0  0  0  0  0  0  0  0  0  0
  147.0286  140.7474  152.8950 C   0  0  0  0  0  0  0  0  0  0  0  0
  145.6258  138.2504  153.8827 H   0  0  0  0  0  0  0  0  0  0  0  0
  146.6044  136.7847  153.8894 H   0  0  0  0  0  0  0  0  0  0  0  0
  146.5864  137.8140  152.4589 H   0  0  0  0  0  0  0  0  0  0  0  0
  150.3439  138.0199  156.1082 H   0  0  0  0  0  0  0  0  0  0  0  0
  151.9687  140.1469  155.2778 H   0  0  0  0  0  0  0  0  0  0  0  0
  151.0985  141.5357  155.8082 H   0  0  0  0  0  0  0  0  0  0  0  0
  151.2797  138.8686  157.3442 H   0  0  0  0  0  0  0  0  0  0  0  0
  149.4747  139.6873  158.0503 H   0  0  0  0  0  0  0  0  0  0  0  0
  152.9382  139.7367  158.6505 H   0  0  0  0  0  0  0  0  0  0  0  0
  153.2529  140.7184  157.2211 H   0  0  0  0  0  0  0  0  0  0  0  0
  153.9653  140.0531  160.0667 H   0  0  0  0  0  0  0  0  0  0  0  0
  154.0677  142.5031  163.5891 H   0  0  0  0  0  0  0  0  0  0  0  0
  152.4931  144.1093  162.5371 H   0  0  0  0  0  0  0  0  0  0  0  0
  147.5850  141.1186  152.0340 H   0  0  0  0  0  0  0  0  0  0  0  0
  146.6297  141.6057  153.4365 H   0  0  0  0  0  0  0  0  0  0  0  0
  146.1817  140.1777  152.5162 H   0  0  0  0  0  0  0  0  0  0  0  0
  1  2  1  0  0  0  0
  1 23  1  0  0  0  0
  1 24  1  0  0  0  0
  1 25  1  0  0  0  0
  2 21  2  0  0  0  0
  2  3  1  0  0  0  0
  3  4  2  0  0  0  0
  4  5  1  0  0  0  0
  4 26  1  0  0  0  0
  5  6  1  0  0  0  0
  5 19  1  0  0  0  0
  6  7  1  0  0  0  0
  6 27  1  0  0  0  0
  6 28  1  0  0  0  0
  7  8  1  0  0  0  0
  7  9  1  0  0  0  0
  7 29  1  0  0  0  0
  8 30  1  0  0  0  0
  9 10  1  0  0  0  0
  9 31  1  0  0  0  0
  9 32  1  0  0  0  0
 10 11  1  0  0  0  0
 11 17  1  0  0  0  0
 11 12  2  0  0  0  0
 12 13  1  0  0  0  0
 12 33  1  0  0  0  0
 13 14  1  0  0  0  0
 13 15  2  0  0  0  0
 15 16  1  0  0  0  0
 15 34  1  0  0  0  0
 16 17  2  0  0  0  0
 16 35  1  0  0  0  0
 17 18  1  0  0  0  0
 19 20  2  0  0  0  0
 19 21  1  0  0  0  0
 21 22  1  0  0  0  0
 22 36  1  0  0  0  0
 22 37  1  0  0  0  0
 22 38  1  0  0  0  0
M  END
> <s_m_source_file>
AV-unprocessed.smi

> <i_m_source_file_index>
2213

> <i_lp_mmshare_version>
43012

> <i_f3d_flags>
0

> <s_epik_input>
W0NIM11jMW5bY0hdbihjKD1PKWMxW0NIM10pW0NIMl1bQ0BIXShbT0hdKVtDSDJdT2MyW2NIXWMoQ2wpW2NIXVtjSF1jMkNs

> <s_epik_cmdline>
J2VwaWtfcHl0aG9uJywgJy1waCcsICc3LjAnLCAnLXRuJywgJzgnLCAnLW1hJywgJzIwMCcsICctbWV0YWxfYmluZGluZycsICctaW1hZScsICc8aW5maWxlLm1hZT4nLCAnLW9tYWUnLCAnPG91dGZpbGUubWFlPic=

> <r_lp_tautomer_probability>
1

> <r_epik_Ionization_Penalty>
3.50205e-05

> <r_epik_Ionization_Penalty_Charging>
7.87908e-08

> <r_epik_Ionization_Penalty_Neutral>
3.49418e-05

> <r_epik_State_Penalty>
-0

> <r_epik_Charging_Adjusted_Penalty>
7.87908e-08

> <i_epik_Tot_Q>
0

> <i_epik_Tot_abs_Q>
0

> <r_epik_Metal_State_Penalty>
-0

> <b_epik_Metal_Only>
0

> <s_lp_Force_Field>
OPLS_2005

> <r_lp_Energy>
24.8727

> <b_lp_Chiralities_Consistent>
1

> <s_lp_Variant>
AV-unprocessed.smi:2213-1

> <Gold.Version>
5.8.1

> <Gold.Id.Protein>
6NUR|6NUR_protein|mol2

> <Gold.PLP.Fitness>
43.8641

> <Gold.PLP.PLP>
-44.3870

> <Gold.PLP.part.hbond>
-2.0000

> <Gold.PLP.part.metal>
0.0000

> <Gold.PLP.part.buried>
-1.6287

> <Gold.PLP.part.nonpolar>
-39.0511

> <Gold.PLP.part.repulsive>
0.3257

> <Gold.PLP.ligand.clash>
0.0000

> <Gold.PLP.ligand.torsion>
1.0273

> <Gold.PLP.Chemscore.Hbond>
0.4800

> <Gold.PLP.Chemscore.CHOScore>
0.0000

> <Gold.PLP.Chemscore.Metal>
0.0000

> <Gold.Chemscore.Hbonds>
donor molecule, donor type, donor heavy atom, donor atom, acceptor molecule, acceptor atom, score
      P1  H  8011  8017       L1    20  0.50

> <Gold.PLP.Chemscore.Internal.Correction>
0.0917

> <Gold.Rescore>
     Score         DG    S(hbond)    S(metal)    S(lipo)     H(rot)  DE(clash)    DE(int)     intcor
     14.49     -15.61       0.58        0.00     122.18       2.38       0.11       1.01       ----

> <Gold.Chemscore.Fitness>
14.4939

> <Gold.Chemscore.DG>
-15.6138

> <Gold.Chemscore.ZeroCoef>
-5.4800

> <Gold.Chemscore.Hbond>
0.5805

> <Gold.Chemscore.Metal>
0.0000

> <Gold.Chemscore.Lipo>
122.1755

> <Gold.Chemscore.Internal_Hbond>
0.0000

> <Gold.Chemscore.DEClash>
0.1124

> <Gold.Chemscore.DEInternal>
1.0075

> <Gold.Chemscore.Rot>
2.3826

> <Gold.Chemscore.Internal.Correction>
   9.000000E+99

> <Gold.Chemscore.Hbonds>
donor molecule, donor type, donor heavy atom, donor atom, acceptor molecule, acceptor atom, score
      P1  H  8011  8017       L1    20  0.47

> <Gold.Chemscore.Hbond.Weighted>
-1.9388

> <Gold.Chemscore.Metal.Weighted>
-0.0000

> <Gold.Chemscore.Lipo.Weighted>
-14.2945

> <Gold.Chemscore.Internal_Hbond.Weighted>
0.0000

> <Gold.Chemscore.DEClash.Weighted>
0.1124

> <Gold.Chemscore.DEInternal.Weighted>
1.0075

> <Gold.Chemscore.Rot.Weighted>
6.0996

> <Gold.Chemscore.Internal.Correction.Weighted>
   9.000000E+99

> <Gold.Protein.RotatedTorsions>
[ 6907 6896 6895 6894 ] final -149.00 input  -60.11 | X-H torsion
[ 7974 7965 7964 7962 ] final -132.74 input  175.53 | X-H torsion
[ 8008 7997 7996 7995 ] final    1.33 input   59.86 | X-H torsion
[ 10167 10162 10161 10158 ] final   88.42 input  -65.29 | X-H torsion
[ 10718 10713 10712 10709 ] final -155.20 input   66.30 | X-H torsion
[ 10763 10752 10751 10750 ] final   12.01 input  -60.55 | X-H torsion
[ 11005 11000 10999 10996 ] final  -67.55 input  -57.11 | X-H torsion

> <Gold.Protein.ActiveResidues>
 VAL166  LYS551  ARG553  GLY616  TRP617  ASP618  TYR619  PRO620  LYS621  CYS622 
 ASP623  PHE694  ASN695  SER759  ASP760  ASP761  ALA762  ILE779  LEU786  VAL792 
 PHE793  MET794  SER795  GLU796  ALA797  LYS798  CYS799  TRP800  GLU811  SER814 

> <Gold.Protein.RotatedAtoms>
  151.1778  133.4744  159.2593 H   0  0  0  0  0  0  0  0  0  0  0  0  # atno 6907 bound_to 6896
  151.1290  135.0120  159.8584 H   0  0  0  0  0  0  0  0  0  0  0  0  # atno 6908 bound_to 6896
  152.5459  134.1682  159.8639 H   0  0  0  0  0  0  0  0  0  0  0  0  # atno 6909 bound_to 6896
  144.9257  140.7069  143.4937 H   0  0  0  0  0  0  0  0  0  0  0  0  # atno 7974 bound_to 7965
  154.6785  140.2627  155.6933 H   0  0  0  0  0  0  0  0  0  0  0  0  # atno 8008 bound_to 7997
  156.2687  140.2815  156.1242 H   0  0  0  0  0  0  0  0  0  0  0  0  # atno 8009 bound_to 7997
  155.1066  140.0375  157.2702 H   0  0  0  0  0  0  0  0  0  0  0  0  # atno 8010 bound_to 7997
  139.8675  144.6511  150.8988 H   0  0  0  0  0  0  0  0  0  0  0  0  # atno 10167 bound_to 10162
  156.5097  130.8429  151.2641 H   0  0  0  0  0  0  0  0  0  0  0  0  # atno 10718 bound_to 10713
  153.1867  135.6836  153.8406 H   0  0  0  0  0  0  0  0  0  0  0  0  # atno 10763 bound_to 10752
  153.7720  135.3194  155.3354 H   0  0  0  0  0  0  0  0  0  0  0  0  # atno 10764 bound_to 10752
  154.8093  135.4728  154.0570 H   0  0  0  0  0  0  0  0  0  0  0  0  # atno 10765 bound_to 10752
  141.1511  133.6721  156.6310 H   0  0  0  0  0  0  0  0  0  0  0  0  # atno 11005 bound_to 11000
  145.3223  139.1785  143.4581 LP  0  0  0  0  0  0  0  0  0  0  0  0  # atno 17320 bound_to 7965
  146.3225  140.3241  142.8635 LP  0  0  0  0  0  0  0  0  0  0  0  0  # atno 17321 bound_to 7965
  140.7766  143.3692  151.1681 LP  0  0  0  0  0  0  0  0  0  0  0  0  # atno 17342 bound_to 10162
  139.7315  143.9064  152.3021 LP  0  0  0  0  0  0  0  0  0  0  0  0  # atno 17343 bound_to 10162
  157.7452  130.9954  150.2742 LP  0  0  0  0  0  0  0  0  0  0  0  0  # atno 17370 bound_to 10713
  156.3253  130.3792  149.7539 LP  0  0  0  0  0  0  0  0  0  0  0  0  # atno 17371 bound_to 10713
  140.3467  134.7803  157.4437 LP  0  0  0  0  0  0  0  0  0  0  0  0  # atno 17394 bound_to 11000
  140.0894  134.5622  155.8459 LP  0  0  0  0  0  0  0  0  0  0  0  0  # atno 17395 bound_to 11000

$$$$
