AV-unprocessed.smi:3|AV-procd|sdf|27|dock7
  -GOLD-   2262015143D 1   1.00000     0.00000
 Structure written by MMmdl.
 33 35  0  0  0  0  0  0  0  0  1 V2000
  152.5903  139.5883  158.0200 C   0  0  0  0  0  0  0  0  0  0  0  0
  151.4423  140.4660  157.8438 N   0  0  0  0  0  0  0  0  0  0  0  0
  151.1804  141.4626  158.8848 C   0  0  0  0  0  0  0  0  0  0  0  0
  152.1582  142.6360  158.8264 C   0  0  1  0  0  0  0  0  0  0  0  0
  151.8191  143.8863  158.0005 C   0  0  0  0  0  0  0  0  0  0  0  0
  152.5151  144.7362  159.0681 C   0  0  1  0  0  0  0  0  0  0  0  0
  151.9258  145.9756  159.3921 O   0  0  0  0  0  0  0  0  0  0  0  0
  152.2758  143.5730  160.0367 C   0  0  0  0  0  0  0  0  0  0  0  0
  150.7999  140.5440  156.5827 C   0  0  0  0  0  0  0  0  0  0  0  0
  150.1150  141.6824  156.2959 N   0  0  0  0  0  0  0  0  0  0  0  0
  149.4891  141.8241  155.1259 C   0  0  0  0  0  0  0  0  0  0  0  0
  149.4156  140.9618  154.1124 N   0  0  0  0  0  0  0  0  0  0  0  0
  150.0916  139.8134  154.3922 C   0  0  0  0  0  0  0  0  0  0  0  0
  150.2146  138.7139  153.5696 N   0  0  0  0  0  0  0  0  0  0  0  0
  150.9684  137.7349  154.1875 C   0  0  0  0  0  0  0  0  0  0  0  0
  151.3498  138.1823  155.4261 C   0  0  0  0  0  0  0  0  0  0  0  0
  150.8079  139.5121  155.5903 C   0  0  0  0  0  0  0  0  0  0  0  0
  153.1628  142.2981  158.5632 H   0  0  0  0  0  0  0  0  0  0  0  0
  153.5764  144.8718  158.8527 H   0  0  0  0  0  0  0  0  0  0  0  0
  149.8190  138.6131  152.6460 H   0  0  0  0  0  0  0  0  0  0  0  0
  152.2832  138.5439  157.9679 H   0  0  0  0  0  0  0  0  0  0  0  0
  153.0556  139.7439  158.9936 H   0  0  0  0  0  0  0  0  0  0  0  0
  153.3476  139.7825  157.2603 H   0  0  0  0  0  0  0  0  0  0  0  0
  150.1488  141.8133  158.8537 H   0  0  0  0  0  0  0  0  0  0  0  0
  151.2720  140.9631  159.8498 H   0  0  0  0  0  0  0  0  0  0  0  0
  152.2867  143.9139  157.0158 H   0  0  0  0  0  0  0  0  0  0  0  0
  150.7474  144.0826  157.9393 H   0  0  0  0  0  0  0  0  0  0  0  0
  151.3164  145.8161  160.0965 H   0  0  0  0  0  0  0  0  0  0  0  0
  151.3422  143.6688  160.5943 H   0  0  0  0  0  0  0  0  0  0  0  0
  153.1141  143.3513  160.6979 H   0  0  0  0  0  0  0  0  0  0  0  0
  148.9736  142.7621  154.9820 H   0  0  0  0  0  0  0  0  0  0  0  0
  151.1726  136.7954  153.6947 H   0  0  0  0  0  0  0  0  0  0  0  0
  151.9455  137.6316  156.1370 H   0  0  0  0  0  0  0  0  0  0  0  0
  1  2  1  0  0  0  0
  1 21  1  0  0  0  0
  1 22  1  0  0  0  0
  1 23  1  0  0  0  0
  2  3  1  0  0  0  0
  2  9  1  0  0  0  0
  3  4  1  0  0  0  0
  3 24  1  0  0  0  0
  3 25  1  0  0  0  0
  4 18  1  0  0  0  0
  4  8  1  0  0  0  0
  4  5  1  0  0  0  0
  5  6  1  0  0  0  0
  5 26  1  0  0  0  0
  5 27  1  0  0  0  0
  6 19  1  0  0  0  0
  6  7  1  0  0  0  0
  6  8  1  0  0  0  0
  7 28  1  0  0  0  0
  8 29  1  0  0  0  0
  8 30  1  0  0  0  0
  9 17  1  0  0  0  0
  9 10  2  0  0  0  0
 10 11  1  0  0  0  0
 11 12  2  0  0  0  0
 11 31  1  0  0  0  0
 12 13  1  0  0  0  0
 13 17  2  0  0  0  0
 13 14  1  0  0  0  0
 14 20  1  0  0  0  0
 14 15  1  0  0  0  0
 15 16  2  0  0  0  0
 15 32  1  0  0  0  0
 16 17  1  0  0  0  0
 16 33  1  0  0  0  0
M  END
> <s_m_source_file>
AV-unprocessed.smi

> <i_m_source_file_index>
3

> <i_lp_mmshare_version>
43012

> <i_f3d_flags>
0

> <s_epik_input>
W25IXTFbY0hdW2NIXWMoYzEyKWMobltjSF1uMilOKFtDSDNdKVtDSDJdW0NASF0zW0NIMl1bQ0BASF0oW09IXSlbQ0gyXTM=

> <s_epik_cmdline>
J2VwaWtfcHl0aG9uJywgJy1waCcsICc3LjAnLCAnLXRuJywgJzgnLCAnLW1hJywgJzIwMCcsICctbWV0YWxfYmluZGluZycsICctaW1hZScsICc8aW5maWxlLm1hZT4nLCAnLW9tYWUnLCAnPG91dGZpbGUubWFlPic=

> <r_lp_tautomer_probability>
0.999998

> <r_epik_Ionization_Penalty>
0.0134605

> <r_epik_Ionization_Penalty_Charging>
0

> <r_epik_Ionization_Penalty_Neutral>
0.0134605

> <r_epik_State_Penalty>
0.00982199

> <r_epik_Charging_Adjusted_Penalty>
0.00982199

> <i_epik_Tot_Q>
0

> <i_epik_Tot_abs_Q>
0

> <r_epik_Metal_State_Penalty>
0.00963912

> <b_epik_Metal_Only>
0

> <s_lp_Force_Field>
OPLS_2005

> <r_lp_Energy>
10.8509

> <b_lp_Chiralities_Consistent>
1

> <s_lp_Variant>
AV-unprocessed.smi:3-1

> <Gold.Version>
5.8.1

> <Gold.Id.Protein>
6NUR|6NUR_protein|mol2

> <Gold.PLP.Fitness>
43.7469

> <Gold.PLP.PLP>
-36.2220

> <Gold.PLP.part.hbond>
-3.8498

> <Gold.PLP.part.metal>
0.0000

> <Gold.PLP.part.buried>
0.6714

> <Gold.PLP.part.nonpolar>
-32.7953

> <Gold.PLP.part.repulsive>
0.7030

> <Gold.PLP.ligand.clash>
0.0000

> <Gold.PLP.ligand.torsion>
0.7010

> <Gold.PLP.Chemscore.Hbond>
0.9083

> <Gold.PLP.Chemscore.CHOScore>
2.0000

> <Gold.PLP.Chemscore.Metal>
0.0000

> <Gold.Chemscore.Hbonds>
donor molecule, donor type, donor heavy atom, donor atom, acceptor molecule, acceptor atom, score
      L1  H    14    20       P1  7957  0.57
      P1  H  8011  8017       L1    12  0.23
      L1  C    11    31       P1  8028  1.00
      L1  C    15    32       P1  7949  1.00

> <Gold.PLP.Chemscore.Internal.Correction>
0.2019

> <Gold.Rescore>
     Score         DG    S(hbond)    S(metal)    S(lipo)     H(rot)  DE(clash)    DE(int)     intcor
     10.41     -12.69       0.83        0.00      78.07       1.84       1.53       0.75       ----

> <Gold.Chemscore.Fitness>
10.4121

> <Gold.Chemscore.DG>
-12.6922

> <Gold.Chemscore.ZeroCoef>
-5.4800

> <Gold.Chemscore.Hbond>
0.8346

> <Gold.Chemscore.Metal>
0.0000

> <Gold.Chemscore.Lipo>
78.0701

> <Gold.Chemscore.Internal_Hbond>
0.0000

> <Gold.Chemscore.DEClash>
1.5324

> <Gold.Chemscore.DEInternal>
0.7477

> <Gold.Chemscore.Rot>
1.8396

> <Gold.Chemscore.Internal.Correction>
   9.000000E+99

> <Gold.Chemscore.Hbonds>
donor molecule, donor type, donor heavy atom, donor atom, acceptor molecule, acceptor atom, score
      L1  H    14    20       P1  7957  0.27
      P1  H  8011  8017       L1    12  0.06

> <Gold.Chemscore.Hbond.Weighted>
-2.7874

> <Gold.Chemscore.Metal.Weighted>
-0.0000

> <Gold.Chemscore.Lipo.Weighted>
-9.1342

> <Gold.Chemscore.Internal_Hbond.Weighted>
0.0000

> <Gold.Chemscore.DEClash.Weighted>
1.5324

> <Gold.Chemscore.DEInternal.Weighted>
0.7477

> <Gold.Chemscore.Rot.Weighted>
4.7095

> <Gold.Chemscore.Internal.Correction.Weighted>
   9.000000E+99

> <Gold.Protein.RotatedTorsions>
[ 6907 6896 6895 6894 ] final   62.88 input  -60.11 | X-H torsion
[ 7974 7965 7964 7962 ] final -172.13 input  175.53 | X-H torsion
[ 8008 7997 7996 7995 ] final  -62.51 input   59.86 | X-H torsion
[ 10167 10162 10161 10158 ] final -106.38 input  -65.29 | X-H torsion
[ 10718 10713 10712 10709 ] final -118.03 input   66.30 | X-H torsion
[ 10763 10752 10751 10750 ] final  -29.06 input  -60.55 | X-H torsion
[ 11005 11000 10999 10996 ] final  -85.84 input  -57.11 | X-H torsion

> <Gold.Protein.ActiveResidues>
 VAL166  LYS551  ARG553  GLY616  TRP617  ASP618  TYR619  PRO620  LYS621  CYS622 
 ASP623  PHE694  ASN695  SER759  ASP760  ASP761  ALA762  ILE779  LEU786  VAL792 
 PHE793  MET794  SER795  GLU796  ALA797  LYS798  CYS799  TRP800  GLU811  SER814 

> <Gold.Protein.RotatedAtoms>
  152.4208  134.5958  159.9986 H   0  0  0  0  0  0  0  0  0  0  0  0  # atno 6907 bound_to 6896
  151.6108  133.3342  159.3075 H   0  0  0  0  0  0  0  0  0  0  0  0  # atno 6908 bound_to 6896
  150.8096  134.7281  159.6742 H   0  0  0  0  0  0  0  0  0  0  0  0  # atno 6909 bound_to 6896
  144.7149  140.1819  143.6357 H   0  0  0  0  0  0  0  0  0  0  0  0  # atno 7974 bound_to 7965
  154.4504  140.0994  156.6599 H   0  0  0  0  0  0  0  0  0  0  0  0  # atno 8008 bound_to 7997
  155.5305  140.3481  155.4407 H   0  0  0  0  0  0  0  0  0  0  0  0  # atno 8009 bound_to 7997
  156.0668  140.1339  156.9865 H   0  0  0  0  0  0  0  0  0  0  0  0  # atno 8010 bound_to 7997
  140.1883  143.3912  152.1226 H   0  0  0  0  0  0  0  0  0  0  0  0  # atno 10167 bound_to 10162
  156.1077  130.6223  150.9240 H   0  0  0  0  0  0  0  0  0  0  0  0  # atno 10718 bound_to 10713
  153.7584  135.6921  153.4930 H   0  0  0  0  0  0  0  0  0  0  0  0  # atno 10763 bound_to 10752
  153.1955  135.4455  155.0201 H   0  0  0  0  0  0  0  0  0  0  0  0  # atno 10764 bound_to 10752
  154.8162  135.3400  154.7101 H   0  0  0  0  0  0  0  0  0  0  0  0  # atno 10765 bound_to 10752
  141.1637  133.7421  156.9074 H   0  0  0  0  0  0  0  0  0  0  0  0  # atno 11005 bound_to 11000
  145.8849  139.2343  143.1584 LP  0  0  0  0  0  0  0  0  0  0  0  0  # atno 17320 bound_to 7965
  145.9960  140.8562  143.0042 LP  0  0  0  0  0  0  0  0  0  0  0  0  # atno 17321 bound_to 7965
  139.5266  144.7110  151.5206 LP  0  0  0  0  0  0  0  0  0  0  0  0  # atno 17342 bound_to 10162
  140.6473  143.8769  150.6750 LP  0  0  0  0  0  0  0  0  0  0  0  0  # atno 17343 bound_to 10162
  157.6255  131.0926  150.8541 LP  0  0  0  0  0  0  0  0  0  0  0  0  # atno 17370 bound_to 10713
  156.8658  130.5129  149.5300 LP  0  0  0  0  0  0  0  0  0  0  0  0  # atno 17371 bound_to 10713
  140.1540  134.9210  157.2630 LP  0  0  0  0  0  0  0  0  0  0  0  0  # atno 17394 bound_to 11000
  140.2689  134.3484  155.7380 LP  0  0  0  0  0  0  0  0  0  0  0  0  # atno 17395 bound_to 11000

$$$$
