AV-unprocessed.smi:1563|AV-procd|sdf|6289|dock10
  -GOLD-   22720 6493D 1   1.00000     0.00000
 Structure written by MMmdl.
 43 44  0  0  0  0  0  0  0  0  1 V2000
  150.1427  134.8774  154.7148 C   0  0  0  0  0  0  0  0  0  0  0  0
  150.0766  136.2602  155.3538 C   0  0  0  0  0  0  0  0  0  0  0  0
  150.5990  136.4596  156.4499 O   0  0  0  0  0  0  0  0  0  0  0  0
  149.4293  137.2052  154.6552 N   0  0  0  0  0  0  0  0  0  0  0  0
  149.2414  138.5890  155.0806 C   0  0  2  0  0  0  0  0  0  0  0  0
  148.2352  139.2876  154.1410 C   0  0  0  0  0  0  0  0  0  0  0  0
  148.1408  140.7999  154.4174 C   0  0  0  0  0  0  0  0  0  0  0  0
  149.5396  141.4381  154.4543 C   0  0  0  0  0  0  0  0  0  0  0  0
  150.3461  140.7436  155.4726 N   0  0  0  0  0  0  0  0  0  0  0  0
  150.7382  141.2464  156.6710 C   0  0  0  0  0  0  0  0  0  0  0  0
  151.4897  140.6461  157.4403 O   0  0  0  0  0  0  0  0  0  0  0  0
  150.2262  142.4541  156.9647 N   0  0  0  0  0  0  0  0  0  0  0  0
  150.5222  143.2518  158.1519 C   0  0  0  0  0  0  0  0  0  0  0  0
  152.0375  143.3761  158.3949 C   0  0  0  0  0  0  0  0  0  0  0  0
  152.4649  142.9948  159.8030 C   0  0  0  0  0  0  0  0  0  0  0  0
  153.2012  141.8130  160.0323 C   0  0  0  0  0  0  0  0  0  0  0  0
  153.5881  141.5082  161.3517 C   0  0  0  0  0  0  0  0  0  0  0  0
  153.2263  142.3924  162.3862 C   0  0  0  0  0  0  0  0  0  0  0  0
  152.4913  143.5478  162.0536 C   0  0  0  0  0  0  0  0  0  0  0  0
  152.1139  143.8485  160.7924 N   0  0  0  0  0  0  0  0  0  0  0  0
  150.5893  139.3454  155.0943 C   0  0  0  0  0  0  0  0  0  0  0  0
  150.5765  134.9376  153.7162 H   0  0  0  0  0  0  0  0  0  0  0  0
  149.1436  134.4483  154.6331 H   0  0  0  0  0  0  0  0  0  0  0  0
  150.7564  134.2028  155.3128 H   0  0  0  0  0  0  0  0  0  0  0  0
  149.0346  136.9461  153.7629 H   0  0  0  0  0  0  0  0  0  0  0  0
  148.8234  138.5987  156.0894 H   0  0  0  0  0  0  0  0  0  0  0  0
  148.5469  139.1421  153.1057 H   0  0  0  0  0  0  0  0  0  0  0  0
  147.2498  138.8294  154.2327 H   0  0  0  0  0  0  0  0  0  0  0  0
  147.5278  141.2803  153.6546 H   0  0  0  0  0  0  0  0  0  0  0  0
  147.6385  140.9675  155.3712 H   0  0  0  0  0  0  0  0  0  0  0  0
  150.0224  141.3293  153.4822 H   0  0  0  0  0  0  0  0  0  0  0  0
  149.4558  142.5136  154.6108 H   0  0  0  0  0  0  0  0  0  0  0  0
  149.6092  142.8734  156.2846 H   0  0  0  0  0  0  0  0  0  0  0  0
  150.0920  144.2433  158.0095 H   0  0  0  0  0  0  0  0  0  0  0  0
  150.0457  142.8369  159.0413 H   0  0  0  0  0  0  0  0  0  0  0  0
  152.5763  142.7518  157.6806 H   0  0  0  0  0  0  0  0  0  0  0  0
  152.3548  144.4003  158.1950 H   0  0  0  0  0  0  0  0  0  0  0  0
  153.4678  141.1568  159.2168 H   0  0  0  0  0  0  0  0  0  0  0  0
  154.1531  140.6132  161.5660 H   0  0  0  0  0  0  0  0  0  0  0  0
  153.5061  142.1913  163.4096 H   0  0  0  0  0  0  0  0  0  0  0  0
  152.1980  144.2487  162.8211 H   0  0  0  0  0  0  0  0  0  0  0  0
  151.2925  138.8477  155.7639 H   0  0  0  0  0  0  0  0  0  0  0  0
  151.0528  139.3150  154.1069 H   0  0  0  0  0  0  0  0  0  0  0  0
  1  2  1  0  0  0  0
  1 22  1  0  0  0  0
  1 23  1  0  0  0  0
  1 24  1  0  0  0  0
  2  3  2  0  0  0  0
  2  4  1  0  0  0  0
  4  5  1  0  0  0  0
  4 25  1  0  0  0  0
  5 21  1  0  0  0  0
  5  6  1  0  0  0  0
  5 26  1  0  0  0  0
  6  7  1  0  0  0  0
  6 27  1  0  0  0  0
  6 28  1  0  0  0  0
  7  8  1  0  0  0  0
  7 29  1  0  0  0  0
  7 30  1  0  0  0  0
  8  9  1  0  0  0  0
  8 31  1  0  0  0  0
  8 32  1  0  0  0  0
  9 10  1  0  0  0  0
  9 21  1  0  0  0  0
 10 11  2  0  0  0  0
 10 12  1  0  0  0  0
 12 13  1  0  0  0  0
 12 33  1  0  0  0  0
 13 14  1  0  0  0  0
 13 34  1  0  0  0  0
 13 35  1  0  0  0  0
 14 15  1  0  0  0  0
 14 36  1  0  0  0  0
 14 37  1  0  0  0  0
 15 20  1  0  0  0  0
 15 16  2  0  0  0  0
 16 17  1  0  0  0  0
 16 38  1  0  0  0  0
 17 18  2  0  0  0  0
 17 39  1  0  0  0  0
 18 19  1  0  0  0  0
 18 40  1  0  0  0  0
 19 20  2  0  0  0  0
 19 41  1  0  0  0  0
 21 42  1  0  0  0  0
 21 43  1  0  0  0  0
M  END
> <s_m_source_file>
AV-unprocessed.smi

> <i_m_source_file_index>
1563

> <i_lp_mmshare_version>
43012

> <i_f3d_flags>
0

> <s_epik_input>
W0NIM11DKD1PKVtOSF1bQ0BASF0xW0NIMl1bQ0gyXVtDSDJdTihbQ0gyXTEpQyg9TylbTkhdW0NIMl1bQ0gyXWMyW2NIXVtjSF1bY0hdW2NIXW4y

> <s_epik_cmdline>
J2VwaWtfcHl0aG9uJywgJy1waCcsICc3LjAnLCAnLXRuJywgJzgnLCAnLW1hJywgJzIwMCcsICctbWV0YWxfYmluZGluZycsICctaW1hZScsICc8aW5maWxlLm1hZT4nLCAnLW9tYWUnLCAnPG91dGZpbGUubWFlPic=

> <r_epik_Ionization_Penalty>
0.0442074

> <r_epik_Ionization_Penalty_Charging>
0

> <r_epik_Ionization_Penalty_Neutral>
0.0442074

> <r_epik_State_Penalty>
0.0374027

> <r_epik_Charging_Adjusted_Penalty>
0.0374027

> <i_epik_Tot_Q>
0

> <i_epik_Tot_abs_Q>
0

> <r_epik_Metal_State_Penalty>
0.0347963

> <b_epik_Metal_Only>
0

> <s_lp_Force_Field>
OPLS_2005

> <r_lp_Energy>
29.1558

> <b_lp_Chiralities_Consistent>
1

> <s_lp_Variant>
AV-unprocessed.smi:1563-1

> <Gold.Version>
5.8.1

> <Gold.Id.Protein>
6NUR|6NUR_protein|mol2

> <Gold.PLP.Fitness>
49.4914

> <Gold.PLP.PLP>
-45.3706

> <Gold.PLP.part.hbond>
-2.0000

> <Gold.PLP.part.metal>
0.0000

> <Gold.PLP.part.buried>
-2.9984

> <Gold.PLP.part.nonpolar>
-39.9201

> <Gold.PLP.part.repulsive>
0.1338

> <Gold.PLP.ligand.clash>
0.0000

> <Gold.PLP.ligand.torsion>
0.6340

> <Gold.PLP.Chemscore.Hbond>
1.7910

> <Gold.PLP.Chemscore.CHOScore>
0.0000

> <Gold.PLP.Chemscore.Metal>
0.0000

> <Gold.Chemscore.Hbonds>
donor molecule, donor type, donor heavy atom, donor atom, acceptor molecule, acceptor atom, score
      L1  H     4    25       P1  7948  1.00
      L1  H    12    33       P1  8028  0.73

> <Gold.PLP.Chemscore.Internal.Correction>
0.0157

> <Gold.Rescore>
     Score         DG    S(hbond)    S(metal)    S(lipo)     H(rot)  DE(clash)    DE(int)     intcor
     18.15     -20.56       1.73        0.00     116.32       1.68       0.43       1.98       ----

> <Gold.Chemscore.Fitness>
18.1521

> <Gold.Chemscore.DG>
-20.5591

> <Gold.Chemscore.ZeroCoef>
-5.4800

> <Gold.Chemscore.Hbond>
1.7286

> <Gold.Chemscore.Metal>
0.0000

> <Gold.Chemscore.Lipo>
116.3226

> <Gold.Chemscore.Internal_Hbond>
0.0000

> <Gold.Chemscore.DEClash>
0.4293

> <Gold.Chemscore.DEInternal>
1.9778

> <Gold.Chemscore.Rot>
1.6813

> <Gold.Chemscore.Internal.Correction>
   9.000000E+99

> <Gold.Chemscore.Hbonds>
donor molecule, donor type, donor heavy atom, donor atom, acceptor molecule, acceptor atom, score
      L1  H     4    25       P1  7948  0.94
      L1  H    12    33       P1  8028  0.71

> <Gold.Chemscore.Hbond.Weighted>
-5.7736

> <Gold.Chemscore.Metal.Weighted>
-0.0000

> <Gold.Chemscore.Lipo.Weighted>
-13.6097

> <Gold.Chemscore.Internal_Hbond.Weighted>
0.0000

> <Gold.Chemscore.DEClash.Weighted>
0.4293

> <Gold.Chemscore.DEInternal.Weighted>
1.9778

> <Gold.Chemscore.Rot.Weighted>
4.3042

> <Gold.Chemscore.Internal.Correction.Weighted>
   9.000000E+99

> <Gold.Protein.RotatedTorsions>
[ 6907 6896 6895 6894 ] final   86.83 input  -60.11 | X-H torsion
[ 7974 7965 7964 7962 ] final   33.16 input  175.53 | X-H torsion
[ 8008 7997 7996 7995 ] final  -45.27 input   59.86 | X-H torsion
[ 10167 10162 10161 10158 ] final   24.78 input  -65.29 | X-H torsion
[ 10718 10713 10712 10709 ] final  -16.13 input   66.30 | X-H torsion
[ 10763 10752 10751 10750 ] final -110.95 input  -60.55 | X-H torsion
[ 11005 11000 10999 10996 ] final -173.22 input  -57.11 | X-H torsion

> <Gold.Protein.ActiveResidues>
 VAL166  LYS551  ARG553  GLY616  TRP617  ASP618  TYR619  PRO620  LYS621  CYS622 
 ASP623  PHE694  ASN695  SER759  ASP760  ASP761  ALA762  ILE779  LEU786  VAL792 
 PHE793  MET794  SER795  GLU796  ALA797  LYS798  CYS799  TRP800  GLU811  SER814 

> <Gold.Protein.RotatedAtoms>
  152.5401  134.2371  159.8847 H   0  0  0  0  0  0  0  0  0  0  0  0  # atno 6907 bound_to 6896
  151.2340  133.4428  159.2612 H   0  0  0  0  0  0  0  0  0  0  0  0  # atno 6908 bound_to 6896
  151.0689  134.9799  159.8354 H   0  0  0  0  0  0  0  0  0  0  0  0  # atno 6909 bound_to 6896
  146.1439  139.6432  142.9145 H   0  0  0  0  0  0  0  0  0  0  0  0  # atno 7974 bound_to 7965
  154.4000  140.1401  156.3820 H   0  0  0  0  0  0  0  0  0  0  0  0  # atno 8008 bound_to 7997
  155.7995  140.3476  155.5374 H   0  0  0  0  0  0  0  0  0  0  0  0  # atno 8009 bound_to 7997
  155.8498  140.0939  157.1672 H   0  0  0  0  0  0  0  0  0  0  0  0  # atno 8010 bound_to 7997
  140.5160  144.0081  150.6394 H   0  0  0  0  0  0  0  0  0  0  0  0  # atno 10167 bound_to 10162
  156.5919  130.4801  149.6276 H   0  0  0  0  0  0  0  0  0  0  0  0  # atno 10718 bound_to 10713
  154.8275  135.4545  154.0965 H   0  0  0  0  0  0  0  0  0  0  0  0  # atno 10763 bound_to 10752
  153.2266  135.6900  153.7944 H   0  0  0  0  0  0  0  0  0  0  0  0  # atno 10764 bound_to 10752
  153.7342  135.3322  155.3268 H   0  0  0  0  0  0  0  0  0  0  0  0  # atno 10765 bound_to 10752
  140.4882  134.6010  157.4945 H   0  0  0  0  0  0  0  0  0  0  0  0  # atno 11005 bound_to 11000
  145.4984  141.0438  143.2554 LP  0  0  0  0  0  0  0  0  0  0  0  0  # atno 17320 bound_to 7965
  144.7823  139.6499  143.7149 LP  0  0  0  0  0  0  0  0  0  0  0  0  # atno 17321 bound_to 7965
  140.3417  143.3016  152.0581 LP  0  0  0  0  0  0  0  0  0  0  0  0  # atno 17342 bound_to 10162
  139.4909  144.6438  151.6822 LP  0  0  0  0  0  0  0  0  0  0  0  0  # atno 17343 bound_to 10162
  156.2542  130.6925  151.1673 LP  0  0  0  0  0  0  0  0  0  0  0  0  # atno 17370 bound_to 10713
  157.7301  131.0618  150.5740 LP  0  0  0  0  0  0  0  0  0  0  0  0  # atno 17371 bound_to 10713
  139.9785  134.7176  155.9904 LP  0  0  0  0  0  0  0  0  0  0  0  0  # atno 17394 bound_to 11000
  141.1497  133.6550  156.3976 LP  0  0  0  0  0  0  0  0  0  0  0  0  # atno 17395 bound_to 11000

$$$$
