AV-unprocessed.smi:537|AV-procd|sdf|2865|dock10
  -GOLD-   2262023353D 1   1.00000     0.00000
 Structure written by MMmdl.
 32 33  0  0  0  0  0  0  0  0  2 V2000
  150.7404  144.7943  159.0829 C   0  0  0  0  0  0  0  0  0  0  0  0
  150.6592  143.8645  157.9741 N   0  0  0  0  0  0  0  0  0  0  0  0
  151.1761  142.5862  157.8007 C   0  0  0  0  0  0  0  0  0  0  0  0
  151.9010  141.9369  158.7127 N   0  0  0  0  0  0  0  0  0  0  0  0
  152.1632  140.7284  158.0826 C   0  0  0  0  0  0  0  0  0  0  0  0
  151.6051  140.6815  156.8426 C   0  0  0  0  0  0  0  0  0  0  0  0
  151.7067  139.5142  155.9399 C   0  0  0  0  0  0  0  0  0  0  0  0
  151.1759  139.5179  154.8311 O   0  0  0  0  0  0  0  0  0  0  0  0
  152.4355  138.4948  156.4958 N   0  5  0  0  0  0  0  0  0  0  0  0
  153.0216  138.5016  157.7441 C   0  0  0  0  0  0  0  0  0  0  0  0
  153.6617  137.5354  158.1595 O   0  0  0  0  0  0  0  0  0  0  0  0
  152.8955  139.6052  158.5493 N   0  0  0  0  0  0  0  0  0  0  0  0
  153.4878  139.6917  159.8877 C   0  0  0  0  0  0  0  0  0  0  0  0
  150.9579  141.9058  156.6479 N   0  0  0  0  0  0  0  0  0  0  0  0
  150.2054  142.3677  155.4844 C   0  0  0  0  0  0  0  0  0  0  0  0
  149.0565  141.4151  155.1214 C   0  0  0  0  0  0  0  0  0  0  0  0
  148.6338  141.6457  153.7877 O   0  0  0  0  0  0  0  0  0  0  0  0
  147.4068  141.0066  153.4859 C   0  0  0  0  0  0  0  0  0  0  0  0
  150.2150  145.7180  158.8410 H   0  0  0  0  0  0  0  0  0  0  0  0
  151.7814  145.0332  159.3011 H   0  0  0  0  0  0  0  0  0  0  0  0
  150.2893  144.3605  159.9754 H   0  0  0  0  0  0  0  0  0  0  0  0
  150.1328  144.2140  157.1868 H   0  0  0  0  0  0  0  0  0  0  0  0
  154.0490  138.8078  160.1917 H   0  0  0  0  0  0  0  0  0  0  0  0
  152.7045  139.8499  160.6296 H   0  0  0  0  0  0  0  0  0  0  0  0
  154.1705  140.5403  159.9358 H   0  0  0  0  0  0  0  0  0  0  0  0
  149.8103  143.3628  155.6902 H   0  0  0  0  0  0  0  0  0  0  0  0
  150.8786  142.4981  154.6393 H   0  0  0  0  0  0  0  0  0  0  0  0
  149.3849  140.3803  155.2305 H   0  0  0  0  0  0  0  0  0  0  0  0
  148.2227  141.5662  155.8083 H   0  0  0  0  0  0  0  0  0  0  0  0
  147.1285  141.2186  152.4537 H   0  0  0  0  0  0  0  0  0  0  0  0
  146.6055  141.3669  154.1321 H   0  0  0  0  0  0  0  0  0  0  0  0
  147.4879  139.9246  153.5976 H   0  0  0  0  0  0  0  0  0  0  0  0
  1  2  1  0  0  0  0
  1 19  1  0  0  0  0
  1 20  1  0  0  0  0
  1 21  1  0  0  0  0
  2  3  1  0  0  0  0
  2 22  1  0  0  0  0
  3 14  1  0  0  0  0
  3  4  2  0  0  0  0
  4  5  1  0  0  0  0
  5 12  1  0  0  0  0
  5  6  2  0  0  0  0
  6  7  1  0  0  0  0
  6 14  1  0  0  0  0
  7  8  2  0  0  0  0
  7  9  1  0  0  0  0
  9 10  1  0  0  0  0
 10 11  2  0  0  0  0
 10 12  1  0  0  0  0
 12 13  1  0  0  0  0
 13 23  1  0  0  0  0
 13 24  1  0  0  0  0
 13 25  1  0  0  0  0
 14 15  1  0  0  0  0
 15 16  1  0  0  0  0
 15 26  1  0  0  0  0
 15 27  1  0  0  0  0
 16 17  1  0  0  0  0
 16 28  1  0  0  0  0
 16 29  1  0  0  0  0
 17 18  1  0  0  0  0
 18 30  1  0  0  0  0
 18 31  1  0  0  0  0
 18 32  1  0  0  0  0
M  CHG  1   9  -1
M  END
> <s_m_source_file>
AV-unprocessed.smi

> <i_m_source_file_index>
537

> <i_lp_mmshare_version>
43012

> <i_f3d_flags>
0

> <s_epik_input>
W0NIM11PW0NIMl1bQ0gyXW4oYyhuMSlbTkhdW0NIM10pYyhjMTIpYyg9TylbbkhdYyg9TyluMltDSDNd

> <s_epik_cmdline>
J2VwaWtfcHl0aG9uJywgJy1waCcsICc3LjAnLCAnLXRuJywgJzgnLCAnLW1hJywgJzIwMCcsICctbWV0YWxfYmluZGluZycsICctaW1hZScsICc8aW5maWxlLm1hZT4nLCAnLW9tYWUnLCAnPG91dGZpbGUubWFlPic=

> <r_lp_tautomer_probability>
1

> <r_epik_Ionization_Penalty>
6.3083

> <r_epik_Ionization_Penalty_Charging>
1.44173e-08

> <r_epik_Ionization_Penalty_Neutral>
6.3083

> <r_epik_State_Penalty>
6.30819

> <r_epik_Charging_Adjusted_Penalty>
6.30819

> <i_epik_Tot_Q>
-1

> <i_epik_Tot_abs_Q>
1

> <r_epik_Metal_State_Penalty>
2.24297

> <b_epik_Metal_Only>
1

> <s_lp_Force_Field>
OPLS_2005

> <r_lp_Energy>
24.4874

> <b_lp_Chiralities_Consistent>
1

> <s_lp_Variant>
AV-unprocessed.smi:537-2

> <Gold.Version>
5.8.1

> <Gold.Id.Protein>
6NUR|6NUR_protein|mol2

> <Gold.PLP.Fitness>
34.6080

> <Gold.PLP.PLP>
-27.0006

> <Gold.PLP.part.hbond>
-3.0000

> <Gold.PLP.part.metal>
0.0000

> <Gold.PLP.part.buried>
-2.3074

> <Gold.PLP.part.nonpolar>
-22.1214

> <Gold.PLP.part.repulsive>
0.2676

> <Gold.PLP.ligand.clash>
0.0000

> <Gold.PLP.ligand.torsion>
0.1328

> <Gold.PLP.Chemscore.Hbond>
2.6240

> <Gold.PLP.Chemscore.CHOScore>
0.0000

> <Gold.PLP.Chemscore.Metal>
0.0000

> <Gold.Chemscore.Hbonds>
donor molecule, donor type, donor heavy atom, donor atom, acceptor molecule, acceptor atom, score
      L1  H     2    22       P1  8028  1.00
      P1  H  7989  7998       L1     8  1.00
      P1  H  8011  8017       L1    17  0.62

> <Gold.PLP.Chemscore.Internal.Correction>
0.0010

> <Gold.Rescore>
     Score         DG    S(hbond)    S(metal)    S(lipo)     H(rot)  DE(clash)    DE(int)     intcor
     11.03     -14.24       2.32        0.00      44.74       1.64       1.72       1.49       ----

> <Gold.Chemscore.Fitness>
11.0256

> <Gold.Chemscore.DG>
-14.2438

> <Gold.Chemscore.ZeroCoef>
-5.4800

> <Gold.Chemscore.Hbond>
2.3166

> <Gold.Chemscore.Metal>
0.0000

> <Gold.Chemscore.Lipo>
44.7404

> <Gold.Chemscore.Internal_Hbond>
0.0000

> <Gold.Chemscore.DEClash>
1.7241

> <Gold.Chemscore.DEInternal>
1.4941

> <Gold.Chemscore.Rot>
1.6439

> <Gold.Chemscore.Internal.Correction>
   9.000000E+99

> <Gold.Chemscore.Hbonds>
donor molecule, donor type, donor heavy atom, donor atom, acceptor molecule, acceptor atom, score
      L1  H     2    22       P1  8028  0.75
      P1  H  7989  7998       L1     8  0.97
      P1  H  8011  8017       L1    17  0.58

> <Gold.Chemscore.Hbond.Weighted>
-7.7376

> <Gold.Chemscore.Metal.Weighted>
-0.0000

> <Gold.Chemscore.Lipo.Weighted>
-5.2346

> <Gold.Chemscore.Internal_Hbond.Weighted>
0.0000

> <Gold.Chemscore.DEClash.Weighted>
1.7241

> <Gold.Chemscore.DEInternal.Weighted>
1.4941

> <Gold.Chemscore.Rot.Weighted>
4.2085

> <Gold.Chemscore.Internal.Correction.Weighted>
   9.000000E+99

> <Gold.Protein.RotatedTorsions>
[ 6907 6896 6895 6894 ] final  -90.67 input  -60.11 | X-H torsion
[ 7974 7965 7964 7962 ] final   55.24 input  175.53 | X-H torsion
[ 8008 7997 7996 7995 ] final   89.75 input   59.86 | X-H torsion
[ 10167 10162 10161 10158 ] final  -66.94 input  -65.29 | X-H torsion
[ 10718 10713 10712 10709 ] final  -83.01 input   66.30 | X-H torsion
[ 10763 10752 10751 10750 ] final  114.16 input  -60.55 | X-H torsion
[ 11005 11000 10999 10996 ] final  117.64 input  -57.11 | X-H torsion

> <Gold.Protein.ActiveResidues>
 VAL166  LYS551  ARG553  GLY616  TRP617  ASP618  TYR619  PRO620  LYS621  CYS622 
 ASP623  PHE694  ASN695  SER759  ASP760  ASP761  ALA762  ILE779  LEU786  VAL792 
 PHE793  MET794  SER795  GLU796  ALA797  LYS798  CYS799  TRP800  GLU811  SER814 

> <Gold.Protein.RotatedAtoms>
  150.6884  134.2397  159.4467 H   0  0  0  0  0  0  0  0  0  0  0  0  # atno 6907 bound_to 6896
  152.0342  134.9747  160.0582 H   0  0  0  0  0  0  0  0  0  0  0  0  # atno 6908 bound_to 6896
  152.1275  133.4353  159.4742 H   0  0  0  0  0  0  0  0  0  0  0  0  # atno 6909 bound_to 6896
  145.9525  139.3985  143.0297 H   0  0  0  0  0  0  0  0  0  0  0  0  # atno 7974 bound_to 7965
  156.0037  140.3357  155.6871 H   0  0  0  0  0  0  0  0  0  0  0  0  # atno 8008 bound_to 7997
  155.6255  140.0679  157.2683 H   0  0  0  0  0  0  0  0  0  0  0  0  # atno 8009 bound_to 7997
  154.4257  140.1769  156.1404 H   0  0  0  0  0  0  0  0  0  0  0  0  # atno 8010 bound_to 7997
  140.5620  143.2313  151.6710 H   0  0  0  0  0  0  0  0  0  0  0  0  # atno 10167 bound_to 10162
  156.0024  130.4652  150.4193 H   0  0  0  0  0  0  0  0  0  0  0  0  # atno 10718 bound_to 10713
  153.5032  135.3633  155.2550 H   0  0  0  0  0  0  0  0  0  0  0  0  # atno 10763 bound_to 10752
  154.8746  135.4005  154.3455 H   0  0  0  0  0  0  0  0  0  0  0  0  # atno 10764 bound_to 10752
  153.4094  135.7077  153.6436 H   0  0  0  0  0  0  0  0  0  0  0  0  # atno 10765 bound_to 10752
  139.9081  134.9612  156.7382 H   0  0  0  0  0  0  0  0  0  0  0  0  # atno 11005 bound_to 11000
  145.8151  140.9706  143.0928 LP  0  0  0  0  0  0  0  0  0  0  0  0  # atno 17320 bound_to 7965
  144.6798  139.9971  143.7484 LP  0  0  0  0  0  0  0  0  0  0  0  0  # atno 17321 bound_to 7965
  139.5074  144.3646  152.0529 LP  0  0  0  0  0  0  0  0  0  0  0  0  # atno 17342 bound_to 10162
  140.2773  144.3898  150.6130 LP  0  0  0  0  0  0  0  0  0  0  0  0  # atno 17343 bound_to 10162
  157.2250  131.0491  151.2525 LP  0  0  0  0  0  0  0  0  0  0  0  0  # atno 17370 bound_to 10713
  157.3765  130.7208  149.6600 LP  0  0  0  0  0  0  0  0  0  0  0  0  # atno 17371 bound_to 10713
  140.6871  133.9423  155.7944 LP  0  0  0  0  0  0  0  0  0  0  0  0  # atno 17394 bound_to 11000
  141.0468  134.0542  157.3833 LP  0  0  0  0  0  0  0  0  0  0  0  0  # atno 17395 bound_to 11000

$$$$
