AV-unprocessed.smi:3056|AV-procd|sdf|11647|dock6
  -GOLD-   2272017 43D 1   1.00000     0.00000
 Structure written by MMmdl.
 48 49  0  0  0  0  0  0  0  0  2 V2000
  143.8738  132.2075  150.0117 C   0  0  0  0  0  0  0  0  0  0  0  0
  144.7947  132.6633  151.1065 C   0  0  0  0  0  0  0  0  0  0  0  0
  144.4849  133.4897  152.2234 C   0  0  0  0  0  0  0  0  0  0  0  0
  145.5269  133.6993  153.0105 N   0  0  0  0  0  0  0  0  0  0  0  0
  146.5405  133.0287  152.4220 N   0  0  0  0  0  0  0  0  0  0  0  0
  147.8580  133.0193  153.0473 C   0  0  2  0  0  0  0  0  0  0  0  0
  148.2245  131.5848  153.4704 C   0  0  0  0  0  0  0  0  0  0  0  0
  147.9259  134.0371  154.2192 C   0  0  1  0  0  0  0  0  0  0  0  0
  147.6127  133.4161  155.5937 C   0  0  0  0  0  0  0  0  0  0  0  0
  149.2110  134.7827  154.2495 N   0  3  0  0  0  0  0  0  0  0  0  0
  149.3341  135.8729  155.2457 C   0  0  0  0  0  0  0  0  0  0  0  0
  150.7524  136.4606  155.2892 C   0  0  0  0  0  0  0  0  0  0  0  0
  151.6462  135.8150  155.8397 O   0  0  0  0  0  0  0  0  0  0  0  0
  150.9783  137.6706  154.7242 N   0  0  0  0  0  0  0  0  0  0  0  0
  152.2790  138.3439  154.7610 C   0  0  0  0  0  0  0  0  0  0  0  0
  152.1308  139.6347  155.5858 C   0  0  0  0  0  0  0  0  0  0  0  0
  151.1151  140.4566  155.0142 O   0  0  0  0  0  0  0  0  0  0  0  0
  149.8412  139.8180  154.9397 C   0  0  1  0  0  0  0  0  0  0  0  0
  148.8411  140.8090  154.3343 C   0  0  0  0  0  0  0  0  0  0  0  0
  149.9722  138.5332  154.0968 C   0  0  0  0  0  0  0  0  0  0  0  0
  146.1220  132.3877  151.2730 C   0  0  0  0  0  0  0  0  0  0  0  0
  142.8703  132.6173  150.1285 H   0  0  0  0  0  0  0  0  0  0  0  0
  143.7772  131.1220  149.9930 H   0  0  0  0  0  0  0  0  0  0  0  0
  144.2338  132.5162  149.0302 H   0  0  0  0  0  0  0  0  0  0  0  0
  143.5379  133.9375  152.4861 H   0  0  0  0  0  0  0  0  0  0  0  0
  148.5854  133.3127  152.2888 H   0  0  0  0  0  0  0  0  0  0  0  0
  149.2634  131.5144  153.7920 H   0  0  0  0  0  0  0  0  0  0  0  0
  148.1021  130.8901  152.6385 H   0  0  0  0  0  0  0  0  0  0  0  0
  147.5974  131.2337  154.2905 H   0  0  0  0  0  0  0  0  0  0  0  0
  147.1676  134.7992  154.0350 H   0  0  0  0  0  0  0  0  0  0  0  0
  146.5834  133.0618  155.6457 H   0  0  0  0  0  0  0  0  0  0  0  0
  147.7375  134.1480  156.3926 H   0  0  0  0  0  0  0  0  0  0  0  0
  148.2625  132.5682  155.8117 H   0  0  0  0  0  0  0  0  0  0  0  0
  149.9485  134.1175  154.4343 H   0  0  0  0  0  0  0  0  0  0  0  0
  148.6305  136.6687  155.0014 H   0  0  0  0  0  0  0  0  0  0  0  0
  149.0882  135.4951  156.2374 H   0  0  0  0  0  0  0  0  0  0  0  0
  153.0696  137.7234  155.1851 H   0  0  0  0  0  0  0  0  0  0  0  0
  152.5933  138.5807  153.7436 H   0  0  0  0  0  0  0  0  0  0  0  0
  151.8857  139.4061  156.6242 H   0  0  0  0  0  0  0  0  0  0  0  0
  153.0700  140.1879  155.5934 H   0  0  0  0  0  0  0  0  0  0  0  0
  149.5117  139.5635  155.9489 H   0  0  0  0  0  0  0  0  0  0  0  0
  147.8455  140.3701  154.2658 H   0  0  0  0  0  0  0  0  0  0  0  0
  149.1433  141.1126  153.3315 H   0  0  0  0  0  0  0  0  0  0  0  0
  148.7648  141.7086  154.9456 H   0  0  0  0  0  0  0  0  0  0  0  0
  150.2953  138.7789  153.0839 H   0  0  0  0  0  0  0  0  0  0  0  0
  148.9966  138.0624  153.9883 H   0  0  0  0  0  0  0  0  0  0  0  0
  146.7957  131.7917  150.6748 H   0  0  0  0  0  0  0  0  0  0  0  0
  149.3714  135.1811  153.3352 H   0  0  0  0  0  0  0  0  0  0  0  0
  1  2  1  0  0  0  0
  1 22  1  0  0  0  0
  1 23  1  0  0  0  0
  1 24  1  0  0  0  0
  2 21  2  0  0  0  0
  2  3  1  0  0  0  0
  3  4  2  0  0  0  0
  3 25  1  0  0  0  0
  4  5  1  0  0  0  0
  5  6  1  0  0  0  0
  5 21  1  0  0  0  0
  6  7  1  0  0  0  0
  6  8  1  0  0  0  0
  6 26  1  0  0  0  0
  7 27  1  0  0  0  0
  7 28  1  0  0  0  0
  7 29  1  0  0  0  0
  8  9  1  0  0  0  0
  8 10  1  0  0  0  0
  8 30  1  0  0  0  0
  9 31  1  0  0  0  0
  9 32  1  0  0  0  0
  9 33  1  0  0  0  0
 10 11  1  0  0  0  0
 10 34  1  0  0  0  0
 10 48  1  0  0  0  0
 11 12  1  0  0  0  0
 11 35  1  0  0  0  0
 11 36  1  0  0  0  0
 12 13  2  0  0  0  0
 12 14  1  0  0  0  0
 14 20  1  0  0  0  0
 14 15  1  0  0  0  0
 15 16  1  0  0  0  0
 15 37  1  0  0  0  0
 15 38  1  0  0  0  0
 16 17  1  0  0  0  0
 16 39  1  0  0  0  0
 16 40  1  0  0  0  0
 17 18  1  0  0  0  0
 18 19  1  0  0  0  0
 18 20  1  0  0  0  0
 18 41  1  0  0  0  0
 19 42  1  0  0  0  0
 19 43  1  0  0  0  0
 19 44  1  0  0  0  0
 20 45  1  0  0  0  0
 20 46  1  0  0  0  0
 21 47  1  0  0  0  0
M  CHG  1  10   1
M  END
> <s_m_source_file>
AV-unprocessed.smi

> <i_m_source_file_index>
3056

> <i_lp_mmshare_version>
43012

> <i_f3d_flags>
0

> <s_epik_input>
W0NIM11jMVtjSF1ubihbY0hdMSlbQ0BIXShbQ0gzXSlbQ0BIXShbQ0gzXSlbTkhdW0NIMl1DKD1PKU4yW0NIMl1bQ0gyXU9bQ0BASF0oW0NIM10pW0NIMl0y

> <s_epik_cmdline>
J2VwaWtfcHl0aG9uJywgJy1waCcsICc3LjAnLCAnLXRuJywgJzgnLCAnLW1hJywgJzIwMCcsICctbWV0YWxfYmluZGluZycsICctaW1hZScsICc8aW5maWxlLm1hZT4nLCAnLW9tYWUnLCAnPG91dGZpbGUubWFlPic=

> <r_lp_tautomer_probability>
1

> <r_epik_Ionization_Penalty>
0.233715

> <r_epik_Ionization_Penalty_Charging>
0.233698

> <r_epik_Ionization_Penalty_Neutral>
1.68157e-05

> <r_epik_State_Penalty>
0.225221

> <r_epik_Charging_Adjusted_Penalty>
0.458919

> <i_epik_Tot_Q>
1

> <i_epik_Tot_abs_Q>
1

> <r_epik_Metal_State_Penalty>
0.225535

> <b_epik_Metal_Only>
0

> <s_lp_Force_Field>
OPLS_2005

> <r_lp_Energy>
27.3139

> <b_lp_Chiralities_Consistent>
1

> <s_lp_Variant>
AV-unprocessed.smi:3056-3

> <Gold.Version>
5.8.1

> <Gold.Id.Protein>
6NUR|6NUR_protein|mol2

> <Gold.PLP.Fitness>
52.3985

> <Gold.PLP.PLP>
-40.7209

> <Gold.PLP.part.hbond>
-3.0000

> <Gold.PLP.part.metal>
0.0000

> <Gold.PLP.part.buried>
-4.6771

> <Gold.PLP.part.nonpolar>
-34.2849

> <Gold.PLP.part.repulsive>
0.2002

> <Gold.PLP.ligand.clash>
0.0000

> <Gold.PLP.ligand.torsion>
1.2649

> <Gold.PLP.Chemscore.Hbond>
3.6920

> <Gold.PLP.Chemscore.CHOScore>
1.0000

> <Gold.PLP.Chemscore.Metal>
0.0000

> <Gold.Chemscore.Hbonds>
donor molecule, donor type, donor heavy atom, donor atom, acceptor molecule, acceptor atom, score
      L1  H    10    48       P1  7948  1.40
      P1  H  7989  7998       L1    17  1.00
      P1  H 10752 10764       L1    13  1.00
      L1  C    21    47       P1 10747  1.00

> <Gold.PLP.Chemscore.Internal.Correction>
0.1314

> <Gold.Rescore>
     Score         DG    S(hbond)    S(metal)    S(lipo)     H(rot)  DE(clash)    DE(int)     intcor
     16.04     -17.35       1.70        0.00      90.75       1.74       0.18       1.13       ----

> <Gold.Chemscore.Fitness>
16.0395

> <Gold.Chemscore.DG>
-17.3490

> <Gold.Chemscore.ZeroCoef>
-5.4800

> <Gold.Chemscore.Hbond>
1.7046

> <Gold.Chemscore.Metal>
0.0000

> <Gold.Chemscore.Lipo>
90.7550

> <Gold.Chemscore.Internal_Hbond>
0.0000

> <Gold.Chemscore.DEClash>
0.1835

> <Gold.Chemscore.DEInternal>
1.1260

> <Gold.Chemscore.Rot>
1.7354

> <Gold.Chemscore.Internal.Correction>
   9.000000E+99

> <Gold.Chemscore.Hbonds>
donor molecule, donor type, donor heavy atom, donor atom, acceptor molecule, acceptor atom, score
      L1  H    10    48       P1  7948  0.07
      P1  H  7989  7998       L1    17  0.45
      P1  H 10752 10764       L1    13  0.69

> <Gold.Chemscore.Hbond.Weighted>
-5.6933

> <Gold.Chemscore.Metal.Weighted>
-0.0000

> <Gold.Chemscore.Lipo.Weighted>
-10.6183

> <Gold.Chemscore.Internal_Hbond.Weighted>
0.0000

> <Gold.Chemscore.DEClash.Weighted>
0.1835

> <Gold.Chemscore.DEInternal.Weighted>
1.1260

> <Gold.Chemscore.Rot.Weighted>
4.4426

> <Gold.Chemscore.Internal.Correction.Weighted>
   9.000000E+99

> <Gold.Protein.RotatedTorsions>
[ 6907 6896 6895 6894 ] final  133.44 input  -60.11 | X-H torsion
[ 7974 7965 7964 7962 ] final  115.16 input  175.53 | X-H torsion
[ 8008 7997 7996 7995 ] final -113.61 input   59.86 | X-H torsion
[ 10167 10162 10161 10158 ] final -127.34 input  -65.29 | X-H torsion
[ 10718 10713 10712 10709 ] final   54.33 input   66.30 | X-H torsion
[ 10763 10752 10751 10750 ] final  -54.75 input  -60.55 | X-H torsion
[ 11005 11000 10999 10996 ] final   86.64 input  -57.11 | X-H torsion

> <Gold.Protein.ActiveResidues>
 VAL166  LYS551  ARG553  GLY616  TRP617  ASP618  TYR619  PRO620  LYS621  CYS622 
 ASP623  PHE694  ASN695  SER759  ASP760  ASP761  ALA762  ILE779  LEU786  VAL792 
 PHE793  MET794  SER795  GLU796  ALA797  LYS798  CYS799  TRP800  GLU811  SER814 

> <Gold.Protein.RotatedAtoms>
  152.3219  133.5863  159.5750 H   0  0  0  0  0  0  0  0  0  0  0  0  # atno 6907 bound_to 6896
  150.7376  133.9998  159.3643 H   0  0  0  0  0  0  0  0  0  0  0  0  # atno 6908 bound_to 6896
  151.7881  135.0744  160.0434 H   0  0  0  0  0  0  0  0  0  0  0  0  # atno 6909 bound_to 6896
  145.1955  139.2979  143.4346 H   0  0  0  0  0  0  0  0  0  0  0  0  # atno 7974 bound_to 7965
  155.0234  140.0393  157.2446 H   0  0  0  0  0  0  0  0  0  0  0  0  # atno 8008 bound_to 7997
  154.7358  140.2739  155.6392 H   0  0  0  0  0  0  0  0  0  0  0  0  # atno 8009 bound_to 7997
  156.2852  140.2675  156.2071 H   0  0  0  0  0  0  0  0  0  0  0  0  # atno 8010 bound_to 7997
  139.9619  143.5941  152.2442 H   0  0  0  0  0  0  0  0  0  0  0  0  # atno 10167 bound_to 10162
  157.5247  130.8589  149.8606 H   0  0  0  0  0  0  0  0  0  0  0  0  # atno 10718 bound_to 10713
  154.1799  135.6445  153.5031 H   0  0  0  0  0  0  0  0  0  0  0  0  # atno 10763 bound_to 10752
  153.0062  135.5403  154.6525 H   0  0  0  0  0  0  0  0  0  0  0  0  # atno 10764 bound_to 10752
  154.5886  135.2932  155.0631 H   0  0  0  0  0  0  0  0  0  0  0  0  # atno 10765 bound_to 10752
  139.8939  134.8369  156.2748 H   0  0  0  0  0  0  0  0  0  0  0  0  # atno 11005 bound_to 11000
  146.3428  140.2181  142.8591 LP  0  0  0  0  0  0  0  0  0  0  0  0  # atno 17320 bound_to 7965
  144.9999  140.8623  143.5288 LP  0  0  0  0  0  0  0  0  0  0  0  0  # atno 17321 bound_to 7965
  139.6547  144.7662  151.2078 LP  0  0  0  0  0  0  0  0  0  0  0  0  # atno 17342 bound_to 10162
  140.7550  143.6104  150.8611 LP  0  0  0  0  0  0  0  0  0  0  0  0  # atno 17343 bound_to 10162
  156.0378  130.3746  150.1513 LP  0  0  0  0  0  0  0  0  0  0  0  0  # atno 17370 bound_to 10713
  156.9700  130.9831  151.3461 LP  0  0  0  0  0  0  0  0  0  0  0  0  # atno 17371 bound_to 10713
  141.0077  133.7114  156.1061 LP  0  0  0  0  0  0  0  0  0  0  0  0  # atno 17394 bound_to 11000
  140.7411  134.4149  157.5554 LP  0  0  0  0  0  0  0  0  0  0  0  0  # atno 17395 bound_to 11000

$$$$
