AV-unprocessed.smi:2217|AV-procd|sdf|8972|dock10
  -GOLD-   2272012183D 1   1.00000     0.00000
 Structure written by MMmdl.
 45 48  0  0  0  0  0  0  0  0  1 V2000
  150.9933  142.2215  156.5637 C   0  0  0  0  0  0  0  0  0  0  0  0
  150.2349  141.1455  155.8153 C   0  0  0  0  0  0  0  0  0  0  0  0
  148.8718  141.2984  155.4996 C   0  0  0  0  0  0  0  0  0  0  0  0
  148.2185  140.2674  154.7976 C   0  0  0  0  0  0  0  0  0  0  0  0
  148.9363  139.1068  154.4292 C   0  0  0  0  0  0  0  0  0  0  0  0
  148.1689  138.1398  153.7148 N   0  0  0  0  0  0  0  0  0  0  0  0
  146.8391  137.9092  153.6704 C   0  0  0  0  0  0  0  0  0  0  0  0
  146.0537  138.5947  154.3230 O   0  0  0  0  0  0  0  0  0  0  0  0
  146.4371  136.9007  152.8815 N   0  0  0  0  0  0  0  0  0  0  0  0
  145.0485  136.5120  152.6671 C   0  0  2  0  0  0  0  0  0  0  0  0
  144.4000  135.9392  153.9373 C   0  0  1  0  0  0  0  0  0  0  0  0
  143.2684  136.6786  154.5969 C   0  0  0  0  0  0  0  0  0  0  0  0
  142.0287  136.0000  154.0076 C   0  0  0  0  0  0  0  0  0  0  0  0
  142.4860  135.4039  152.7956 O   0  0  0  0  0  0  0  0  0  0  0  0
  143.7859  134.8730  153.0423 C   0  0  1  0  0  0  0  0  0  0  0  0
  144.8653  135.1421  151.9718 C   0  0  0  0  0  0  0  0  0  0  0  0
  146.0262  134.1433  151.9476 C   0  0  0  0  0  0  0  0  0  0  0  0
  145.6225  133.0357  150.9744 C   0  0  0  0  0  0  0  0  0  0  0  0
  144.6694  133.7012  149.9773 C   0  0  0  0  0  0  0  0  0  0  0  0
  144.4256  135.1181  150.5098 C   0  0  0  0  0  0  0  0  0  0  0  0
  150.2515  138.9725  154.7382 N   0  0  0  0  0  0  0  0  0  0  0  0
  150.8784  139.9609  155.4101 C   0  0  0  0  0  0  0  0  0  0  0  0
  150.3175  142.9840  156.9521 H   0  0  0  0  0  0  0  0  0  0  0  0
  151.7114  142.7049  155.9012 H   0  0  0  0  0  0  0  0  0  0  0  0
  151.5368  141.7889  157.4042 H   0  0  0  0  0  0  0  0  0  0  0  0
  148.3324  142.1891  155.7865 H   0  0  0  0  0  0  0  0  0  0  0  0
  147.1729  140.3719  154.5456 H   0  0  0  0  0  0  0  0  0  0  0  0
  148.7213  137.4861  153.1793 H   0  0  0  0  0  0  0  0  0  0  0  0
  147.1440  136.3823  152.3789 H   0  0  0  0  0  0  0  0  0  0  0  0
  144.4319  137.2898  152.2107 H   0  0  0  0  0  0  0  0  0  0  0  0
  145.1303  135.5106  154.6265 H   0  0  0  0  0  0  0  0  0  0  0  0
  143.2915  136.5989  155.6840 H   0  0  0  0  0  0  0  0  0  0  0  0
  143.2915  137.7374  154.3370 H   0  0  0  0  0  0  0  0  0  0  0  0
  141.6679  135.2159  154.6749 H   0  0  0  0  0  0  0  0  0  0  0  0
  141.2113  136.6985  153.8284 H   0  0  0  0  0  0  0  0  0  0  0  0
  143.7755  133.8735  153.4795 H   0  0  0  0  0  0  0  0  0  0  0  0
  146.9345  134.6184  151.5755 H   0  0  0  0  0  0  0  0  0  0  0  0
  146.2589  133.7437  152.9352 H   0  0  0  0  0  0  0  0  0  0  0  0
  146.4873  132.5846  150.4867 H   0  0  0  0  0  0  0  0  0  0  0  0
  145.0969  132.2450  151.5112 H   0  0  0  0  0  0  0  0  0  0  0  0
  145.0941  133.7315  148.9734 H   0  0  0  0  0  0  0  0  0  0  0  0
  143.7342  133.1429  149.9219 H   0  0  0  0  0  0  0  0  0  0  0  0
  143.3850  135.4152  150.3788 H   0  0  0  0  0  0  0  0  0  0  0  0
  145.0236  135.8268  149.9356 H   0  0  0  0  0  0  0  0  0  0  0  0
  151.9242  139.8005  155.6281 H   0  0  0  0  0  0  0  0  0  0  0  0
  1  2  1  0  0  0  0
  1 23  1  0  0  0  0
  1 24  1  0  0  0  0
  1 25  1  0  0  0  0
  2 22  1  0  0  0  0
  2  3  2  0  0  0  0
  3  4  1  0  0  0  0
  3 26  1  0  0  0  0
  4  5  2  0  0  0  0
  4 27  1  0  0  0  0
  5  6  1  0  0  0  0
  5 21  1  0  0  0  0
  6  7  1  0  0  0  0
  6 28  1  0  0  0  0
  7  8  2  0  0  0  0
  7  9  1  0  0  0  0
  9 10  1  0  0  0  0
  9 29  1  0  0  0  0
 10 16  1  0  0  0  0
 10 11  1  0  0  0  0
 10 30  1  0  0  0  0
 11 15  1  0  0  0  0
 11 12  1  0  0  0  0
 11 31  1  0  0  0  0
 12 13  1  0  0  0  0
 12 32  1  0  0  0  0
 12 33  1  0  0  0  0
 13 14  1  0  0  0  0
 13 34  1  0  0  0  0
 13 35  1  0  0  0  0
 14 15  1  0  0  0  0
 15 16  1  0  0  0  0
 15 36  1  0  0  0  0
 16 20  1  0  0  0  0
 16 17  1  0  0  0  0
 17 18  1  0  0  0  0
 17 37  1  0  0  0  0
 17 38  1  0  0  0  0
 18 19  1  0  0  0  0
 18 39  1  0  0  0  0
 18 40  1  0  0  0  0
 19 20  1  0  0  0  0
 19 41  1  0  0  0  0
 19 42  1  0  0  0  0
 20 43  1  0  0  0  0
 20 44  1  0  0  0  0
 21 22  2  0  0  0  0
 22 45  1  0  0  0  0
M  END
> <s_m_source_file>
AV-unprocessed.smi

> <i_m_source_file_index>
2217

> <i_lp_mmshare_version>
43012

> <i_f3d_flags>
0

> <s_epik_input>
W0NIM11jMVtjSF1bY0hdYyhuW2NIXTEpW05IXUMoPU8pW05IXVtDQEBIXTJbQ0BASF0oW0NIMl1bQ0gyXU8zKVtDQEhdM0MyNFtDSDJdW0NIMl1bQ0gyXVtDSDJdNA==

> <s_epik_cmdline>
J2VwaWtfcHl0aG9uJywgJy1waCcsICc3LjAnLCAnLXRuJywgJzgnLCAnLW1hJywgJzIwMCcsICctbWV0YWxfYmluZGluZycsICctaW1hZScsICc8aW5maWxlLm1hZT4nLCAnLW9tYWUnLCAnPG91dGZpbGUubWFlPic=

> <r_lp_tautomer_probability>
1

> <r_epik_Ionization_Penalty>
6.14796e-05

> <r_epik_Ionization_Penalty_Charging>
0

> <r_epik_Ionization_Penalty_Neutral>
6.14796e-05

> <r_epik_State_Penalty>
-0

> <r_epik_Charging_Adjusted_Penalty>
0

> <i_epik_Tot_Q>
0

> <i_epik_Tot_abs_Q>
0

> <r_epik_Metal_State_Penalty>
-0

> <b_epik_Metal_Only>
0

> <s_lp_Force_Field>
OPLS_2005

> <r_lp_Energy>
58.5561

> <b_lp_Chiralities_Consistent>
1

> <s_lp_Variant>
AV-unprocessed.smi:2217-5

> <Gold.Version>
5.8.1

> <Gold.Id.Protein>
6NUR|6NUR_protein|mol2

> <Gold.PLP.Fitness>
37.3549

> <Gold.PLP.PLP>
-31.6669

> <Gold.PLP.part.hbond>
-2.0000

> <Gold.PLP.part.metal>
0.0000

> <Gold.PLP.part.buried>
-4.3873

> <Gold.PLP.part.nonpolar>
-25.6167

> <Gold.PLP.part.repulsive>
0.4865

> <Gold.PLP.ligand.clash>
0.0000

> <Gold.PLP.ligand.torsion>
0.2121

> <Gold.PLP.Chemscore.Hbond>
1.9760

> <Gold.PLP.Chemscore.CHOScore>
0.0000

> <Gold.PLP.Chemscore.Metal>
0.0000

> <Gold.Chemscore.Hbonds>
donor molecule, donor type, donor heavy atom, donor atom, acceptor molecule, acceptor atom, score
      L1  H     6    28       P1  7948  1.00
      L1  H     9    29       P1  7948  0.98

> <Gold.PLP.Chemscore.Internal.Correction>
0.1842

> <Gold.Rescore>
     Score         DG    S(hbond)    S(metal)    S(lipo)     H(rot)  DE(clash)    DE(int)     intcor
     16.29     -18.25       1.90        0.00      76.83       1.00       0.34       1.63       ----

> <Gold.Chemscore.Fitness>
16.2850

> <Gold.Chemscore.DG>
-18.2486

> <Gold.Chemscore.ZeroCoef>
-5.4800

> <Gold.Chemscore.Hbond>
1.8979

> <Gold.Chemscore.Metal>
0.0000

> <Gold.Chemscore.Lipo>
76.8342

> <Gold.Chemscore.Internal_Hbond>
0.0000

> <Gold.Chemscore.DEClash>
0.3376

> <Gold.Chemscore.DEInternal>
1.6259

> <Gold.Chemscore.Rot>
1.0000

> <Gold.Chemscore.Internal.Correction>
   9.000000E+99

> <Gold.Chemscore.Hbonds>
donor molecule, donor type, donor heavy atom, donor atom, acceptor molecule, acceptor atom, score
      L1  H     6    28       P1  7948  0.98
      L1  H     9    29       P1  7948  0.93

> <Gold.Chemscore.Hbond.Weighted>
-6.3390

> <Gold.Chemscore.Metal.Weighted>
-0.0000

> <Gold.Chemscore.Lipo.Weighted>
-8.9896

> <Gold.Chemscore.Internal_Hbond.Weighted>
0.0000

> <Gold.Chemscore.DEClash.Weighted>
0.3376

> <Gold.Chemscore.DEInternal.Weighted>
1.6259

> <Gold.Chemscore.Rot.Weighted>
2.5600

> <Gold.Chemscore.Internal.Correction.Weighted>
   9.000000E+99

> <Gold.Protein.RotatedTorsions>
[ 6907 6896 6895 6894 ] final   60.76 input  -60.11 | X-H torsion
[ 7974 7965 7964 7962 ] final -127.62 input  175.53 | X-H torsion
[ 8008 7997 7996 7995 ] final  171.99 input   59.86 | X-H torsion
[ 10167 10162 10161 10158 ] final  158.62 input  -65.29 | X-H torsion
[ 10718 10713 10712 10709 ] final -152.89 input   66.30 | X-H torsion
[ 10763 10752 10751 10750 ] final   67.36 input  -60.55 | X-H torsion
[ 11005 11000 10999 10996 ] final  155.25 input  -57.11 | X-H torsion

> <Gold.Protein.ActiveResidues>
 VAL166  LYS551  ARG553  GLY616  TRP617  ASP618  TYR619  PRO620  LYS621  CYS622 
 ASP623  PHE694  ASN695  SER759  ASP760  ASP761  ALA762  ILE779  LEU786  VAL792 
 PHE793  MET794  SER795  GLU796  ALA797  LYS798  CYS799  TRP800  GLU811  SER814 

> <Gold.Protein.RotatedAtoms>
  152.4031  134.6253  160.0061 H   0  0  0  0  0  0  0  0  0  0  0  0  # atno 6907 bound_to 6896
  151.6452  133.3318  159.3147 H   0  0  0  0  0  0  0  0  0  0  0  0  # atno 6908 bound_to 6896
  150.7929  134.7008  159.6594 H   0  0  0  0  0  0  0  0  0  0  0  0  # atno 6909 bound_to 6896
  144.9752  140.7585  143.4646 H   0  0  0  0  0  0  0  0  0  0  0  0  # atno 7974 bound_to 7965
  156.1218  140.1497  156.9194 H   0  0  0  0  0  0  0  0  0  0  0  0  # atno 8008 bound_to 7997
  154.4841  140.0870  156.7487 H   0  0  0  0  0  0  0  0  0  0  0  0  # atno 8009 bound_to 7997
  155.4415  140.3431  155.4293 H   0  0  0  0  0  0  0  0  0  0  0  0  # atno 8010 bound_to 7997
  139.4828  144.4807  151.8448 H   0  0  0  0  0  0  0  0  0  0  0  0  # atno 10167 bound_to 10162
  156.4785  130.8292  151.2519 H   0  0  0  0  0  0  0  0  0  0  0  0  # atno 10718 bound_to 10713
  153.0183  135.5286  154.6968 H   0  0  0  0  0  0  0  0  0  0  0  0  # atno 10763 bound_to 10752
  154.6088  135.2876  155.0458 H   0  0  0  0  0  0  0  0  0  0  0  0  # atno 10764 bound_to 10752
  154.1487  135.6566  153.5011 H   0  0  0  0  0  0  0  0  0  0  0  0  # atno 10765 bound_to 10752
  140.1564  134.8640  157.2519 H   0  0  0  0  0  0  0  0  0  0  0  0  # atno 11005 bound_to 11000
  145.2501  139.2035  143.4947 LP  0  0  0  0  0  0  0  0  0  0  0  0  # atno 17320 bound_to 7965
  146.3393  140.2412  142.8596 LP  0  0  0  0  0  0  0  0  0  0  0  0  # atno 17321 bound_to 7965
  140.4283  144.2151  150.5887 LP  0  0  0  0  0  0  0  0  0  0  0  0  # atno 17342 bound_to 10162
  140.4805  143.2381  151.8962 LP  0  0  0  0  0  0  0  0  0  0  0  0  # atno 17343 bound_to 10162
  157.7485  131.0053  150.3107 LP  0  0  0  0  0  0  0  0  0  0  0  0  # atno 17370 bound_to 10713
  156.3546  130.3836  149.7301 LP  0  0  0  0  0  0  0  0  0  0  0  0  # atno 17371 bound_to 10713
  140.2542  134.3647  155.7430 LP  0  0  0  0  0  0  0  0  0  0  0  0  # atno 17394 bound_to 11000
  141.2205  133.7333  156.8982 LP  0  0  0  0  0  0  0  0  0  0  0  0  # atno 17395 bound_to 11000

$$$$
