#       Name:                AV-unprocessed.smi:333
#       Creating user name   scv26
#       Creation time:       Thu Mar 26 22:27:30 2020


#       File generated by GOLD software.
#

@<TRIPOS>MOLECULE
AV-unprocessed.smi:333
    32    32     1
SMALL
NO_CHARGES


@<TRIPOS>ATOM
      1 ****        -1.7382   3.2956  -0.3916 N.am           1 S1                 0.0000
      2 ****        -2.4612   2.1690  -0.4146 C.2            1 S1                 0.0000
      3 ****        -3.6884   2.2489  -0.4663 O.2            1 S1                 0.0000
      4 ****        -1.6553   0.9302  -0.3705 C.2            1 S1                 0.0000
      5 ****        -0.2978   0.9227  -0.3580 C.2            1 S1                 0.0000
      6 ****         0.4675  -0.3109  -0.3130 C.2            1 S1                 0.0000
      7 ****         1.9896  -0.2474  -0.3053 C.3            1 S1                 0.0000
      8 ****         2.5616   0.3362   0.9974 C.3            1 S1                 0.0000
      9 ****         2.2677  -0.5015   2.0952 O.3            1 S1                 0.0000
     10 ****        -0.2296  -1.4708  -0.3049 C.2            1 S1                 0.0000
     11 ****         0.3659  -2.8771  -0.2716 C.3            1 S1                 0.0000
     12 ****         1.0733  -3.1076  -1.3775 F              1 S1                 0.0000
     13 ****         1.1684  -3.0259   0.7816 F              1 S1                 0.0000
     14 ****        -0.5808  -3.8152  -0.1940 F              1 S1                 0.0000
     15 ****        -1.6317  -1.4524  -0.3154 N.am           1 S1                 0.0000
     16 ****        -2.4071  -0.3460  -0.3440 C.2            1 S1                 0.0000
     17 ****        -3.6311  -0.4785  -0.3456 O.2            1 S1                 0.0000
     18 ****        -2.0897  -2.3525  -0.2984 H              1 S1                 0.0000
     19 ****        -2.2069   4.1897  -0.4153 H              1 S1                 0.0000
     20 ****        -0.7309   3.2500  -0.3476 H              1 S1                 0.0000
     21 ****         0.2650   1.8440  -0.3828 H              1 S1                 0.0000
     22 ****         2.4314  -1.2241  -0.4956 H              1 S1                 0.0000
     23 ****         2.2978   0.3805  -1.1419 H              1 S1                 0.0000
     24 ****         3.6444   0.4357   0.9179 H              1 S1                 0.0000
     25 ****         2.1628   1.3327   1.1889 H              1 S1                 0.0000
     26 ****         2.6532  -0.1264   2.8723 H              1 S1                 0.0000
     27 ****        -4.1305   3.1456  -0.4904 LP             1 S1                 0.0000
     28 ****        -4.2433   1.4172  -0.4841 LP             1 S1                 0.0000
     29 ****         2.6491  -1.4120   1.9358 LP             1 S1                 0.0000
     30 ****         1.2768  -0.5706   2.2104 LP             1 S1                 0.0000
     31 ****        -4.2213   0.3285  -0.3664 LP             1 S1                 0.0000
     32 ****        -4.0350  -1.3930  -0.3261 LP             1 S1                 0.0000
@<TRIPOS>BOND
    1    1    2 am    
    2    1   19 1     
    3    1   20 1     
    4    2    3 2     
    5    2    4 1     
    6    4   16 1     
    7    4    5 2     
    8    5    6 1     
    9    5   21 1     
   10    6    7 1     
   11    6   10 2     
   12    7    8 1     
   13    7   22 1     
   14    7   23 1     
   15    8    9 1     
   16    8   24 1     
   17    8   25 1     
   18    9   26 1     
   19   10   11 1     
   20   10   15 1     
   21   11   12 1     
   22   11   13 1     
   23   11   14 1     
   24   15   18 1     
   25   15   16 am    
   26   16   17 2     
   27    3   27 1     
   28    3   28 1     
   29    9   29 1     
   30    9   30 1     
   31   17   31 1     
   32   17   32 1     
@<TRIPOS>SUBSTRUCTURE
      1 S1             1
@<TRIPOS>SET
LONE_PAIRS      STATIC     ATOMS    <user>   **** ""
6 27 28 29 30 31 32
DONOR_HYDROGENS      STATIC     ATOMS    <user>   **** ""
4 19 20 26 18
ATOM$BLUE        STATIC     ATOMS    COLORGROUP SYSTEM
6 27 28 29 30 31 32
ATOM$RED        STATIC     ATOMS    COLORGROUP SYSTEM
4 19 20 26 18
