AV-unprocessed.smi:169|AV-procd|sdf|1400|dock2
  -GOLD-   2262019143D 1   1.00000     0.00000
 Structure written by MMmdl.
 56 60  0  0  0  0  0  0  0  0  2 V2000
  145.7489  135.3979  150.8983 C   0  0  0  0  0  0  0  0  0  0  0  0
  145.5231  136.6673  151.7388 C   0  0  0  0  0  0  0  0  0  0  0  0
  146.3511  136.7328  152.9709 N   0  3  2  0  0  0  0  0  0  0  0  0
  146.3148  135.4701  153.7899 C   0  0  0  0  0  0  0  0  0  0  0  0
  147.6445  135.1443  154.5522 C   0  0  0  0  0  0  0  0  0  0  0  0
  148.3135  136.2198  155.4716 C   0  0  2  0  0  0  0  0  0  0  0  0
  147.5706  136.6061  156.7923 C   0  0  0  0  0  0  0  0  0  0  0  0
  146.8982  137.9863  156.4900 C   0  0  0  0  0  0  0  0  0  0  0  0
  147.0964  138.0744  154.9703 C   0  0  3  0  0  0  0  0  0  0  0  0
  146.1630  138.0179  153.7382 C   0  0  0  0  0  0  0  0  0  0  0  0
  148.3992  137.4713  154.7314 N   0  0  0  0  0  0  0  0  0  0  0  0
  149.4672  138.3048  154.8767 C   0  0  0  0  0  0  0  0  0  0  0  0
  150.7092  137.8906  154.5097 N   0  0  0  0  0  0  0  0  0  0  0  0
  151.7670  138.6914  154.6613 C   0  0  0  0  0  0  0  0  0  0  0  0
  151.8087  139.9325  155.1463 N   0  0  0  0  0  0  0  0  0  0  0  0
  150.5667  140.3672  155.5013 C   0  0  0  0  0  0  0  0  0  0  0  0
  149.3546  139.6253  155.4028 C   0  0  0  0  0  0  0  0  0  0  0  0
  148.2949  140.3999  155.8594 N   0  0  0  0  0  0  0  0  0  0  0  0
  148.8483  141.5272  156.2136 C   0  0  0  0  0  0  0  0  0  0  0  0
  150.2088  141.6008  156.0197 N   0  0  0  0  0  0  0  0  0  0  0  0
  151.0749  142.7302  156.3297 C   0  0  0  0  0  0  0  0  0  0  0  0
  151.3496  142.9324  157.8362 C   0  0  0  0  0  0  0  0  0  0  0  0
  151.8671  141.6313  158.4712 C   0  0  0  0  0  0  0  0  0  0  0  0
  151.8484  141.7103  159.8818 O   0  0  0  0  0  0  0  0  0  0  0  0
  152.1423  144.1961  158.2035 C   0  0  0  0  0  0  0  0  0  0  0  0
  150.9617  144.8774  158.6764 O   0  0  0  0  0  0  0  0  0  0  0  0
  150.2250  143.6387  158.6059 C   0  0  0  0  0  0  0  0  0  0  0  0
  145.1280  135.4214  150.0025 H   0  0  0  0  0  0  0  0  0  0  0  0
  145.4878  134.4926  151.4454 H   0  0  0  0  0  0  0  0  0  0  0  0
  146.7845  135.3068  150.5706 H   0  0  0  0  0  0  0  0  0  0  0  0
  145.7362  137.5464  151.1296 H   0  0  0  0  0  0  0  0  0  0  0  0
  144.4702  136.7433  152.0135 H   0  0  0  0  0  0  0  0  0  0  0  0
  145.4662  135.4924  154.4758 H   0  0  0  0  0  0  0  0  0  0  0  0
  146.1203  134.6270  153.1254 H   0  0  0  0  0  0  0  0  0  0  0  0
  147.4945  134.2361  155.1366 H   0  0  0  0  0  0  0  0  0  0  0  0
  148.3826  134.8729  153.7964 H   0  0  0  0  0  0  0  0  0  0  0  0
  149.2959  135.8259  155.7320 H   0  0  0  0  0  0  0  0  0  0  0  0
  146.8373  135.8473  157.0676 H   0  0  0  0  0  0  0  0  0  0  0  0
  148.2710  136.7043  157.6225 H   0  0  0  0  0  0  0  0  0  0  0  0
  145.8628  138.0591  156.8374 H   0  0  0  0  0  0  0  0  0  0  0  0
  147.4576  138.7852  156.9786 H   0  0  0  0  0  0  0  0  0  0  0  0
  146.3782  137.2915  155.1491 H   0  0  0  0  0  0  0  0  0  0  0  0
  146.4192  138.8376  153.0674 H   0  0  0  0  0  0  0  0  0  0  0  0
  145.1159  138.1814  154.0095 H   0  0  0  0  0  0  0  0  0  0  0  0
  152.7156  138.2795  154.3494 H   0  0  0  0  0  0  0  0  0  0  0  0
  148.2722  142.3397  156.6317 H   0  0  0  0  0  0  0  0  0  0  0  0
  152.0134  142.5788  155.7945 H   0  0  0  0  0  0  0  0  0  0  0  0
  150.6373  143.6281  155.8922 H   0  0  0  0  0  0  0  0  0  0  0  0
  151.2890  140.7655  158.1496 H   0  0  0  0  0  0  0  0  0  0  0  0
  152.8955  141.4360  158.1658 H   0  0  0  0  0  0  0  0  0  0  0  0
  151.8353  142.6214  160.1329 H   0  0  0  0  0  0  0  0  0  0  0  0
  152.8696  144.0476  159.0032 H   0  0  0  0  0  0  0  0  0  0  0  0
  152.6007  144.7081  157.3588 H   0  0  0  0  0  0  0  0  0  0  0  0
  149.2956  143.7362  158.0434 H   0  0  0  0  0  0  0  0  0  0  0  0
  150.0358  143.2237  159.5972 H   0  0  0  0  0  0  0  0  0  0  0  0
  147.3007  136.7779  152.6293 H   0  0  0  0  0  0  0  0  0  0  0  0
  1  2  1  0  0  0  0
  1 28  1  0  0  0  0
  1 29  1  0  0  0  0
  1 30  1  0  0  0  0
  2  3  1  0  0  0  0
  2 31  1  0  0  0  0
  2 32  1  0  0  0  0
  3 10  1  0  0  0  0
  3  4  1  0  0  0  0
  3 56  1  0  0  0  0
  4  5  1  0  0  0  0
  4 33  1  0  0  0  0
  4 34  1  0  0  0  0
  5  6  1  0  0  0  0
  5 35  1  0  0  0  0
  5 36  1  0  0  0  0
  6 11  1  0  0  0  0
  6  7  1  0  0  0  0
  6 37  1  0  0  0  0
  7  8  1  0  0  0  0
  7 38  1  0  0  0  0
  7 39  1  0  0  0  0
  8  9  1  0  0  0  0
  8 40  1  0  0  0  0
  8 41  1  0  0  0  0
  9 10  1  0  0  0  0
  9 11  1  0  0  0  0
  9 42  1  0  0  0  0
 10 43  1  0  0  0  0
 10 44  1  0  0  0  0
 11 12  1  0  0  0  0
 12 17  1  0  0  0  0
 12 13  2  0  0  0  0
 13 14  1  0  0  0  0
 14 15  2  0  0  0  0
 14 45  1  0  0  0  0
 15 16  1  0  0  0  0
 16 20  1  0  0  0  0
 16 17  2  0  0  0  0
 17 18  1  0  0  0  0
 18 19  2  0  0  0  0
 19 20  1  0  0  0  0
 19 46  1  0  0  0  0
 20 21  1  0  0  0  0
 21 22  1  0  0  0  0
 21 47  1  0  0  0  0
 21 48  1  0  0  0  0
 22 27  1  0  0  0  0
 22 23  1  0  0  0  0
 22 25  1  0  0  0  0
 23 24  1  0  0  0  0
 23 49  1  0  0  0  0
 23 50  1  0  0  0  0
 24 51  1  0  0  0  0
 25 26  1  0  0  0  0
 25 52  1  0  0  0  0
 25 53  1  0  0  0  0
 26 27  1  0  0  0  0
 27 54  1  0  0  0  0
 27 55  1  0  0  0  0
M  CHG  1   3   1
M  END
> <s_m_source_file>
AV-unprocessed.smi

> <i_m_source_file_index>
169

> <i_lp_mmshare_version>
43012

> <i_f3d_flags>
0

> <s_epik_input>
W0NASF0xMltDSDJdW0NIMl1OKFtDSDJdW0NIM10pW0NIMl1bQ0BIXShbQ0gyXVtDSDJdMSlOMmMobltjSF1uMyljKGMzNCluW2NIXW40W0NIMl1DNShbQ0gyXVtPSF0pW0NIMl1PW0NIMl01

> <s_epik_cmdline>
J2VwaWtfcHl0aG9uJywgJy1waCcsICc3LjAnLCAnLXRuJywgJzgnLCAnLW1hJywgJzIwMCcsICctbWV0YWxfYmluZGluZycsICctaW1hZScsICc8aW5maWxlLm1hZT4nLCAnLW9tYWUnLCAnPG91dGZpbGUubWFlPic=

> <r_lp_tautomer_probability>
1

> <r_epik_Ionization_Penalty>
0.00274162

> <r_epik_Ionization_Penalty_Charging>
0.00243722

> <r_epik_Ionization_Penalty_Neutral>
0.000304399

> <r_epik_State_Penalty>
-0

> <r_epik_Charging_Adjusted_Penalty>
0.00243722

> <i_epik_Tot_Q>
1

> <i_epik_Tot_abs_Q>
1

> <r_epik_Metal_State_Penalty>
-0

> <b_epik_Metal_Only>
0

> <s_lp_Force_Field>
OPLS_2005

> <r_lp_Energy>
131.332

> <b_lp_Chiralities_Consistent>
1

> <s_lp_Variant>
AV-unprocessed.smi:169-3

> <Gold.Version>
5.8.1

> <Gold.Id.Protein>
6NUR|6NUR_protein|mol2

> <Gold.PLP.Fitness>
42.6206

> <Gold.PLP.PLP>
-34.3276

> <Gold.PLP.part.hbond>
-2.4087

> <Gold.PLP.part.metal>
0.0000

> <Gold.PLP.part.buried>
-4.1456

> <Gold.PLP.part.nonpolar>
-27.9762

> <Gold.PLP.part.repulsive>
0.5665

> <Gold.PLP.ligand.clash>
0.0000

> <Gold.PLP.ligand.torsion>
0.5904

> <Gold.PLP.Chemscore.Hbond>
2.4484

> <Gold.PLP.Chemscore.CHOScore>
0.5436

> <Gold.PLP.Chemscore.Metal>
0.0000

> <Gold.Chemscore.Hbonds>
donor molecule, donor type, donor heavy atom, donor atom, acceptor molecule, acceptor atom, score
      L1  H     3    56       P1  7948  2.00
      P1  H  7989  7998       L1    15  0.42
      L1  C    19    46       P1  8028  0.52

> <Gold.PLP.Chemscore.Internal.Correction>
0.4979

> <Gold.Rescore>
     Score         DG    S(hbond)    S(metal)    S(lipo)     H(rot)  DE(clash)    DE(int)     intcor
      7.54     -11.09       0.99        0.00      76.94       2.62       0.38       3.17       ----

> <Gold.Chemscore.Fitness>
7.5441

> <Gold.Chemscore.DG>
-11.0926

> <Gold.Chemscore.ZeroCoef>
-5.4800

> <Gold.Chemscore.Hbond>
0.9944

> <Gold.Chemscore.Metal>
0.0000

> <Gold.Chemscore.Lipo>
76.9373

> <Gold.Chemscore.Internal_Hbond>
0.0000

> <Gold.Chemscore.DEClash>
0.3797

> <Gold.Chemscore.DEInternal>
3.1688

> <Gold.Chemscore.Rot>
2.6212

> <Gold.Chemscore.Internal.Correction>
   9.000000E+99

> <Gold.Chemscore.Hbonds>
donor molecule, donor type, donor heavy atom, donor atom, acceptor molecule, acceptor atom, score
      L1  H     3    56       P1  7948  0.99

> <Gold.Chemscore.Hbond.Weighted>
-3.3211

> <Gold.Chemscore.Metal.Weighted>
-0.0000

> <Gold.Chemscore.Lipo.Weighted>
-9.0017

> <Gold.Chemscore.Internal_Hbond.Weighted>
0.0000

> <Gold.Chemscore.DEClash.Weighted>
0.3797

> <Gold.Chemscore.DEInternal.Weighted>
3.1688

> <Gold.Chemscore.Rot.Weighted>
6.7102

> <Gold.Chemscore.Internal.Correction.Weighted>
   9.000000E+99

> <Gold.Protein.RotatedTorsions>
[ 6907 6896 6895 6894 ] final   72.39 input  -60.11 | X-H torsion
[ 7974 7965 7964 7962 ] final  -66.81 input  175.53 | X-H torsion
[ 8008 7997 7996 7995 ] final   -3.88 input   59.86 | X-H torsion
[ 10167 10162 10161 10158 ] final -174.74 input  -65.29 | X-H torsion
[ 10718 10713 10712 10709 ] final  113.54 input   66.30 | X-H torsion
[ 10763 10752 10751 10750 ] final  160.66 input  -60.55 | X-H torsion
[ 11005 11000 10999 10996 ] final -162.80 input  -57.11 | X-H torsion

> <Gold.Protein.ActiveResidues>
 VAL166  LYS551  ARG553  GLY616  TRP617  ASP618  TYR619  PRO620  LYS621  CYS622 
 ASP623  PHE694  ASN695  SER759  ASP760  ASP761  ALA762  ILE779  LEU786  VAL792 
 PHE793  MET794  SER795  GLU796  ALA797  LYS798  CYS799  TRP800  GLU811  SER814 

> <Gold.Protein.RotatedAtoms>
  152.4865  134.4578  159.9595 H   0  0  0  0  0  0  0  0  0  0  0  0  # atno 6907 bound_to 6896
  151.4574  133.3595  159.2812 H   0  0  0  0  0  0  0  0  0  0  0  0  # atno 6908 bound_to 6896
  150.8980  134.8415  159.7400 H   0  0  0  0  0  0  0  0  0  0  0  0  # atno 6909 bound_to 6896
  145.7370  140.8971  143.0550 H   0  0  0  0  0  0  0  0  0  0  0  0  # atno 7974 bound_to 7965
  154.6202  140.2498  155.7559 H   0  0  0  0  0  0  0  0  0  0  0  0  # atno 8008 bound_to 7997
  156.2422  140.2928  156.0425 H   0  0  0  0  0  0  0  0  0  0  0  0  # atno 8009 bound_to 7997
  155.1910  140.0391  157.2890 H   0  0  0  0  0  0  0  0  0  0  0  0  # atno 8010 bound_to 7997
  139.5617  144.1853  152.1250 H   0  0  0  0  0  0  0  0  0  0  0  0  # atno 10167 bound_to 10162
  157.6332  131.0985  150.7055 H   0  0  0  0  0  0  0  0  0  0  0  0  # atno 10718 bound_to 10713
  154.2508  135.2771  155.2817 H   0  0  0  0  0  0  0  0  0  0  0  0  # atno 10763 bound_to 10752
  154.5466  135.5687  153.6889 H   0  0  0  0  0  0  0  0  0  0  0  0  # atno 10764 bound_to 10752
  152.9981  135.6264  154.2655 H   0  0  0  0  0  0  0  0  0  0  0  0  # atno 10765 bound_to 10752
  140.6052  134.4906  157.5210 H   0  0  0  0  0  0  0  0  0  0  0  0  # atno 11005 bound_to 11000
  144.6879  139.9409  143.7475 LP  0  0  0  0  0  0  0  0  0  0  0  0  # atno 17320 bound_to 7965
  146.0483  139.3487  143.0655 LP  0  0  0  0  0  0  0  0  0  0  0  0  # atno 17321 bound_to 7965
  140.1368  144.5239  150.6769 LP  0  0  0  0  0  0  0  0  0  0  0  0  # atno 17342 bound_to 10162
  140.6898  143.2369  151.5163 LP  0  0  0  0  0  0  0  0  0  0  0  0  # atno 17343 bound_to 10162
  156.7391  130.4733  149.5482 LP  0  0  0  0  0  0  0  0  0  0  0  0  # atno 17370 bound_to 10713
  156.1552  130.6337  151.0647 LP  0  0  0  0  0  0  0  0  0  0  0  0  # atno 17371 bound_to 10713
  139.9215  134.8139  156.1197 LP  0  0  0  0  0  0  0  0  0  0  0  0  # atno 17394 bound_to 11000
  141.0845  133.6740  156.2407 LP  0  0  0  0  0  0  0  0  0  0  0  0  # atno 17395 bound_to 11000

$$$$
