AV-unprocessed.smi:578|AV-procd|sdf|2981|dock3
  -GOLD-   2262023493D 1   1.00000     0.00000
 Structure written by MMmdl.
 33 34  0  0  0  0  0  0  0  0  3 V2000
  153.6988  141.9226  161.0407 C   0  0  0  0  0  0  0  0  0  0  0  0
  152.5376  142.4157  160.1712 C   0  0  2  0  0  0  0  0  0  0  0  0
  152.4034  141.5980  158.8742 C   0  0  0  0  0  0  0  0  0  0  0  0
  151.3579  142.1655  158.0345 N   0  0  0  0  0  0  0  0  0  0  0  0
  151.0636  141.3885  156.9060 C   0  0  0  0  0  0  0  0  0  0  0  0
  149.8711  141.6354  156.1928 C   0  0  0  0  0  0  0  0  0  0  0  0
  149.5714  140.8539  155.0597 C   0  0  0  0  0  0  0  0  0  0  0  0
  150.4241  139.8827  154.6701 N   0  3  0  0  0  0  0  0  0  0  0  0
  151.5799  139.6044  155.3155 C   0  0  0  0  0  0  0  0  0  0  0  0
  152.4527  138.5015  154.7939 C   0  0  0  0  0  0  0  0  0  0  0  0
  151.9158  137.4359  154.4195 O   0  0  0  0  0  0  0  0  0  0  0  0
  153.6892  138.6891  154.7526 O   0  5  0  0  0  0  0  0  0  0  0  0
  151.9270  140.3604  156.4590 C   0  0  0  0  0  0  0  0  0  0  0  0
  151.5991  143.5685  157.7233 C   0  0  0  0  0  0  0  0  0  0  0  0
  151.7820  144.3904  159.0151 C   0  0  1  0  0  0  0  0  0  0  0  0
  150.4678  144.6410  159.7760 C   0  0  0  0  0  0  0  0  0  0  0  0
  152.7775  143.7856  159.8456 O   0  0  0  0  0  0  0  0  0  0  0  0
  153.5614  140.8786  161.3234 H   0  0  0  0  0  0  0  0  0  0  0  0
  153.7743  142.5078  161.9577 H   0  0  0  0  0  0  0  0  0  0  0  0
  154.6500  142.0048  160.5139 H   0  0  0  0  0  0  0  0  0  0  0  0
  151.6201  142.3311  160.7541 H   0  0  0  0  0  0  0  0  0  0  0  0
  153.3515  141.5990  158.3344 H   0  0  0  0  0  0  0  0  0  0  0  0
  152.1663  140.5592  159.1080 H   0  0  0  0  0  0  0  0  0  0  0  0
  149.1925  142.4136  156.5105 H   0  0  0  0  0  0  0  0  0  0  0  0
  148.6827  140.9740  154.4578 H   0  0  0  0  0  0  0  0  0  0  0  0
  152.8463  140.1541  156.9882 H   0  0  0  0  0  0  0  0  0  0  0  0
  152.4997  143.6514  157.1130 H   0  0  0  0  0  0  0  0  0  0  0  0
  150.7762  143.9706  157.1307 H   0  0  0  0  0  0  0  0  0  0  0  0
  152.1737  145.3681  158.7331 H   0  0  0  0  0  0  0  0  0  0  0  0
  149.7701  145.2125  159.1637 H   0  0  0  0  0  0  0  0  0  0  0  0
  150.6502  145.2112  160.6871 H   0  0  0  0  0  0  0  0  0  0  0  0
  149.9675  143.7144  160.0558 H   0  0  0  0  0  0  0  0  0  0  0  0
  150.1934  139.3241  153.8477 H   0  0  0  0  0  0  0  0  0  0  0  0
  1  2  1  0  0  0  0
  1 18  1  0  0  0  0
  1 19  1  0  0  0  0
  1 20  1  0  0  0  0
  2 17  1  0  0  0  0
  2  3  1  0  0  0  0
  2 21  1  0  0  0  0
  3  4  1  0  0  0  0
  3 22  1  0  0  0  0
  3 23  1  0  0  0  0
  4  5  1  0  0  0  0
  4 14  1  0  0  0  0
  5 13  1  0  0  0  0
  5  6  2  0  0  0  0
  6  7  1  0  0  0  0
  6 24  1  0  0  0  0
  7  8  2  0  0  0  0
  7 25  1  0  0  0  0
  8  9  1  0  0  0  0
  8 33  1  0  0  0  0
  9 10  1  0  0  0  0
  9 13  2  0  0  0  0
 10 11  2  0  0  0  0
 10 12  1  0  0  0  0
 13 26  1  0  0  0  0
 14 15  1  0  0  0  0
 14 27  1  0  0  0  0
 14 28  1  0  0  0  0
 15 16  1  0  0  0  0
 15 17  1  0  0  0  0
 15 29  1  0  0  0  0
 16 30  1  0  0  0  0
 16 31  1  0  0  0  0
 16 32  1  0  0  0  0
M  CHG  1   8   1
M  CHG  1  12  -1
M  END
> <s_m_source_file>
AV-unprocessed.smi

> <i_m_source_file_index>
578

> <i_lp_mmshare_version>
43012

> <i_f3d_flags>
0

> <s_epik_input>
W0NIM11bQ0BASF0xW0NIMl1OKFtDSDJdW0NASF0oTzEpW0NIM10pYzJbY0hdW2NIXW5jKFtjSF0yKUMoPU8pW09IXQ==

> <s_epik_cmdline>
J2VwaWtfcHl0aG9uJywgJy1waCcsICc3LjAnLCAnLXRuJywgJzgnLCAnLW1hJywgJzIwMCcsICctbWV0YWxfYmluZGluZycsICctaW1hZScsICc8aW5maWxlLm1hZT4nLCAnLW9tYWUnLCAnPG91dGZpbGUubWFlPic=

> <r_epik_Ionization_Penalty>
0.0203651

> <r_epik_Ionization_Penalty_Charging>
0.0203651

> <r_epik_Ionization_Penalty_Neutral>
3.18831e-12

> <r_epik_State_Penalty>
0.0163096

> <r_epik_Charging_Adjusted_Penalty>
0.0366747

> <i_epik_Tot_Q>
0

> <i_epik_Tot_abs_Q>
2

> <r_epik_Metal_State_Penalty>
1.99323

> <b_epik_Metal_Only>
0

> <s_lp_Force_Field>
OPLS_2005

> <r_lp_Energy>
19.2563

> <b_lp_Chiralities_Consistent>
1

> <s_lp_Variant>
AV-unprocessed.smi:578-1

> <Gold.Version>
5.8.1

> <Gold.Id.Protein>
6NUR|6NUR_protein|mol2

> <Gold.PLP.Fitness>
49.8591

> <Gold.PLP.PLP>
-40.2187

> <Gold.PLP.part.hbond>
-2.0000

> <Gold.PLP.part.metal>
0.0000

> <Gold.PLP.part.buried>
-6.9650

> <Gold.PLP.part.nonpolar>
-32.9173

> <Gold.PLP.part.repulsive>
1.2908

> <Gold.PLP.ligand.clash>
0.0000

> <Gold.PLP.ligand.torsion>
0.9150

> <Gold.PLP.Chemscore.Hbond>
3.7912

> <Gold.PLP.Chemscore.CHOScore>
0.0000

> <Gold.PLP.Chemscore.Metal>
0.0000

> <Gold.Chemscore.Hbonds>
donor molecule, donor type, donor heavy atom, donor atom, acceptor molecule, acceptor atom, score
      P1  H  7997  8008       L1    12  1.89
      P1  H 10752 10765       L1    11  1.81

> <Gold.PLP.Chemscore.Internal.Correction>
0.0968

> <Gold.Rescore>
     Score         DG    S(hbond)    S(metal)    S(lipo)     H(rot)  DE(clash)    DE(int)     intcor
     18.97     -19.96       1.75        0.00      95.55       1.00       0.02       0.97       ----

> <Gold.Chemscore.Fitness>
18.9670

> <Gold.Chemscore.DG>
-19.9606

> <Gold.Chemscore.ZeroCoef>
-5.4800

> <Gold.Chemscore.Hbond>
1.7548

> <Gold.Chemscore.Metal>
0.0000

> <Gold.Chemscore.Lipo>
95.5517

> <Gold.Chemscore.Internal_Hbond>
0.0000

> <Gold.Chemscore.DEClash>
0.0201

> <Gold.Chemscore.DEInternal>
0.9734

> <Gold.Chemscore.Rot>
1.0000

> <Gold.Chemscore.Internal.Correction>
   9.000000E+99

> <Gold.Chemscore.Hbonds>
donor molecule, donor type, donor heavy atom, donor atom, acceptor molecule, acceptor atom, score
      P1  H  7997  8008       L1    12  0.86
      P1  H 10752 10765       L1    11  0.82

> <Gold.Chemscore.Hbond.Weighted>
-5.8610

> <Gold.Chemscore.Metal.Weighted>
-0.0000

> <Gold.Chemscore.Lipo.Weighted>
-11.1796

> <Gold.Chemscore.Internal_Hbond.Weighted>
0.0000

> <Gold.Chemscore.DEClash.Weighted>
0.0201

> <Gold.Chemscore.DEInternal.Weighted>
0.9734

> <Gold.Chemscore.Rot.Weighted>
2.5600

> <Gold.Chemscore.Internal.Correction.Weighted>
   9.000000E+99

> <Gold.Protein.RotatedTorsions>
[ 6907 6896 6895 6894 ] final   -1.41 input  -60.11 | X-H torsion
[ 7974 7965 7964 7962 ] final  140.12 input  175.53 | X-H torsion
[ 8008 7997 7996 7995 ] final   -6.45 input   59.86 | X-H torsion
[ 10167 10162 10161 10158 ] final -129.84 input  -65.29 | X-H torsion
[ 10718 10713 10712 10709 ] final   32.55 input   66.30 | X-H torsion
[ 10763 10752 10751 10750 ] final  163.31 input  -60.55 | X-H torsion
[ 11005 11000 10999 10996 ] final   11.46 input  -57.11 | X-H torsion

> <Gold.Protein.ActiveResidues>
 VAL166  LYS551  ARG553  GLY616  TRP617  ASP618  TYR619  PRO620  LYS621  CYS622 
 ASP623  PHE694  ASN695  SER759  ASP760  ASP761  ALA762  ILE779  LEU786  VAL792 
 PHE793  MET794  SER795  GLU796  ALA797  LYS798  CYS799  TRP800  GLU811  SER814 

> <Gold.Protein.RotatedAtoms>
  151.5464  135.1068  159.9938 H   0  0  0  0  0  0  0  0  0  0  0  0  # atno 6907 bound_to 6896
  152.4512  133.7628  159.6766 H   0  0  0  0  0  0  0  0  0  0  0  0  # atno 6908 bound_to 6896
  150.8440  133.7823  159.3074 H   0  0  0  0  0  0  0  0  0  0  0  0  # atno 6909 bound_to 6896
  144.9215  139.5161  143.5661 H   0  0  0  0  0  0  0  0  0  0  0  0  # atno 7974 bound_to 7965
  154.5936  140.2432  155.7887 H   0  0  0  0  0  0  0  0  0  0  0  0  # atno 8008 bound_to 7997
  156.2264  140.2981  156.0031 H   0  0  0  0  0  0  0  0  0  0  0  0  # atno 8009 bound_to 7997
  155.2331  140.0404  157.2955 H   0  0  0  0  0  0  0  0  0  0  0  0  # atno 8010 bound_to 7997
  139.9355  143.6223  152.2518 H   0  0  0  0  0  0  0  0  0  0  0  0  # atno 10167 bound_to 10162
  157.2866  130.7281  149.6586 H   0  0  0  0  0  0  0  0  0  0  0  0  # atno 10718 bound_to 10713
  154.2918  135.2761  155.2651 H   0  0  0  0  0  0  0  0  0  0  0  0  # atno 10763 bound_to 10752
  154.5127  135.5778  153.6621 H   0  0  0  0  0  0  0  0  0  0  0  0  # atno 10764 bound_to 10752
  152.9913  135.6185  154.3083 H   0  0  0  0  0  0  0  0  0  0  0  0  # atno 10765 bound_to 10752
  140.5029  134.0728  155.7798 H   0  0  0  0  0  0  0  0  0  0  0  0  # atno 11005 bound_to 11000
  146.3207  139.8099  142.8948 LP  0  0  0  0  0  0  0  0  0  0  0  0  # atno 17320 bound_to 7965
  145.3288  141.0261  143.3458 LP  0  0  0  0  0  0  0  0  0  0  0  0  # atno 17321 bound_to 7965
  139.6747  144.7659  151.1718 LP  0  0  0  0  0  0  0  0  0  0  0  0  # atno 17342 bound_to 10162
  140.7625  143.5813  150.8892 LP  0  0  0  0  0  0  0  0  0  0  0  0  # atno 17343 bound_to 10162
  155.9666  130.4322  150.4952 LP  0  0  0  0  0  0  0  0  0  0  0  0  # atno 17370 bound_to 10713
  157.2906  131.0625  151.2136 LP  0  0  0  0  0  0  0  0  0  0  0  0  # atno 17371 bound_to 10713
  141.1426  133.9112  157.2291 LP  0  0  0  0  0  0  0  0  0  0  0  0  # atno 17394 bound_to 11000
  139.9703  135.0130  156.9494 LP  0  0  0  0  0  0  0  0  0  0  0  0  # atno 17395 bound_to 11000

$$$$
