AV-unprocessed.smi:2954|AV-procd|sdf|11299|dock3
  -GOLD-   2272016193D 1   1.00000     0.00000
 Structure written by MMmdl.
 43 45  0  0  0  0  0  0  0  0  2 V2000
  151.6626  137.0398  154.3047 C   0  0  0  0  0  0  0  0  0  0  0  0
  151.7616  138.5002  154.7660 C   0  0  2  0  0  0  0  0  0  0  0  0
  152.1628  138.5485  156.1669 N   0  0  0  0  0  0  0  0  0  0  0  0
  153.2566  139.1788  156.6125 C   0  0  0  0  0  0  0  0  0  0  0  0
  154.0338  139.7775  155.8739 O   0  0  0  0  0  0  0  0  0  0  0  0
  150.4638  139.2157  154.5269 C   0  0  0  0  0  0  0  0  0  0  0  0
  149.4311  138.7582  153.7621 N   0  3  0  0  0  0  0  0  0  0  0  0
  148.4036  139.7005  153.7376 C   0  0  0  0  0  0  0  0  0  0  0  0
  147.1704  139.6857  153.0934 C   0  0  0  0  0  0  0  0  0  0  0  0
  146.3543  140.8230  153.2627 C   0  0  0  0  0  0  0  0  0  0  0  0
  146.7729  141.9159  154.0487 C   0  0  0  0  0  0  0  0  0  0  0  0
  148.0234  141.9168  154.7006 C   0  0  0  0  0  0  0  0  0  0  0  0
  148.8259  140.7883  154.5285 C   0  0  0  0  0  0  0  0  0  0  0  0
  150.1003  140.4444  154.9986 N   0  0  0  0  0  0  0  0  0  0  0  0
  150.8370  141.3964  155.8461 C   0  0  0  0  0  0  0  0  0  0  0  0
  150.0600  141.7434  157.1240 C   0  0  0  0  0  0  0  0  0  0  0  0
  150.6859  142.8515  157.7563 O   0  0  0  0  0  0  0  0  0  0  0  0
  151.7101  142.6138  158.6465 C   0  0  0  0  0  0  0  0  0  0  0  0
  152.3152  141.3451  158.8331 C   0  0  0  0  0  0  0  0  0  0  0  0
  153.3587  141.1827  159.7647 C   0  0  0  0  0  0  0  0  0  0  0  0
  153.8085  142.2806  160.5205 C   0  0  0  0  0  0  0  0  0  0  0  0
  153.2132  143.5429  160.3440 C   0  0  0  0  0  0  0  0  0  0  0  0
  152.1697  143.7085  159.4123 C   0  0  0  0  0  0  0  0  0  0  0  0
  151.4602  145.2704  159.2069 Cl  0  0  0  0  0  0  0  0  0  0  0  0
  151.4070  136.9797  153.2463 H   0  0  0  0  0  0  0  0  0  0  0  0
  150.8992  136.4950  154.8615 H   0  0  0  0  0  0  0  0  0  0  0  0
  152.6107  136.5191  154.4431 H   0  0  0  0  0  0  0  0  0  0  0  0
  152.5445  138.9807  154.1781 H   0  0  0  0  0  0  0  0  0  0  0  0
  151.5789  138.0685  156.8365 H   0  0  0  0  0  0  0  0  0  0  0  0
  153.3672  139.0877  157.7046 H   0  0  0  0  0  0  0  0  0  0  0  0
  146.8495  138.8515  152.4870 H   0  0  0  0  0  0  0  0  0  0  0  0
  145.3896  140.8593  152.7772 H   0  0  0  0  0  0  0  0  0  0  0  0
  146.1237  142.7735  154.1513 H   0  0  0  0  0  0  0  0  0  0  0  0
  148.3345  142.7655  155.2911 H   0  0  0  0  0  0  0  0  0  0  0  0
  151.8157  140.9827  156.0875 H   0  0  0  0  0  0  0  0  0  0  0  0
  151.0294  142.2958  155.2613 H   0  0  0  0  0  0  0  0  0  0  0  0
  149.0247  141.9814  156.8762 H   0  0  0  0  0  0  0  0  0  0  0  0
  150.0581  140.8791  157.7899 H   0  0  0  0  0  0  0  0  0  0  0  0
  151.9937  140.4789  158.2754 H   0  0  0  0  0  0  0  0  0  0  0  0
  153.8143  140.2128  159.9003 H   0  0  0  0  0  0  0  0  0  0  0  0
  154.6087  142.1548  161.2349 H   0  0  0  0  0  0  0  0  0  0  0  0
  153.5596  144.3860  160.9237 H   0  0  0  0  0  0  0  0  0  0  0  0
  149.4362  137.8652  153.2862 H   0  0  0  0  0  0  0  0  0  0  0  0
  1  2  1  0  0  0  0
  1 25  1  0  0  0  0
  1 26  1  0  0  0  0
  1 27  1  0  0  0  0
  2  3  1  0  0  0  0
  2  6  1  0  0  0  0
  2 28  1  0  0  0  0
  3  4  1  0  0  0  0
  3 29  1  0  0  0  0
  4  5  2  0  0  0  0
  4 30  1  0  0  0  0
  6 14  1  0  0  0  0
  6  7  2  0  0  0  0
  7  8  1  0  0  0  0
  7 43  1  0  0  0  0
  8 13  2  0  0  0  0
  8  9  1  0  0  0  0
  9 10  2  0  0  0  0
  9 31  1  0  0  0  0
 10 11  1  0  0  0  0
 10 32  1  0  0  0  0
 11 12  2  0  0  0  0
 11 33  1  0  0  0  0
 12 13  1  0  0  0  0
 12 34  1  0  0  0  0
 13 14  1  0  0  0  0
 14 15  1  0  0  0  0
 15 16  1  0  0  0  0
 15 35  1  0  0  0  0
 15 36  1  0  0  0  0
 16 17  1  0  0  0  0
 16 37  1  0  0  0  0
 16 38  1  0  0  0  0
 17 18  1  0  0  0  0
 18 23  1  0  0  0  0
 18 19  2  0  0  0  0
 19 20  1  0  0  0  0
 19 39  1  0  0  0  0
 20 21  2  0  0  0  0
 20 40  1  0  0  0  0
 21 22  1  0  0  0  0
 21 41  1  0  0  0  0
 22 23  2  0  0  0  0
 22 42  1  0  0  0  0
 23 24  1  0  0  0  0
M  CHG  1   7   1
M  END
> <s_m_source_file>
AV-unprocessed.smi

> <i_m_source_file_index>
2954

> <i_lp_mmshare_version>
43012

> <i_f3d_flags>
0

> <s_epik_input>
Tz1bQ0hdW05IXVtDQEBIXShbQ0gzXSljKG4xKW4oYyhjMTIpW2NIXVtjSF1bY0hdW2NIXTIpW0NIMl1bQ0gyXU9jM1tjSF1bY0hdW2NIXVtjSF1jM0Ns

> <s_epik_cmdline>
J2VwaWtfcHl0aG9uJywgJy1waCcsICc3LjAnLCAnLXRuJywgJzgnLCAnLW1hJywgJzIwMCcsICctbWV0YWxfYmluZGluZycsICctaW1hZScsICc8aW5maWxlLm1hZT4nLCAnLW9tYWUnLCAnPG91dGZpbGUubWFlPic=

> <r_lp_tautomer_probability>
1

> <r_epik_Ionization_Penalty>
1.18508

> <r_epik_Ionization_Penalty_Charging>
1.18508

> <r_epik_Ionization_Penalty_Neutral>
5.5802e-08

> <r_epik_State_Penalty>
1.24934

> <r_epik_Charging_Adjusted_Penalty>
2.43443

> <i_epik_Tot_Q>
1

> <i_epik_Tot_abs_Q>
1

> <r_epik_Metal_State_Penalty>
1.32564

> <b_epik_Metal_Only>
0

> <s_lp_Force_Field>
OPLS_2005

> <r_lp_Energy>
16.9753

> <b_lp_Chiralities_Consistent>
1

> <s_lp_Variant>
AV-unprocessed.smi:2954-3

> <Gold.Version>
5.8.1

> <Gold.Id.Protein>
6NUR|6NUR_protein|mol2

> <Gold.PLP.Fitness>
56.8238

> <Gold.PLP.PLP>
-49.6465

> <Gold.PLP.part.hbond>
-1.8975

> <Gold.PLP.part.metal>
0.0000

> <Gold.PLP.part.buried>
0.3705

> <Gold.PLP.part.nonpolar>
-47.9683

> <Gold.PLP.part.repulsive>
0.2005

> <Gold.PLP.ligand.clash>
0.0000

> <Gold.PLP.ligand.torsion>
0.6240

> <Gold.PLP.Chemscore.Hbond>
2.7680

> <Gold.PLP.Chemscore.CHOScore>
0.0000

> <Gold.PLP.Chemscore.Metal>
0.0000

> <Gold.Chemscore.Hbonds>
donor molecule, donor type, donor heavy atom, donor atom, acceptor molecule, acceptor atom, score
      L1  H     7    43       P1  7948  1.20

> <Gold.PLP.Chemscore.Internal.Correction>
0.1214

> <Gold.Rescore>
     Score         DG    S(hbond)    S(metal)    S(lipo)     H(rot)  DE(clash)    DE(int)     intcor
     19.56     -22.00       1.76        0.00     142.43       2.35       1.65       0.79       ----

> <Gold.Chemscore.Fitness>
19.5626

> <Gold.Chemscore.DG>
-22.0025

> <Gold.Chemscore.ZeroCoef>
-5.4800

> <Gold.Chemscore.Hbond>
1.7562

> <Gold.Chemscore.Metal>
0.0000

> <Gold.Chemscore.Lipo>
142.4320

> <Gold.Chemscore.Internal_Hbond>
0.0000

> <Gold.Chemscore.DEClash>
1.6483

> <Gold.Chemscore.DEInternal>
0.7917

> <Gold.Chemscore.Rot>
2.3467

> <Gold.Chemscore.Internal.Correction>
   9.000000E+99

> <Gold.Chemscore.Hbonds>
donor molecule, donor type, donor heavy atom, donor atom, acceptor molecule, acceptor atom, score
      L1  H     7    43       P1  7948  0.57

> <Gold.Chemscore.Hbond.Weighted>
-5.8656

> <Gold.Chemscore.Metal.Weighted>
-0.0000

> <Gold.Chemscore.Lipo.Weighted>
-16.6645

> <Gold.Chemscore.Internal_Hbond.Weighted>
0.0000

> <Gold.Chemscore.DEClash.Weighted>
1.6483

> <Gold.Chemscore.DEInternal.Weighted>
0.7917

> <Gold.Chemscore.Rot.Weighted>
6.0077

> <Gold.Chemscore.Internal.Correction.Weighted>
   9.000000E+99

> <Gold.Protein.RotatedTorsions>
[ 6907 6896 6895 6894 ] final   68.69 input  -60.11 | X-H torsion
[ 7974 7965 7964 7962 ] final   -1.69 input  175.53 | X-H torsion
[ 8008 7997 7996 7995 ] final  -44.45 input   59.86 | X-H torsion
[ 10167 10162 10161 10158 ] final  127.22 input  -65.29 | X-H torsion
[ 10718 10713 10712 10709 ] final  -33.57 input   66.30 | X-H torsion
[ 10763 10752 10751 10750 ] final -131.04 input  -60.55 | X-H torsion
[ 11005 11000 10999 10996 ] final  116.40 input  -57.11 | X-H torsion

> <Gold.Protein.ActiveResidues>
 VAL166  LYS551  ARG553  GLY616  TRP617  ASP618  TYR619  PRO620  LYS621  CYS622 
 ASP623  PHE694  ASN695  SER759  ASP760  ASP761  ALA762  ILE779  LEU786  VAL792 
 PHE793  MET794  SER795  GLU796  ALA797  LYS798  CYS799  TRP800  GLU811  SER814 

> <Gold.Protein.RotatedAtoms>
  152.4637  134.5124  159.9757 H   0  0  0  0  0  0  0  0  0  0  0  0  # atno 6907 bound_to 6896
  151.5167  133.3468  159.2902 H   0  0  0  0  0  0  0  0  0  0  0  0  # atno 6908 bound_to 6896
  150.8612  134.7993  159.7146 H   0  0  0  0  0  0  0  0  0  0  0  0  # atno 6909 bound_to 6896
  146.2414  140.1459  142.8334 H   0  0  0  0  0  0  0  0  0  0  0  0  # atno 7974 bound_to 7965
  154.3997  140.1422  156.3686 H   0  0  0  0  0  0  0  0  0  0  0  0  # atno 8008 bound_to 7997
  155.8114  140.3472  155.5439 H   0  0  0  0  0  0  0  0  0  0  0  0  # atno 8009 bound_to 7997
  155.8382  140.0922  157.1741 H   0  0  0  0  0  0  0  0  0  0  0  0  # atno 8010 bound_to 7997
  139.5590  144.6868  151.4099 H   0  0  0  0  0  0  0  0  0  0  0  0  # atno 10167 bound_to 10162
  156.3611  130.4324  149.7623 H   0  0  0  0  0  0  0  0  0  0  0  0  # atno 10718 bound_to 10713
  154.8753  135.3843  154.4181 H   0  0  0  0  0  0  0  0  0  0  0  0  # atno 10763 bound_to 10752
  153.4887  135.7030  153.5901 H   0  0  0  0  0  0  0  0  0  0  0  0  # atno 10764 bound_to 10752
  153.4284  135.3884  155.2122 H   0  0  0  0  0  0  0  0  0  0  0  0  # atno 10765 bound_to 10752
  139.9040  134.9597  156.7192 H   0  0  0  0  0  0  0  0  0  0  0  0  # atno 11005 bound_to 11000
  145.0208  140.8792  143.5168 LP  0  0  0  0  0  0  0  0  0  0  0  0  # atno 17320 bound_to 7965
  145.1507  139.2516  143.5442 LP  0  0  0  0  0  0  0  0  0  0  0  0  # atno 17321 bound_to 7965
  140.6867  143.7958  150.7196 LP  0  0  0  0  0  0  0  0  0  0  0  0  # atno 17342 bound_to 10162
  140.1427  143.4426  152.2183 LP  0  0  0  0  0  0  0  0  0  0  0  0  # atno 17343 bound_to 10162
  156.4786  130.8030  151.3046 LP  0  0  0  0  0  0  0  0  0  0  0  0  # atno 17370 bound_to 10713
  157.7473  131.0013  150.2957 LP  0  0  0  0  0  0  0  0  0  0  0  0  # atno 17371 bound_to 10713
  140.7014  133.9303  155.8027 LP  0  0  0  0  0  0  0  0  0  0  0  0  # atno 17394 bound_to 11000
  141.0368  134.0677  157.3949 LP  0  0  0  0  0  0  0  0  0  0  0  0  # atno 17395 bound_to 11000

$$$$
