AV-unprocessed.smi:1780|AV-procd|sdf|7183|dock3
  -GOLD-   22720 8423D 1   1.00000     0.00000
 Structure written by MMmdl.
 43 44  0  0  0  0  0  0  0  0  1 V2000
  150.6291  129.2858  154.4232 C   0  0  0  0  0  0  0  0  0  0  0  0
  149.3676  130.1572  154.4435 C   0  0  0  0  0  0  0  0  0  0  0  0
  149.6666  131.5293  154.8042 N   0  0  0  0  0  0  0  0  0  0  0  0
  149.5287  132.6655  154.0316 C   0  0  0  0  0  0  0  0  0  0  0  0
  149.9368  133.7013  154.8170 C   0  0  0  0  0  0  0  0  0  0  0  0
  149.9636  135.0602  154.4153 N   0  0  0  0  0  0  0  0  0  0  0  0
  150.7129  136.0455  154.9351 C   0  0  0  0  0  0  0  0  0  0  0  0
  151.4733  135.9234  155.8953 O   0  0  0  0  0  0  0  0  0  0  0  0
  150.5368  137.1944  154.2661 N   0  0  0  0  0  0  0  0  0  0  0  0
  151.2108  138.4590  154.5548 C   0  0  0  0  0  0  0  0  0  0  0  0
  150.2935  139.4951  155.2661 C   0  0  2  0  0  0  0  0  0  0  0  0
  149.4110  140.2065  154.2088 C   0  0  0  0  0  0  0  0  0  0  0  0
  151.0431  140.4488  156.1182 N   0  0  0  0  0  0  0  0  0  0  0  0
  151.6278  139.8151  157.3058 C   0  0  0  0  0  0  0  0  0  0  0  0
  152.3806  140.8101  158.2060 C   0  0  0  0  0  0  0  0  0  0  0  0
  151.5072  141.8607  158.5951 O   0  0  0  0  0  0  0  0  0  0  0  0
  150.9801  142.5560  157.4742 C   0  0  0  0  0  0  0  0  0  0  0  0
  150.2159  141.5749  156.5684 C   0  0  0  0  0  0  0  0  0  0  0  0
  150.3130  133.1205  156.0612 C   0  0  0  0  0  0  0  0  0  0  0  0
  150.1459  131.8066  156.0420 N   0  0  0  0  0  0  0  0  0  0  0  0
  150.3844  128.2563  154.1618 H   0  0  0  0  0  0  0  0  0  0  0  0
  151.1160  129.2754  155.3987 H   0  0  0  0  0  0  0  0  0  0  0  0
  151.3508  129.6512  153.6920 H   0  0  0  0  0  0  0  0  0  0  0  0
  148.8843  130.1484  153.4657 H   0  0  0  0  0  0  0  0  0  0  0  0
  148.6466  129.7576  155.1574 H   0  0  0  0  0  0  0  0  0  0  0  0
  149.1613  132.6368  153.0164 H   0  0  0  0  0  0  0  0  0  0  0  0
  149.3700  135.3012  153.6353 H   0  0  0  0  0  0  0  0  0  0  0  0
  149.8906  137.1956  153.4908 H   0  0  0  0  0  0  0  0  0  0  0  0
  152.0501  138.1785  155.1881 H   0  0  0  0  0  0  0  0  0  0  0  0
  151.6418  138.8961  153.6525 H   0  0  0  0  0  0  0  0  0  0  0  0
  149.6188  138.9300  155.9112 H   0  0  0  0  0  0  0  0  0  0  0  0
  148.8698  139.5028  153.5785 H   0  0  0  0  0  0  0  0  0  0  0  0
  150.0127  140.8381  153.5541 H   0  0  0  0  0  0  0  0  0  0  0  0
  148.6367  140.8259  154.6579 H   0  0  0  0  0  0  0  0  0  0  0  0
  150.8460  139.3219  157.8854 H   0  0  0  0  0  0  0  0  0  0  0  0
  152.3445  139.0481  157.0196 H   0  0  0  0  0  0  0  0  0  0  0  0
  152.7507  140.3066  159.0990 H   0  0  0  0  0  0  0  0  0  0  0  0
  153.2483  141.2207  157.6871 H   0  0  0  0  0  0  0  0  0  0  0  0
  150.3139  143.3437  157.8262 H   0  0  0  0  0  0  0  0  0  0  0  0
  151.7870  143.0424  156.9239 H   0  0  0  0  0  0  0  0  0  0  0  0
  149.8510  142.1488  155.7190 H   0  0  0  0  0  0  0  0  0  0  0  0
  149.3396  141.2007  157.0999 H   0  0  0  0  0  0  0  0  0  0  0  0
  150.6934  133.5854  156.9584 H   0  0  0  0  0  0  0  0  0  0  0  0
  1  2  1  0  0  0  0
  1 21  1  0  0  0  0
  1 22  1  0  0  0  0
  1 23  1  0  0  0  0
  2  3  1  0  0  0  0
  2 24  1  0  0  0  0
  2 25  1  0  0  0  0
  3 20  1  0  0  0  0
  3  4  1  0  0  0  0
  4  5  2  0  0  0  0
  4 26  1  0  0  0  0
  5  6  1  0  0  0  0
  5 19  1  0  0  0  0
  6  7  1  0  0  0  0
  6 27  1  0  0  0  0
  7  8  2  0  0  0  0
  7  9  1  0  0  0  0
  9 10  1  0  0  0  0
  9 28  1  0  0  0  0
 10 11  1  0  0  0  0
 10 29  1  0  0  0  0
 10 30  1  0  0  0  0
 11 12  1  0  0  0  0
 11 13  1  0  0  0  0
 11 31  1  0  0  0  0
 12 32  1  0  0  0  0
 12 33  1  0  0  0  0
 12 34  1  0  0  0  0
 13 18  1  0  0  0  0
 13 14  1  0  0  0  0
 14 15  1  0  0  0  0
 14 35  1  0  0  0  0
 14 36  1  0  0  0  0
 15 16  1  0  0  0  0
 15 37  1  0  0  0  0
 15 38  1  0  0  0  0
 16 17  1  0  0  0  0
 17 18  1  0  0  0  0
 17 39  1  0  0  0  0
 17 40  1  0  0  0  0
 18 41  1  0  0  0  0
 18 42  1  0  0  0  0
 19 20  2  0  0  0  0
 19 43  1  0  0  0  0
M  END
> <s_m_source_file>
AV-unprocessed.smi

> <i_m_source_file_index>
1780

> <i_lp_mmshare_version>
43012

> <i_f3d_flags>
0

> <s_epik_input>
W0NIM11bQ0gyXW4xW2NIXWMoW2NIXW4xKVtOSF1DKD1PKVtOSF1bQ0gyXVtDQEhdKFtDSDNdKU4yW0NIMl1bQ0gyXU9bQ0gyXVtDSDJdMg==

> <s_epik_cmdline>
J2VwaWtfcHl0aG9uJywgJy1waCcsICc3LjAnLCAnLXRuJywgJzgnLCAnLW1hJywgJzIwMCcsICctbWV0YWxfYmluZGluZycsICctaW1hZScsICc8aW5maWxlLm1hZT4nLCAnLW9tYWUnLCAnPG91dGZpbGUubWFlPic=

> <r_lp_tautomer_probability>
1

> <r_epik_Ionization_Penalty>
0.242902

> <r_epik_Ionization_Penalty_Charging>
0

> <r_epik_Ionization_Penalty_Neutral>
0.242902

> <r_epik_State_Penalty>
0.233765

> <r_epik_Charging_Adjusted_Penalty>
0.233765

> <i_epik_Tot_Q>
0

> <i_epik_Tot_abs_Q>
0

> <r_epik_Metal_State_Penalty>
0.233759

> <b_epik_Metal_Only>
0

> <s_lp_Force_Field>
OPLS_2005

> <r_lp_Energy>
32.6304

> <b_lp_Chiralities_Consistent>
1

> <s_lp_Variant>
AV-unprocessed.smi:1780-1

> <Gold.Version>
5.8.1

> <Gold.Id.Protein>
6NUR|6NUR_protein|mol2

> <Gold.PLP.Fitness>
43.0715

> <Gold.PLP.PLP>
-35.4217

> <Gold.PLP.part.hbond>
-4.2720

> <Gold.PLP.part.metal>
0.0000

> <Gold.PLP.part.buried>
-2.8699

> <Gold.PLP.part.nonpolar>
-27.9548

> <Gold.PLP.part.repulsive>
0.1939

> <Gold.PLP.ligand.clash>
0.0000

> <Gold.PLP.ligand.torsion>
0.6581

> <Gold.PLP.Chemscore.Hbond>
2.9760

> <Gold.PLP.Chemscore.CHOScore>
0.0000

> <Gold.PLP.Chemscore.Metal>
0.0000

> <Gold.Chemscore.Hbonds>
donor molecule, donor type, donor heavy atom, donor atom, acceptor molecule, acceptor atom, score
      L1  H     6    27       P1  7948  0.95
      L1  H     9    28       P1  7948  0.89
      P1  H 10752 10765       L1     8  1.00

> <Gold.PLP.Chemscore.Internal.Correction>
0.0381

> <Gold.Rescore>
     Score         DG    S(hbond)    S(metal)    S(lipo)     H(rot)  DE(clash)    DE(int)     intcor
     15.25     -16.79       2.09        0.00      72.39       1.61       0.11       1.42       ----

> <Gold.Chemscore.Fitness>
15.2525

> <Gold.Chemscore.DG>
-16.7905

> <Gold.Chemscore.ZeroCoef>
-5.4800

> <Gold.Chemscore.Hbond>
2.0860

> <Gold.Chemscore.Metal>
0.0000

> <Gold.Chemscore.Lipo>
72.3869

> <Gold.Chemscore.Internal_Hbond>
0.0000

> <Gold.Chemscore.DEClash>
0.1132

> <Gold.Chemscore.DEInternal>
1.4249

> <Gold.Chemscore.Rot>
1.6117

> <Gold.Chemscore.Internal.Correction>
   9.000000E+99

> <Gold.Chemscore.Hbonds>
donor molecule, donor type, donor heavy atom, donor atom, acceptor molecule, acceptor atom, score
      L1  H     6    27       P1  7948  0.20
      L1  H     9    28       P1  7948  0.41
      P1  H 10752 10765       L1     8  0.30

> <Gold.Chemscore.Hbond.Weighted>
-6.9672

> <Gold.Chemscore.Metal.Weighted>
-0.0000

> <Gold.Chemscore.Lipo.Weighted>
-8.4693

> <Gold.Chemscore.Internal_Hbond.Weighted>
0.0000

> <Gold.Chemscore.DEClash.Weighted>
0.1132

> <Gold.Chemscore.DEInternal.Weighted>
1.4249

> <Gold.Chemscore.Rot.Weighted>
4.1260

> <Gold.Chemscore.Internal.Correction.Weighted>
   9.000000E+99

> <Gold.Protein.RotatedTorsions>
[ 6907 6896 6895 6894 ] final  -75.63 input  -60.11 | X-H torsion
[ 7974 7965 7964 7962 ] final   96.12 input  175.53 | X-H torsion
[ 8008 7997 7996 7995 ] final  -85.39 input   59.86 | X-H torsion
[ 10167 10162 10161 10158 ] final  147.68 input  -65.29 | X-H torsion
[ 10718 10713 10712 10709 ] final  -68.43 input   66.30 | X-H torsion
[ 10763 10752 10751 10750 ] final -152.83 input  -60.55 | X-H torsion
[ 11005 11000 10999 10996 ] final -158.90 input  -57.11 | X-H torsion

> <Gold.Protein.ActiveResidues>
 VAL166  LYS551  ARG553  GLY616  TRP617  ASP618  TYR619  PRO620  LYS621  CYS622 
 ASP623  PHE694  ASN695  SER759  ASP760  ASP761  ALA762  ILE779  LEU786  VAL792 
 PHE793  MET794  SER795  GLU796  ALA797  LYS798  CYS799  TRP800  GLU811  SER814 

> <Gold.Protein.RotatedAtoms>
  150.7052  134.4692  159.5416 H   0  0  0  0  0  0  0  0  0  0  0  0  # atno 6907 bound_to 6896
  152.2351  134.8281  160.0477 H   0  0  0  0  0  0  0  0  0  0  0  0  # atno 6908 bound_to 6896
  151.9083  133.3519  159.3891 H   0  0  0  0  0  0  0  0  0  0  0  0  # atno 6909 bound_to 6896
  145.4431  139.2299  143.3081 H   0  0  0  0  0  0  0  0  0  0  0  0  # atno 7974 bound_to 7965
  154.6403  140.0592  156.9837 H   0  0  0  0  0  0  0  0  0  0  0  0  # atno 8008 bound_to 7997
  155.1528  140.3275  155.4409 H   0  0  0  0  0  0  0  0  0  0  0  0  # atno 8009 bound_to 7997
  156.2527  140.1944  156.6639 H   0  0  0  0  0  0  0  0  0  0  0  0  # atno 8010 bound_to 7997
  139.4886  144.5737  151.7006 H   0  0  0  0  0  0  0  0  0  0  0  0  # atno 10167 bound_to 10162
  156.0506  130.4294  150.1999 H   0  0  0  0  0  0  0  0  0  0  0  0  # atno 10718 bound_to 10713
  154.7968  135.3227  154.7647 H   0  0  0  0  0  0  0  0  0  0  0  0  # atno 10763 bound_to 10752
  153.8323  135.6878  153.4817 H   0  0  0  0  0  0  0  0  0  0  0  0  # atno 10764 bound_to 10752
  153.1664  135.4640  154.9785 H   0  0  0  0  0  0  0  0  0  0  0  0  # atno 10765 bound_to 10752
  140.6486  134.4475  157.5234 H   0  0  0  0  0  0  0  0  0  0  0  0  # atno 11005 bound_to 11000
  146.2545  140.5182  142.8879 LP  0  0  0  0  0  0  0  0  0  0  0  0  # atno 17320 bound_to 7965
  144.8109  140.6383  143.6416 LP  0  0  0  0  0  0  0  0  0  0  0  0  # atno 17321 bound_to 7965
  140.5329  144.0702  150.6060 LP  0  0  0  0  0  0  0  0  0  0  0  0  # atno 17342 bound_to 10162
  140.3698  143.2861  152.0291 LP  0  0  0  0  0  0  0  0  0  0  0  0  # atno 17343 bound_to 10162
  157.0083  130.9943  151.3373 LP  0  0  0  0  0  0  0  0  0  0  0  0  # atno 17370 bound_to 10713
  157.5428  130.8131  149.8049 LP  0  0  0  0  0  0  0  0  0  0  0  0  # atno 17371 bound_to 10713
  139.9054  134.8461  156.1727 LP  0  0  0  0  0  0  0  0  0  0  0  0  # atno 17394 bound_to 11000
  141.0554  133.6868  156.1850 LP  0  0  0  0  0  0  0  0  0  0  0  0  # atno 17395 bound_to 11000

$$$$
