AV-unprocessed.smi:3003|AV-procd|sdf|11437|dock9
  -GOLD-   2272016363D 1   1.00000     0.00000
 Structure written by MMmdl.
 41 42  0  0  0  0  0  0  0  0  1 V2000
  145.6908  137.3156  152.2508 C   0  0  0  0  0  0  0  0  0  0  0  0
  146.6126  138.7752  151.6960 S   0  0  0  0  0  0  0  0  0  0  0  0
  146.8702  139.6441  153.2725 C   0  0  2  0  0  0  0  0  0  0  0  0
  147.1181  141.1393  153.0187 C   0  0  0  0  0  0  0  0  0  0  0  0
  148.0156  139.0299  154.0864 C   0  0  0  0  0  0  0  0  0  0  0  0
  147.7918  138.5111  155.1808 O   0  0  0  0  0  0  0  0  0  0  0  0
  149.2426  139.1072  153.5474 N   0  0  0  0  0  0  0  0  0  0  0  0
  150.4615  138.6131  154.1782 C   0  0  0  0  0  0  0  0  0  0  0  0
  150.9278  139.4751  155.3398 C   0  0  0  0  0  0  0  0  0  0  0  0
  150.2540  140.6626  155.6882 C   0  0  0  0  0  0  0  0  0  0  0  0
  150.7255  141.4218  156.7758 C   0  0  0  0  0  0  0  0  0  0  0  0
  151.8664  140.9770  157.4858 C   0  0  0  0  0  0  0  0  0  0  0  0
  152.3576  141.7217  158.5803 N   0  0  0  0  0  0  0  0  0  0  0  0
  152.6798  140.9519  159.7794 C   0  0  0  0  0  0  0  0  0  0  0  0
  153.4869  141.8120  160.7670 C   0  0  0  0  0  0  0  0  0  0  0  0
  152.7765  143.0115  161.0555 O   0  0  0  0  0  0  0  0  0  0  0  0
  152.5713  143.7991  159.8877 C   0  0  0  0  0  0  0  0  0  0  0  0
  151.7298  143.0095  158.8712 C   0  0  0  0  0  0  0  0  0  0  0  0
  152.5113  139.8333  157.1454 N   0  0  0  0  0  0  0  0  0  0  0  0
  152.0546  139.1088  156.1023 C   0  0  0  0  0  0  0  0  0  0  0  0
  145.3962  136.7116  151.3929 H   0  0  0  0  0  0  0  0  0  0  0  0
  144.7910  137.6125  152.7893 H   0  0  0  0  0  0  0  0  0  0  0  0
  146.3047  136.6994  152.9062 H   0  0  0  0  0  0  0  0  0  0  0  0
  145.9449  139.5541  153.8436 H   0  0  0  0  0  0  0  0  0  0  0  0
  147.2772  141.6802  153.9523 H   0  0  0  0  0  0  0  0  0  0  0  0
  146.2625  141.5951  152.5193 H   0  0  0  0  0  0  0  0  0  0  0  0
  147.9922  141.3002  152.3860 H   0  0  0  0  0  0  0  0  0  0  0  0
  149.3396  139.5478  152.6441 H   0  0  0  0  0  0  0  0  0  0  0  0
  150.3220  137.5808  154.5038 H   0  0  0  0  0  0  0  0  0  0  0  0
  151.2512  138.5947  153.4269 H   0  0  0  0  0  0  0  0  0  0  0  0
  149.3849  140.9877  155.1353 H   0  0  0  0  0  0  0  0  0  0  0  0
  150.2009  142.3217  157.0594 H   0  0  0  0  0  0  0  0  0  0  0  0
  151.7500  140.6232  160.2459 H   0  0  0  0  0  0  0  0  0  0  0  0
  153.2501  140.0544  159.5446 H   0  0  0  0  0  0  0  0  0  0  0  0
  153.6493  141.2642  161.6952 H   0  0  0  0  0  0  0  0  0  0  0  0
  154.4720  142.0485  160.3613 H   0  0  0  0  0  0  0  0  0  0  0  0
  152.0574  144.7192  160.1655 H   0  0  0  0  0  0  0  0  0  0  0  0
  153.5314  144.0881  159.4571 H   0  0  0  0  0  0  0  0  0  0  0  0
  151.6257  143.5952  157.9569 H   0  0  0  0  0  0  0  0  0  0  0  0
  150.7277  142.8411  159.2676 H   0  0  0  0  0  0  0  0  0  0  0  0
  152.6052  138.2081  155.8745 H   0  0  0  0  0  0  0  0  0  0  0  0
  1  2  1  0  0  0  0
  1 21  1  0  0  0  0
  1 22  1  0  0  0  0
  1 23  1  0  0  0  0
  2  3  1  0  0  0  0
  3  4  1  0  0  0  0
  3  5  1  0  0  0  0
  3 24  1  0  0  0  0
  4 25  1  0  0  0  0
  4 26  1  0  0  0  0
  4 27  1  0  0  0  0
  5  6  2  0  0  0  0
  5  7  1  0  0  0  0
  7  8  1  0  0  0  0
  7 28  1  0  0  0  0
  8  9  1  0  0  0  0
  8 29  1  0  0  0  0
  8 30  1  0  0  0  0
  9 20  1  0  0  0  0
  9 10  2  0  0  0  0
 10 11  1  0  0  0  0
 10 31  1  0  0  0  0
 11 12  2  0  0  0  0
 11 32  1  0  0  0  0
 12 13  1  0  0  0  0
 12 19  1  0  0  0  0
 13 18  1  0  0  0  0
 13 14  1  0  0  0  0
 14 15  1  0  0  0  0
 14 33  1  0  0  0  0
 14 34  1  0  0  0  0
 15 16  1  0  0  0  0
 15 35  1  0  0  0  0
 15 36  1  0  0  0  0
 16 17  1  0  0  0  0
 17 18  1  0  0  0  0
 17 37  1  0  0  0  0
 17 38  1  0  0  0  0
 18 39  1  0  0  0  0
 18 40  1  0  0  0  0
 19 20  2  0  0  0  0
 20 41  1  0  0  0  0
M  END
> <s_m_source_file>
AV-unprocessed.smi

> <i_m_source_file_index>
3003

> <i_lp_mmshare_version>
43012

> <i_f3d_flags>
0

> <s_epik_input>
W0NIM11TW0NASF0oW0NIM10pQyg9TylbTkhdW0NIMl1jMVtjSF1bY0hdYyhuW2NIXTEpTjJbQ0gyXVtDSDJdT1tDSDJdW0NIMl0y

> <s_epik_cmdline>
J2VwaWtfcHl0aG9uJywgJy1waCcsICc3LjAnLCAnLXRuJywgJzgnLCAnLW1hJywgJzIwMCcsICctbWV0YWxfYmluZGluZycsICctaW1hZScsICc8aW5maWxlLm1hZT4nLCAnLW9tYWUnLCAnPG91dGZpbGUubWFlPic=

> <r_lp_tautomer_probability>
1

> <r_epik_Ionization_Penalty>
0.00417642

> <r_epik_Ionization_Penalty_Charging>
0

> <r_epik_Ionization_Penalty_Neutral>
0.00417642

> <r_epik_State_Penalty>
0.00299889

> <r_epik_Charging_Adjusted_Penalty>
0.00299889

> <i_epik_Tot_Q>
0

> <i_epik_Tot_abs_Q>
0

> <r_epik_Metal_State_Penalty>
-0

> <b_epik_Metal_Only>
0

> <s_lp_Force_Field>
OPLS_2005

> <r_lp_Energy>
16.2796

> <b_lp_Chiralities_Consistent>
1

> <s_lp_Variant>
AV-unprocessed.smi:3003-1

> <Gold.Version>
5.8.1

> <Gold.Id.Protein>
6NUR|6NUR_protein|mol2

> <Gold.PLP.Fitness>
47.9058

> <Gold.PLP.PLP>
-42.5169

> <Gold.PLP.part.hbond>
-1.9882

> <Gold.PLP.part.metal>
0.0000

> <Gold.PLP.part.buried>
-4.8259

> <Gold.PLP.part.nonpolar>
-35.8665

> <Gold.PLP.part.repulsive>
0.2330

> <Gold.PLP.ligand.clash>
0.0000

> <Gold.PLP.ligand.torsion>
0.4949

> <Gold.PLP.Chemscore.Hbond>
2.0000

> <Gold.PLP.Chemscore.CHOScore>
0.0000

> <Gold.PLP.Chemscore.Metal>
0.0000

> <Gold.Chemscore.Hbonds>
donor molecule, donor type, donor heavy atom, donor atom, acceptor molecule, acceptor atom, score
      L1  H     7    28       P1  7957  1.00
      P1  H  7997  8010       L1    19  1.00

> <Gold.PLP.Chemscore.Internal.Correction>
0.3786

> <Gold.Rescore>
     Score         DG    S(hbond)    S(metal)    S(lipo)     H(rot)  DE(clash)    DE(int)     intcor
     19.07     -19.48       1.68        0.00     108.35       1.67       0.12       0.29       ----

> <Gold.Chemscore.Fitness>
19.0692

> <Gold.Chemscore.DG>
-19.4832

> <Gold.Chemscore.ZeroCoef>
-5.4800

> <Gold.Chemscore.Hbond>
1.6758

> <Gold.Chemscore.Metal>
0.0000

> <Gold.Chemscore.Lipo>
108.3491

> <Gold.Chemscore.Internal_Hbond>
0.0000

> <Gold.Chemscore.DEClash>
0.1214

> <Gold.Chemscore.DEInternal>
0.2926

> <Gold.Chemscore.Rot>
1.6682

> <Gold.Chemscore.Internal.Correction>
   9.000000E+99

> <Gold.Chemscore.Hbonds>
donor molecule, donor type, donor heavy atom, donor atom, acceptor molecule, acceptor atom, score
      L1  H     7    28       P1  7957  0.98
      P1  H  7997  8010       L1    19  0.43

> <Gold.Chemscore.Hbond.Weighted>
-5.5971

> <Gold.Chemscore.Metal.Weighted>
-0.0000

> <Gold.Chemscore.Lipo.Weighted>
-12.6768

> <Gold.Chemscore.Internal_Hbond.Weighted>
0.0000

> <Gold.Chemscore.DEClash.Weighted>
0.1214

> <Gold.Chemscore.DEInternal.Weighted>
0.2926

> <Gold.Chemscore.Rot.Weighted>
4.2707

> <Gold.Chemscore.Internal.Correction.Weighted>
   9.000000E+99

> <Gold.Protein.RotatedTorsions>
[ 6907 6896 6895 6894 ] final  113.60 input  -60.11 | X-H torsion
[ 7974 7965 7964 7962 ] final  -89.54 input  175.53 | X-H torsion
[ 8008 7997 7996 7995 ] final   49.12 input   59.86 | X-H torsion
[ 10167 10162 10161 10158 ] final   85.75 input  -65.29 | X-H torsion
[ 10718 10713 10712 10709 ] final  133.34 input   66.30 | X-H torsion
[ 10763 10752 10751 10750 ] final   30.92 input  -60.55 | X-H torsion
[ 11005 11000 10999 10996 ] final  100.87 input  -57.11 | X-H torsion

> <Gold.Protein.ActiveResidues>
 VAL166  LYS551  ARG553  GLY616  TRP617  ASP618  TYR619  PRO620  LYS621  CYS622 
 ASP623  PHE694  ASN695  SER759  ASP760  ASP761  ALA762  ILE779  LEU786  VAL792 
 PHE793  MET794  SER795  GLU796  ALA797  LYS798  CYS799  TRP800  GLU811  SER814 

> <Gold.Protein.RotatedAtoms>
  152.4851  133.8353  159.7124 H   0  0  0  0  0  0  0  0  0  0  0  0  # atno 6907 bound_to 6896
  150.8932  133.7206  159.2905 H   0  0  0  0  0  0  0  0  0  0  0  0  # atno 6908 bound_to 6896
  151.4672  135.1047  159.9793 H   0  0  0  0  0  0  0  0  0  0  0  0  # atno 6909 bound_to 6896
  145.4384  140.9558  143.2089 H   0  0  0  0  0  0  0  0  0  0  0  0  # atno 7974 bound_to 7965
  155.3970  140.3436  155.4254 H   0  0  0  0  0  0  0  0  0  0  0  0  # atno 8008 bound_to 7997
  156.1525  140.1575  156.8779 H   0  0  0  0  0  0  0  0  0  0  0  0  # atno 8009 bound_to 7997
  154.5065  140.0801  156.7886 H   0  0  0  0  0  0  0  0  0  0  0  0  # atno 8010 bound_to 7997
  139.8945  144.6366  150.8703 H   0  0  0  0  0  0  0  0  0  0  0  0  # atno 10167 bound_to 10162
  157.4783  131.1084  150.9715 H   0  0  0  0  0  0  0  0  0  0  0  0  # atno 10718 bound_to 10713
  153.0344  135.6452  154.1119 H   0  0  0  0  0  0  0  0  0  0  0  0  # atno 10763 bound_to 10752
  154.0836  135.2871  155.3287 H   0  0  0  0  0  0  0  0  0  0  0  0  # atno 10764 bound_to 10752
  154.6513  135.5425  153.7969 H   0  0  0  0  0  0  0  0  0  0  0  0  # atno 10765 bound_to 10752
  139.8772  134.9159  156.4821 H   0  0  0  0  0  0  0  0  0  0  0  0  # atno 11005 bound_to 11000
  144.8137  139.5915  143.7018 LP  0  0  0  0  0  0  0  0  0  0  0  0  # atno 17320 bound_to 7965
  146.2569  139.6323  142.9388 LP  0  0  0  0  0  0  0  0  0  0  0  0  # atno 17321 bound_to 7965
  140.7720  143.3484  151.2064 LP  0  0  0  0  0  0  0  0  0  0  0  0  # atno 17342 bound_to 10162
  139.7080  143.9423  152.2935 LP  0  0  0  0  0  0  0  0  0  0  0  0  # atno 17343 bound_to 10162
  157.0457  130.5767  149.5362 LP  0  0  0  0  0  0  0  0  0  0  0  0  # atno 17370 bound_to 10713
  156.0108  130.5199  150.7982 LP  0  0  0  0  0  0  0  0  0  0  0  0  # atno 17371 bound_to 10713
  140.8719  133.7982  155.9374 LP  0  0  0  0  0  0  0  0  0  0  0  0  # atno 17394 bound_to 11000
  140.8943  134.2456  157.5077 LP  0  0  0  0  0  0  0  0  0  0  0  0  # atno 17395 bound_to 11000

$$$$
