#       Name:                AV-unprocessed.smi:2004
#       Creating user name   scv26
#       Creation time:       Fri Mar 27 10:35:50 2020


#       File generated by GOLD software.
#

@<TRIPOS>MOLECULE
AV-unprocessed.smi:2004
    44    46     1
SMALL
NO_CHARGES


@<TRIPOS>ATOM
      1 ****        -0.2331  -1.8334   4.2366 O.3            1 S1                 0.0000
      2 ****        -0.3224  -1.3235   2.9232 C.3            1 S1                 0.0000
      3 ****         1.0935  -0.9782   2.4216 C.3            1 S1                 0.0000
      4 ****         1.0442  -0.8773   1.0092 O.3            1 S1                 0.0000
      5 ****         2.2202  -0.3652   0.4132 C.3            1 S1                 0.0000
      6 ****         1.9892  -0.1052  -1.0618 C.ar           1 S1                 0.0000
      7 ****         1.5241  -1.1457  -1.8929 C.ar           1 S1                 0.0000
      8 ****         1.2827  -0.9065  -3.2595 C.ar           1 S1                 0.0000
      9 ****         1.5076   0.3740  -3.8007 C.ar           1 S1                 0.0000
     10 ****         1.9770   1.4142  -2.9753 C.ar           1 S1                 0.0000
     11 ****         2.2199   1.1749  -1.6085 C.ar           1 S1                 0.0000
     12 ****        -1.3254  -0.1427   2.9222 C.3            1 S1                 0.0000
     13 ****        -1.2492   0.7106   1.7274 N.pl3          1 S1                 0.0000
     14 ****        -0.7302   1.9602   1.5797 C.2            1 S1                 0.0000
     15 ****        -0.8519   2.3046   0.2679 N.pl3          1 S1                 1.0000
     16 ****        -1.4627   1.2628  -0.4328 C.ar           1 S1                 0.0000
     17 ****        -1.7849   1.1375  -1.7803 C.ar           1 S1                 0.0000
     18 ****        -2.4013  -0.0685  -2.1732 C.ar           1 S1                 0.0000
     19 ****        -2.6805  -1.0889  -1.2406 C.ar           1 S1                 0.0000
     20 ****        -2.3524  -0.9495   0.1242 C.ar           1 S1                 0.0000
     21 ****        -1.7352   0.2416   0.5020 C.ar           1 S1                 0.0000
     22 ****         0.1251  -1.1624   4.7973 H              1 S1                 0.0000
     23 ****        -0.7150  -2.1304   2.3039 H              1 S1                 0.0000
     24 ****         1.4417  -0.0504   2.8784 H              1 S1                 0.0000
     25 ****         1.8028  -1.7637   2.6868 H              1 S1                 0.0000
     26 ****         2.5152   0.5639   0.9036 H              1 S1                 0.0000
     27 ****         3.0393  -1.0754   0.5348 H              1 S1                 0.0000
     28 ****         1.3445  -2.1282  -1.4814 H              1 S1                 0.0000
     29 ****         0.9244  -1.7050  -3.8922 H              1 S1                 0.0000
     30 ****         1.3221   0.5578  -4.8487 H              1 S1                 0.0000
     31 ****         2.1506   2.3958  -3.3912 H              1 S1                 0.0000
     32 ****         2.5750   1.9798  -0.9819 H              1 S1                 0.0000
     33 ****        -2.3508  -0.4980   3.0316 H              1 S1                 0.0000
     34 ****        -1.1303   0.5078   3.7763 H              1 S1                 0.0000
     35 ****        -0.2843   2.5617   2.3585 H              1 S1                 0.0000
     36 ****        -1.5702   1.9168  -2.4968 H              1 S1                 0.0000
     37 ****        -2.6648  -0.2135  -3.2109 H              1 S1                 0.0000
     38 ****        -3.1540  -1.9989  -1.5794 H              1 S1                 0.0000
     39 ****        -2.5660  -1.7377   0.8305 H              1 S1                 0.0000
     40 ****        -0.5352   3.1840  -0.1195 H              1 S1                 0.0000
     41 ****         0.3645  -2.6351   4.2467 LP             1 S1                 0.0000
     42 ****        -1.1433  -2.0920   4.5600 LP             1 S1                 0.0000
     43 ****         0.2838  -0.2751   0.7660 LP             1 S1                 0.0000
     44 ****         0.8783  -1.7905   0.6370 LP             1 S1                 0.0000
@<TRIPOS>BOND
    1    1    2 1     
    2    1   22 1     
    3    2    3 1     
    4    2   12 1     
    5    2   23 1     
    6    3    4 1     
    7    3   24 1     
    8    3   25 1     
    9    4    5 1     
   10    5    6 1     
   11    5   26 1     
   12    5   27 1     
   13    6   11 ar    
   14    6    7 ar    
   15    7    8 ar    
   16    7   28 1     
   17    8    9 ar    
   18    8   29 1     
   19    9   10 ar    
   20    9   30 1     
   21   10   11 ar    
   22   10   31 1     
   23   11   32 1     
   24   12   13 1     
   25   12   33 1     
   26   12   34 1     
   27   13   21 1     
   28   13   14 1     
   29   14   15 2     
   30   14   35 1     
   31   15   16 1     
   32   15   40 1     
   33   16   21 ar    
   34   16   17 ar    
   35   17   18 ar    
   36   17   36 1     
   37   18   19 ar    
   38   18   37 1     
   39   19   20 ar    
   40   19   38 1     
   41   20   21 ar    
   42   20   39 1     
   43    1   41 1     
   44    1   42 1     
   45    4   43 1     
   46    4   44 1     
@<TRIPOS>SUBSTRUCTURE
      1 S1             1
@<TRIPOS>SET
LONE_PAIRS      STATIC     ATOMS    <user>   **** ""
4 41 42 43 44
DONOR_HYDROGENS      STATIC     ATOMS    <user>   **** ""
2 22 40
ATOM$BLUE        STATIC     ATOMS    COLORGROUP SYSTEM
4 41 42 43 44
ATOM$RED        STATIC     ATOMS    COLORGROUP SYSTEM
2 22 40
