AV-unprocessed.smi:706|AV-procd|sdf|3452|dock6
  -GOLD-   22720 0433D 1   1.00000     0.00000
 Structure written by MMmdl.
 27 27  0  0  0  0  0  0  0  0  1 V2000
  152.1657  143.8006  158.3061 C   0  0  0  0  0  0  0  0  0  0  0  0
  150.9748  143.0689  157.6832 C   0  0  0  0  0  0  0  0  0  0  0  0
  151.3714  141.7444  157.3596 O   0  0  0  0  0  0  0  0  0  0  0  0
  150.3956  141.0061  156.6386 C   0  0  0  0  0  0  0  0  0  0  0  0
  150.0150  141.7078  155.3216 C   0  0  0  0  0  0  0  0  0  0  0  0
  149.0956  140.9238  154.5242 N   0  0  0  0  0  0  0  0  0  0  0  0
  147.8201  141.3594  154.1557 C   0  0  0  0  0  0  0  0  0  0  0  0
  147.3882  142.6107  154.5587 N   0  0  0  0  0  0  0  0  0  0  0  0
  146.9978  140.5896  153.3983 C   0  0  0  0  0  0  0  0  0  0  0  0
  147.4089  139.2719  152.9265 C   0  0  0  0  0  0  0  0  0  0  0  0
  146.7193  138.5155  152.2464 O   0  0  0  0  0  0  0  0  0  0  0  0
  148.6981  138.8975  153.3052 N   0  0  0  0  0  0  0  0  0  0  0  0
  149.5695  139.6661  154.0741 C   0  0  0  0  0  0  0  0  0  0  0  0
  150.6955  139.2354  154.3260 O   0  0  0  0  0  0  0  0  0  0  0  0
  149.0301  137.9975  152.9902 H   0  0  0  0  0  0  0  0  0  0  0  0
  151.9001  144.8245  158.5697 H   0  0  0  0  0  0  0  0  0  0  0  0
  153.0060  143.8410  157.6128 H   0  0  0  0  0  0  0  0  0  0  0  0
  152.5026  143.2984  159.2135 H   0  0  0  0  0  0  0  0  0  0  0  0
  150.1427  143.0509  158.3885 H   0  0  0  0  0  0  0  0  0  0  0  0
  150.6423  143.6037  156.7936 H   0  0  0  0  0  0  0  0  0  0  0  0
  150.8306  140.0327  156.4094 H   0  0  0  0  0  0  0  0  0  0  0  0
  149.5191  140.8126  157.2591 H   0  0  0  0  0  0  0  0  0  0  0  0
  149.5647  142.6892  155.4762 H   0  0  0  0  0  0  0  0  0  0  0  0
  150.8942  141.8921  154.7056 H   0  0  0  0  0  0  0  0  0  0  0  0
  147.9693  143.2225  155.1141 H   0  0  0  0  0  0  0  0  0  0  0  0
  146.4648  142.9534  154.3346 H   0  0  0  0  0  0  0  0  0  0  0  0
  146.0147  140.9502  153.1284 H   0  0  0  0  0  0  0  0  0  0  0  0
  1  2  1  0  0  0  0
  1 16  1  0  0  0  0
  1 17  1  0  0  0  0
  1 18  1  0  0  0  0
  2  3  1  0  0  0  0
  2 19  1  0  0  0  0
  2 20  1  0  0  0  0
  3  4  1  0  0  0  0
  4  5  1  0  0  0  0
  4 21  1  0  0  0  0
  4 22  1  0  0  0  0
  5  6  1  0  0  0  0
  5 23  1  0  0  0  0
  5 24  1  0  0  0  0
  6 13  1  0  0  0  0
  6  7  1  0  0  0  0
  7  8  1  0  0  0  0
  7  9  2  0  0  0  0
  8 25  1  0  0  0  0
  8 26  1  0  0  0  0
  9 10  1  0  0  0  0
  9 27  1  0  0  0  0
 10 11  2  0  0  0  0
 10 12  1  0  0  0  0
 12 15  1  0  0  0  0
 12 13  1  0  0  0  0
 13 14  2  0  0  0  0
M  END
> <s_m_source_file>
AV-unprocessed.smi

> <i_m_source_file_index>
706

> <i_lp_mmshare_version>
43012

> <i_f3d_flags>
0

> <s_epik_input>
W0NIM11bQ0gyXU9bQ0gyXVtDSDJdbjFjKFtOSDJdKVtjSF1jKD1PKVtuSF1jMT1P

> <s_epik_cmdline>
J2VwaWtfcHl0aG9uJywgJy1waCcsICc3LjAnLCAnLXRuJywgJzgnLCAnLW1hJywgJzIwMCcsICctbWV0YWxfYmluZGluZycsICctaW1hZScsICc8aW5maWxlLm1hZT4nLCAnLW9tYWUnLCAnPG91dGZpbGUubWFlPic=

> <r_lp_tautomer_probability>
1

> <r_epik_Ionization_Penalty>
6.92057e-06

> <r_epik_Ionization_Penalty_Charging>
2.18399e-06

> <r_epik_Ionization_Penalty_Neutral>
4.73657e-06

> <r_epik_State_Penalty>
-0

> <r_epik_Charging_Adjusted_Penalty>
2.18399e-06

> <i_epik_Tot_Q>
0

> <i_epik_Tot_abs_Q>
0

> <r_epik_Metal_State_Penalty>
-0

> <b_epik_Metal_Only>
0

> <s_epik_Chemistry_Notes>
This compound has an imine and may undergo hydrolysis.

> <s_lp_Force_Field>
OPLS_2005

> <r_lp_Energy>
11.2939

> <b_lp_Chiralities_Consistent>
1

> <s_lp_Variant>
AV-unprocessed.smi:706-1

> <Gold.Version>
5.8.1

> <Gold.Id.Protein>
6NUR|6NUR_protein|mol2

> <Gold.PLP.Fitness>
34.8315

> <Gold.PLP.PLP>
-27.0401

> <Gold.PLP.part.hbond>
-4.0000

> <Gold.PLP.part.metal>
0.0000

> <Gold.PLP.part.buried>
-0.0657

> <Gold.PLP.part.nonpolar>
-23.7306

> <Gold.PLP.part.repulsive>
0.7468

> <Gold.PLP.ligand.clash>
0.0000

> <Gold.PLP.ligand.torsion>
0.0195

> <Gold.PLP.Chemscore.Hbond>
2.6088

> <Gold.PLP.Chemscore.CHOScore>
0.0000

> <Gold.PLP.Chemscore.Metal>
0.0000

> <Gold.Chemscore.Hbonds>
donor molecule, donor type, donor heavy atom, donor atom, acceptor molecule, acceptor atom, score
      L1  H     8    25       P1  8028  1.00
      L1  H    12    15       P1  7948  0.91
      P1  H  7989  7998       L1    14  0.61

> <Gold.PLP.Chemscore.Internal.Correction>
0.0042

> <Gold.Rescore>
     Score         DG    S(hbond)    S(metal)    S(lipo)     H(rot)  DE(clash)    DE(int)     intcor
      9.99     -11.24       1.80        0.00      44.44       2.12       1.12       0.14       ----

> <Gold.Chemscore.Fitness>
9.9857

> <Gold.Chemscore.DG>
-11.2447

> <Gold.Chemscore.ZeroCoef>
-5.4800

> <Gold.Chemscore.Hbond>
1.7980

> <Gold.Chemscore.Metal>
0.0000

> <Gold.Chemscore.Lipo>
44.4378

> <Gold.Chemscore.Internal_Hbond>
0.0000

> <Gold.Chemscore.DEClash>
1.1170

> <Gold.Chemscore.DEInternal>
0.1421

> <Gold.Chemscore.Rot>
2.1250

> <Gold.Chemscore.Internal.Correction>
   9.000000E+99

> <Gold.Chemscore.Hbonds>
donor molecule, donor type, donor heavy atom, donor atom, acceptor molecule, acceptor atom, score
      L1  H     8    25       P1  8028  0.78
      L1  H    12    15       P1  7948  0.86
      P1  H  7989  7998       L1    14  0.05

> <Gold.Chemscore.Hbond.Weighted>
-6.0054

> <Gold.Chemscore.Metal.Weighted>
-0.0000

> <Gold.Chemscore.Lipo.Weighted>
-5.1992

> <Gold.Chemscore.Internal_Hbond.Weighted>
0.0000

> <Gold.Chemscore.DEClash.Weighted>
1.1170

> <Gold.Chemscore.DEInternal.Weighted>
0.1421

> <Gold.Chemscore.Rot.Weighted>
5.4399

> <Gold.Chemscore.Internal.Correction.Weighted>
   9.000000E+99

> <Gold.Protein.RotatedTorsions>
[ 6907 6896 6895 6894 ] final  -54.98 input  -60.11 | X-H torsion
[ 7974 7965 7964 7962 ] final   92.80 input  175.53 | X-H torsion
[ 8008 7997 7996 7995 ] final  -80.14 input   59.86 | X-H torsion
[ 10167 10162 10161 10158 ] final  -49.76 input  -65.29 | X-H torsion
[ 10718 10713 10712 10709 ] final  129.38 input   66.30 | X-H torsion
[ 10763 10752 10751 10750 ] final  163.72 input  -60.55 | X-H torsion
[ 11005 11000 10999 10996 ] final    8.60 input  -57.11 | X-H torsion

> <Gold.Protein.ActiveResidues>
 VAL166  LYS551  ARG553  GLY616  TRP617  ASP618  TYR619  PRO620  LYS621  CYS622 
 ASP623  PHE694  ASN695  SER759  ASP760  ASP761  ALA762  ILE779  LEU786  VAL792 
 PHE793  MET794  SER795  GLU796  ALA797  LYS798  CYS799  TRP800  GLU811  SER814 

> <Gold.Protein.RotatedAtoms>
  150.8291  134.7535  159.6837 H   0  0  0  0  0  0  0  0  0  0  0  0  # atno 6907 bound_to 6896
  152.4398  134.5611  159.9904 H   0  0  0  0  0  0  0  0  0  0  0  0  # atno 6908 bound_to 6896
  151.5776  133.3344  159.3038 H   0  0  0  0  0  0  0  0  0  0  0  0  # atno 6909 bound_to 6896
  145.4874  139.2277  143.2849 H   0  0  0  0  0  0  0  0  0  0  0  0  # atno 7974 bound_to 7965
  154.5853  140.0667  156.9163 H   0  0  0  0  0  0  0  0  0  0  0  0  # atno 8008 bound_to 7997
  155.2389  140.3343  155.4276 H   0  0  0  0  0  0  0  0  0  0  0  0  # atno 8009 bound_to 7997
  156.2218  140.1802  156.7442 H   0  0  0  0  0  0  0  0  0  0  0  0  # atno 8010 bound_to 7997
  140.6670  143.2685  151.4261 H   0  0  0  0  0  0  0  0  0  0  0  0  # atno 10167 bound_to 10162
  157.5160  131.1097  150.9224 H   0  0  0  0  0  0  0  0  0  0  0  0  # atno 10718 bound_to 10713
  154.2980  135.2759  155.2624 H   0  0  0  0  0  0  0  0  0  0  0  0  # atno 10763 bound_to 10752
  154.5073  135.5792  153.6581 H   0  0  0  0  0  0  0  0  0  0  0  0  # atno 10764 bound_to 10752
  152.9904  135.6172  154.3149 H   0  0  0  0  0  0  0  0  0  0  0  0  # atno 10765 bound_to 10752
  140.5352  134.0428  155.7886 H   0  0  0  0  0  0  0  0  0  0  0  0  # atno 11005 bound_to 11000
  146.2304  140.5666  142.8978 LP  0  0  0  0  0  0  0  0  0  0  0  0  # atno 17320 bound_to 7965
  144.7853  140.5924  143.6578 LP  0  0  0  0  0  0  0  0  0  0  0  0  # atno 17321 bound_to 7965
  139.5922  144.1473  152.2102 LP  0  0  0  0  0  0  0  0  0  0  0  0  # atno 17342 bound_to 10162
  140.0831  144.5683  150.7108 LP  0  0  0  0  0  0  0  0  0  0  0  0  # atno 17343 bound_to 10162
  156.9850  130.5541  149.5299 LP  0  0  0  0  0  0  0  0  0  0  0  0  # atno 17370 bound_to 10713
  156.0320  130.5411  150.8559 LP  0  0  0  0  0  0  0  0  0  0  0  0  # atno 17371 bound_to 10713
  141.1259  133.9384  157.2636 LP  0  0  0  0  0  0  0  0  0  0  0  0  # atno 17394 bound_to 11000
  139.9533  135.0171  156.9057 LP  0  0  0  0  0  0  0  0  0  0  0  0  # atno 17395 bound_to 11000

$$$$
