AV-unprocessed.smi:1601|AV-procd|sdf|6437|dock8
  -GOLD-   22720 7 83D 1   1.00000     0.00000
 Structure written by MMmdl.
 42 43  0  0  0  0  0  0  0  0  2 V2000
  146.7538  139.1885  151.4520 C   0  0  0  0  0  0  0  0  0  0  0  0
  146.7735  138.9108  152.9751 C   0  0  2  0  0  0  0  0  0  0  0  0
  145.9580  137.6246  153.2955 C   0  0  0  0  0  0  0  0  0  0  0  0
  146.6336  136.3958  152.8873 N   0  0  0  0  0  0  0  0  0  0  0  0
  146.2231  135.1542  153.1923 C   0  0  0  0  0  0  0  0  0  0  0  0
  145.2104  134.9289  153.8559 O   0  0  0  0  0  0  0  0  0  0  0  0
  147.0962  134.0000  152.6753 C   0  0  1  0  0  0  0  0  0  0  0  0
  147.6703  133.1361  153.8170 C   0  0  0  0  0  0  0  0  0  0  0  0
  146.3629  133.2066  151.6953 N   0  0  0  0  0  0  0  0  0  0  0  0
  146.0703  131.8587  151.7435 C   0  0  0  0  0  0  0  0  0  0  0  0
  145.3986  131.5420  150.5978 C   0  0  0  0  0  0  0  0  0  0  0  0
  145.3368  132.7747  149.8910 C   0  0  0  0  0  0  0  0  0  0  0  0
  145.9219  133.7650  150.5437 N   0  0  0  0  0  0  0  0  0  0  0  0
  146.3066  140.1104  153.7485 N   0  3  0  0  0  0  0  0  0  0  0  0
  146.0982  139.8675  155.2041 C   0  0  0  0  0  0  0  0  0  0  0  0
  145.6280  141.1401  155.9296 C   0  0  0  0  0  0  0  0  0  0  0  0
  146.5606  142.1883  155.7215 O   0  0  0  0  0  0  0  0  0  0  0  0
  146.6643  142.5161  154.3455 C   0  0  0  0  0  0  0  0  0  0  0  0
  147.1859  141.2995  153.5637 C   0  0  0  0  0  0  0  0  0  0  0  0
  147.0387  138.3120  150.8709 H   0  0  0  0  0  0  0  0  0  0  0  0
  147.4593  139.9638  151.1585 H   0  0  0  0  0  0  0  0  0  0  0  0
  145.7608  139.4920  151.1192 H   0  0  0  0  0  0  0  0  0  0  0  0
  147.8077  138.7245  153.2691 H   0  0  0  0  0  0  0  0  0  0  0  0
  145.7565  137.5292  154.3625 H   0  0  0  0  0  0  0  0  0  0  0  0
  144.9897  137.6611  152.7955 H   0  0  0  0  0  0  0  0  0  0  0  0
  147.4746  136.4961  152.3374 H   0  0  0  0  0  0  0  0  0  0  0  0
  147.9467  134.4437  152.1546 H   0  0  0  0  0  0  0  0  0  0  0  0
  148.2599  133.7397  154.5080 H   0  0  0  0  0  0  0  0  0  0  0  0
  148.3252  132.3585  153.4231 H   0  0  0  0  0  0  0  0  0  0  0  0
  146.8871  132.6449  154.3958 H   0  0  0  0  0  0  0  0  0  0  0  0
  146.3599  131.2427  152.5821 H   0  0  0  0  0  0  0  0  0  0  0  0
  145.0125  130.5764  150.3069 H   0  0  0  0  0  0  0  0  0  0  0  0
  144.8907  132.9768  148.9285 H   0  0  0  0  0  0  0  0  0  0  0  0
  145.3330  139.1106  155.3684 H   0  0  0  0  0  0  0  0  0  0  0  0
  147.0244  139.5017  155.6502 H   0  0  0  0  0  0  0  0  0  0  0  0
  144.6378  141.4426  155.5843 H   0  0  0  0  0  0  0  0  0  0  0  0
  145.5450  140.9517  157.0002 H   0  0  0  0  0  0  0  0  0  0  0  0
  145.6982  142.8449  153.9589 H   0  0  0  0  0  0  0  0  0  0  0  0
  147.3523  143.3545  154.2351 H   0  0  0  0  0  0  0  0  0  0  0  0
  148.1993  141.0580  153.8886 H   0  0  0  0  0  0  0  0  0  0  0  0
  147.2455  141.5874  152.5163 H   0  0  0  0  0  0  0  0  0  0  0  0
  145.4017  140.3575  153.3742 H   0  0  0  0  0  0  0  0  0  0  0  0
  1  2  1  0  0  0  0
  1 20  1  0  0  0  0
  1 21  1  0  0  0  0
  1 22  1  0  0  0  0
  2  3  1  0  0  0  0
  2 14  1  0  0  0  0
  2 23  1  0  0  0  0
  3  4  1  0  0  0  0
  3 24  1  0  0  0  0
  3 25  1  0  0  0  0
  4  5  1  0  0  0  0
  4 26  1  0  0  0  0
  5  6  2  0  0  0  0
  5  7  1  0  0  0  0
  7  8  1  0  0  0  0
  7  9  1  0  0  0  0
  7 27  1  0  0  0  0
  8 28  1  0  0  0  0
  8 29  1  0  0  0  0
  8 30  1  0  0  0  0
  9 13  1  0  0  0  0
  9 10  1  0  0  0  0
 10 11  2  0  0  0  0
 10 31  1  0  0  0  0
 11 12  1  0  0  0  0
 11 32  1  0  0  0  0
 12 13  2  0  0  0  0
 12 33  1  0  0  0  0
 14 19  1  0  0  0  0
 14 15  1  0  0  0  0
 14 42  1  0  0  0  0
 15 16  1  0  0  0  0
 15 34  1  0  0  0  0
 15 35  1  0  0  0  0
 16 17  1  0  0  0  0
 16 36  1  0  0  0  0
 16 37  1  0  0  0  0
 17 18  1  0  0  0  0
 18 19  1  0  0  0  0
 18 38  1  0  0  0  0
 18 39  1  0  0  0  0
 19 40  1  0  0  0  0
 19 41  1  0  0  0  0
M  CHG  1  14   1
M  END
> <s_m_source_file>
AV-unprocessed.smi

> <i_m_source_file_index>
1601

> <i_lp_mmshare_version>
43012

> <i_f3d_flags>
0

> <s_epik_input>
W0NIMl0xW0NIMl1PW0NIMl1bQ0gyXU4xW0NASF0oW0NIM10pW0NIMl1bTkhdQyg9TylbQ0BIXShbQ0gzXSluMltjSF1bY0hdW2NIXW4y

> <s_epik_cmdline>
J2VwaWtfcHl0aG9uJywgJy1waCcsICc3LjAnLCAnLXRuJywgJzgnLCAnLW1hJywgJzIwMCcsICctbWV0YWxfYmluZGluZycsICctaW1hZScsICc8aW5maWxlLm1hZT4nLCAnLW9tYWUnLCAnPG91dGZpbGUubWFlPic=

> <r_lp_tautomer_probability>
1

> <r_epik_Ionization_Penalty>
0.732551

> <r_epik_Ionization_Penalty_Charging>
0.732531

> <r_epik_Ionization_Penalty_Neutral>
2.04647e-05

> <r_epik_State_Penalty>
0.757939

> <r_epik_Charging_Adjusted_Penalty>
1.49047

> <i_epik_Tot_Q>
1

> <i_epik_Tot_abs_Q>
1

> <r_epik_Metal_State_Penalty>
0.757952

> <b_epik_Metal_Only>
0

> <s_lp_Force_Field>
OPLS_2005

> <r_lp_Energy>
24.7345

> <b_lp_Chiralities_Consistent>
1

> <s_lp_Variant>
AV-unprocessed.smi:1601-7

> <Gold.Version>
5.8.1

> <Gold.Id.Protein>
6NUR|6NUR_protein|mol2

> <Gold.PLP.Fitness>
40.5341

> <Gold.PLP.PLP>
-29.8098

> <Gold.PLP.part.hbond>
-2.0000

> <Gold.PLP.part.metal>
0.0000

> <Gold.PLP.part.buried>
-0.6785

> <Gold.PLP.part.nonpolar>
-25.8442

> <Gold.PLP.part.repulsive>
0.4782

> <Gold.PLP.ligand.clash>
0.0000

> <Gold.PLP.ligand.torsion>
0.3044

> <Gold.PLP.Chemscore.Hbond>
3.0000

> <Gold.PLP.Chemscore.CHOScore>
0.7287

> <Gold.PLP.Chemscore.Metal>
0.0000

> <Gold.Chemscore.Hbonds>
donor molecule, donor type, donor heavy atom, donor atom, acceptor molecule, acceptor atom, score
      L1  H     4    26       P1  7948  1.00
      L1  H    14    42       P1 10175  2.00
      L1  C    12    33       P1  7921  0.62

> <Gold.PLP.Chemscore.Internal.Correction>
0.1470

> <Gold.Rescore>
     Score         DG    S(hbond)    S(metal)    S(lipo)     H(rot)  DE(clash)    DE(int)     intcor
     14.30     -16.17       1.95        0.00      76.54       1.86       1.55       0.32       ----

> <Gold.Chemscore.Fitness>
14.3008

> <Gold.Chemscore.DG>
-16.1747

> <Gold.Chemscore.ZeroCoef>
-5.4800

> <Gold.Chemscore.Hbond>
1.9490

> <Gold.Chemscore.Metal>
0.0000

> <Gold.Chemscore.Lipo>
76.5365

> <Gold.Chemscore.Internal_Hbond>
0.0000

> <Gold.Chemscore.DEClash>
1.5500

> <Gold.Chemscore.DEInternal>
0.3239

> <Gold.Chemscore.Rot>
1.8631

> <Gold.Chemscore.Internal.Correction>
   9.000000E+99

> <Gold.Chemscore.Hbonds>
donor molecule, donor type, donor heavy atom, donor atom, acceptor molecule, acceptor atom, score
      L1  H     4    26       P1  7948  0.96
      L1  H    14    42       P1 10175  0.98

> <Gold.Chemscore.Hbond.Weighted>
-6.5096

> <Gold.Chemscore.Metal.Weighted>
-0.0000

> <Gold.Chemscore.Lipo.Weighted>
-8.9548

> <Gold.Chemscore.Internal_Hbond.Weighted>
0.0000

> <Gold.Chemscore.DEClash.Weighted>
1.5500

> <Gold.Chemscore.DEInternal.Weighted>
0.3239

> <Gold.Chemscore.Rot.Weighted>
4.7697

> <Gold.Chemscore.Internal.Correction.Weighted>
   9.000000E+99

> <Gold.Protein.RotatedTorsions>
[ 6907 6896 6895 6894 ] final -159.31 input  -60.11 | X-H torsion
[ 7974 7965 7964 7962 ] final -174.25 input  175.53 | X-H torsion
[ 8008 7997 7996 7995 ] final  -30.24 input   59.86 | X-H torsion
[ 10167 10162 10161 10158 ] final  104.45 input  -65.29 | X-H torsion
[ 10718 10713 10712 10709 ] final  -49.13 input   66.30 | X-H torsion
[ 10763 10752 10751 10750 ] final -176.22 input  -60.55 | X-H torsion
[ 11005 11000 10999 10996 ] final   82.60 input  -57.11 | X-H torsion

> <Gold.Protein.ActiveResidues>
 VAL166  LYS551  ARG553  GLY616  TRP617  ASP618  TYR619  PRO620  LYS621  CYS622 
 ASP623  PHE694  ASN695  SER759  ASP760  ASP761  ALA762  ILE779  LEU786  VAL792 
 PHE793  MET794  SER795  GLU796  ALA797  LYS798  CYS799  TRP800  GLU811  SER814 

> <Gold.Protein.RotatedAtoms>
  151.3316  133.3998  159.2662 H   0  0  0  0  0  0  0  0  0  0  0  0  # atno 6907 bound_to 6896
  150.9951  134.9277  159.7932 H   0  0  0  0  0  0  0  0  0  0  0  0  # atno 6908 bound_to 6896
  152.5259  134.3281  159.9225 H   0  0  0  0  0  0  0  0  0  0  0  0  # atno 6909 bound_to 6896
  144.7133  140.1499  143.6385 H   0  0  0  0  0  0  0  0  0  0  0  0  # atno 7974 bound_to 7965
  154.4258  140.1796  156.1375 H   0  0  0  0  0  0  0  0  0  0  0  0  # atno 8008 bound_to 7997
  156.0018  140.3359  155.6828 H   0  0  0  0  0  0  0  0  0  0  0  0  # atno 8009 bound_to 7997
  155.6232  140.0662  157.2662 H   0  0  0  0  0  0  0  0  0  0  0  0  # atno 8010 bound_to 7997
  139.7176  144.7065  151.0925 H   0  0  0  0  0  0  0  0  0  0  0  0  # atno 10167 bound_to 10162
  156.1922  130.4153  149.9356 H   0  0  0  0  0  0  0  0  0  0  0  0  # atno 10718 bound_to 10713
  154.5750  135.2831  155.0789 H   0  0  0  0  0  0  0  0  0  0  0  0  # atno 10763 bound_to 10752
  154.2147  135.6401  153.5130 H   0  0  0  0  0  0  0  0  0  0  0  0  # atno 10764 bound_to 10752
  153.0069  135.5500  154.6386 H   0  0  0  0  0  0  0  0  0  0  0  0  # atno 10765 bound_to 10752
  139.9058  134.8083  156.2196 H   0  0  0  0  0  0  0  0  0  0  0  0  # atno 11005 bound_to 11000
  145.9126  139.2496  143.1429 LP  0  0  0  0  0  0  0  0  0  0  0  0  # atno 17320 bound_to 7965
  145.9701  140.8767  143.0167 LP  0  0  0  0  0  0  0  0  0  0  0  0  # atno 17321 bound_to 7965
  140.7747  143.5209  150.9538 LP  0  0  0  0  0  0  0  0  0  0  0  0  # atno 17342 bound_to 10162
  139.8895  143.6971  152.3147 LP  0  0  0  0  0  0  0  0  0  0  0  0  # atno 17343 bound_to 10162
  156.7092  130.8963  151.3607 LP  0  0  0  0  0  0  0  0  0  0  0  0  # atno 17370 bound_to 10713
  157.6936  130.9258  150.0581 LP  0  0  0  0  0  0  0  0  0  0  0  0  # atno 17371 bound_to 10713
  141.0414  133.6936  156.1605 LP  0  0  0  0  0  0  0  0  0  0  0  0  # atno 17394 bound_to 11000
  140.6949  134.4626  157.5588 LP  0  0  0  0  0  0  0  0  0  0  0  0  # atno 17395 bound_to 11000

$$$$
