AV-unprocessed.smi:980|AV-procd|sdf|4311|dock4
  -GOLD-   22720 2213D 1   1.00000     0.00000
 Structure written by MMmdl.
 44 45  0  0  0  0  0  0  0  0  1 V2000
  145.9522  136.1527  162.3107 C   0  0  0  0  0  0  0  0  0  0  0  0
  147.3327  135.4922  162.1082 C   0  0  0  0  0  0  0  0  0  0  0  0
  148.2974  136.0748  163.1598 C   0  0  0  0  0  0  0  0  0  0  0  0
  147.1709  133.9754  162.3291 C   0  0  0  0  0  0  0  0  0  0  0  0
  147.8664  135.7563  160.7141 C   0  0  0  0  0  0  0  0  0  0  0  0
  148.1650  134.8403  159.7307 C   0  0  0  0  0  0  0  0  0  0  0  0
  148.7499  135.5974  158.2748 S   0  0  0  0  0  0  0  0  0  0  0  0
  148.5859  137.1599  159.0608 C   0  0  0  0  0  0  0  0  0  0  0  0
  148.8880  138.4546  158.3844 C   0  0  0  0  0  0  0  0  0  0  0  0
  150.3719  138.5903  158.0213 C   0  0  0  0  0  0  0  0  0  0  0  0
  150.9175  139.8359  158.5420 N   0  0  0  0  0  0  0  0  0  0  0  0
  152.1327  140.3143  158.2389 C   0  0  0  0  0  0  0  0  0  0  0  0
  152.9227  139.7246  157.5010 O   0  0  0  0  0  0  0  0  0  0  0  0
  152.5132  141.6652  158.8595 C   0  0  2  0  0  0  0  0  0  0  0  0
  152.5584  141.5740  160.4021 C   0  0  0  0  0  0  0  0  0  0  0  0
  152.6799  142.9400  161.0539 C   0  0  0  0  0  0  0  0  0  0  0  0
  152.4329  144.0921  160.4071 C   0  0  0  0  0  0  0  0  0  0  0  0
  151.9998  144.1583  158.9531 C   0  0  0  0  0  0  0  0  0  0  0  0
  151.5522  142.7861  158.4143 C   0  0  0  0  0  0  0  0  0  0  0  0
  148.1101  137.0742  160.3049 N   0  0  0  0  0  0  0  0  0  0  0  0
  145.5638  135.9615  163.3117 H   0  0  0  0  0  0  0  0  0  0  0  0
  145.2172  135.7705  161.6012 H   0  0  0  0  0  0  0  0  0  0  0  0
  146.0037  137.2349  162.1858 H   0  0  0  0  0  0  0  0  0  0  0  0
  148.4299  137.1486  163.0235 H   0  0  0  0  0  0  0  0  0  0  0  0
  149.2834  135.6127  163.1020 H   0  0  0  0  0  0  0  0  0  0  0  0
  147.9249  135.9153  164.1722 H   0  0  0  0  0  0  0  0  0  0  0  0
  146.7687  133.7585  163.3191 H   0  0  0  0  0  0  0  0  0  0  0  0
  148.1246  133.4529  162.2457 H   0  0  0  0  0  0  0  0  0  0  0  0
  146.4922  133.5388  161.5954 H   0  0  0  0  0  0  0  0  0  0  0  0
  148.0746  133.7649  159.7680 H   0  0  0  0  0  0  0  0  0  0  0  0
  148.2719  138.5315  157.4874 H   0  0  0  0  0  0  0  0  0  0  0  0
  148.5856  139.2693  159.0434 H   0  0  0  0  0  0  0  0  0  0  0  0
  150.9369  137.7490  158.4263 H   0  0  0  0  0  0  0  0  0  0  0  0
  150.4928  138.5692  156.9369 H   0  0  0  0  0  0  0  0  0  0  0  0
  150.3287  140.3772  159.1583 H   0  0  0  0  0  0  0  0  0  0  0  0
  153.5120  141.9311  158.5081 H   0  0  0  0  0  0  0  0  0  0  0  0
  151.6633  141.0921  160.7983 H   0  0  0  0  0  0  0  0  0  0  0  0
  153.4091  140.9648  160.7099 H   0  0  0  0  0  0  0  0  0  0  0  0
  152.9685  142.9594  162.0946 H   0  0  0  0  0  0  0  0  0  0  0  0
  152.5502  145.0332  160.9240 H   0  0  0  0  0  0  0  0  0  0  0  0
  151.1888  144.8796  158.8515 H   0  0  0  0  0  0  0  0  0  0  0  0
  152.8381  144.5378  158.3683 H   0  0  0  0  0  0  0  0  0  0  0  0
  151.4797  142.8255  157.3268 H   0  0  0  0  0  0  0  0  0  0  0  0
  150.5471  142.5712  158.7814 H   0  0  0  0  0  0  0  0  0  0  0  0
  1  2  1  0  0  0  0
  1 21  1  0  0  0  0
  1 22  1  0  0  0  0
  1 23  1  0  0  0  0
  2  3  1  0  0  0  0
  2  4  1  0  0  0  0
  2  5  1  0  0  0  0
  3 24  1  0  0  0  0
  3 25  1  0  0  0  0
  3 26  1  0  0  0  0
  4 27  1  0  0  0  0
  4 28  1  0  0  0  0
  4 29  1  0  0  0  0
  5 20  1  0  0  0  0
  5  6  2  0  0  0  0
  6  7  1  0  0  0  0
  6 30  1  0  0  0  0
  7  8  1  0  0  0  0
  8  9  1  0  0  0  0
  8 20  2  0  0  0  0
  9 10  1  0  0  0  0
  9 31  1  0  0  0  0
  9 32  1  0  0  0  0
 10 11  1  0  0  0  0
 10 33  1  0  0  0  0
 10 34  1  0  0  0  0
 11 12  1  0  0  0  0
 11 35  1  0  0  0  0
 12 13  2  0  0  0  0
 12 14  1  0  0  0  0
 14 19  1  0  0  0  0
 14 15  1  0  0  0  0
 14 36  1  0  0  0  0
 15 16  1  0  0  0  0
 15 37  1  0  0  0  0
 15 38  1  0  0  0  0
 16 17  2  0  0  0  0
 16 39  1  0  0  0  0
 17 18  1  0  0  0  0
 17 40  1  0  0  0  0
 18 19  1  0  0  0  0
 18 41  1  0  0  0  0
 18 42  1  0  0  0  0
 19 43  1  0  0  0  0
 19 44  1  0  0  0  0
M  END
> <s_m_source_file>
AV-unprocessed.smi

> <i_m_source_file_index>
980

> <i_lp_mmshare_version>
43012

> <i_f3d_flags>
0

> <s_epik_input>
W0NIM11DKFtDSDNdKShbQ0gzXSljMVtjSF1zYyhuMSlbQ0gyXVtDSDJdW05IXUMoPU8pW0NAQEhdMltDSDJdW0NIXT1bQ0hdW0NIMl1bQ0gyXTI=

> <s_epik_cmdline>
J2VwaWtfcHl0aG9uJywgJy1waCcsICc3LjAnLCAnLXRuJywgJzgnLCAnLW1hJywgJzIwMCcsICctbWV0YWxfYmluZGluZycsICctaW1hZScsICc8aW5maWxlLm1hZT4nLCAnLW9tYWUnLCAnPG91dGZpbGUubWFlPic=

> <r_epik_Ionization_Penalty>
0.000809238

> <r_epik_Ionization_Penalty_Charging>
0

> <r_epik_Ionization_Penalty_Neutral>
0.000809238

> <r_epik_State_Penalty>
0.000520038

> <r_epik_Charging_Adjusted_Penalty>
0.000520038

> <i_epik_Tot_Q>
0

> <i_epik_Tot_abs_Q>
0

> <r_epik_Metal_State_Penalty>
-0

> <b_epik_Metal_Only>
0

> <s_lp_Force_Field>
OPLS_2005

> <r_lp_Energy>
0.0985756

> <b_lp_Chiralities_Consistent>
1

> <s_lp_Variant>
AV-unprocessed.smi:980-1

> <Gold.Version>
5.8.1

> <Gold.Id.Protein>
6NUR|6NUR_protein|mol2

> <Gold.PLP.Fitness>
51.2457

> <Gold.PLP.PLP>
-45.2895

> <Gold.PLP.part.hbond>
-3.0000

> <Gold.PLP.part.metal>
0.0000

> <Gold.PLP.part.buried>
-4.9942

> <Gold.PLP.part.nonpolar>
-37.6383

> <Gold.PLP.part.repulsive>
0.1545

> <Gold.PLP.ligand.clash>
0.0000

> <Gold.PLP.ligand.torsion>
0.4327

> <Gold.PLP.Chemscore.Hbond>
2.2530

> <Gold.PLP.Chemscore.CHOScore>
0.0000

> <Gold.PLP.Chemscore.Metal>
0.0000

> <Gold.Chemscore.Hbonds>
donor molecule, donor type, donor heavy atom, donor atom, acceptor molecule, acceptor atom, score
      P1  H  6931  6943       L1    20  0.45
      P1  H  6934  6947       L1    20  0.36
      P1  H  7997  8009       L1    13  1.00

> <Gold.PLP.Chemscore.Internal.Correction>
0.0626

> <Gold.Rescore>
     Score         DG    S(hbond)    S(metal)    S(lipo)     H(rot)  DE(clash)    DE(int)     intcor
     21.32     -23.64       2.11        0.00     125.98       1.41       0.22       2.11       ----

> <Gold.Chemscore.Fitness>
21.3178

> <Gold.Chemscore.DG>
-23.6443

> <Gold.Chemscore.ZeroCoef>
-5.4800

> <Gold.Chemscore.Hbond>
2.1057

> <Gold.Chemscore.Metal>
0.0000

> <Gold.Chemscore.Lipo>
125.9823

> <Gold.Chemscore.Internal_Hbond>
0.0000

> <Gold.Chemscore.DEClash>
0.2178

> <Gold.Chemscore.DEInternal>
2.1088

> <Gold.Chemscore.Rot>
1.4097

> <Gold.Chemscore.Internal.Correction>
   9.000000E+99

> <Gold.Chemscore.Hbonds>
donor molecule, donor type, donor heavy atom, donor atom, acceptor molecule, acceptor atom, score
      P1  H  6931  6943       L1    20  0.37
      P1  H  6934  6947       L1    20  0.26
      P1  H  7997  8009       L1    13  1.00

> <Gold.Chemscore.Hbond.Weighted>
-7.0331

> <Gold.Chemscore.Metal.Weighted>
-0.0000

> <Gold.Chemscore.Lipo.Weighted>
-14.7399

> <Gold.Chemscore.Internal_Hbond.Weighted>
0.0000

> <Gold.Chemscore.DEClash.Weighted>
0.2178

> <Gold.Chemscore.DEInternal.Weighted>
2.1088

> <Gold.Chemscore.Rot.Weighted>
3.6087

> <Gold.Chemscore.Internal.Correction.Weighted>
   9.000000E+99

> <Gold.Protein.RotatedTorsions>
[ 6907 6896 6895 6894 ] final -100.82 input  -60.11 | X-H torsion
[ 7974 7965 7964 7962 ] final   71.36 input  175.53 | X-H torsion
[ 8008 7997 7996 7995 ] final  173.86 input   59.86 | X-H torsion
[ 10167 10162 10161 10158 ] final  -40.25 input  -65.29 | X-H torsion
[ 10718 10713 10712 10709 ] final  -61.13 input   66.30 | X-H torsion
[ 10763 10752 10751 10750 ] final  -13.39 input  -60.55 | X-H torsion
[ 11005 11000 10999 10996 ] final   60.49 input  -57.11 | X-H torsion

> <Gold.Protein.ActiveResidues>
 VAL166  LYS551  ARG553  GLY616  TRP617  ASP618  TYR619  PRO620  LYS621  CYS622 
 ASP623  PHE694  ASN695  SER759  ASP760  ASP761  ALA762  ILE779  LEU786  VAL792 
 PHE793  MET794  SER795  GLU796  ALA797  LYS798  CYS799  TRP800  GLU811  SER814 

> <Gold.Protein.RotatedAtoms>
  150.7130  134.0829  159.3904 H   0  0  0  0  0  0  0  0  0  0  0  0  # atno 6907 bound_to 6896
  151.8813  135.0450  160.0498 H   0  0  0  0  0  0  0  0  0  0  0  0  # atno 6908 bound_to 6896
  152.2565  133.5225  159.5393 H   0  0  0  0  0  0  0  0  0  0  0  0  # atno 6909 bound_to 6896
  145.7668  139.2825  143.1344 H   0  0  0  0  0  0  0  0  0  0  0  0  # atno 7974 bound_to 7965
  156.1033  140.1449  156.9438 H   0  0  0  0  0  0  0  0  0  0  0  0  # atno 8008 bound_to 7997
  154.4717  140.0908  156.7205 H   0  0  0  0  0  0  0  0  0  0  0  0  # atno 8009 bound_to 7997
  155.4723  140.3442  155.4329 H   0  0  0  0  0  0  0  0  0  0  0  0  # atno 8010 bound_to 7997
  140.7040  143.3165  151.2897 H   0  0  0  0  0  0  0  0  0  0  0  0  # atno 10167 bound_to 10162
  156.0943  130.4195  150.0951 H   0  0  0  0  0  0  0  0  0  0  0  0  # atno 10718 bound_to 10713
  153.5126  135.7016  153.5773 H   0  0  0  0  0  0  0  0  0  0  0  0  # atno 10763 bound_to 10752
  153.3857  135.3909  155.1888 H   0  0  0  0  0  0  0  0  0  0  0  0  # atno 10764 bound_to 10752
  154.8702  135.3846  154.4607 H   0  0  0  0  0  0  0  0  0  0  0  0  # atno 10765 bound_to 10752
  140.0228  134.6127  155.9615 H   0  0  0  0  0  0  0  0  0  0  0  0  # atno 11005 bound_to 11000
  146.0210  140.8348  142.9923 LP  0  0  0  0  0  0  0  0  0  0  0  0  # atno 17320 bound_to 7965
  144.6820  140.2628  143.7316 LP  0  0  0  0  0  0  0  0  0  0  0  0  # atno 17321 bound_to 7965
  139.6605  144.0198  152.2689 LP  0  0  0  0  0  0  0  0  0  0  0  0  # atno 17342 bound_to 10162
  139.9764  144.6458  150.7941 LP  0  0  0  0  0  0  0  0  0  0  0  0  # atno 17343 bound_to 10162
  156.8954  130.9602  151.3583 LP  0  0  0  0  0  0  0  0  0  0  0  0  # atno 17370 bound_to 10713
  157.6100  130.8575  149.8936 LP  0  0  0  0  0  0  0  0  0  0  0  0  # atno 17371 bound_to 10713
  141.1784  133.6543  156.4921 LP  0  0  0  0  0  0  0  0  0  0  0  0  # atno 17394 bound_to 11000
  140.4358  134.7060  157.4966 LP  0  0  0  0  0  0  0  0  0  0  0  0  # atno 17395 bound_to 11000

$$$$
