AV-unprocessed.smi:1225|AV-procd|sdf|5140|dock3
  -GOLD-   22720 4203D 1   1.00000     0.00000
 Structure written by MMmdl.
 49 51  0  0  0  0  0  0  0  0  2 V2000
  141.3593  144.2372  156.5385 C   0  0  0  0  0  0  0  0  0  0  0  0
  142.4050  143.2009  156.3075 C   0  0  0  0  0  0  0  0  0  0  0  0
  142.1979  141.8941  156.4831 N   0  0  0  0  0  0  0  0  0  0  0  0
  143.3313  141.1305  156.1968 C   0  0  0  0  0  0  0  0  0  0  0  0
  144.4176  141.8742  155.8061 C   0  0  0  0  0  0  0  0  0  0  0  0
  145.7758  141.3749  155.4288 C   0  0  0  0  0  0  0  0  0  0  0  0
  146.0702  141.5463  153.9837 N   0  3  1  0  0  0  0  0  0  0  0  0
  146.0234  142.9734  153.5866 C   0  0  0  0  0  0  0  0  0  0  0  0
  147.3220  140.8646  153.5550 C   0  0  0  0  0  0  0  0  0  0  0  0
  148.5165  141.1729  154.4786 C   0  0  2  0  0  0  0  0  0  0  0  0
  148.9100  142.5179  154.2833 O   0  0  0  0  0  0  0  0  0  0  0  0
  149.7141  140.2497  154.1852 C   0  0  0  0  0  0  0  0  0  0  0  0
  150.4489  139.9010  155.3873 N   0  0  0  0  0  0  0  0  0  0  0  0
  150.7898  138.6677  155.8091 C   0  0  0  0  0  0  0  0  0  0  0  0
  151.4698  138.5817  156.9489 N   0  0  0  0  0  0  0  0  0  0  0  0
  151.5761  139.9133  157.3129 C   0  0  0  0  0  0  0  0  0  0  0  0
  152.1861  140.5123  158.4366 C   0  0  0  0  0  0  0  0  0  0  0  0
  152.1713  141.9151  158.6074 C   0  0  0  0  0  0  0  0  0  0  0  0
  152.8361  142.5173  159.8325 C   0  0  0  0  0  0  0  0  0  0  0  0
  151.5411  142.7422  157.6429 C   0  0  0  0  0  0  0  0  0  0  0  0
  151.5117  144.2515  157.8060 C   0  0  0  0  0  0  0  0  0  0  0  0
  150.9284  142.1602  156.5136 C   0  0  0  0  0  0  0  0  0  0  0  0
  150.9477  140.7633  156.3567 C   0  0  0  0  0  0  0  0  0  0  0  0
  144.0367  143.5774  155.7687 S   0  0  0  0  0  0  0  0  0  0  0  0
  140.7477  143.9729  157.4016 H   0  0  0  0  0  0  0  0  0  0  0  0
  140.7151  144.3186  155.6628 H   0  0  0  0  0  0  0  0  0  0  0  0
  141.8226  145.2063  156.7242 H   0  0  0  0  0  0  0  0  0  0  0  0
  143.2778  140.0569  156.3030 H   0  0  0  0  0  0  0  0  0  0  0  0
  146.5135  141.9230  156.0166 H   0  0  0  0  0  0  0  0  0  0  0  0
  145.8877  140.3243  155.7011 H   0  0  0  0  0  0  0  0  0  0  0  0
  146.8205  143.5395  154.0702 H   0  0  0  0  0  0  0  0  0  0  0  0
  145.0703  143.4210  153.8702 H   0  0  0  0  0  0  0  0  0  0  0  0
  146.1222  143.0962  152.5089 H   0  0  0  0  0  0  0  0  0  0  0  0
  147.1450  139.7890  153.5059 H   0  0  0  0  0  0  0  0  0  0  0  0
  147.5937  141.1683  152.5442 H   0  0  0  0  0  0  0  0  0  0  0  0
  148.2312  141.0486  155.5228 H   0  0  0  0  0  0  0  0  0  0  0  0
  148.6568  143.0186  155.0446 H   0  0  0  0  0  0  0  0  0  0  0  0
  149.3714  139.3244  153.7203 H   0  0  0  0  0  0  0  0  0  0  0  0
  150.3987  140.7190  153.4768 H   0  0  0  0  0  0  0  0  0  0  0  0
  150.5279  137.7838  155.2461 H   0  0  0  0  0  0  0  0  0  0  0  0
  152.6664  139.8824  159.1709 H   0  0  0  0  0  0  0  0  0  0  0  0
  153.6543  143.1749  159.5379 H   0  0  0  0  0  0  0  0  0  0  0  0
  153.2451  141.7451  160.4848 H   0  0  0  0  0  0  0  0  0  0  0  0
  152.1171  143.0968  160.4117 H   0  0  0  0  0  0  0  0  0  0  0  0
  151.0045  144.7327  156.9693 H   0  0  0  0  0  0  0  0  0  0  0  0
  152.5249  144.6506  157.8571 H   0  0  0  0  0  0  0  0  0  0  0  0
  150.9842  144.5264  158.7197 H   0  0  0  0  0  0  0  0  0  0  0  0
  150.4442  142.7780  155.7720 H   0  0  0  0  0  0  0  0  0  0  0  0
  145.3166  141.0861  153.4924 H   0  0  0  0  0  0  0  0  0  0  0  0
  1  2  1  0  0  0  0
  1 25  1  0  0  0  0
  1 26  1  0  0  0  0
  1 27  1  0  0  0  0
  2 24  1  0  0  0  0
  2  3  2  0  0  0  0
  3  4  1  0  0  0  0
  4  5  2  0  0  0  0
  4 28  1  0  0  0  0
  5  6  1  0  0  0  0
  5 24  1  0  0  0  0
  6  7  1  0  0  0  0
  6 29  1  0  0  0  0
  6 30  1  0  0  0  0
  7  8  1  0  0  0  0
  7  9  1  0  0  0  0
  7 49  1  0  0  0  0
  8 31  1  0  0  0  0
  8 32  1  0  0  0  0
  8 33  1  0  0  0  0
  9 10  1  0  0  0  0
  9 34  1  0  0  0  0
  9 35  1  0  0  0  0
 10 11  1  0  0  0  0
 10 12  1  0  0  0  0
 10 36  1  0  0  0  0
 11 37  1  0  0  0  0
 12 13  1  0  0  0  0
 12 38  1  0  0  0  0
 12 39  1  0  0  0  0
 13 23  1  0  0  0  0
 13 14  1  0  0  0  0
 14 15  2  0  0  0  0
 14 40  1  0  0  0  0
 15 16  1  0  0  0  0
 16 23  2  0  0  0  0
 16 17  1  0  0  0  0
 17 18  2  0  0  0  0
 17 41  1  0  0  0  0
 18 19  1  0  0  0  0
 18 20  1  0  0  0  0
 19 42  1  0  0  0  0
 19 43  1  0  0  0  0
 19 44  1  0  0  0  0
 20 21  1  0  0  0  0
 20 22  2  0  0  0  0
 21 45  1  0  0  0  0
 21 46  1  0  0  0  0
 21 47  1  0  0  0  0
 22 23  1  0  0  0  0
 22 48  1  0  0  0  0
M  CHG  1   7   1
M  END
> <s_m_source_file>
AV-unprocessed.smi

> <i_m_source_file_index>
1225

> <i_lp_mmshare_version>
43012

> <i_f3d_flags>
0

> <s_epik_input>
W0NIM11jMW5bY0hdYyhzMSlbQ0gyXU4oW0NIM10pW0NIMl1bQ0BIXShbT0hdKVtDSDJdbihbY0hdbjIpYyhjMjMpW2NIXWMoW0NIM10pYyhbY0hdMylbQ0gzXQ==

> <s_epik_cmdline>
J2VwaWtfcHl0aG9uJywgJy1waCcsICc3LjAnLCAnLXRuJywgJzgnLCAnLW1hJywgJzIwMCcsICctbWV0YWxfYmluZGluZycsICctaW1hZScsICc8aW5maWxlLm1hZT4nLCAnLW9tYWUnLCAnPG91dGZpbGUubWFlPic=

> <r_epik_Ionization_Penalty>
1.62543

> <r_epik_Ionization_Penalty_Charging>
1.53932

> <r_epik_Ionization_Penalty_Neutral>
0.0861152

> <r_epik_State_Penalty>
1.73127

> <r_epik_Charging_Adjusted_Penalty>
3.27059

> <i_epik_Tot_Q>
1

> <i_epik_Tot_abs_Q>
1

> <r_epik_Metal_State_Penalty>
1.71387

> <b_epik_Metal_Only>
0

> <s_lp_Force_Field>
OPLS_2005

> <r_lp_Energy>
11.3728

> <b_lp_Chiralities_Consistent>
1

> <s_lp_Variant>
AV-unprocessed.smi:1225-5

> <Gold.Version>
5.8.1

> <Gold.Id.Protein>
6NUR|6NUR_protein|mol2

> <Gold.PLP.Fitness>
48.4907

> <Gold.PLP.PLP>
-41.2828

> <Gold.PLP.part.hbond>
-3.0235

> <Gold.PLP.part.metal>
0.0000

> <Gold.PLP.part.buried>
-2.8672

> <Gold.PLP.part.nonpolar>
-35.0774

> <Gold.PLP.part.repulsive>
0.0694

> <Gold.PLP.ligand.clash>
0.0000

> <Gold.PLP.ligand.torsion>
0.8179

> <Gold.PLP.Chemscore.Hbond>
2.8572

> <Gold.PLP.Chemscore.CHOScore>
0.0000

> <Gold.PLP.Chemscore.Metal>
0.0000

> <Gold.Chemscore.Hbonds>
donor molecule, donor type, donor heavy atom, donor atom, acceptor molecule, acceptor atom, score
      L1  H     7    49       P1 10175  2.00
      L1  H    11    37       P1  8028  0.74
      P1  H  8011  8017       L1    11  0.09

> <Gold.PLP.Chemscore.Internal.Correction>
0.2721

> <Gold.Rescore>
     Score         DG    S(hbond)    S(metal)    S(lipo)     H(rot)  DE(clash)    DE(int)     intcor
     17.14     -18.30       1.87        0.00     108.18       2.37       0.05       1.12       ----

> <Gold.Chemscore.Fitness>
17.1373

> <Gold.Chemscore.DG>
-18.3046

> <Gold.Chemscore.ZeroCoef>
-5.4800

> <Gold.Chemscore.Hbond>
1.8704

> <Gold.Chemscore.Metal>
0.0000

> <Gold.Chemscore.Lipo>
108.1841

> <Gold.Chemscore.Internal_Hbond>
0.0000

> <Gold.Chemscore.DEClash>
0.0464

> <Gold.Chemscore.DEInternal>
1.1209

> <Gold.Chemscore.Rot>
2.3750

> <Gold.Chemscore.Internal.Correction>
   9.000000E+99

> <Gold.Chemscore.Hbonds>
donor molecule, donor type, donor heavy atom, donor atom, acceptor molecule, acceptor atom, score
      L1  H     7    49       P1 10175  0.53
      L1  H    11    37       P1  8028  0.74
      P1  H  8011  8017       L1    11  0.04

> <Gold.Chemscore.Hbond.Weighted>
-6.2471

> <Gold.Chemscore.Metal.Weighted>
-0.0000

> <Gold.Chemscore.Lipo.Weighted>
-12.6575

> <Gold.Chemscore.Internal_Hbond.Weighted>
0.0000

> <Gold.Chemscore.DEClash.Weighted>
0.0464

> <Gold.Chemscore.DEInternal.Weighted>
1.1209

> <Gold.Chemscore.Rot.Weighted>
6.0800

> <Gold.Chemscore.Internal.Correction.Weighted>
   9.000000E+99

> <Gold.Protein.RotatedTorsions>
[ 6907 6896 6895 6894 ] final   35.36 input  -60.11 | X-H torsion
[ 7974 7965 7964 7962 ] final -118.88 input  175.53 | X-H torsion
[ 8008 7997 7996 7995 ] final  -94.87 input   59.86 | X-H torsion
[ 10167 10162 10161 10158 ] final  -75.80 input  -65.29 | X-H torsion
[ 10718 10713 10712 10709 ] final  -78.05 input   66.30 | X-H torsion
[ 10763 10752 10751 10750 ] final  104.15 input  -60.55 | X-H torsion
[ 11005 11000 10999 10996 ] final -100.98 input  -57.11 | X-H torsion

> <Gold.Protein.ActiveResidues>
 VAL166  LYS551  ARG553  GLY616  TRP617  ASP618  TYR619  PRO620  LYS621  CYS622 
 ASP623  PHE694  ASN695  SER759  ASP760  ASP761  ALA762  ILE779  LEU786  VAL792 
 PHE793  MET794  SER795  GLU796  ALA797  LYS798  CYS799  TRP800  GLU811  SER814 

> <Gold.Protein.RotatedAtoms>
  152.1151  134.9246  160.0565 H   0  0  0  0  0  0  0  0  0  0  0  0  # atno 6907 bound_to 6896
  152.0409  133.3972  159.4344 H   0  0  0  0  0  0  0  0  0  0  0  0  # atno 6908 bound_to 6896
  150.6845  134.3337  159.4881 H   0  0  0  0  0  0  0  0  0  0  0  0  # atno 6909 bound_to 6896
  145.0688  140.8344  143.4108 H   0  0  0  0  0  0  0  0  0  0  0  0  # atno 7974 bound_to 7965
  154.7540  140.0485  157.0917 H   0  0  0  0  0  0  0  0  0  0  0  0  # atno 8008 bound_to 7997
  155.0021  140.3126  155.4844 H   0  0  0  0  0  0  0  0  0  0  0  0  # atno 8009 bound_to 7997
  156.2891  140.2199  156.5132 H   0  0  0  0  0  0  0  0  0  0  0  0  # atno 8010 bound_to 7997
  140.4912  143.2380  151.7904 H   0  0  0  0  0  0  0  0  0  0  0  0  # atno 10167 bound_to 10162
  156.0128  130.4507  150.3438 H   0  0  0  0  0  0  0  0  0  0  0  0  # atno 10718 bound_to 10713
  153.3621  135.3953  155.1726 H   0  0  0  0  0  0  0  0  0  0  0  0  # atno 10763 bound_to 10752
  154.8681  135.3682  154.5086 H   0  0  0  0  0  0  0  0  0  0  0  0  # atno 10764 bound_to 10752
  153.5547  135.7082  153.5635 H   0  0  0  0  0  0  0  0  0  0  0  0  # atno 10765 bound_to 10752
  141.1249  133.8442  157.1173 H   0  0  0  0  0  0  0  0  0  0  0  0  # atno 11005 bound_to 11000
  145.1317  139.2627  143.5536 LP  0  0  0  0  0  0  0  0  0  0  0  0  # atno 17320 bound_to 7965
  146.3528  140.0970  142.8610 LP  0  0  0  0  0  0  0  0  0  0  0  0  # atno 17321 bound_to 7965
  139.4851  144.4647  151.9498 LP  0  0  0  0  0  0  0  0  0  0  0  0  # atno 17342 bound_to 10162
  140.3734  144.2827  150.5917 LP  0  0  0  0  0  0  0  0  0  0  0  0  # atno 17343 bound_to 10162
  157.1532  131.0326  151.2875 LP  0  0  0  0  0  0  0  0  0  0  0  0  # atno 17370 bound_to 10713
  157.4374  130.7525  149.7040 LP  0  0  0  0  0  0  0  0  0  0  0  0  # atno 17371 bound_to 10713
  140.0238  134.9933  157.0646 LP  0  0  0  0  0  0  0  0  0  0  0  0  # atno 17394 bound_to 11000
  140.4395  134.1695  155.7173 LP  0  0  0  0  0  0  0  0  0  0  0  0  # atno 17395 bound_to 11000

$$$$
