AV-unprocessed.smi:2334|AV-procd|sdf|9321|dock8
  -GOLD-   2272012543D 1   1.00000     0.00000
 Structure written by MMmdl.
 49 51  0  0  0  0  0  0  0  0  1 V2000
  148.6476  139.4053  154.1125 C   0  0  0  0  0  0  0  0  0  0  0  0
  149.7679  139.1673  155.1101 C   0  0  0  0  0  0  0  0  0  0  0  0
  150.2170  140.2692  155.7498 N   0  0  0  0  0  0  0  0  0  0  0  0
  151.2097  140.1460  156.6619 C   0  0  0  0  0  0  0  0  0  0  0  0
  151.6506  141.3206  157.3028 N   0  0  0  0  0  0  0  0  0  0  0  0
  150.9892  142.6001  157.0979 C   0  0  0  0  0  0  0  0  0  0  0  0
  151.6759  143.5508  158.0772 C   0  0  0  0  0  0  0  0  0  0  0  0
  152.0356  142.6388  159.2501 C   0  0  0  0  0  0  0  0  0  0  0  0
  152.3205  141.2820  158.5956 C   0  0  0  0  0  0  0  0  0  0  0  0
  151.7929  138.8927  156.9588 C   0  0  0  0  0  0  0  0  0  0  0  0
  151.3266  137.7444  156.2923 C   0  0  0  0  0  0  0  0  0  0  0  0
  150.2947  137.8735  155.3333 C   0  0  0  0  0  0  0  0  0  0  0  0
  149.7424  136.7683  154.6270 N   0  0  0  0  0  0  0  0  0  0  0  0
  149.5447  135.5127  155.0636 C   0  0  0  0  0  0  0  0  0  0  0  0
  149.8452  135.0979  156.1823 O   0  0  0  0  0  0  0  0  0  0  0  0
  148.9917  134.7543  154.1022 N   0  0  0  0  0  0  0  0  0  0  0  0
  148.6347  133.3282  154.1518 C   0  0  0  0  0  0  0  0  0  0  0  0
  149.8412  132.5004  154.6451 C   0  0  0  0  0  0  0  0  0  0  0  0
  147.4665  133.1681  155.1489 C   0  0  0  0  0  0  0  0  0  0  0  0
  146.1626  133.7965  154.6208 C   0  0  0  0  0  0  0  0  0  0  0  0
  145.8220  133.2303  153.3610 O   0  0  0  0  0  0  0  0  0  0  0  0
  146.8088  133.4654  152.3630 C   0  0  0  0  0  0  0  0  0  0  0  0
  148.1395  132.8125  152.7783 C   0  0  0  0  0  0  0  0  0  0  0  0
  148.9478  139.0723  153.1183 H   0  0  0  0  0  0  0  0  0  0  0  0
  148.3852  140.4623  154.0479 H   0  0  0  0  0  0  0  0  0  0  0  0
  147.7541  138.8539  154.4072 H   0  0  0  0  0  0  0  0  0  0  0  0
  151.0858  142.9432  156.0671 H   0  0  0  0  0  0  0  0  0  0  0  0
  149.9284  142.5044  157.3338 H   0  0  0  0  0  0  0  0  0  0  0  0
  152.5867  143.9498  157.6283 H   0  0  0  0  0  0  0  0  0  0  0  0
  151.0445  144.3916  158.3656 H   0  0  0  0  0  0  0  0  0  0  0  0
  152.8762  143.0100  159.8369 H   0  0  0  0  0  0  0  0  0  0  0  0
  151.1767  142.5482  159.9163 H   0  0  0  0  0  0  0  0  0  0  0  0
  151.9623  140.4649  159.2230 H   0  0  0  0  0  0  0  0  0  0  0  0
  153.3903  141.1471  158.4333 H   0  0  0  0  0  0  0  0  0  0  0  0
  152.5882  138.7960  157.6828 H   0  0  0  0  0  0  0  0  0  0  0  0
  151.7601  136.7881  156.5401 H   0  0  0  0  0  0  0  0  0  0  0  0
  149.5344  136.9381  153.6540 H   0  0  0  0  0  0  0  0  0  0  0  0
  148.7975  135.2144  153.2249 H   0  0  0  0  0  0  0  0  0  0  0  0
  149.5720  131.4525  154.7813 H   0  0  0  0  0  0  0  0  0  0  0  0
  150.2106  132.8695  155.6024 H   0  0  0  0  0  0  0  0  0  0  0  0
  150.6711  132.5246  153.9390 H   0  0  0  0  0  0  0  0  0  0  0  0
  147.2863  132.1085  155.3354 H   0  0  0  0  0  0  0  0  0  0  0  0
  147.7250  133.6052  156.1143 H   0  0  0  0  0  0  0  0  0  0  0  0
  145.3481  133.6065  155.3200 H   0  0  0  0  0  0  0  0  0  0  0  0
  146.2530  134.8800  154.5312 H   0  0  0  0  0  0  0  0  0  0  0  0
  146.4621  133.0380  151.4221 H   0  0  0  0  0  0  0  0  0  0  0  0
  146.9294  134.5369  152.1968 H   0  0  0  0  0  0  0  0  0  0  0  0
  148.8878  132.9652  152.0010 H   0  0  0  0  0  0  0  0  0  0  0  0
  147.9894  131.7333  152.8327 H   0  0  0  0  0  0  0  0  0  0  0  0
  1  2  1  0  0  0  0
  1 24  1  0  0  0  0
  1 25  1  0  0  0  0
  1 26  1  0  0  0  0
  2 12  1  0  0  0  0
  2  3  2  0  0  0  0
  3  4  1  0  0  0  0
  4  5  1  0  0  0  0
  4 10  2  0  0  0  0
  5  9  1  0  0  0  0
  5  6  1  0  0  0  0
  6  7  1  0  0  0  0
  6 27  1  0  0  0  0
  6 28  1  0  0  0  0
  7  8  1  0  0  0  0
  7 29  1  0  0  0  0
  7 30  1  0  0  0  0
  8  9  1  0  0  0  0
  8 31  1  0  0  0  0
  8 32  1  0  0  0  0
  9 33  1  0  0  0  0
  9 34  1  0  0  0  0
 10 11  1  0  0  0  0
 10 35  1  0  0  0  0
 11 12  2  0  0  0  0
 11 36  1  0  0  0  0
 12 13  1  0  0  0  0
 13 14  1  0  0  0  0
 13 37  1  0  0  0  0
 14 15  2  0  0  0  0
 14 16  1  0  0  0  0
 16 17  1  0  0  0  0
 16 38  1  0  0  0  0
 17 23  1  0  0  0  0
 17 18  1  0  0  0  0
 17 19  1  0  0  0  0
 18 39  1  0  0  0  0
 18 40  1  0  0  0  0
 18 41  1  0  0  0  0
 19 20  1  0  0  0  0
 19 42  1  0  0  0  0
 19 43  1  0  0  0  0
 20 21  1  0  0  0  0
 20 44  1  0  0  0  0
 20 45  1  0  0  0  0
 21 22  1  0  0  0  0
 22 23  1  0  0  0  0
 22 46  1  0  0  0  0
 22 47  1  0  0  0  0
 23 48  1  0  0  0  0
 23 49  1  0  0  0  0
M  END
> <s_m_source_file>
AV-unprocessed.smi

> <i_m_source_file_index>
2334

> <i_lp_mmshare_version>
43012

> <i_f3d_flags>
0

> <s_epik_input>
W0NIMl0xW0NIMl1bQ0gyXVtDSDJdTjFjKG5jMltDSDNdKVtjSF1bY0hdYzJbTkhdQyg9TylbTkhdQzMoW0NIM10pW0NIMl1bQ0gyXU9bQ0gyXVtDSDJdMw==

> <s_epik_cmdline>
J2VwaWtfcHl0aG9uJywgJy1waCcsICc3LjAnLCAnLXRuJywgJzgnLCAnLW1hJywgJzIwMCcsICctbWV0YWxfYmluZGluZycsICctaW1hZScsICc8aW5maWxlLm1hZT4nLCAnLW9tYWUnLCAnPG91dGZpbGUubWFlPic=

> <r_lp_tautomer_probability>
1

> <r_epik_Ionization_Penalty>
0.314437

> <r_epik_Ionization_Penalty_Charging>
0

> <r_epik_Ionization_Penalty_Neutral>
0.314437

> <r_epik_State_Penalty>
0.308039

> <r_epik_Charging_Adjusted_Penalty>
0.308039

> <i_epik_Tot_Q>
0

> <i_epik_Tot_abs_Q>
0

> <r_epik_Metal_State_Penalty>
0.200041

> <b_epik_Metal_Only>
0

> <s_lp_Force_Field>
OPLS_2005

> <r_lp_Energy>
36.0775

> <b_lp_Chiralities_Consistent>
1

> <s_lp_Variant>
AV-unprocessed.smi:2334-1

> <Gold.Version>
5.8.1

> <Gold.Id.Protein>
6NUR|6NUR_protein|mol2

> <Gold.PLP.Fitness>
39.2147

> <Gold.PLP.PLP>
-33.9585

> <Gold.PLP.part.hbond>
-2.0000

> <Gold.PLP.part.metal>
0.0000

> <Gold.PLP.part.buried>
-4.1853

> <Gold.PLP.part.nonpolar>
-28.1354

> <Gold.PLP.part.repulsive>
0.1900

> <Gold.PLP.ligand.clash>
0.0000

> <Gold.PLP.ligand.torsion>
0.4561

> <Gold.PLP.Chemscore.Hbond>
1.9920

> <Gold.PLP.Chemscore.CHOScore>
0.0000

> <Gold.PLP.Chemscore.Metal>
0.0000

> <Gold.Chemscore.Hbonds>
donor molecule, donor type, donor heavy atom, donor atom, acceptor molecule, acceptor atom, score
      L1  H    13    37       P1  7948  0.99
      L1  H    16    38       P1  7948  1.00

> <Gold.PLP.Chemscore.Internal.Correction>
0.1924

> <Gold.Rescore>
     Score         DG    S(hbond)    S(metal)    S(lipo)     H(rot)  DE(clash)    DE(int)     intcor
     17.32     -19.04       1.70        0.00      89.17       1.00       0.02       1.69       ----

> <Gold.Chemscore.Fitness>
17.3203

> <Gold.Chemscore.DG>
-19.0357

> <Gold.Chemscore.ZeroCoef>
-5.4800

> <Gold.Chemscore.Hbond>
1.7014

> <Gold.Chemscore.Metal>
0.0000

> <Gold.Chemscore.Lipo>
89.1704

> <Gold.Chemscore.Internal_Hbond>
0.0000

> <Gold.Chemscore.DEClash>
0.0212

> <Gold.Chemscore.DEInternal>
1.6943

> <Gold.Chemscore.Rot>
1.0000

> <Gold.Chemscore.Internal.Correction>
   9.000000E+99

> <Gold.Chemscore.Hbonds>
donor molecule, donor type, donor heavy atom, donor atom, acceptor molecule, acceptor atom, score
      L1  H    13    37       P1  7948  0.78
      L1  H    16    38       P1  7948  0.60

> <Gold.Chemscore.Hbond.Weighted>
-5.6828

> <Gold.Chemscore.Metal.Weighted>
-0.0000

> <Gold.Chemscore.Lipo.Weighted>
-10.4329

> <Gold.Chemscore.Internal_Hbond.Weighted>
0.0000

> <Gold.Chemscore.DEClash.Weighted>
0.0212

> <Gold.Chemscore.DEInternal.Weighted>
1.6943

> <Gold.Chemscore.Rot.Weighted>
2.5600

> <Gold.Chemscore.Internal.Correction.Weighted>
   9.000000E+99

> <Gold.Protein.RotatedTorsions>
[ 6907 6896 6895 6894 ] final  -20.75 input  -60.11 | X-H torsion
[ 7974 7965 7964 7962 ] final   13.47 input  175.53 | X-H torsion
[ 8008 7997 7996 7995 ] final    9.44 input   59.86 | X-H torsion
[ 10167 10162 10161 10158 ] final -122.60 input  -65.29 | X-H torsion
[ 10718 10713 10712 10709 ] final  154.61 input   66.30 | X-H torsion
[ 10763 10752 10751 10750 ] final -154.10 input  -60.55 | X-H torsion
[ 11005 11000 10999 10996 ] final  -39.50 input  -57.11 | X-H torsion

> <Gold.Protein.ActiveResidues>
 VAL166  LYS551  ARG553  GLY616  TRP617  ASP618  TYR619  PRO620  LYS621  CYS622 
 ASP623  PHE694  ASN695  SER759  ASP760  ASP761  ALA762  ILE779  LEU786  VAL792 
 PHE793  MET794  SER795  GLU796  ALA797  LYS798  CYS799  TRP800  GLU811  SER814 

> <Gold.Protein.RotatedAtoms>
  151.2435  135.0597  159.9033 H   0  0  0  0  0  0  0  0  0  0  0  0  # atno 6907 bound_to 6896
  152.5390  134.0409  159.8077 H   0  0  0  0  0  0  0  0  0  0  0  0  # atno 6908 bound_to 6896
  151.0606  133.5498  159.2666 H   0  0  0  0  0  0  0  0  0  0  0  0  # atno 6909 bound_to 6896
  146.2328  139.9184  142.8514 H   0  0  0  0  0  0  0  0  0  0  0  0  # atno 7974 bound_to 7965
  154.7801  140.2817  155.6070 H   0  0  0  0  0  0  0  0  0  0  0  0  # atno 8008 bound_to 7997
  156.2948  140.2625  156.2552 H   0  0  0  0  0  0  0  0  0  0  0  0  # atno 8009 bound_to 7997
  154.9795  140.0375  157.2261 H   0  0  0  0  0  0  0  0  0  0  0  0  # atno 8010 bound_to 7997
  140.0125  143.5427  152.2257 H   0  0  0  0  0  0  0  0  0  0  0  0  # atno 10167 bound_to 10162
  157.2293  131.0735  151.1863 H   0  0  0  0  0  0  0  0  0  0  0  0  # atno 10718 bound_to 10713
  154.7882  135.3197  154.7838 H   0  0  0  0  0  0  0  0  0  0  0  0  # atno 10763 bound_to 10752
  153.8533  135.6860  153.4794 H   0  0  0  0  0  0  0  0  0  0  0  0  # atno 10764 bound_to 10752
  153.1542  135.4687  154.9619 H   0  0  0  0  0  0  0  0  0  0  0  0  # atno 10765 bound_to 10752
  141.0107  133.6909  156.2195 H   0  0  0  0  0  0  0  0  0  0  0  0  # atno 11005 bound_to 11000
  145.2161  140.9916  143.4073 LP  0  0  0  0  0  0  0  0  0  0  0  0  # atno 17320 bound_to 7965
  144.9650  139.3940  143.6337 LP  0  0  0  0  0  0  0  0  0  0  0  0  # atno 17321 bound_to 7965
  139.6195  144.7626  151.2772 LP  0  0  0  0  0  0  0  0  0  0  0  0  # atno 17342 bound_to 10162
  140.7375  143.6675  150.8111 LP  0  0  0  0  0  0  0  0  0  0  0  0  # atno 17343 bound_to 10162
  157.3494  130.7074  149.6431 LP  0  0  0  0  0  0  0  0  0  0  0  0  # atno 17370 bound_to 10713
  155.9676  130.4257  150.4664 LP  0  0  0  0  0  0  0  0  0  0  0  0  # atno 17371 bound_to 10713
  140.6739  134.4839  157.5588 LP  0  0  0  0  0  0  0  0  0  0  0  0  # atno 17394 bound_to 11000
  139.9088  134.8390  156.1605 LP  0  0  0  0  0  0  0  0  0  0  0  0  # atno 17395 bound_to 11000

$$$$
