AV-unprocessed.smi:1209|AV-procd|sdf|5069|dock4
  -GOLD-   22720 4113D 1   1.00000     0.00000
 Structure written by MMmdl.
 48 50  0  0  0  0  0  0  0  0  1 V2000
  154.0115  136.4961  164.2566 C   0  0  0  0  0  0  0  0  0  0  0  0
  154.3610  136.3774  162.8129 C   0  0  0  0  0  0  0  0  0  0  0  0
  154.8789  135.3618  162.0611 C   0  0  0  0  0  0  0  0  0  0  0  0
  154.9621  135.9189  160.7547 C   0  0  0  0  0  0  0  0  0  0  0  0
  155.4600  135.2703  159.4896 C   0  0  0  0  0  0  0  0  0  0  0  0
  155.4387  136.1618  158.3282 N   0  0  0  0  0  0  0  0  0  0  0  0
  156.3584  135.6927  157.2912 C   0  0  0  0  0  0  0  0  0  0  0  0
  154.0715  136.3016  157.8179 C   0  0  0  0  0  0  0  0  0  0  0  0
  153.6838  137.7056  157.3088 C   0  0  2  0  0  0  0  0  0  0  0  0
  154.3828  138.6688  158.0736 O   0  0  0  0  0  0  0  0  0  0  0  0
  152.1693  137.9541  157.4445 C   0  0  0  0  0  0  0  0  0  0  0  0
  151.7687  139.2538  156.9340 N   0  0  0  0  0  0  0  0  0  0  0  0
  151.2037  139.5162  155.7399 C   0  0  0  0  0  0  0  0  0  0  0  0
  150.9135  140.7855  155.4693 N   0  0  0  0  0  0  0  0  0  0  0  0
  151.3396  141.4214  156.6229 C   0  0  0  0  0  0  0  0  0  0  0  0
  151.3156  142.7877  156.9796 C   0  0  0  0  0  0  0  0  0  0  0  0
  151.8158  143.2194  158.2290 C   0  0  0  0  0  0  0  0  0  0  0  0
  151.7720  144.6982  158.5713 C   0  0  0  0  0  0  0  0  0  0  0  0
  152.3504  142.2774  159.1442 C   0  0  0  0  0  0  0  0  0  0  0  0
  152.8953  142.7176  160.4912 C   0  0  0  0  0  0  0  0  0  0  0  0
  152.3798  140.9086  158.8047 C   0  0  0  0  0  0  0  0  0  0  0  0
  151.8794  140.4915  157.5588 C   0  0  0  0  0  0  0  0  0  0  0  0
  154.5310  137.1694  160.7270 N   0  0  0  0  0  0  0  0  0  0  0  0
  154.1445  137.4711  162.0376 O   0  0  0  0  0  0  0  0  0  0  0  0
  153.8587  135.5127  164.7014 H   0  0  0  0  0  0  0  0  0  0  0  0
  153.0955  137.0721  164.3895 H   0  0  0  0  0  0  0  0  0  0  0  0
  154.8093  136.9959  164.8060 H   0  0  0  0  0  0  0  0  0  0  0  0
  155.1548  134.3713  162.3911 H   0  0  0  0  0  0  0  0  0  0  0  0
  156.4683  134.8783  159.6336 H   0  0  0  0  0  0  0  0  0  0  0  0
  154.8311  134.4022  159.2886 H   0  0  0  0  0  0  0  0  0  0  0  0
  156.4141  136.3915  156.4584 H   0  0  0  0  0  0  0  0  0  0  0  0
  156.0504  134.7216  156.9015 H   0  0  0  0  0  0  0  0  0  0  0  0
  157.3726  135.5929  157.6783 H   0  0  0  0  0  0  0  0  0  0  0  0
  153.9183  135.5753  157.0179 H   0  0  0  0  0  0  0  0  0  0  0  0
  153.3619  136.0274  158.6002 H   0  0  0  0  0  0  0  0  0  0  0  0
  153.9565  137.8323  156.2621 H   0  0  0  0  0  0  0  0  0  0  0  0
  154.3172  138.4320  158.9862 H   0  0  0  0  0  0  0  0  0  0  0  0
  151.6136  137.1896  156.8997 H   0  0  0  0  0  0  0  0  0  0  0  0
  151.8591  137.8776  158.4876 H   0  0  0  0  0  0  0  0  0  0  0  0
  150.9946  138.7304  155.0286 H   0  0  0  0  0  0  0  0  0  0  0  0
  150.9092  143.5050  156.2817 H   0  0  0  0  0  0  0  0  0  0  0  0
  151.1807  144.8643  159.4721 H   0  0  0  0  0  0  0  0  0  0  0  0
  151.3245  145.2804  157.7655 H   0  0  0  0  0  0  0  0  0  0  0  0
  152.7786  145.0808  158.7412 H   0  0  0  0  0  0  0  0  0  0  0  0
  153.2861  141.8718  161.0575 H   0  0  0  0  0  0  0  0  0  0  0  0
  152.1108  143.1853  161.0865 H   0  0  0  0  0  0  0  0  0  0  0  0
  153.7060  143.4344  160.3605 H   0  0  0  0  0  0  0  0  0  0  0  0
  152.7861  140.1808  159.4916 H   0  0  0  0  0  0  0  0  0  0  0  0
  1  2  1  0  0  0  0
  1 25  1  0  0  0  0
  1 26  1  0  0  0  0
  1 27  1  0  0  0  0
  2 24  1  0  0  0  0
  2  3  2  0  0  0  0
  3  4  1  0  0  0  0
  3 28  1  0  0  0  0
  4  5  1  0  0  0  0
  4 23  2  0  0  0  0
  5  6  1  0  0  0  0
  5 29  1  0  0  0  0
  5 30  1  0  0  0  0
  6  7  1  0  0  0  0
  6  8  1  0  0  0  0
  7 31  1  0  0  0  0
  7 32  1  0  0  0  0
  7 33  1  0  0  0  0
  8  9  1  0  0  0  0
  8 34  1  0  0  0  0
  8 35  1  0  0  0  0
  9 10  1  0  0  0  0
  9 11  1  0  0  0  0
  9 36  1  0  0  0  0
 10 37  1  0  0  0  0
 11 12  1  0  0  0  0
 11 38  1  0  0  0  0
 11 39  1  0  0  0  0
 12 22  1  0  0  0  0
 12 13  1  0  0  0  0
 13 14  2  0  0  0  0
 13 40  1  0  0  0  0
 14 15  1  0  0  0  0
 15 22  2  0  0  0  0
 15 16  1  0  0  0  0
 16 17  2  0  0  0  0
 16 41  1  0  0  0  0
 17 18  1  0  0  0  0
 17 19  1  0  0  0  0
 18 42  1  0  0  0  0
 18 43  1  0  0  0  0
 18 44  1  0  0  0  0
 19 20  1  0  0  0  0
 19 21  2  0  0  0  0
 20 45  1  0  0  0  0
 20 46  1  0  0  0  0
 20 47  1  0  0  0  0
 21 22  1  0  0  0  0
 21 48  1  0  0  0  0
 23 24  1  0  0  0  0
M  END
> <s_m_source_file>
AV-unprocessed.smi

> <i_m_source_file_index>
1209

> <i_lp_mmshare_version>
43012

> <i_f3d_flags>
0

> <s_epik_input>
W0NIM11jMVtjSF1jKG5vMSlbQ0gyXU4oW0NIM10pW0NIMl1bQ0BIXShbT0hdKVtDSDJdbihbY0hdbjIpYyhjMjMpW2NIXWMoW0NIM10pYyhbY0hdMylbQ0gzXQ==

> <s_epik_cmdline>
J2VwaWtfcHl0aG9uJywgJy1waCcsICc3LjAnLCAnLXRuJywgJzgnLCAnLW1hJywgJzIwMCcsICctbWV0YWxfYmluZGluZycsICctaW1hZScsICc8aW5maWxlLm1hZT4nLCAnLW9tYWUnLCAnPG91dGZpbGUubWFlPic=

> <r_epik_Ionization_Penalty>
0.103258

> <r_epik_Ionization_Penalty_Charging>
0

> <r_epik_Ionization_Penalty_Neutral>
0.103258

> <r_epik_State_Penalty>
0.0919675

> <r_epik_Charging_Adjusted_Penalty>
0.0919675

> <i_epik_Tot_Q>
0

> <i_epik_Tot_abs_Q>
0

> <r_epik_Metal_State_Penalty>
0.0812522

> <b_epik_Metal_Only>
0

> <s_lp_Force_Field>
OPLS_2005

> <r_lp_Energy>
18.8485

> <b_lp_Chiralities_Consistent>
1

> <s_lp_Variant>
AV-unprocessed.smi:1209-1

> <Gold.Version>
5.8.1

> <Gold.Id.Protein>
6NUR|6NUR_protein|mol2

> <Gold.PLP.Fitness>
45.0268

> <Gold.PLP.PLP>
-41.8811

> <Gold.PLP.part.hbond>
-2.0000

> <Gold.PLP.part.metal>
0.0000

> <Gold.PLP.part.buried>
-5.8477

> <Gold.PLP.part.nonpolar>
-33.1902

> <Gold.PLP.part.repulsive>
0.0504

> <Gold.PLP.ligand.clash>
0.0000

> <Gold.PLP.ligand.torsion>
1.2640

> <Gold.PLP.Chemscore.Hbond>
1.8240

> <Gold.PLP.Chemscore.CHOScore>
0.0000

> <Gold.PLP.Chemscore.Metal>
0.0000

> <Gold.Chemscore.Hbonds>
donor molecule, donor type, donor heavy atom, donor atom, acceptor molecule, acceptor atom, score
      P1  H  7989  7998       L1    14  0.68
      P1  H  7997  8009       L1    10  0.96

> <Gold.PLP.Chemscore.Internal.Correction>
0.2017

> <Gold.Rescore>
     Score         DG    S(hbond)    S(metal)    S(lipo)     H(rot)  DE(clash)    DE(int)     intcor
     17.38     -19.05       1.87        0.00     116.11       2.45       0.38       1.29       ----

> <Gold.Chemscore.Fitness>
17.3791

> <Gold.Chemscore.DG>
-19.0491

> <Gold.Chemscore.ZeroCoef>
-5.4800

> <Gold.Chemscore.Hbond>
1.8703

> <Gold.Chemscore.Metal>
0.0000

> <Gold.Chemscore.Lipo>
116.1071

> <Gold.Chemscore.Internal_Hbond>
0.0000

> <Gold.Chemscore.DEClash>
0.3773

> <Gold.Chemscore.DEInternal>
1.2927

> <Gold.Chemscore.Rot>
2.4462

> <Gold.Chemscore.Internal.Correction>
   9.000000E+99

> <Gold.Chemscore.Hbonds>
donor molecule, donor type, donor heavy atom, donor atom, acceptor molecule, acceptor atom, score
      P1  H  7989  7998       L1    14  0.17
      P1  H  7997  8009       L1    10  0.90

> <Gold.Chemscore.Hbond.Weighted>
-6.2469

> <Gold.Chemscore.Metal.Weighted>
-0.0000

> <Gold.Chemscore.Lipo.Weighted>
-13.5845

> <Gold.Chemscore.Internal_Hbond.Weighted>
0.0000

> <Gold.Chemscore.DEClash.Weighted>
0.3773

> <Gold.Chemscore.DEInternal.Weighted>
1.2927

> <Gold.Chemscore.Rot.Weighted>
6.2623

> <Gold.Chemscore.Internal.Correction.Weighted>
   9.000000E+99

> <Gold.Protein.RotatedTorsions>
[ 6907 6896 6895 6894 ] final -153.07 input  -60.11 | X-H torsion
[ 7974 7965 7964 7962 ] final  -81.87 input  175.53 | X-H torsion
[ 8008 7997 7996 7995 ] final  120.03 input   59.86 | X-H torsion
[ 10167 10162 10161 10158 ] final    3.94 input  -65.29 | X-H torsion
[ 10718 10713 10712 10709 ] final  -26.57 input   66.30 | X-H torsion
[ 10763 10752 10751 10750 ] final -118.59 input  -60.55 | X-H torsion
[ 11005 11000 10999 10996 ] final   74.18 input  -57.11 | X-H torsion

> <Gold.Protein.ActiveResidues>
 VAL166  LYS551  ARG553  GLY616  TRP617  ASP618  TYR619  PRO620  LYS621  CYS622 
 ASP623  PHE694  ASN695  SER759  ASP760  ASP761  ALA762  ILE779  LEU786  VAL792 
 PHE793  MET794  SER795  GLU796  ALA797  LYS798  CYS799  TRP800  GLU811  SER814 

> <Gold.Protein.RotatedAtoms>
  151.2371  133.4419  159.2605 H   0  0  0  0  0  0  0  0  0  0  0  0  # atno 6907 bound_to 6896
  151.0740  134.9817  159.8333 H   0  0  0  0  0  0  0  0  0  0  0  0  # atno 6908 bound_to 6896
  152.5416  134.2314  159.8879 H   0  0  0  0  0  0  0  0  0  0  0  0  # atno 6909 bound_to 6896
  145.5409  140.9509  143.1551 H   0  0  0  0  0  0  0  0  0  0  0  0  # atno 7974 bound_to 7965
  156.2624  140.2840  156.1085 H   0  0  0  0  0  0  0  0  0  0  0  0  # atno 8008 bound_to 7997
  155.1283  140.0393  157.2785 H   0  0  0  0  0  0  0  0  0  0  0  0  # atno 8009 bound_to 7997
  154.6619  140.2568  155.7106 H   0  0  0  0  0  0  0  0  0  0  0  0  # atno 8010 bound_to 7997
  140.6560  143.7425  150.7655 H   0  0  0  0  0  0  0  0  0  0  0  0  # atno 10167 bound_to 10162
  156.4494  130.4481  149.7000 H   0  0  0  0  0  0  0  0  0  0  0  0  # atno 10718 bound_to 10713
  154.8592  135.4268  154.2163 H   0  0  0  0  0  0  0  0  0  0  0  0  # atno 10763 bound_to 10752
  153.3177  135.6980  153.7064 H   0  0  0  0  0  0  0  0  0  0  0  0  # atno 10764 bound_to 10752
  153.6131  135.3515  155.2959 H   0  0  0  0  0  0  0  0  0  0  0  0  # atno 10765 bound_to 10752
  139.9403  134.7411  156.1117 H   0  0  0  0  0  0  0  0  0  0  0  0  # atno 11005 bound_to 11000
  144.7577  139.7033  143.7247 LP  0  0  0  0  0  0  0  0  0  0  0  0  # atno 17320 bound_to 7965
  146.1981  139.5260  142.9761 LP  0  0  0  0  0  0  0  0  0  0  0  0  # atno 17321 bound_to 7965
  140.1085  143.4721  152.2384 LP  0  0  0  0  0  0  0  0  0  0  0  0  # atno 17342 bound_to 10162
  139.5783  144.7498  151.3707 LP  0  0  0  0  0  0  0  0  0  0  0  0  # atno 17343 bound_to 10162
  156.3832  130.7589  151.2584 LP  0  0  0  0  0  0  0  0  0  0  0  0  # atno 17370 bound_to 10713
  157.7503  131.0289  150.4071 LP  0  0  0  0  0  0  0  0  0  0  0  0  # atno 17371 bound_to 10713
  141.1035  133.6668  156.2809 LP  0  0  0  0  0  0  0  0  0  0  0  0  # atno 17394 bound_to 11000
  140.5968  134.5595  157.5510 LP  0  0  0  0  0  0  0  0  0  0  0  0  # atno 17395 bound_to 11000

$$$$
