AV-unprocessed.smi:2225|AV-procd|sdf|8999|dock9
  -GOLD-   2272012213D 1   1.00000     0.00000
 Structure written by MMmdl.
 33 34  0  0  0  0  0  0  0  0  1 V2000
  150.8374  140.8676  157.8856 O   0  0  0  0  0  0  0  0  0  0  0  0
  150.6674  141.9928  157.4178 C   0  0  0  0  0  0  0  0  0  0  0  0
  151.4561  143.1736  158.0107 C   0  0  0  0  0  0  0  0  0  0  0  0
  152.1992  142.8723  159.2487 N   0  0  0  0  0  0  0  0  0  0  0  0
  151.9146  143.6723  160.3697 C   0  0  0  0  0  0  0  0  0  0  0  0
  152.5346  143.4892  161.5431 C   0  0  0  0  0  0  0  0  0  0  0  0
  153.5199  142.4398  161.6372 C   0  0  0  0  0  0  0  0  0  0  0  0
  153.8103  141.6492  160.5782 C   0  0  0  0  0  0  0  0  0  0  0  0
  154.8545  140.5379  160.6591 C   0  0  0  0  0  0  0  0  0  0  0  0
  154.3115  139.3634  160.3365 F   0  0  0  0  0  0  0  0  0  0  0  0
  155.8619  140.7764  159.8185 F   0  0  0  0  0  0  0  0  0  0  0  0
  155.3660  140.4276  161.8860 F   0  0  0  0  0  0  0  0  0  0  0  0
  153.1141  141.8543  159.2915 C   0  0  0  0  0  0  0  0  0  0  0  0
  153.3318  141.1501  158.3043 O   0  0  0  0  0  0  0  0  0  0  0  0
  149.8189  142.2356  156.4047 N   0  0  0  0  0  0  0  0  0  0  0  0
  148.9946  141.2320  155.7392 C   0  0  2  0  0  0  0  0  0  0  0  0
  148.3434  141.7734  154.4665 C   0  0  0  0  0  0  0  0  0  0  0  0
  146.8782  141.3779  154.6118 C   0  0  0  0  0  0  0  0  0  0  0  0
  146.6702  141.4309  156.0119 O   0  0  0  0  0  0  0  0  0  0  0  0
  147.8040  140.8334  156.6232 C   0  0  0  0  0  0  0  0  0  0  0  0
  152.1344  143.5546  157.2450 H   0  0  0  0  0  0  0  0  0  0  0  0
  150.7530  143.9889  158.1873 H   0  0  0  0  0  0  0  0  0  0  0  0
  151.1619  144.4322  160.2159 H   0  0  0  0  0  0  0  0  0  0  0  0
  152.3022  144.1100  162.3960 H   0  0  0  0  0  0  0  0  0  0  0  0
  154.0276  142.2968  162.5794 H   0  0  0  0  0  0  0  0  0  0  0  0
  149.7361  143.1852  156.0713 H   0  0  0  0  0  0  0  0  0  0  0  0
  149.5943  140.3458  155.5234 H   0  0  0  0  0  0  0  0  0  0  0  0
  148.4194  142.8610  154.4215 H   0  0  0  0  0  0  0  0  0  0  0  0
  148.7944  141.3719  153.5585 H   0  0  0  0  0  0  0  0  0  0  0  0
  146.2051  142.0478  154.0766 H   0  0  0  0  0  0  0  0  0  0  0  0
  146.7110  140.3606  154.2544 H   0  0  0  0  0  0  0  0  0  0  0  0
  147.6757  139.7500  156.6184 H   0  0  0  0  0  0  0  0  0  0  0  0
  147.9048  141.1510  157.6618 H   0  0  0  0  0  0  0  0  0  0  0  0
  1  2  2  0  0  0  0
  2  3  1  0  0  0  0
  2 15  1  0  0  0  0
  3  4  1  0  0  0  0
  3 21  1  0  0  0  0
  3 22  1  0  0  0  0
  4 13  1  0  0  0  0
  4  5  1  0  0  0  0
  5  6  2  0  0  0  0
  5 23  1  0  0  0  0
  6  7  1  0  0  0  0
  6 24  1  0  0  0  0
  7  8  2  0  0  0  0
  7 25  1  0  0  0  0
  8  9  1  0  0  0  0
  8 13  1  0  0  0  0
  9 10  1  0  0  0  0
  9 11  1  0  0  0  0
  9 12  1  0  0  0  0
 13 14  2  0  0  0  0
 15 16  1  0  0  0  0
 15 26  1  0  0  0  0
 16 20  1  0  0  0  0
 16 17  1  0  0  0  0
 16 27  1  0  0  0  0
 17 18  1  0  0  0  0
 17 28  1  0  0  0  0
 17 29  1  0  0  0  0
 18 19  1  0  0  0  0
 18 30  1  0  0  0  0
 18 31  1  0  0  0  0
 19 20  1  0  0  0  0
 20 32  1  0  0  0  0
 20 33  1  0  0  0  0
M  END
> <s_m_source_file>
AV-unprocessed.smi

> <i_m_source_file_index>
2225

> <i_lp_mmshare_version>
43012

> <i_f3d_flags>
0

> <s_epik_input>
W0NIMl0xT1tDSDJdW0NIMl1bQ0BIXTFbTkhdQyg9TylbQ0gyXW4yW2NIXVtjSF1bY0hdYyhDKEYpKEYpRiljMj1P

> <s_epik_cmdline>
J2VwaWtfcHl0aG9uJywgJy1waCcsICc3LjAnLCAnLXRuJywgJzgnLCAnLW1hJywgJzIwMCcsICctbWV0YWxfYmluZGluZycsICctaW1hZScsICc8aW5maWxlLm1hZT4nLCAnLW9tYWUnLCAnPG91dGZpbGUubWFlPic=

> <r_lp_tautomer_probability>
1

> <r_epik_Ionization_Penalty>
3.32109e-08

> <r_epik_Ionization_Penalty_Charging>
1.91399e-09

> <r_epik_Ionization_Penalty_Neutral>
3.1297e-08

> <r_epik_State_Penalty>
-0

> <r_epik_Charging_Adjusted_Penalty>
1.91399e-09

> <i_epik_Tot_Q>
0

> <i_epik_Tot_abs_Q>
0

> <r_epik_Metal_State_Penalty>
-0

> <b_epik_Metal_Only>
0

> <s_lp_Force_Field>
OPLS_2005

> <r_lp_Energy>
26.4099

> <b_lp_Chiralities_Consistent>
1

> <s_lp_Variant>
AV-unprocessed.smi:2225-1

> <Gold.Version>
5.8.1

> <Gold.Id.Protein>
6NUR|6NUR_protein|mol2

> <Gold.PLP.Fitness>
46.0770

> <Gold.PLP.PLP>
-42.7142

> <Gold.PLP.part.hbond>
-2.0000

> <Gold.PLP.part.metal>
0.0000

> <Gold.PLP.part.buried>
-1.8514

> <Gold.PLP.part.nonpolar>
-38.4760

> <Gold.PLP.part.repulsive>
0.1810

> <Gold.PLP.ligand.clash>
0.2925

> <Gold.PLP.ligand.torsion>
0.2681

> <Gold.PLP.Chemscore.Hbond>
1.2873

> <Gold.PLP.Chemscore.CHOScore>
0.0000

> <Gold.PLP.Chemscore.Metal>
0.0000

> <Gold.Chemscore.Hbonds>
donor molecule, donor type, donor heavy atom, donor atom, acceptor molecule, acceptor atom, score
      L1  H    15    26       P1  8028  1.00
      P1  H  7997  8010       L1    14  0.37

> <Gold.PLP.Chemscore.Internal.Correction>
0.3297

> <Gold.Rescore>
     Score         DG    S(hbond)    S(metal)    S(lipo)     H(rot)  DE(clash)    DE(int)     intcor
      9.47     -15.86       1.50        0.00      81.75       1.64       0.15       6.24       ----

> <Gold.Chemscore.Fitness>
9.4693

> <Gold.Chemscore.DG>
-15.8552

> <Gold.Chemscore.ZeroCoef>
-5.4800

> <Gold.Chemscore.Hbond>
1.4989

> <Gold.Chemscore.Metal>
0.0000

> <Gold.Chemscore.Lipo>
81.7488

> <Gold.Chemscore.Internal_Hbond>
0.0000

> <Gold.Chemscore.DEClash>
0.1461

> <Gold.Chemscore.DEInternal>
6.2398

> <Gold.Chemscore.Rot>
1.6389

> <Gold.Chemscore.Internal.Correction>
   9.000000E+99

> <Gold.Chemscore.Hbonds>
donor molecule, donor type, donor heavy atom, donor atom, acceptor molecule, acceptor atom, score
      L1  H    15    26       P1  8028  0.99
      P1  H  7997  8010       L1    14  0.37

> <Gold.Chemscore.Hbond.Weighted>
-5.0062

> <Gold.Chemscore.Metal.Weighted>
-0.0000

> <Gold.Chemscore.Lipo.Weighted>
-9.5646

> <Gold.Chemscore.Internal_Hbond.Weighted>
0.0000

> <Gold.Chemscore.DEClash.Weighted>
0.1461

> <Gold.Chemscore.DEInternal.Weighted>
6.2398

> <Gold.Chemscore.Rot.Weighted>
4.1956

> <Gold.Chemscore.Internal.Correction.Weighted>
   9.000000E+99

> <Gold.Protein.RotatedTorsions>
[ 6907 6896 6895 6894 ] final  147.48 input  -60.11 | X-H torsion
[ 7974 7965 7964 7962 ] final  165.65 input  175.53 | X-H torsion
[ 8008 7997 7996 7995 ] final   36.78 input   59.86 | X-H torsion
[ 10167 10162 10161 10158 ] final -131.57 input  -65.29 | X-H torsion
[ 10718 10713 10712 10709 ] final   95.63 input   66.30 | X-H torsion
[ 10763 10752 10751 10750 ] final -178.44 input  -60.55 | X-H torsion
[ 11005 11000 10999 10996 ] final  149.35 input  -57.11 | X-H torsion

> <Gold.Protein.ActiveResidues>
 VAL166  LYS551  ARG553  GLY616  TRP617  ASP618  TYR619  PRO620  LYS621  CYS622 
 ASP623  PHE694  ASN695  SER759  ASP760  ASP761  ALA762  ILE779  LEU786  VAL792 
 PHE793  MET794  SER795  GLU796  ALA797  LYS798  CYS799  TRP800  GLU811  SER814 

> <Gold.Protein.RotatedAtoms>
  152.1542  133.4540  159.4828 H   0  0  0  0  0  0  0  0  0  0  0  0  # atno 6907 bound_to 6896
  150.6899  134.2152  159.4384 H   0  0  0  0  0  0  0  0  0  0  0  0  # atno 6908 bound_to 6896
  152.0050  134.9907  160.0617 H   0  0  0  0  0  0  0  0  0  0  0  0  # atno 6909 bound_to 6896
  144.7494  139.8501  143.6371 H   0  0  0  0  0  0  0  0  0  0  0  0  # atno 7974 bound_to 7965
  155.1930  140.3309  155.4355 H   0  0  0  0  0  0  0  0  0  0  0  0  # atno 8008 bound_to 7997
  156.2435  140.1907  156.6972 H   0  0  0  0  0  0  0  0  0  0  0  0  # atno 8009 bound_to 7997
  154.6193  140.0598  156.9580 H   0  0  0  0  0  0  0  0  0  0  0  0  # atno 8010 bound_to 7997
  139.9176  143.6421  152.2561 H   0  0  0  0  0  0  0  0  0  0  0  0  # atno 10167 bound_to 10162
  157.6936  131.0552  150.4368 H   0  0  0  0  0  0  0  0  0  0  0  0  # atno 10718 bound_to 10713
  154.5476  135.2810  155.1038 H   0  0  0  0  0  0  0  0  0  0  0  0  # atno 10763 bound_to 10752
  154.2496  135.6342  153.5239 H   0  0  0  0  0  0  0  0  0  0  0  0  # atno 10764 bound_to 10752
  152.9994  135.5579  154.6033 H   0  0  0  0  0  0  0  0  0  0  0  0  # atno 10765 bound_to 10752
  140.1037  134.8967  157.1835 H   0  0  0  0  0  0  0  0  0  0  0  0  # atno 11005 bound_to 11000
  146.1422  139.4482  143.0101 LP  0  0  0  0  0  0  0  0  0  0  0  0  # atno 17320 bound_to 7965
  145.7000  141.0139  143.1509 LP  0  0  0  0  0  0  0  0  0  0  0  0  # atno 17321 bound_to 7965
  139.6889  144.7649  151.1474 LP  0  0  0  0  0  0  0  0  0  0  0  0  # atno 17342 bound_to 10162
  140.7670  143.5617  150.9092 LP  0  0  0  0  0  0  0  0  0  0  0  0  # atno 17343 bound_to 10162
  156.4730  130.4057  149.6507 LP  0  0  0  0  0  0  0  0  0  0  0  0  # atno 17370 bound_to 10713
  156.3580  130.7467  151.2435 LP  0  0  0  0  0  0  0  0  0  0  0  0  # atno 17371 bound_to 10713
  140.3184  134.2944  155.7251 LP  0  0  0  0  0  0  0  0  0  0  0  0  # atno 17394 bound_to 11000
  141.2112  133.7694  156.9876 LP  0  0  0  0  0  0  0  0  0  0  0  0  # atno 17395 bound_to 11000

$$$$
