AV-unprocessed.smi:2819|AV-procd|sdf|10852|dock8
  -GOLD-   2272015293D 1   1.00000     0.00000
 Structure written by MMmdl.
 49 50  0  0  0  0  0  0  0  0  1 V2000
  145.8487  131.7210  150.4109 C   0  0  0  0  0  0  0  0  0  0  0  0
  144.7835  132.7178  150.3930 N   0  0  0  0  0  0  0  0  0  0  0  0
  143.7600  132.6779  149.3562 C   0  0  0  0  0  0  0  0  0  0  0  0
  144.7011  133.6736  151.4300 C   0  0  0  0  0  0  0  0  0  0  0  0
  143.4584  134.1038  151.9551 C   0  0  0  0  0  0  0  0  0  0  0  0
  143.5008  135.0585  152.9892 C   0  0  0  0  0  0  0  0  0  0  0  0
  144.6663  135.5445  153.4616 N   0  0  0  0  0  0  0  0  0  0  0  0
  145.7936  135.0821  152.9065 C   0  0  0  0  0  0  0  0  0  0  0  0
  147.0197  135.5374  153.3408 N   0  0  0  0  0  0  0  0  0  0  0  0
  147.3950  136.0692  154.5198 C   0  0  0  0  0  0  0  0  0  0  0  0
  146.6561  136.2561  155.4873 O   0  0  0  0  0  0  0  0  0  0  0  0
  148.7025  136.3677  154.5202 N   0  0  0  0  0  0  0  0  0  0  0  0
  149.4529  136.9218  155.6476 C   0  0  0  0  0  0  0  0  0  0  0  0
  150.3689  138.1133  155.2379 C   0  0  0  0  0  0  0  0  0  0  0  0
  151.4271  137.5572  154.2545 C   0  0  0  0  0  0  0  0  0  0  0  0
  149.4808  139.1010  154.4385 C   0  0  0  0  0  0  0  0  0  0  0  0
  150.9721  138.7767  156.4285 N   0  0  0  0  0  0  0  0  0  0  0  0
  151.6114  140.0698  156.1592 C   0  0  0  0  0  0  0  0  0  0  0  0
  152.1022  140.7520  157.4476 C   0  0  0  0  0  0  0  0  0  0  0  0
  152.9958  139.8874  158.1381 O   0  0  0  0  0  0  0  0  0  0  0  0
  152.3960  138.6418  158.4720 C   0  0  0  0  0  0  0  0  0  0  0  0
  151.9082  137.9425  157.1919 C   0  0  0  0  0  0  0  0  0  0  0  0
  145.8590  134.1805  151.9224 N   0  0  0  0  0  0  0  0  0  0  0  0
  146.8260  132.2045  150.3931 H   0  0  0  0  0  0  0  0  0  0  0  0
  145.7895  131.0587  149.5469 H   0  0  0  0  0  0  0  0  0  0  0  0
  145.7817  131.1059  151.3088 H   0  0  0  0  0  0  0  0  0  0  0  0
  142.7755  132.5125  149.7948 H   0  0  0  0  0  0  0  0  0  0  0  0
  143.9463  131.8732  148.6449 H   0  0  0  0  0  0  0  0  0  0  0  0
  143.7411  133.6155  148.7999 H   0  0  0  0  0  0  0  0  0  0  0  0
  142.5091  133.7339  151.5987 H   0  0  0  0  0  0  0  0  0  0  0  0
  142.5936  135.4341  153.4387 H   0  0  0  0  0  0  0  0  0  0  0  0
  147.7589  135.4447  152.6602 H   0  0  0  0  0  0  0  0  0  0  0  0
  149.2322  136.1728  153.6832 H   0  0  0  0  0  0  0  0  0  0  0  0
  148.7330  137.2263  156.4069 H   0  0  0  0  0  0  0  0  0  0  0  0
  150.0425  136.1430  156.1346 H   0  0  0  0  0  0  0  0  0  0  0  0
  150.9510  137.0974  153.3876 H   0  0  0  0  0  0  0  0  0  0  0  0
  152.0504  136.7893  154.7122 H   0  0  0  0  0  0  0  0  0  0  0  0
  152.0859  138.3366  153.8727 H   0  0  0  0  0  0  0  0  0  0  0  0
  148.8938  138.5850  153.6775 H   0  0  0  0  0  0  0  0  0  0  0  0
  150.0690  139.8514  153.9104 H   0  0  0  0  0  0  0  0  0  0  0  0
  148.7799  139.6292  155.0858 H   0  0  0  0  0  0  0  0  0  0  0  0
  152.4584  139.9395  155.4858 H   0  0  0  0  0  0  0  0  0  0  0  0
  150.9189  140.7516  155.6689 H   0  0  0  0  0  0  0  0  0  0  0  0
  152.6197  141.6815  157.2099 H   0  0  0  0  0  0  0  0  0  0  0  0
  151.2609  141.0092  158.0930 H   0  0  0  0  0  0  0  0  0  0  0  0
  153.1291  138.0206  158.9867 H   0  0  0  0  0  0  0  0  0  0  0  0
  151.5680  138.8013  159.1648 H   0  0  0  0  0  0  0  0  0  0  0  0
  151.4446  137.0024  157.4848 H   0  0  0  0  0  0  0  0  0  0  0  0
  152.7742  137.6913  156.5795 H   0  0  0  0  0  0  0  0  0  0  0  0
  1  2  1  0  0  0  0
  1 24  1  0  0  0  0
  1 25  1  0  0  0  0
  1 26  1  0  0  0  0
  2  3  1  0  0  0  0
  2  4  1  0  0  0  0
  3 27  1  0  0  0  0
  3 28  1  0  0  0  0
  3 29  1  0  0  0  0
  4 23  1  0  0  0  0
  4  5  2  0  0  0  0
  5  6  1  0  0  0  0
  5 30  1  0  0  0  0
  6  7  2  0  0  0  0
  6 31  1  0  0  0  0
  7  8  1  0  0  0  0
  8  9  1  0  0  0  0
  8 23  2  0  0  0  0
  9 10  1  0  0  0  0
  9 32  1  0  0  0  0
 10 11  2  0  0  0  0
 10 12  1  0  0  0  0
 12 13  1  0  0  0  0
 12 33  1  0  0  0  0
 13 14  1  0  0  0  0
 13 34  1  0  0  0  0
 13 35  1  0  0  0  0
 14 15  1  0  0  0  0
 14 16  1  0  0  0  0
 14 17  1  0  0  0  0
 15 36  1  0  0  0  0
 15 37  1  0  0  0  0
 15 38  1  0  0  0  0
 16 39  1  0  0  0  0
 16 40  1  0  0  0  0
 16 41  1  0  0  0  0
 17 22  1  0  0  0  0
 17 18  1  0  0  0  0
 18 19  1  0  0  0  0
 18 42  1  0  0  0  0
 18 43  1  0  0  0  0
 19 20  1  0  0  0  0
 19 44  1  0  0  0  0
 19 45  1  0  0  0  0
 20 21  1  0  0  0  0
 21 22  1  0  0  0  0
 21 46  1  0  0  0  0
 21 47  1  0  0  0  0
 22 48  1  0  0  0  0
 22 49  1  0  0  0  0
M  END
> <s_m_source_file>
AV-unprocessed.smi

> <i_m_source_file_index>
2819

> <i_lp_mmshare_version>
43012

> <i_f3d_flags>
0

> <s_epik_input>
W0NIM11OKFtDSDNdKWMxW2NIXVtjSF1uYyhuMSlbTkhdQyg9TylbTkhdW0NIMl1DKFtDSDNdKShbQ0gzXSlOMltDSDJdW0NIMl1PW0NIMl1bQ0gyXTI=

> <s_epik_cmdline>
J2VwaWtfcHl0aG9uJywgJy1waCcsICc3LjAnLCAnLXRuJywgJzgnLCAnLW1hJywgJzIwMCcsICctbWV0YWxfYmluZGluZycsICctaW1hZScsICc8aW5maWxlLm1hZT4nLCAnLW9tYWUnLCAnPG91dGZpbGUubWFlPic=

> <r_lp_tautomer_probability>
1

> <r_epik_Ionization_Penalty>
1.38931

> <r_epik_Ionization_Penalty_Charging>
0

> <r_epik_Ionization_Penalty_Neutral>
1.38931

> <r_epik_State_Penalty>
1.41304

> <r_epik_Charging_Adjusted_Penalty>
1.41304

> <i_epik_Tot_Q>
0

> <i_epik_Tot_abs_Q>
0

> <r_epik_Metal_State_Penalty>
0.631353

> <b_epik_Metal_Only>
0

> <s_lp_Force_Field>
OPLS_2005

> <r_lp_Energy>
40.3447

> <b_lp_Chiralities_Consistent>
1

> <s_lp_Variant>
AV-unprocessed.smi:2819-3

> <Gold.Version>
5.8.1

> <Gold.Id.Protein>
6NUR|6NUR_protein|mol2

> <Gold.PLP.Fitness>
39.8544

> <Gold.PLP.PLP>
-32.8218

> <Gold.PLP.part.hbond>
-2.9541

> <Gold.PLP.part.metal>
0.0000

> <Gold.PLP.part.buried>
-3.0125

> <Gold.PLP.part.nonpolar>
-26.4434

> <Gold.PLP.part.repulsive>
0.1954

> <Gold.PLP.ligand.clash>
0.0000

> <Gold.PLP.ligand.torsion>
0.8911

> <Gold.PLP.Chemscore.Hbond>
2.9120

> <Gold.PLP.Chemscore.CHOScore>
0.0000

> <Gold.PLP.Chemscore.Metal>
0.0000

> <Gold.Chemscore.Hbonds>
donor molecule, donor type, donor heavy atom, donor atom, acceptor molecule, acceptor atom, score
      L1  H     9    32       P1  7948  0.93
      L1  H    12    33       P1  7948  0.77
      P1  H  7997  8009       L1    20  0.85

> <Gold.PLP.Chemscore.Internal.Correction>
0.0788

> <Gold.Rescore>
     Score         DG    S(hbond)    S(metal)    S(lipo)     H(rot)  DE(clash)    DE(int)     intcor
     17.96     -19.72       2.76        0.00      75.86       1.51       0.06       1.70       ----

> <Gold.Chemscore.Fitness>
17.9571

> <Gold.Chemscore.DG>
-19.7180

> <Gold.Chemscore.ZeroCoef>
-5.4800

> <Gold.Chemscore.Hbond>
2.7609

> <Gold.Chemscore.Metal>
0.0000

> <Gold.Chemscore.Lipo>
75.8599

> <Gold.Chemscore.Internal_Hbond>
0.0000

> <Gold.Chemscore.DEClash>
0.0597

> <Gold.Chemscore.DEInternal>
1.7012

> <Gold.Chemscore.Rot>
1.5075

> <Gold.Chemscore.Internal.Correction>
   9.000000E+99

> <Gold.Chemscore.Hbonds>
donor molecule, donor type, donor heavy atom, donor atom, acceptor molecule, acceptor atom, score
      L1  H     9    32       P1  7948  0.90
      L1  H    12    33       P1  7948  0.69
      P1  H  7997  8009       L1    20  0.14

> <Gold.Chemscore.Hbond.Weighted>
-9.2215

> <Gold.Chemscore.Metal.Weighted>
-0.0000

> <Gold.Chemscore.Lipo.Weighted>
-8.8756

> <Gold.Chemscore.Internal_Hbond.Weighted>
0.0000

> <Gold.Chemscore.DEClash.Weighted>
0.0597

> <Gold.Chemscore.DEInternal.Weighted>
1.7012

> <Gold.Chemscore.Rot.Weighted>
3.8591

> <Gold.Chemscore.Internal.Correction.Weighted>
   9.000000E+99

> <Gold.Protein.RotatedTorsions>
[ 6907 6896 6895 6894 ] final    1.37 input  -60.11 | X-H torsion
[ 7974 7965 7964 7962 ] final  -45.05 input  175.53 | X-H torsion
[ 8008 7997 7996 7995 ] final  163.64 input   59.86 | X-H torsion
[ 10167 10162 10161 10158 ] final   80.95 input  -65.29 | X-H torsion
[ 10718 10713 10712 10709 ] final -151.46 input   66.30 | X-H torsion
[ 10763 10752 10751 10750 ] final  179.21 input  -60.55 | X-H torsion
[ 11005 11000 10999 10996 ] final   84.27 input  -57.11 | X-H torsion

> <Gold.Protein.ActiveResidues>
 VAL166  LYS551  ARG553  GLY616  TRP617  ASP618  TYR619  PRO620  LYS621  CYS622 
 ASP623  PHE694  ASN695  SER759  ASP760  ASP761  ALA762  ILE779  LEU786  VAL792 
 PHE793  MET794  SER795  GLU796  ALA797  LYS798  CYS799  TRP800  GLU811  SER814 

> <Gold.Protein.RotatedAtoms>
  151.5915  135.1053  160.0039 H   0  0  0  0  0  0  0  0  0  0  0  0  # atno 6907 bound_to 6896
  152.4304  133.7263  159.6573 H   0  0  0  0  0  0  0  0  0  0  0  0  # atno 6908 bound_to 6896
  150.8196  133.8206  159.3168 H   0  0  0  0  0  0  0  0  0  0  0  0  # atno 6909 bound_to 6896
  145.9859  140.7233  142.9341 H   0  0  0  0  0  0  0  0  0  0  0  0  # atno 7974 bound_to 7965
  156.1941  140.1718  156.8033 H   0  0  0  0  0  0  0  0  0  0  0  0  # atno 8008 bound_to 7997
  154.5508  140.0718  156.8695 H   0  0  0  0  0  0  0  0  0  0  0  0  # atno 8009 bound_to 7997
  155.3033  140.3363  155.4249 H   0  0  0  0  0  0  0  0  0  0  0  0  # atno 8010 bound_to 7997
  139.9443  144.6069  150.8221 H   0  0  0  0  0  0  0  0  0  0  0  0  # atno 10167 bound_to 10162
  156.4595  130.8206  151.2437 H   0  0  0  0  0  0  0  0  0  0  0  0  # atno 10718 bound_to 10713
  154.5177  135.2792  155.1289 H   0  0  0  0  0  0  0  0  0  0  0  0  # atno 10763 bound_to 10752
  154.2858  135.6276  153.5369 H   0  0  0  0  0  0  0  0  0  0  0  0  # atno 10764 bound_to 10752
  152.9931  135.5662  154.5659 H   0  0  0  0  0  0  0  0  0  0  0  0  # atno 10765 bound_to 10752
  139.9005  134.8205  156.2423 H   0  0  0  0  0  0  0  0  0  0  0  0  # atno 11005 bound_to 11000
  144.6874  140.2987  143.7266 LP  0  0  0  0  0  0  0  0  0  0  0  0  # atno 17320 bound_to 7965
  145.7701  139.1854  143.2217 LP  0  0  0  0  0  0  0  0  0  0  0  0  # atno 17321 bound_to 7965
  140.7602  143.3145  151.2766 LP  0  0  0  0  0  0  0  0  0  0  0  0  # atno 17342 bound_to 10162
  139.6679  144.0072  152.2734 LP  0  0  0  0  0  0  0  0  0  0  0  0  # atno 17343 bound_to 10162
  157.7498  131.0112  150.3335 LP  0  0  0  0  0  0  0  0  0  0  0  0  # atno 17370 bound_to 10713
  156.3731  130.3867  149.7160 LP  0  0  0  0  0  0  0  0  0  0  0  0  # atno 17371 bound_to 10713
  141.0277  133.7006  156.1376 LP  0  0  0  0  0  0  0  0  0  0  0  0  # atno 17394 bound_to 11000
  140.7142  134.4428  157.5579 LP  0  0  0  0  0  0  0  0  0  0  0  0  # atno 17395 bound_to 11000

$$$$
