#       Name:                AV-unprocessed.smi:1593
#       Creating user name   scv26
#       Creation time:       Fri Mar 27 07:04:33 2020


#       File generated by GOLD software.
#

@<TRIPOS>MOLECULE
AV-unprocessed.smi:1593
    44    45     1
SMALL
NO_CHARGES


@<TRIPOS>ATOM
      1 ****        -5.0377   4.4602   2.2092 C.3            1 S1                 0.0000
      2 ****        -4.0945   3.5346   1.5197 C.2            1 S1                 0.0000
      3 ****        -3.4684   2.3860   1.9131 C.2            1 S1                 0.0000
      4 ****        -2.7063   2.0230   0.7690 C.2            1 S1                 0.0000
      5 ****        -1.9192   0.9424   0.6529 N.pl3          1 S1                -1.0000
      6 ****        -0.6479   0.9712   1.1158 C.2            1 S1                 0.0000
      7 ****        -0.0994   1.9142   1.6911 O.2            1 S1                 0.0000
      8 ****         0.0318  -0.1622   0.8982 N.am           1 S1                 0.0000
      9 ****         1.4214  -0.3957   1.2718 C.3            1 S1                 0.0000
     10 ****         1.9208  -1.7446   0.7243 C.3            1 S1                 0.0000
     11 ****         1.8284  -1.9080  -0.7274 N.3            1 S1                 0.0000
     12 ****         2.7057  -0.9946  -1.4560 C.3            1 S1                 0.0000
     13 ****         2.6079  -1.1984  -2.9781 C.3            1 S1                 0.0000
     14 ****         2.8992  -2.5545  -3.3012 O.3            1 S1                 0.0000
     15 ****         2.0300  -3.4721  -2.6455 C.3            1 S1                 0.0000
     16 ****         2.1329  -3.2784  -1.1229 C.3            1 S1                 0.0000
     17 ****        -2.8699   2.8673  -0.2358 N.2            1 S1                 0.0000
     18 ****        -3.7536   3.8435   0.2397 O.3            1 S1                 0.0000
     19 ****        -5.9014   3.9160   2.5913 H              1 S1                 0.0000
     20 ****        -5.3990   5.2323   1.5295 H              1 S1                 0.0000
     21 ****        -4.5479   4.9520   3.0496 H              1 S1                 0.0000
     22 ****        -3.5393   1.8867   2.8677 H              1 S1                 0.0000
     23 ****        -0.4458  -0.9107   0.4177 H              1 S1                 0.0000
     24 ****         2.0480   0.4241   0.9189 H              1 S1                 0.0000
     25 ****         1.4964  -0.3957   2.3599 H              1 S1                 0.0000
     26 ****         2.9517  -1.9010   1.0448 H              1 S1                 0.0000
     27 ****         1.3381  -2.5314   1.2051 H              1 S1                 0.0000
     28 ****         2.4488   0.0396  -1.2281 H              1 S1                 0.0000
     29 ****         3.7389  -1.1398  -1.1369 H              1 S1                 0.0000
     30 ****         1.6117  -0.9374  -3.3384 H              1 S1                 0.0000
     31 ****         3.3151  -0.5487  -3.4938 H              1 S1                 0.0000
     32 ****         1.0044  -3.3203  -2.9858 H              1 S1                 0.0000
     33 ****         2.3120  -4.4888  -2.9192 H              1 S1                 0.0000
     34 ****         3.1386  -3.5434  -0.7931 H              1 S1                 0.0000
     35 ****         1.4492  -3.9676  -0.6259 H              1 S1                 0.0000
     36 ****        -2.2736   0.1123   0.2224 LP             1 S1                 0.0000
     37 ****        -0.6039   2.7621   1.8542 LP             1 S1                 0.0000
     38 ****         0.8498   1.8309   1.9944 LP             1 S1                 0.0000
     39 ****         0.8830  -1.6882  -0.9679 LP             1 S1                 0.0000
     40 ****         3.8403  -2.7538  -3.0282 LP             1 S1                 0.0000
     41 ****         2.8061  -2.6754  -4.2895 LP             1 S1                 0.0000
     42 ****        -2.4513   2.8187  -1.1427 LP             1 S1                 0.0000
     43 ****        -3.3101   4.7395   0.2161 LP             1 S1                 0.0000
     44 ****        -4.5738   3.8625  -0.3321 LP             1 S1                 0.0000
@<TRIPOS>BOND
    1    1    2 1     
    2    1   19 1     
    3    1   20 1     
    4    1   21 1     
    5    2   18 1     
    6    2    3 2     
    7    3    4 1     
    8    3   22 1     
    9    4    5 1     
   10    4   17 2     
   11    5    6 1     
   12    6    7 2     
   13    6    8 am    
   14    8    9 1     
   15    8   23 1     
   16    9   10 1     
   17    9   24 1     
   18    9   25 1     
   19   10   11 1     
   20   10   26 1     
   21   10   27 1     
   22   11   16 1     
   23   11   12 1     
   24   12   13 1     
   25   12   28 1     
   26   12   29 1     
   27   13   14 1     
   28   13   30 1     
   29   13   31 1     
   30   14   15 1     
   31   15   16 1     
   32   15   32 1     
   33   15   33 1     
   34   16   34 1     
   35   16   35 1     
   36   17   18 1     
   37    5   36 1     
   38    7   37 1     
   39    7   38 1     
   40   11   39 1     
   41   14   40 1     
   42   14   41 1     
   43   17   42 1     
   44   18   43 1     
   45   18   44 1     
@<TRIPOS>SUBSTRUCTURE
      1 S1             1
@<TRIPOS>SET
LONE_PAIRS      STATIC     ATOMS    <user>   **** ""
9 36 37 38 39 40 41 42 43 44
DONOR_HYDROGENS      STATIC     ATOMS    <user>   **** ""
1 23
ATOM$BLUE        STATIC     ATOMS    COLORGROUP SYSTEM
9 36 37 38 39 40 41 42 43 44
ATOM$RED        STATIC     ATOMS    COLORGROUP SYSTEM
1 23
