AV-unprocessed.smi:243|AV-procd|sdf|1848|dock4
  -GOLD-   2262020473D 1   1.00000     0.00000
 Structure written by MMmdl.
 58 61  0  0  0  0  0  0  0  0  2 V2000
  146.4088  132.6012  151.9636 C   0  0  0  0  0  0  0  0  0  0  0  0
  147.7979  132.5382  152.6155 C   0  0  0  0  0  0  0  0  0  0  0  0
  148.0854  133.7273  153.4566 N   0  3  2  0  0  0  0  0  0  0  0  0
  149.5095  133.7909  153.8727 C   0  0  0  0  0  0  0  0  0  0  0  0
  149.8160  135.1042  154.6093 C   0  0  0  0  0  0  0  0  0  0  0  0
  148.8772  135.2853  155.8219 C   0  0  1  0  0  0  0  0  0  0  0  0
  149.1692  136.4243  156.7116 N   0  0  0  0  0  0  0  0  0  0  0  0
  148.5287  136.4279  158.0224 C   0  0  0  0  0  0  0  0  0  0  0  0
  149.5511  137.6381  156.2284 C   0  0  0  0  0  0  0  0  0  0  0  0
  149.3530  137.8939  154.9099 N   0  0  0  0  0  0  0  0  0  0  0  0
  149.7332  139.0576  154.3760 C   0  0  0  0  0  0  0  0  0  0  0  0
  150.3320  140.0902  154.9699 N   0  0  0  0  0  0  0  0  0  0  0  0
  150.5513  139.8395  156.2917 C   0  0  0  0  0  0  0  0  0  0  0  0
  150.2034  138.6507  156.9956 C   0  0  0  0  0  0  0  0  0  0  0  0
  150.5889  138.7701  158.3271 N   0  0  0  0  0  0  0  0  0  0  0  0
  151.1336  139.9532  158.4030 C   0  0  0  0  0  0  0  0  0  0  0  0
  151.1428  140.6690  157.2281 N   0  0  0  0  0  0  0  0  0  0  0  0
  151.6807  142.0048  157.0236 C   0  0  0  0  0  0  0  0  0  0  0  0
  151.0711  143.0760  157.9629 C   0  0  1  0  0  0  0  0  0  0  0  0
  149.6625  142.9422  157.9807 O   0  0  0  0  0  0  0  0  0  0  0  0
  151.6096  142.9700  159.3804 C   0  0  0  0  0  0  0  0  0  0  0  0
  152.8971  143.7899  159.3184 C   0  0  0  0  0  0  0  0  0  0  0  0
  152.7072  144.7476  158.2807 O   0  0  0  0  0  0  0  0  0  0  0  0
  151.4653  144.5194  157.6231 C   0  0  0  0  0  0  0  0  0  0  0  0
  147.3937  135.1878  155.3752 C   0  0  1  0  0  0  0  0  0  0  0  0
  146.8837  136.3778  154.5377 C   0  0  0  0  0  0  0  0  0  0  0  0
  147.1709  133.8585  154.6233 C   0  0  0  0  0  0  0  0  0  0  0  0
  146.2674  131.7608  151.2837 H   0  0  0  0  0  0  0  0  0  0  0  0
  146.2861  133.5169  151.3844 H   0  0  0  0  0  0  0  0  0  0  0  0
  145.6062  132.5574  152.6991 H   0  0  0  0  0  0  0  0  0  0  0  0
  147.9084  131.6261  153.2040 H   0  0  0  0  0  0  0  0  0  0  0  0
  148.5351  132.4790  151.8136 H   0  0  0  0  0  0  0  0  0  0  0  0
  149.7414  132.9367  154.5108 H   0  0  0  0  0  0  0  0  0  0  0  0
  150.1553  133.7167  152.9968 H   0  0  0  0  0  0  0  0  0  0  0  0
  150.8555  135.0939  154.9393 H   0  0  0  0  0  0  0  0  0  0  0  0
  149.7158  135.9324  153.9080 H   0  0  0  0  0  0  0  0  0  0  0  0
  149.0584  134.4126  156.4515 H   0  0  0  0  0  0  0  0  0  0  0  0
  148.9841  137.1682  158.6815 H   0  0  0  0  0  0  0  0  0  0  0  0
  148.6357  135.4538  158.5003 H   0  0  0  0  0  0  0  0  0  0  0  0
  147.4641  136.6464  157.9387 H   0  0  0  0  0  0  0  0  0  0  0  0
  149.5307  139.1775  153.3219 H   0  0  0  0  0  0  0  0  0  0  0  0
  151.5417  140.3407  159.3253 H   0  0  0  0  0  0  0  0  0  0  0  0
  152.7622  141.9590  157.1592 H   0  0  0  0  0  0  0  0  0  0  0  0
  151.5199  142.2779  155.9802 H   0  0  0  0  0  0  0  0  0  0  0  0
  149.2956  143.5602  157.3674 H   0  0  0  0  0  0  0  0  0  0  0  0
  150.9224  143.4419  160.0850 H   0  0  0  0  0  0  0  0  0  0  0  0
  151.7721  141.9440  159.7123 H   0  0  0  0  0  0  0  0  0  0  0  0
  153.1218  144.2750  160.2685 H   0  0  0  0  0  0  0  0  0  0  0  0
  153.7448  143.1564  159.0557 H   0  0  0  0  0  0  0  0  0  0  0  0
  151.5267  144.7281  156.5560 H   0  0  0  0  0  0  0  0  0  0  0  0
  150.7431  145.2198  158.0459 H   0  0  0  0  0  0  0  0  0  0  0  0
  146.7731  135.1467  156.2708 H   0  0  0  0  0  0  0  0  0  0  0  0
  147.4850  136.5411  153.6439 H   0  0  0  0  0  0  0  0  0  0  0  0
  146.8815  137.3011  155.1111 H   0  0  0  0  0  0  0  0  0  0  0  0
  145.8561  136.2118  154.2136 H   0  0  0  0  0  0  0  0  0  0  0  0
  146.1308  133.7967  154.3050 H   0  0  0  0  0  0  0  0  0  0  0  0
  147.3335  133.0177  155.2998 H   0  0  0  0  0  0  0  0  0  0  0  0
  147.9291  134.5343  152.8695 H   0  0  0  0  0  0  0  0  0  0  0  0
  1  2  1  0  0  0  0
  1 28  1  0  0  0  0
  1 29  1  0  0  0  0
  1 30  1  0  0  0  0
  2  3  1  0  0  0  0
  2 31  1  0  0  0  0
  2 32  1  0  0  0  0
  3 27  1  0  0  0  0
  3  4  1  0  0  0  0
  3 58  1  0  0  0  0
  4  5  1  0  0  0  0
  4 33  1  0  0  0  0
  4 34  1  0  0  0  0
  5  6  1  0  0  0  0
  5 35  1  0  0  0  0
  5 36  1  0  0  0  0
  6  7  1  0  0  0  0
  6 25  1  0  0  0  0
  6 37  1  0  0  0  0
  7  8  1  0  0  0  0
  7  9  1  0  0  0  0
  8 38  1  0  0  0  0
  8 39  1  0  0  0  0
  8 40  1  0  0  0  0
  9 14  1  0  0  0  0
  9 10  2  0  0  0  0
 10 11  1  0  0  0  0
 11 12  2  0  0  0  0
 11 41  1  0  0  0  0
 12 13  1  0  0  0  0
 13 17  1  0  0  0  0
 13 14  2  0  0  0  0
 14 15  1  0  0  0  0
 15 16  2  0  0  0  0
 16 17  1  0  0  0  0
 16 42  1  0  0  0  0
 17 18  1  0  0  0  0
 18 19  1  0  0  0  0
 18 43  1  0  0  0  0
 18 44  1  0  0  0  0
 19 24  1  0  0  0  0
 19 20  1  0  0  0  0
 19 21  1  0  0  0  0
 20 45  1  0  0  0  0
 21 22  1  0  0  0  0
 21 46  1  0  0  0  0
 21 47  1  0  0  0  0
 22 23  1  0  0  0  0
 22 48  1  0  0  0  0
 22 49  1  0  0  0  0
 23 24  1  0  0  0  0
 24 50  1  0  0  0  0
 24 51  1  0  0  0  0
 25 26  1  0  0  0  0
 25 27  1  0  0  0  0
 25 52  1  0  0  0  0
 26 53  1  0  0  0  0
 26 54  1  0  0  0  0
 26 55  1  0  0  0  0
 27 56  1  0  0  0  0
 27 57  1  0  0  0  0
M  CHG  1   3   1
M  END
> <s_m_source_file>
AV-unprocessed.smi

> <i_m_source_file_index>
243

> <i_lp_mmshare_version>
43012

> <i_f3d_flags>
0

> <s_epik_input>
W0NIM11bQ0gyXU4xW0NIMl1bQ0gyXVtDQEhdKFtDQEBIXShbQ0gzXSlbQ0gyXTEpTihbQ0gzXSljKG5bY0hdbjIpYyhjMjMpbltjSF1uM1tDSDJdW0NAQF00KFtPSF0pW0NIMl1bQ0gyXU9bQ0gyXTQ=

> <s_epik_cmdline>
J2VwaWtfcHl0aG9uJywgJy1waCcsICc3LjAnLCAnLXRuJywgJzgnLCAnLW1hJywgJzIwMCcsICctbWV0YWxfYmluZGluZycsICctaW1hZScsICc8aW5maWxlLm1hZT4nLCAnLW9tYWUnLCAnPG91dGZpbGUubWFlPic=

> <r_lp_tautomer_probability>
1

> <r_epik_Ionization_Penalty>
0.00253099

> <r_epik_Ionization_Penalty_Charging>
0.00137877

> <r_epik_Ionization_Penalty_Neutral>
0.00115221

> <r_epik_State_Penalty>
-0

> <r_epik_Charging_Adjusted_Penalty>
0.00137877

> <i_epik_Tot_Q>
1

> <i_epik_Tot_abs_Q>
1

> <r_epik_Metal_State_Penalty>
-0

> <b_epik_Metal_Only>
0

> <s_lp_Force_Field>
OPLS_2005

> <r_lp_Energy>
50.8982

> <b_lp_Chiralities_Consistent>
1

> <s_lp_Variant>
AV-unprocessed.smi:243-1

> <Gold.Version>
5.8.1

> <Gold.Id.Protein>
6NUR|6NUR_protein|mol2

> <Gold.PLP.Fitness>
47.7332

> <Gold.PLP.PLP>
-34.1070

> <Gold.PLP.part.hbond>
-3.0522

> <Gold.PLP.part.metal>
0.0000

> <Gold.PLP.part.buried>
-3.6868

> <Gold.PLP.part.nonpolar>
-27.0693

> <Gold.PLP.part.repulsive>
0.2053

> <Gold.PLP.ligand.clash>
0.0000

> <Gold.PLP.ligand.torsion>
1.0014

> <Gold.PLP.Chemscore.Hbond>
3.9500

> <Gold.PLP.Chemscore.CHOScore>
1.0000

> <Gold.PLP.Chemscore.Metal>
0.0000

> <Gold.Chemscore.Hbonds>
donor molecule, donor type, donor heavy atom, donor atom, acceptor molecule, acceptor atom, score
      L1  H     3    58       P1  7948  1.02
      L1  H    20    45       P1  8028  0.86
      P1  H  7989  7998       L1    12  0.80
      L1  C    11    41       P1  7957  1.00

> <Gold.PLP.Chemscore.Internal.Correction>
0.7791

> <Gold.Rescore>
     Score         DG    S(hbond)    S(metal)    S(lipo)     H(rot)  DE(clash)    DE(int)     intcor
     11.72     -17.22       2.27        0.00      84.57       2.24       1.75       3.75       ----

> <Gold.Chemscore.Fitness>
11.7190

> <Gold.Chemscore.DG>
-17.2154

> <Gold.Chemscore.ZeroCoef>
-5.4800

> <Gold.Chemscore.Hbond>
2.2664

> <Gold.Chemscore.Metal>
0.0000

> <Gold.Chemscore.Lipo>
84.5702

> <Gold.Chemscore.Internal_Hbond>
0.0000

> <Gold.Chemscore.DEClash>
1.7500

> <Gold.Chemscore.DEInternal>
3.7464

> <Gold.Chemscore.Rot>
2.2379

> <Gold.Chemscore.Internal.Correction>
   9.000000E+99

> <Gold.Chemscore.Hbonds>
donor molecule, donor type, donor heavy atom, donor atom, acceptor molecule, acceptor atom, score
      L1  H     3    58       P1  7948  0.38
      L1  H    20    45       P1  8028  0.46
      P1  H  7989  7998       L1    12  0.39

> <Gold.Chemscore.Hbond.Weighted>
-7.5698

> <Gold.Chemscore.Metal.Weighted>
-0.0000

> <Gold.Chemscore.Lipo.Weighted>
-9.8947

> <Gold.Chemscore.Internal_Hbond.Weighted>
0.0000

> <Gold.Chemscore.DEClash.Weighted>
1.7500

> <Gold.Chemscore.DEInternal.Weighted>
3.7464

> <Gold.Chemscore.Rot.Weighted>
5.7291

> <Gold.Chemscore.Internal.Correction.Weighted>
   9.000000E+99

> <Gold.Protein.RotatedTorsions>
[ 6907 6896 6895 6894 ] final   62.76 input  -60.11 | X-H torsion
[ 7974 7965 7964 7962 ] final  171.06 input  175.53 | X-H torsion
[ 8008 7997 7996 7995 ] final  159.68 input   59.86 | X-H torsion
[ 10167 10162 10161 10158 ] final   89.81 input  -65.29 | X-H torsion
[ 10718 10713 10712 10709 ] final -144.66 input   66.30 | X-H torsion
[ 10763 10752 10751 10750 ] final  118.50 input  -60.55 | X-H torsion
[ 11005 11000 10999 10996 ] final -148.29 input  -57.11 | X-H torsion

> <Gold.Protein.ActiveResidues>
 VAL166  LYS551  ARG553  GLY616  TRP617  ASP618  TYR619  PRO620  LYS621  CYS622 
 ASP623  PHE694  ASN695  SER759  ASP760  ASP761  ALA762  ILE779  LEU786  VAL792 
 PHE793  MET794  SER795  GLU796  ALA797  LYS798  CYS799  TRP800  GLU811  SER814 

> <Gold.Protein.RotatedAtoms>
  152.4198  134.5976  159.9990 H   0  0  0  0  0  0  0  0  0  0  0  0  # atno 6907 bound_to 6896
  151.6129  133.3340  159.3079 H   0  0  0  0  0  0  0  0  0  0  0  0  # atno 6908 bound_to 6896
  150.8086  134.7265  159.6733 H   0  0  0  0  0  0  0  0  0  0  0  0  # atno 6909 bound_to 6896
  144.7305  139.9294  143.6424 H   0  0  0  0  0  0  0  0  0  0  0  0  # atno 7974 bound_to 7965
  156.2223  140.1824  156.7448 H   0  0  0  0  0  0  0  0  0  0  0  0  # atno 8008 bound_to 7997
  154.5885  140.0654  156.9233 H   0  0  0  0  0  0  0  0  0  0  0  0  # atno 8009 bound_to 7997
  155.2378  140.3319  155.4298 H   0  0  0  0  0  0  0  0  0  0  0  0  # atno 8010 bound_to 7997
  139.8535  144.6581  150.9141 H   0  0  0  0  0  0  0  0  0  0  0  0  # atno 10167 bound_to 10162
  156.3729  130.7797  151.1980 H   0  0  0  0  0  0  0  0  0  0  0  0  # atno 10718 bound_to 10713
  153.5686  135.3506  155.2828 H   0  0  0  0  0  0  0  0  0  0  0  0  # atno 10763 bound_to 10752
  154.8685  135.4154  154.2750 H   0  0  0  0  0  0  0  0  0  0  0  0  # atno 10764 bound_to 10752
  153.3511  135.7055  153.6857 H   0  0  0  0  0  0  0  0  0  0  0  0  # atno 10765 bound_to 10752
  140.7628  134.3279  157.5097 H   0  0  0  0  0  0  0  0  0  0  0  0  # atno 11005 bound_to 11000
  146.0869  139.3857  143.0430 LP  0  0  0  0  0  0  0  0  0  0  0  0  # atno 17320 bound_to 7965
  145.7765  140.9874  143.1122 LP  0  0  0  0  0  0  0  0  0  0  0  0  # atno 17321 bound_to 7965
  140.7784  143.3806  151.1483 LP  0  0  0  0  0  0  0  0  0  0  0  0  # atno 17342 bound_to 10162
  139.7442  143.8877  152.3059 LP  0  0  0  0  0  0  0  0  0  0  0  0  # atno 17343 bound_to 10162
  157.7485  131.0367  150.4421 LP  0  0  0  0  0  0  0  0  0  0  0  0  # atno 17370 bound_to 10713
  156.4651  130.4040  149.6552 LP  0  0  0  0  0  0  0  0  0  0  0  0  # atno 17371 bound_to 10713
  139.8768  134.9212  156.3271 LP  0  0  0  0  0  0  0  0  0  0  0  0  # atno 17394 bound_to 11000
  140.9647  133.7366  156.0450 LP  0  0  0  0  0  0  0  0  0  0  0  0  # atno 17395 bound_to 11000

$$$$
