AV-unprocessed.smi:690|AV-procd|sdf|3363|dock6
  -GOLD-   22720 0343D 1   1.00000     0.00000
 Structure written by MMmdl.
 46 48  0  0  0  0  0  0  0  0  1 V2000
  146.9267  140.3511  153.4559 C   0  0  0  0  0  0  0  0  0  0  0  0
  148.0350  141.2369  154.0283 C   0  0  0  0  0  0  0  0  0  0  0  0
  149.1895  140.4440  154.2467 O   0  0  0  0  0  0  0  0  0  0  0  0
  149.9437  140.8695  155.3709 C   0  0  1  0  0  0  0  0  0  0  0  0
  149.1435  140.9858  156.6722 C   0  0  0  0  0  0  0  0  0  0  0  0
  150.3509  140.3682  157.3870 C   0  0  2  0  0  0  0  0  0  0  0  0
  151.2713  141.4062  157.8482 N   0  0  0  0  0  0  0  0  0  0  0  0
  150.9452  142.4342  158.6481 C   0  0  0  0  0  0  0  0  0  0  0  0
  149.8005  142.6213  159.0581 O   0  0  0  0  0  0  0  0  0  0  0  0
  152.0627  143.3986  159.0818 C   0  0  0  0  0  0  0  0  0  0  0  0
  152.6268  143.1282  160.4169 N   0  0  0  0  0  0  0  0  0  0  0  0
  152.2733  144.0209  161.4484 C   0  0  0  0  0  0  0  0  0  0  0  0
  152.7143  143.8636  162.7063 C   0  0  0  0  0  0  0  0  0  0  0  0
  153.5776  142.7420  162.9910 C   0  0  0  0  0  0  0  0  0  0  0  0
  153.9185  141.8795  162.0129 C   0  0  0  0  0  0  0  0  0  0  0  0
  153.4325  142.0437  160.6379 C   0  0  0  0  0  0  0  0  0  0  0  0
  153.7242  141.2505  159.7429 O   0  0  0  0  0  0  0  0  0  0  0  0
  150.7711  139.7400  156.0321 C   0  0  0  0  0  0  0  0  0  0  0  0
  152.2498  139.6498  155.6601 C   0  0  0  0  0  0  0  0  0  0  0  0
  152.3513  138.6797  154.4816 C   0  0  0  0  0  0  0  0  0  0  0  0
  151.1235  137.7701  154.5897 C   0  0  0  0  0  0  0  0  0  0  0  0
  150.3131  138.3019  155.7763 C   0  0  0  0  0  0  0  0  0  0  0  0
  146.0224  140.9304  153.2687 H   0  0  0  0  0  0  0  0  0  0  0  0
  146.6724  139.5473  154.1474 H   0  0  0  0  0  0  0  0  0  0  0  0
  147.2356  139.8981  152.5136 H   0  0  0  0  0  0  0  0  0  0  0  0
  148.2623  142.0457  153.3321 H   0  0  0  0  0  0  0  0  0  0  0  0
  147.7020  141.6891  154.9636 H   0  0  0  0  0  0  0  0  0  0  0  0
  150.5477  141.7570  155.1683 H   0  0  0  0  0  0  0  0  0  0  0  0
  148.8953  142.0061  156.9666 H   0  0  0  0  0  0  0  0  0  0  0  0
  148.2654  140.3382  156.6913 H   0  0  0  0  0  0  0  0  0  0  0  0
  150.0691  139.6411  158.1505 H   0  0  0  0  0  0  0  0  0  0  0  0
  152.2336  141.3230  157.5546 H   0  0  0  0  0  0  0  0  0  0  0  0
  152.8452  143.3851  158.3213 H   0  0  0  0  0  0  0  0  0  0  0  0
  151.6623  144.4130  159.0516 H   0  0  0  0  0  0  0  0  0  0  0  0
  151.6189  144.8283  161.1525 H   0  0  0  0  0  0  0  0  0  0  0  0
  152.4284  144.5554  163.4851 H   0  0  0  0  0  0  0  0  0  0  0  0
  153.9517  142.5938  163.9932 H   0  0  0  0  0  0  0  0  0  0  0  0
  154.5650  141.0459  162.2452 H   0  0  0  0  0  0  0  0  0  0  0  0
  152.6816  140.6203  155.4131 H   0  0  0  0  0  0  0  0  0  0  0  0
  152.8212  139.2541  156.5009 H   0  0  0  0  0  0  0  0  0  0  0  0
  152.3172  139.2316  153.5416 H   0  0  0  0  0  0  0  0  0  0  0  0
  153.2858  138.1182  154.5007 H   0  0  0  0  0  0  0  0  0  0  0  0
  150.5374  137.8255  153.6717 H   0  0  0  0  0  0  0  0  0  0  0  0
  151.4019  136.7262  154.7384 H   0  0  0  0  0  0  0  0  0  0  0  0
  150.5211  137.6879  156.6536 H   0  0  0  0  0  0  0  0  0  0  0  0
  149.2411  138.2232  155.5924 H   0  0  0  0  0  0  0  0  0  0  0  0
  1  2  1  0  0  0  0
  1 23  1  0  0  0  0
  1 24  1  0  0  0  0
  1 25  1  0  0  0  0
  2  3  1  0  0  0  0
  2 26  1  0  0  0  0
  2 27  1  0  0  0  0
  3  4  1  0  0  0  0
  4 18  1  0  0  0  0
  4  5  1  0  0  0  0
  4 28  1  0  0  0  0
  5  6  1  0  0  0  0
  5 29  1  0  0  0  0
  5 30  1  0  0  0  0
  6  7  1  0  0  0  0
  6 18  1  0  0  0  0
  6 31  1  0  0  0  0
  7  8  1  0  0  0  0
  7 32  1  0  0  0  0
  8  9  2  0  0  0  0
  8 10  1  0  0  0  0
 10 11  1  0  0  0  0
 10 33  1  0  0  0  0
 10 34  1  0  0  0  0
 11 16  1  0  0  0  0
 11 12  1  0  0  0  0
 12 13  2  0  0  0  0
 12 35  1  0  0  0  0
 13 14  1  0  0  0  0
 13 36  1  0  0  0  0
 14 15  2  0  0  0  0
 14 37  1  0  0  0  0
 15 16  1  0  0  0  0
 15 38  1  0  0  0  0
 16 17  2  0  0  0  0
 18 22  1  0  0  0  0
 18 19  1  0  0  0  0
 19 20  1  0  0  0  0
 19 39  1  0  0  0  0
 19 40  1  0  0  0  0
 20 21  1  0  0  0  0
 20 41  1  0  0  0  0
 20 42  1  0  0  0  0
 21 22  1  0  0  0  0
 21 43  1  0  0  0  0
 21 44  1  0  0  0  0
 22 45  1  0  0  0  0
 22 46  1  0  0  0  0
M  END
> <s_m_source_file>
AV-unprocessed.smi

> <i_m_source_file_index>
690

> <i_lp_mmshare_version>
43012

> <i_f3d_flags>
0

> <s_epik_input>
W0NIMl0xW0NIMl1bQ0gyXVtDSDJdQzEyW0NASF0oT1tDSDJdW0NIM10pW0NIMl1bQ0BIXTJbTkhdQyg9TylbQ0gyXW4zW2NIXVtjSF1bY0hdW2NIXWMzPU8=

> <s_epik_cmdline>
J2VwaWtfcHl0aG9uJywgJy1waCcsICc3LjAnLCAnLXRuJywgJzgnLCAnLW1hJywgJzIwMCcsICctbWV0YWxfYmluZGluZycsICctaW1hZScsICc8aW5maWxlLm1hZT4nLCAnLW9tYWUnLCAnPG91dGZpbGUubWFlPic=

> <r_lp_tautomer_probability>
1

> <r_epik_Ionization_Penalty>
4.11691e-07

> <r_epik_Ionization_Penalty_Charging>
3.92797e-07

> <r_epik_Ionization_Penalty_Neutral>
1.88943e-08

> <r_epik_State_Penalty>
-0

> <r_epik_Charging_Adjusted_Penalty>
3.92797e-07

> <i_epik_Tot_Q>
0

> <i_epik_Tot_abs_Q>
0

> <r_epik_Metal_State_Penalty>
-0

> <b_epik_Metal_Only>
0

> <s_lp_Force_Field>
OPLS_2005

> <r_lp_Energy>
47.2811

> <b_lp_Chiralities_Consistent>
1

> <s_lp_Variant>
AV-unprocessed.smi:690-4

> <Gold.Version>
5.8.1

> <Gold.Id.Protein>
6NUR|6NUR_protein|mol2

> <Gold.PLP.Fitness>
51.1143

> <Gold.PLP.PLP>
-52.8202

> <Gold.PLP.part.hbond>
-1.4349

> <Gold.PLP.part.metal>
0.0000

> <Gold.PLP.part.buried>
-3.6457

> <Gold.PLP.part.nonpolar>
-48.4130

> <Gold.PLP.part.repulsive>
1.1660

> <Gold.PLP.ligand.clash>
0.0000

> <Gold.PLP.ligand.torsion>
1.0271

> <Gold.PLP.Chemscore.Hbond>
0.0000

> <Gold.PLP.Chemscore.CHOScore>
0.0000

> <Gold.PLP.Chemscore.Metal>
0.0000

> <Gold.PLP.Chemscore.Internal.Correction>
0.3481

> <Gold.Rescore>
     Score         DG    S(hbond)    S(metal)    S(lipo)     H(rot)  DE(clash)    DE(int)     intcor
     14.48     -15.70       0.00        0.00     124.37       1.69       0.46       0.77       ----

> <Gold.Chemscore.Fitness>
14.4804

> <Gold.Chemscore.DG>
-15.7047

> <Gold.Chemscore.ZeroCoef>
-5.4800

> <Gold.Chemscore.Hbond>
0.0000

> <Gold.Chemscore.Metal>
0.0000

> <Gold.Chemscore.Lipo>
124.3689

> <Gold.Chemscore.Internal_Hbond>
0.0000

> <Gold.Chemscore.DEClash>
0.4589

> <Gold.Chemscore.DEInternal>
0.7654

> <Gold.Chemscore.Rot>
1.6900

> <Gold.Chemscore.Internal.Correction>
   9.000000E+99

> <Gold.Chemscore.Hbond.Weighted>
-0.0000

> <Gold.Chemscore.Metal.Weighted>
-0.0000

> <Gold.Chemscore.Lipo.Weighted>
-14.5512

> <Gold.Chemscore.Internal_Hbond.Weighted>
0.0000

> <Gold.Chemscore.DEClash.Weighted>
0.4589

> <Gold.Chemscore.DEInternal.Weighted>
0.7654

> <Gold.Chemscore.Rot.Weighted>
4.3265

> <Gold.Chemscore.Internal.Correction.Weighted>
   9.000000E+99

> <Gold.Protein.RotatedTorsions>
[ 6907 6896 6895 6894 ] final    3.76 input  -60.11 | X-H torsion
[ 7974 7965 7964 7962 ] final    3.88 input  175.53 | X-H torsion
[ 8008 7997 7996 7995 ] final  106.12 input   59.86 | X-H torsion
[ 10167 10162 10161 10158 ] final  131.91 input  -65.29 | X-H torsion
[ 10718 10713 10712 10709 ] final  -23.23 input   66.30 | X-H torsion
[ 10763 10752 10751 10750 ] final  -48.66 input  -60.55 | X-H torsion
[ 11005 11000 10999 10996 ] final  135.51 input  -57.11 | X-H torsion

> <Gold.Protein.ActiveResidues>
 VAL166  LYS551  ARG553  GLY616  TRP617  ASP618  TYR619  PRO620  LYS621  CYS622 
 ASP623  PHE694  ASN695  SER759  ASP760  ASP761  ALA762  ILE779  LEU786  VAL792 
 PHE793  MET794  SER795  GLU796  ALA797  LYS798  CYS799  TRP800  GLU811  SER814 

> <Gold.Protein.RotatedAtoms>
  151.6304  135.1023  160.0120 H   0  0  0  0  0  0  0  0  0  0  0  0  # atno 6907 bound_to 6896
  152.4110  133.6958  159.6406 H   0  0  0  0  0  0  0  0  0  0  0  0  # atno 6908 bound_to 6896
  150.8000  133.8542  159.3254 H   0  0  0  0  0  0  0  0  0  0  0  0  # atno 6909 bound_to 6896
  146.2445  140.0618  142.8368 H   0  0  0  0  0  0  0  0  0  0  0  0  # atno 7974 bound_to 7965
  156.1716  140.3118  155.8985 H   0  0  0  0  0  0  0  0  0  0  0  0  # atno 8008 bound_to 7997
  155.3574  140.0474  157.3063 H   0  0  0  0  0  0  0  0  0  0  0  0  # atno 8009 bound_to 7997
  154.5247  140.2210  155.8922 H   0  0  0  0  0  0  0  0  0  0  0  0  # atno 8010 bound_to 7997
  139.5363  144.6685  151.4776 H   0  0  0  0  0  0  0  0  0  0  0  0  # atno 10167 bound_to 10162
  156.4938  130.4572  149.6740 H   0  0  0  0  0  0  0  0  0  0  0  0  # atno 10718 bound_to 10713
  154.0813  135.6590  153.4838 H   0  0  0  0  0  0  0  0  0  0  0  0  # atno 10763 bound_to 10752
  153.0355  135.5180  154.7471 H   0  0  0  0  0  0  0  0  0  0  0  0  # atno 10764 bound_to 10752
  154.6567  135.3009  154.9887 H   0  0  0  0  0  0  0  0  0  0  0  0  # atno 10765 bound_to 10752
  139.9984  134.9488  157.0017 H   0  0  0  0  0  0  0  0  0  0  0  0  # atno 11005 bound_to 11000
  145.0893  140.9273  143.4779 LP  0  0  0  0  0  0  0  0  0  0  0  0  # atno 17320 bound_to 7965
  145.0788  139.2975  143.5794 LP  0  0  0  0  0  0  0  0  0  0  0  0  # atno 17321 bound_to 7965
  140.6570  143.8577  150.6846 LP  0  0  0  0  0  0  0  0  0  0  0  0  # atno 17342 bound_to 10162
  140.1960  143.3998  152.1827 LP  0  0  0  0  0  0  0  0  0  0  0  0  # atno 17343 bound_to 10162
  156.3400  130.7377  151.2320 LP  0  0  0  0  0  0  0  0  0  0  0  0  # atno 17370 bound_to 10713
  157.7471  131.0406  150.4607 LP  0  0  0  0  0  0  0  0  0  0  0  0  # atno 17371 bound_to 10713
  140.4774  134.1324  155.7212 LP  0  0  0  0  0  0  0  0  0  0  0  0  # atno 17394 bound_to 11000
  141.1623  133.8770  157.1814 LP  0  0  0  0  0  0  0  0  0  0  0  0  # atno 17395 bound_to 11000

$$$$
