AV-unprocessed.smi:243|AV-procd|sdf|1861|dock7
  -GOLD-   2262020493D 1   1.00000     0.00000
 Structure written by MMmdl.
 58 61  0  0  0  0  0  0  0  0  2 V2000
  143.8088  132.7621  148.2199 C   0  0  0  0  0  0  0  0  0  0  0  0
  143.8026  132.4946  149.7317 C   0  0  0  0  0  0  0  0  0  0  0  0
  143.2804  133.6483  150.5116 N   0  3  1  0  0  0  0  0  0  0  0  0
  143.0240  133.3301  151.9392 C   0  0  0  0  0  0  0  0  0  0  0  0
  144.3307  133.2364  152.7433 C   0  0  0  0  0  0  0  0  0  0  0  0
  145.1470  134.5378  152.6264 C   0  0  1  0  0  0  0  0  0  0  0  0
  146.3839  134.4494  153.4161 N   0  0  0  0  0  0  0  0  0  0  0  0
  147.2689  133.2935  153.3016 C   0  0  0  0  0  0  0  0  0  0  0  0
  146.7029  135.4287  154.3064 C   0  0  0  0  0  0  0  0  0  0  0  0
  145.7265  136.2825  154.7150 N   0  0  0  0  0  0  0  0  0  0  0  0
  145.9958  137.2630  155.5809 C   0  0  0  0  0  0  0  0  0  0  0  0
  147.1570  137.5664  156.1604 N   0  0  0  0  0  0  0  0  0  0  0  0
  148.1458  136.7178  155.7597 C   0  0  0  0  0  0  0  0  0  0  0  0
  148.0086  135.6316  154.8469 C   0  0  0  0  0  0  0  0  0  0  0  0
  149.2326  134.9852  154.7084 N   0  0  0  0  0  0  0  0  0  0  0  0
  150.0416  135.6509  155.4850 C   0  0  0  0  0  0  0  0  0  0  0  0
  149.4753  136.7165  156.1459 N   0  0  0  0  0  0  0  0  0  0  0  0
  150.1398  137.6205  157.0733 C   0  0  0  0  0  0  0  0  0  0  0  0
  151.4412  138.2579  156.5217 C   0  0  2  0  0  0  0  0  0  0  0  0
  152.4924  137.3125  156.5908 O   0  0  0  0  0  0  0  0  0  0  0  0
  151.8706  139.5355  157.2454 C   0  0  0  0  0  0  0  0  0  0  0  0
  151.3154  140.6345  156.3520 C   0  0  0  0  0  0  0  0  0  0  0  0
  151.5654  140.1224  155.0553 O   0  0  0  0  0  0  0  0  0  0  0  0
  151.2625  138.7321  155.0645 C   0  0  0  0  0  0  0  0  0  0  0  0
  145.3967  134.8898  151.1374 C   0  0  2  0  0  0  0  0  0  0  0  0
  146.1199  136.2369  150.9689 C   0  0  0  0  0  0  0  0  0  0  0  0
  144.0569  134.9097  150.3643 C   0  0  0  0  0  0  0  0  0  0  0  0
  144.0983  131.8639  147.6740 H   0  0  0  0  0  0  0  0  0  0  0  0
  144.5131  133.5465  147.9443 H   0  0  0  0  0  0  0  0  0  0  0  0
  142.8198  133.0565  147.8676 H   0  0  0  0  0  0  0  0  0  0  0  0
  143.1620  131.6297  149.9092 H   0  0  0  0  0  0  0  0  0  0  0  0
  144.7977  132.2088  150.0721 H   0  0  0  0  0  0  0  0  0  0  0  0
  142.3940  134.1148  152.3605 H   0  0  0  0  0  0  0  0  0  0  0  0
  142.4526  132.4051  152.0258 H   0  0  0  0  0  0  0  0  0  0  0  0
  144.0985  133.0401  153.7907 H   0  0  0  0  0  0  0  0  0  0  0  0
  144.9139  132.3836  152.3948 H   0  0  0  0  0  0  0  0  0  0  0  0
  144.5092  135.3205  153.0379 H   0  0  0  0  0  0  0  0  0  0  0  0
  148.3141  133.5905  153.3964 H   0  0  0  0  0  0  0  0  0  0  0  0
  147.1571  132.7963  152.3392 H   0  0  0  0  0  0  0  0  0  0  0  0
  147.0420  132.5640  154.0792 H   0  0  0  0  0  0  0  0  0  0  0  0
  145.1617  137.8956  155.8468 H   0  0  0  0  0  0  0  0  0  0  0  0
  151.0822  135.3823  155.5957 H   0  0  0  0  0  0  0  0  0  0  0  0
  149.4303  138.4012  157.3516 H   0  0  0  0  0  0  0  0  0  0  0  0
  150.3532  137.0667  157.9886 H   0  0  0  0  0  0  0  0  0  0  0  0
  153.2194  137.7061  157.0485 H   0  0  0  0  0  0  0  0  0  0  0  0
  151.5243  139.6147  158.2744 H   0  0  0  0  0  0  0  0  0  0  0  0
  152.9584  139.6209  157.2635 H   0  0  0  0  0  0  0  0  0  0  0  0
  150.2419  140.7615  156.5026 H   0  0  0  0  0  0  0  0  0  0  0  0
  151.8058  141.5956  156.5082 H   0  0  0  0  0  0  0  0  0  0  0  0
  151.9065  138.2055  154.3587 H   0  0  0  0  0  0  0  0  0  0  0  0
  150.2340  138.5989  154.7264 H   0  0  0  0  0  0  0  0  0  0  0  0
  146.0327  134.1272  150.6894 H   0  0  0  0  0  0  0  0  0  0  0  0
  145.5497  137.0519  151.4155 H   0  0  0  0  0  0  0  0  0  0  0  0
  146.2683  136.4737  149.9152 H   0  0  0  0  0  0  0  0  0  0  0  0
  147.1039  136.2240  151.4382 H   0  0  0  0  0  0  0  0  0  0  0  0
  144.2269  135.1321  149.3114 H   0  0  0  0  0  0  0  0  0  0  0  0
  143.4383  135.7256  150.7408 H   0  0  0  0  0  0  0  0  0  0  0  0
  142.3703  133.8346  150.1149 H   0  0  0  0  0  0  0  0  0  0  0  0
  1  2  1  0  0  0  0
  1 28  1  0  0  0  0
  1 29  1  0  0  0  0
  1 30  1  0  0  0  0
  2  3  1  0  0  0  0
  2 31  1  0  0  0  0
  2 32  1  0  0  0  0
  3 27  1  0  0  0  0
  3  4  1  0  0  0  0
  3 58  1  0  0  0  0
  4  5  1  0  0  0  0
  4 33  1  0  0  0  0
  4 34  1  0  0  0  0
  5  6  1  0  0  0  0
  5 35  1  0  0  0  0
  5 36  1  0  0  0  0
  6  7  1  0  0  0  0
  6 25  1  0  0  0  0
  6 37  1  0  0  0  0
  7  8  1  0  0  0  0
  7  9  1  0  0  0  0
  8 38  1  0  0  0  0
  8 39  1  0  0  0  0
  8 40  1  0  0  0  0
  9 14  1  0  0  0  0
  9 10  2  0  0  0  0
 10 11  1  0  0  0  0
 11 12  2  0  0  0  0
 11 41  1  0  0  0  0
 12 13  1  0  0  0  0
 13 17  1  0  0  0  0
 13 14  2  0  0  0  0
 14 15  1  0  0  0  0
 15 16  2  0  0  0  0
 16 17  1  0  0  0  0
 16 42  1  0  0  0  0
 17 18  1  0  0  0  0
 18 19  1  0  0  0  0
 18 43  1  0  0  0  0
 18 44  1  0  0  0  0
 19 24  1  0  0  0  0
 19 20  1  0  0  0  0
 19 21  1  0  0  0  0
 20 45  1  0  0  0  0
 21 22  1  0  0  0  0
 21 46  1  0  0  0  0
 21 47  1  0  0  0  0
 22 23  1  0  0  0  0
 22 48  1  0  0  0  0
 22 49  1  0  0  0  0
 23 24  1  0  0  0  0
 24 50  1  0  0  0  0
 24 51  1  0  0  0  0
 25 26  1  0  0  0  0
 25 27  1  0  0  0  0
 25 52  1  0  0  0  0
 26 53  1  0  0  0  0
 26 54  1  0  0  0  0
 26 55  1  0  0  0  0
 27 56  1  0  0  0  0
 27 57  1  0  0  0  0
M  CHG  1   3   1
M  END
> <s_m_source_file>
AV-unprocessed.smi

> <i_m_source_file_index>
243

> <i_lp_mmshare_version>
43012

> <i_f3d_flags>
0

> <s_epik_input>
W0NIM11bQ0gyXU4xW0NIMl1bQ0gyXVtDQEhdKFtDQEBIXShbQ0gzXSlbQ0gyXTEpTihbQ0gzXSljKG5bY0hdbjIpYyhjMjMpbltjSF1uM1tDSDJdW0NAQF00KFtPSF0pW0NIMl1bQ0gyXU9bQ0gyXTQ=

> <s_epik_cmdline>
J2VwaWtfcHl0aG9uJywgJy1waCcsICc3LjAnLCAnLXRuJywgJzgnLCAnLW1hJywgJzIwMCcsICctbWV0YWxfYmluZGluZycsICctaW1hZScsICc8aW5maWxlLm1hZT4nLCAnLW9tYWUnLCAnPG91dGZpbGUubWFlPic=

> <r_lp_tautomer_probability>
1

> <r_epik_Ionization_Penalty>
0.00253099

> <r_epik_Ionization_Penalty_Charging>
0.00137877

> <r_epik_Ionization_Penalty_Neutral>
0.00115221

> <r_epik_State_Penalty>
-0

> <r_epik_Charging_Adjusted_Penalty>
0.00137877

> <i_epik_Tot_Q>
1

> <i_epik_Tot_abs_Q>
1

> <r_epik_Metal_State_Penalty>
-0

> <b_epik_Metal_Only>
0

> <s_lp_Force_Field>
OPLS_2005

> <r_lp_Energy>
46.8505

> <b_lp_Chiralities_Consistent>
1

> <s_lp_Variant>
AV-unprocessed.smi:243-14

> <Gold.Version>
5.8.1

> <Gold.Id.Protein>
6NUR|6NUR_protein|mol2

> <Gold.PLP.Fitness>
40.4541

> <Gold.PLP.PLP>
-30.3993

> <Gold.PLP.part.hbond>
-3.0000

> <Gold.PLP.part.metal>
0.0000

> <Gold.PLP.part.buried>
2.1278

> <Gold.PLP.part.nonpolar>
-31.3144

> <Gold.PLP.part.repulsive>
1.3540

> <Gold.PLP.ligand.clash>
0.0000

> <Gold.PLP.ligand.torsion>
0.7491

> <Gold.PLP.Chemscore.Hbond>
3.8080

> <Gold.PLP.Chemscore.CHOScore>
0.0000

> <Gold.PLP.Chemscore.Metal>
0.0000

> <Gold.Chemscore.Hbonds>
donor molecule, donor type, donor heavy atom, donor atom, acceptor molecule, acceptor atom, score
      L1  H     3    58       P1 10186  2.00
      P1  H  7989  7998       L1    23  1.00

> <Gold.PLP.Chemscore.Internal.Correction>
0.1290

> <Gold.Rescore>
     Score         DG    S(hbond)    S(metal)    S(lipo)     H(rot)  DE(clash)    DE(int)     intcor
     15.16     -18.56       2.36        0.00      93.45       2.24       1.64       1.77       ----

> <Gold.Chemscore.Fitness>
15.1555

> <Gold.Chemscore.DG>
-18.5643

> <Gold.Chemscore.ZeroCoef>
-5.4800

> <Gold.Chemscore.Hbond>
2.3590

> <Gold.Chemscore.Metal>
0.0000

> <Gold.Chemscore.Lipo>
93.4550

> <Gold.Chemscore.Internal_Hbond>
0.0000

> <Gold.Chemscore.DEClash>
1.6429

> <Gold.Chemscore.DEInternal>
1.7659

> <Gold.Chemscore.Rot>
2.2379

> <Gold.Chemscore.Internal.Correction>
   9.000000E+99

> <Gold.Chemscore.Hbonds>
donor molecule, donor type, donor heavy atom, donor atom, acceptor molecule, acceptor atom, score
      L1  H     3    58       P1 10186  0.98
      P1  H  7989  7998       L1    23  0.88
      P1  H 10752 10765       L1    20  0.03

> <Gold.Chemscore.Hbond.Weighted>
-7.8792

> <Gold.Chemscore.Metal.Weighted>
-0.0000

> <Gold.Chemscore.Lipo.Weighted>
-10.9342

> <Gold.Chemscore.Internal_Hbond.Weighted>
0.0000

> <Gold.Chemscore.DEClash.Weighted>
1.6429

> <Gold.Chemscore.DEInternal.Weighted>
1.7659

> <Gold.Chemscore.Rot.Weighted>
5.7291

> <Gold.Chemscore.Internal.Correction.Weighted>
   9.000000E+99

> <Gold.Protein.RotatedTorsions>
[ 6907 6896 6895 6894 ] final -177.05 input  -60.11 | X-H torsion
[ 7974 7965 7964 7962 ] final  -41.58 input  175.53 | X-H torsion
[ 8008 7997 7996 7995 ] final  140.59 input   59.86 | X-H torsion
[ 10167 10162 10161 10158 ] final    8.32 input  -65.29 | X-H torsion
[ 10718 10713 10712 10709 ] final    2.93 input   66.30 | X-H torsion
[ 10763 10752 10751 10750 ] final -139.67 input  -60.55 | X-H torsion
[ 11005 11000 10999 10996 ] final  -94.79 input  -57.11 | X-H torsion

> <Gold.Protein.ActiveResidues>
 VAL166  LYS551  ARG553  GLY616  TRP617  ASP618  TYR619  PRO620  LYS621  CYS622 
 ASP623  PHE694  ASN695  SER759  ASP760  ASP761  ALA762  ILE779  LEU786  VAL792 
 PHE793  MET794  SER795  GLU796  ALA797  LYS798  CYS799  TRP800  GLU811  SER814 

> <Gold.Protein.RotatedAtoms>
  151.6148  133.3344  159.3074 H   0  0  0  0  0  0  0  0  0  0  0  0  # atno 6907 bound_to 6896
  150.8137  134.7311  159.6722 H   0  0  0  0  0  0  0  0  0  0  0  0  # atno 6908 bound_to 6896
  152.4234  134.5919  160.0028 H   0  0  0  0  0  0  0  0  0  0  0  0  # atno 6909 bound_to 6896
  146.0197  140.6864  142.9184 H   0  0  0  0  0  0  0  0  0  0  0  0  # atno 7974 bound_to 7965
  156.2977  140.2337  156.4427 H   0  0  0  0  0  0  0  0  0  0  0  0  # atno 8008 bound_to 7997
  154.8172  140.0440  157.1405 H   0  0  0  0  0  0  0  0  0  0  0  0  # atno 8009 bound_to 7997
  154.9356  140.3022  155.5149 H   0  0  0  0  0  0  0  0  0  0  0  0  # atno 8010 bound_to 7997
  140.6321  143.7970  150.7309 H   0  0  0  0  0  0  0  0  0  0  0  0  # atno 10167 bound_to 10162
  156.8704  130.5618  149.5658 H   0  0  0  0  0  0  0  0  0  0  0  0  # atno 10718 bound_to 10713
  154.8602  135.3575  154.5584 H   0  0  0  0  0  0  0  0  0  0  0  0  # atno 10763 bound_to 10752
  153.6200  135.7006  153.5319 H   0  0  0  0  0  0  0  0  0  0  0  0  # atno 10764 bound_to 10752
  153.3137  135.4171  155.1318 H   0  0  0  0  0  0  0  0  0  0  0  0  # atno 10765 bound_to 10752
  141.1460  133.7981  157.0347 H   0  0  0  0  0  0  0  0  0  0  0  0  # atno 11005 bound_to 11000
  144.6985  140.3545  143.7175 LP  0  0  0  0  0  0  0  0  0  0  0  0  # atno 17320 bound_to 7965
  145.7212  139.1710  143.2483 LP  0  0  0  0  0  0  0  0  0  0  0  0  # atno 17321 bound_to 7965
  140.1583  143.4297  152.2084 LP  0  0  0  0  0  0  0  0  0  0  0  0  # atno 17342 bound_to 10162
  139.5534  144.7355  151.4366 LP  0  0  0  0  0  0  0  0  0  0  0  0  # atno 17343 bound_to 10162
  156.0730  130.5758  150.9419 LP  0  0  0  0  0  0  0  0  0  0  0  0  # atno 17370 bound_to 10713
  157.6199  131.0930  150.8641 LP  0  0  0  0  0  0  0  0  0  0  0  0  # atno 17371 bound_to 10713
  140.0731  134.9691  157.1501 LP  0  0  0  0  0  0  0  0  0  0  0  0  # atno 17394 bound_to 11000
  140.3682  134.2419  155.7180 LP  0  0  0  0  0  0  0  0  0  0  0  0  # atno 17395 bound_to 11000

$$$$
