AV-unprocessed.smi:2233|AV-procd|sdf|9041|dock6
  -GOLD-   2272012253D 1   1.00000     0.00000
 Structure written by MMmdl.
 42 43  0  0  0  0  0  0  0  0  1 V2000
  153.9957  142.6383  163.7082 C   0  0  0  0  0  0  0  0  0  0  0  0
  153.1951  143.0181  162.8681 C   0  0  0  0  0  0  0  0  0  0  0  0
  152.2371  143.4661  161.8420 C   0  0  0  0  0  0  0  0  0  0  0  0
  152.8126  143.5469  160.4161 C   0  0  0  0  0  0  0  0  0  0  0  0
  153.1608  142.1818  159.7952 C   0  0  0  0  0  0  0  0  0  0  0  0
  151.9073  141.3977  159.3665 C   0  0  0  0  0  0  0  0  0  0  0  0
  152.1987  140.2934  158.3445 C   0  0  0  0  0  0  0  0  0  0  0  0
  153.3477  139.8803  158.1887 O   0  0  0  0  0  0  0  0  0  0  0  0
  151.1267  139.8297  157.6779 N   0  0  0  0  0  0  0  0  0  0  0  0
  151.0712  138.8236  156.6716 C   0  0  0  0  0  0  0  0  0  0  0  0
  151.9627  137.7228  156.6279 C   0  0  0  0  0  0  0  0  0  0  0  0
  151.9364  136.7782  155.6644 N   0  0  0  0  0  0  0  0  0  0  0  0
  151.0132  136.8953  154.6891 C   0  0  0  0  0  0  0  0  0  0  0  0
  150.0891  137.9548  154.6236 C   0  0  0  0  0  0  0  0  0  0  0  0
  150.1189  138.9463  155.6299 C   0  0  0  0  0  0  0  0  0  0  0  0
  149.2181  140.0239  155.6130 N   0  0  0  0  0  0  0  0  0  0  0  0
  148.5727  140.2534  154.3269 C   0  0  0  0  0  0  0  0  0  0  0  0
  147.7377  141.5439  154.3878 C   0  0  0  0  0  0  0  0  0  0  0  0
  146.7992  141.4530  155.4564 O   0  0  0  0  0  0  0  0  0  0  0  0
  147.4383  141.2962  156.7209 C   0  0  0  0  0  0  0  0  0  0  0  0
  148.2743  140.0043  156.7222 C   0  0  0  0  0  0  0  0  0  0  0  0
  154.6966  142.3028  164.4393 H   0  0  0  0  0  0  0  0  0  0  0  0
  151.3825  142.7894  161.8667 H   0  0  0  0  0  0  0  0  0  0  0  0
  151.8713  144.4465  162.1483 H   0  0  0  0  0  0  0  0  0  0  0  0
  152.0838  144.0486  159.7783 H   0  0  0  0  0  0  0  0  0  0  0  0
  153.6984  144.1838  160.4165 H   0  0  0  0  0  0  0  0  0  0  0  0
  153.8094  142.3275  158.9305 H   0  0  0  0  0  0  0  0  0  0  0  0
  153.7317  141.5945  160.5158 H   0  0  0  0  0  0  0  0  0  0  0  0
  151.4382  140.9545  160.2463 H   0  0  0  0  0  0  0  0  0  0  0  0
  151.1751  142.0790  158.9317 H   0  0  0  0  0  0  0  0  0  0  0  0
  150.2310  140.1881  157.9766 H   0  0  0  0  0  0  0  0  0  0  0  0
  152.7411  137.5917  157.3634 H   0  0  0  0  0  0  0  0  0  0  0  0
  151.0135  136.1234  153.9338 H   0  0  0  0  0  0  0  0  0  0  0  0
  149.3729  137.9976  153.8163 H   0  0  0  0  0  0  0  0  0  0  0  0
  149.3267  140.3295  153.5426 H   0  0  0  0  0  0  0  0  0  0  0  0
  147.9276  139.4104  154.0768 H   0  0  0  0  0  0  0  0  0  0  0  0
  148.3790  142.4160  154.5261 H   0  0  0  0  0  0  0  0  0  0  0  0
  147.1990  141.6890  153.4515 H   0  0  0  0  0  0  0  0  0  0  0  0
  148.0649  142.1641  156.9329 H   0  0  0  0  0  0  0  0  0  0  0  0
  146.6781  141.2533  157.5008 H   0  0  0  0  0  0  0  0  0  0  0  0
  147.6186  139.1372  156.6316 H   0  0  0  0  0  0  0  0  0  0  0  0
  148.8116  139.9066  157.6665 H   0  0  0  0  0  0  0  0  0  0  0  0
  1  2  3  0  0  0  0
  1 22  1  0  0  0  0
  2  3  1  0  0  0  0
  3  4  1  0  0  0  0
  3 23  1  0  0  0  0
  3 24  1  0  0  0  0
  4  5  1  0  0  0  0
  4 25  1  0  0  0  0
  4 26  1  0  0  0  0
  5  6  1  0  0  0  0
  5 27  1  0  0  0  0
  5 28  1  0  0  0  0
  6  7  1  0  0  0  0
  6 29  1  0  0  0  0
  6 30  1  0  0  0  0
  7  8  2  0  0  0  0
  7  9  1  0  0  0  0
  9 10  1  0  0  0  0
  9 31  1  0  0  0  0
 10 15  1  0  0  0  0
 10 11  2  0  0  0  0
 11 12  1  0  0  0  0
 11 32  1  0  0  0  0
 12 13  2  0  0  0  0
 13 14  1  0  0  0  0
 13 33  1  0  0  0  0
 14 15  2  0  0  0  0
 14 34  1  0  0  0  0
 15 16  1  0  0  0  0
 16 21  1  0  0  0  0
 16 17  1  0  0  0  0
 17 18  1  0  0  0  0
 17 35  1  0  0  0  0
 17 36  1  0  0  0  0
 18 19  1  0  0  0  0
 18 37  1  0  0  0  0
 18 38  1  0  0  0  0
 19 20  1  0  0  0  0
 20 21  1  0  0  0  0
 20 39  1  0  0  0  0
 20 40  1  0  0  0  0
 21 41  1  0  0  0  0
 21 42  1  0  0  0  0
M  END
> <s_m_source_file>
AV-unprocessed.smi

> <i_m_source_file_index>
2233

> <i_lp_mmshare_version>
43012

> <i_f3d_flags>
0

> <s_epik_input>
W0NIXSNDW0NIMl1bQ0gyXVtDSDJdW0NIMl1DKD1PKVtOSF1jMVtjSF1uW2NIXVtjSF1jMU4yW0NIMl1bQ0gyXU9bQ0gyXVtDSDJdMg==

> <s_epik_cmdline>
J2VwaWtfcHl0aG9uJywgJy1waCcsICc3LjAnLCAnLXRuJywgJzgnLCAnLW1hJywgJzIwMCcsICctbWV0YWxfYmluZGluZycsICctaW1hZScsICc8aW5maWxlLm1hZT4nLCAnLW9tYWUnLCAnPG91dGZpbGUubWFlPic=

> <r_lp_tautomer_probability>
1

> <r_epik_Ionization_Penalty>
0.8765

> <r_epik_Ionization_Penalty_Charging>
0

> <r_epik_Ionization_Penalty_Neutral>
0.8765

> <r_epik_State_Penalty>
0.914306

> <r_epik_Charging_Adjusted_Penalty>
0.914306

> <i_epik_Tot_Q>
0

> <i_epik_Tot_abs_Q>
0

> <r_epik_Metal_State_Penalty>
0.361009

> <b_epik_Metal_Only>
0

> <s_lp_Force_Field>
OPLS_2005

> <r_lp_Energy>
23.7364

> <b_lp_Chiralities_Consistent>
1

> <s_lp_Variant>
AV-unprocessed.smi:2233-2

> <Gold.Version>
5.8.1

> <Gold.Id.Protein>
6NUR|6NUR_protein|mol2

> <Gold.PLP.Fitness>
45.0112

> <Gold.PLP.PLP>
-37.7408

> <Gold.PLP.part.hbond>
-2.0000

> <Gold.PLP.part.metal>
0.0000

> <Gold.PLP.part.buried>
-4.4947

> <Gold.PLP.part.nonpolar>
-32.2723

> <Gold.PLP.part.repulsive>
0.2268

> <Gold.PLP.ligand.clash>
0.0000

> <Gold.PLP.ligand.torsion>
0.8818

> <Gold.PLP.Chemscore.Hbond>
1.9920

> <Gold.PLP.Chemscore.CHOScore>
0.9692

> <Gold.PLP.Chemscore.Metal>
0.0000

> <Gold.Chemscore.Hbonds>
donor molecule, donor type, donor heavy atom, donor atom, acceptor molecule, acceptor atom, score
      P1  H  7997  8008       L1     8  0.99
      P1  H 10752 10765       L1    12  1.00
      L1  C    13    33       P1  7949  0.97

> <Gold.PLP.Chemscore.Internal.Correction>
0.1502

> <Gold.Rescore>
     Score         DG    S(hbond)    S(metal)    S(lipo)     H(rot)  DE(clash)    DE(int)     intcor
     17.77     -20.84       1.86        0.00     110.81       1.49       0.16       2.91       ----

> <Gold.Chemscore.Fitness>
17.7657

> <Gold.Chemscore.DG>
-20.8443

> <Gold.Chemscore.ZeroCoef>
-5.4800

> <Gold.Chemscore.Hbond>
1.8592

> <Gold.Chemscore.Metal>
0.0000

> <Gold.Chemscore.Lipo>
110.8065

> <Gold.Chemscore.Internal_Hbond>
0.0000

> <Gold.Chemscore.DEClash>
0.1647

> <Gold.Chemscore.DEInternal>
2.9140

> <Gold.Chemscore.Rot>
1.4882

> <Gold.Chemscore.Internal.Correction>
   9.000000E+99

> <Gold.Chemscore.Hbonds>
donor molecule, donor type, donor heavy atom, donor atom, acceptor molecule, acceptor atom, score
      P1  H  7997  8008       L1     8  0.93
      P1  H 10752 10765       L1    12  0.25

> <Gold.Chemscore.Hbond.Weighted>
-6.2098

> <Gold.Chemscore.Metal.Weighted>
-0.0000

> <Gold.Chemscore.Lipo.Weighted>
-12.9644

> <Gold.Chemscore.Internal_Hbond.Weighted>
0.0000

> <Gold.Chemscore.DEClash.Weighted>
0.1647

> <Gold.Chemscore.DEInternal.Weighted>
2.9140

> <Gold.Chemscore.Rot.Weighted>
3.8099

> <Gold.Chemscore.Internal.Correction.Weighted>
   9.000000E+99

> <Gold.Protein.RotatedTorsions>
[ 6907 6896 6895 6894 ] final   77.63 input  -60.11 | X-H torsion
[ 7974 7965 7964 7962 ] final -158.21 input  175.53 | X-H torsion
[ 8008 7997 7996 7995 ] final -100.69 input   59.86 | X-H torsion
[ 10167 10162 10161 10158 ] final   19.00 input  -65.29 | X-H torsion
[ 10718 10713 10712 10709 ] final -127.78 input   66.30 | X-H torsion
[ 10763 10752 10751 10750 ] final -160.85 input  -60.55 | X-H torsion
[ 11005 11000 10999 10996 ] final -144.68 input  -57.11 | X-H torsion

> <Gold.Protein.ActiveResidues>
 VAL166  LYS551  ARG553  GLY616  TRP617  ASP618  TYR619  PRO620  LYS621  CYS622 
 ASP623  PHE694  ASN695  SER759  ASP760  ASP761  ALA762  ILE779  LEU786  VAL792 
 PHE793  MET794  SER795  GLU796  ALA797  LYS798  CYS799  TRP800  GLU811  SER814 

> <Gold.Protein.RotatedAtoms>
  152.5126  134.3787  159.9343 H   0  0  0  0  0  0  0  0  0  0  0  0  # atno 6907 bound_to 6896
  151.3743  133.3837  159.2711 H   0  0  0  0  0  0  0  0  0  0  0  0  # atno 6908 bound_to 6896
  150.9553  134.8968  159.7756 H   0  0  0  0  0  0  0  0  0  0  0  0  # atno 6909 bound_to 6896
  144.7515  140.3860  143.6044 H   0  0  0  0  0  0  0  0  0  0  0  0  # atno 7974 bound_to 7965
  154.8322  140.0439  157.1484 H   0  0  0  0  0  0  0  0  0  0  0  0  # atno 8008 bound_to 7997
  154.9140  140.3017  155.5231 H   0  0  0  0  0  0  0  0  0  0  0  0  # atno 8009 bound_to 7997
  156.2987  140.2353  156.4182 H   0  0  0  0  0  0  0  0  0  0  0  0  # atno 8010 bound_to 7997
  140.5612  143.9334  150.6644 H   0  0  0  0  0  0  0  0  0  0  0  0  # atno 10167 bound_to 10162
  156.1889  130.6782  151.0399 H   0  0  0  0  0  0  0  0  0  0  0  0  # atno 10718 bound_to 10713
  154.7354  135.3056  154.8820 H   0  0  0  0  0  0  0  0  0  0  0  0  # atno 10763 bound_to 10752
  153.9650  135.6748  153.4750 H   0  0  0  0  0  0  0  0  0  0  0  0  # atno 10764 bound_to 10752
  153.0958  135.4936  154.8698 H   0  0  0  0  0  0  0  0  0  0  0  0  # atno 10765 bound_to 10752
  140.8000  134.2868  157.4982 H   0  0  0  0  0  0  0  0  0  0  0  0  # atno 11005 bound_to 11000
  145.6927  139.1643  143.2637 LP  0  0  0  0  0  0  0  0  0  0  0  0  # atno 17320 bound_to 7965
  146.1471  140.6977  142.9339 LP  0  0  0  0  0  0  0  0  0  0  0  0  # atno 17321 bound_to 7965
  140.2785  143.3406  152.1173 LP  0  0  0  0  0  0  0  0  0  0  0  0  # atno 17342 bound_to 10162
  139.5071  144.6825  151.5971 LP  0  0  0  0  0  0  0  0  0  0  0  0  # atno 17343 bound_to 10162
  157.6916  131.0808  150.7090 LP  0  0  0  0  0  0  0  0  0  0  0  0  # atno 17370 bound_to 10713
  156.7146  130.4662  149.5538 LP  0  0  0  0  0  0  0  0  0  0  0  0  # atno 17371 bound_to 10713
  139.8722  134.9424  156.3824 LP  0  0  0  0  0  0  0  0  0  0  0  0  # atno 17394 bound_to 11000
  140.9304  133.7583  156.0017 LP  0  0  0  0  0  0  0  0  0  0  0  0  # atno 17395 bound_to 11000

$$$$
