#       Name:                AV-unprocessed.smi:1156
#       Creating user name   scv26
#       Creation time:       Fri Mar 27 03:48:13 2020


#       File generated by GOLD software.
#

@<TRIPOS>MOLECULE
AV-unprocessed.smi:1156
    37    38     1
SMALL
NO_CHARGES


@<TRIPOS>ATOM
      1 ****        -3.1854  -1.5835  -2.0014 C.3            1 S1                 0.0000
      2 ****        -1.7921  -1.1658  -2.0121 N.am           1 S1                 0.0000
      3 ****        -1.3125  -0.1228  -1.3176 C.2            1 S1                 0.0000
      4 ****        -2.0109   0.5842  -0.5903 O.2            1 S1                 0.0000
      5 ****         0.1705   0.1106  -1.4523 C.ar           1 S1                 0.0000
      6 ****         0.7695   0.0377  -2.7318 C.ar           1 S1                 0.0000
      7 ****         2.1434   0.3000  -2.8736 C.ar           1 S1                 0.0000
      8 ****         2.8770   0.6374  -1.7240 C.ar           1 S1                 0.0000
      9 ****         2.3264   0.7161  -0.4964 N.ar           1 S1                 0.0000
     10 ****         1.0021   0.4621  -0.3466 C.ar           1 S1                 0.0000
     11 ****         0.4970   0.5223   0.9680 N.3            1 S1                 0.0000
     12 ****         0.3269  -0.7822   1.5961 C.3            1 S1                 0.0000
     13 ****        -0.4800  -0.6357   2.8977 C.3            1 S1                 0.0000
     14 ****         0.1560   0.3093   3.7543 O.3            1 S1                 0.0000
     15 ****         0.2444   1.6000   3.1566 C.3            1 S1                 0.0000
     16 ****         1.0783   1.5139   1.8672 C.3            1 S1                 0.0000
     17 ****        -3.3214  -2.4422  -2.6589 H              1 S1                 0.0000
     18 ****        -3.8353  -0.7800  -2.3507 H              1 S1                 0.0000
     19 ****        -3.4959  -1.8707  -0.9959 H              1 S1                 0.0000
     20 ****        -1.1508  -1.7065  -2.5744 H              1 S1                 0.0000
     21 ****         0.1845  -0.2067  -3.6067 H              1 S1                 0.0000
     22 ****         2.6206   0.2512  -3.8411 H              1 S1                 0.0000
     23 ****         3.9338   0.8497  -1.7908 H              1 S1                 0.0000
     24 ****        -0.1795  -1.4737   0.9224 H              1 S1                 0.0000
     25 ****         1.3088  -1.2063   1.8096 H              1 S1                 0.0000
     26 ****        -1.5026  -0.3194   2.6856 H              1 S1                 0.0000
     27 ****        -0.5433  -1.5950   3.4110 H              1 S1                 0.0000
     28 ****        -0.7552   1.9855   2.9485 H              1 S1                 0.0000
     29 ****         0.7116   2.2882   3.8612 H              1 S1                 0.0000
     30 ****         2.1047   1.2355   2.1110 H              1 S1                 0.0000
     31 ****         1.1109   2.4872   1.3760 H              1 S1                 0.0000
     32 ****        -2.9878   0.3924  -0.4953 LP             1 S1                 0.0000
     33 ****        -1.6012   1.3501  -0.0948 LP             1 S1                 0.0000
     34 ****         2.8874   0.9589   0.2949 LP             1 S1                 0.0000
     35 ****        -0.4180   0.8912   0.8044 LP             1 S1                 0.0000
     36 ****         1.0793  -0.0139   3.9618 LP             1 S1                 0.0000
     37 ****        -0.3702   0.3817   4.6016 LP             1 S1                 0.0000
@<TRIPOS>BOND
    1    1    2 1     
    2    1   17 1     
    3    1   18 1     
    4    1   19 1     
    5    2    3 am    
    6    2   20 1     
    7    3    4 2     
    8    3    5 1     
    9    5   10 ar    
   10    5    6 ar    
   11    6    7 ar    
   12    6   21 1     
   13    7    8 ar    
   14    7   22 1     
   15    8    9 ar    
   16    8   23 1     
   17    9   10 ar    
   18   10   11 1     
   19   11   16 1     
   20   11   12 1     
   21   12   13 1     
   22   12   24 1     
   23   12   25 1     
   24   13   14 1     
   25   13   26 1     
   26   13   27 1     
   27   14   15 1     
   28   15   16 1     
   29   15   28 1     
   30   15   29 1     
   31   16   30 1     
   32   16   31 1     
   33    4   32 1     
   34    4   33 1     
   35    9   34 1     
   36   11   35 1     
   37   14   36 1     
   38   14   37 1     
@<TRIPOS>SUBSTRUCTURE
      1 S1             1
@<TRIPOS>SET
LONE_PAIRS      STATIC     ATOMS    <user>   **** ""
6 32 33 34 35 36 37
DONOR_HYDROGENS      STATIC     ATOMS    <user>   **** ""
1 20
ATOM$BLUE        STATIC     ATOMS    COLORGROUP SYSTEM
6 32 33 34 35 36 37
ATOM$RED        STATIC     ATOMS    COLORGROUP SYSTEM
1 20
