AV-unprocessed.smi:1113|AV-procd|sdf|4799|dock1
  -GOLD-   22720 3343D 1   1.00000     0.00000
 Structure written by MMmdl.
 40 41  0  0  0  0  0  0  0  0  1 V2000
  144.2187  135.6286  151.4136 C   0  0  0  0  0  0  0  0  0  0  0  0
  145.5718  136.2992  151.1409 C   0  0  1  0  0  0  0  0  0  0  0  0
  145.6456  136.5374  149.7501 O   0  0  0  0  0  0  0  0  0  0  0  0
  145.7136  137.6341  151.8973 C   0  0  0  0  0  0  0  0  0  0  0  0
  147.0639  137.8163  152.4193 N   0  0  0  0  0  0  0  0  0  0  0  0
  147.4187  138.7268  153.3366 C   0  0  0  0  0  0  0  0  0  0  0  0
  146.6257  139.5116  153.8563 O   0  0  0  0  0  0  0  0  0  0  0  0
  148.7381  138.6719  153.5869 N   0  0  0  0  0  0  0  0  0  0  0  0
  149.5051  139.4486  154.4975 C   0  0  0  0  0  0  0  0  0  0  0  0
  150.8232  139.1378  154.9051 C   0  0  0  0  0  0  0  0  0  0  0  0
  151.4821  140.0022  155.8002 C   0  0  0  0  0  0  0  0  0  0  0  0
  150.8165  141.1620  156.2625 C   0  0  0  0  0  0  0  0  0  0  0  0
  151.4611  142.0430  157.1583 N   0  0  0  0  0  0  0  0  0  0  0  0
  151.0774  143.4488  157.0512 C   0  0  0  0  0  0  0  0  0  0  0  0
  152.0540  144.3335  157.8455 C   0  0  0  0  0  0  0  0  0  0  0  0
  152.1278  143.8820  159.1937 O   0  0  0  0  0  0  0  0  0  0  0  0
  152.6131  142.5463  159.2779 C   0  0  0  0  0  0  0  0  0  0  0  0
  151.6534  141.5990  158.5379 C   0  0  0  0  0  0  0  0  0  0  0  0
  149.5545  141.4581  155.8656 N   0  0  0  0  0  0  0  0  0  0  0  0
  148.9271  140.6279  155.0067 C   0  0  0  0  0  0  0  0  0  0  0  0
  144.1041  135.3950  152.4724 H   0  0  0  0  0  0  0  0  0  0  0  0
  144.1239  134.6935  150.8603 H   0  0  0  0  0  0  0  0  0  0  0  0
  143.3880  136.2735  151.1241 H   0  0  0  0  0  0  0  0  0  0  0  0
  146.3705  135.6135  151.4269 H   0  0  0  0  0  0  0  0  0  0  0  0
  144.9620  137.1447  149.5115 H   0  0  0  0  0  0  0  0  0  0  0  0
  145.3960  138.4790  151.2831 H   0  0  0  0  0  0  0  0  0  0  0  0
  145.0526  137.6285  152.7643 H   0  0  0  0  0  0  0  0  0  0  0  0
  147.7819  137.2151  152.0425 H   0  0  0  0  0  0  0  0  0  0  0  0
  149.2677  138.0244  153.0220 H   0  0  0  0  0  0  0  0  0  0  0  0
  151.3473  138.2662  154.5461 H   0  0  0  0  0  0  0  0  0  0  0  0
  152.4819  139.7591  156.1275 H   0  0  0  0  0  0  0  0  0  0  0  0
  151.0586  143.7854  156.0158 H   0  0  0  0  0  0  0  0  0  0  0  0
  150.0656  143.5671  157.4412 H   0  0  0  0  0  0  0  0  0  0  0  0
  153.0464  144.3213  157.3915 H   0  0  0  0  0  0  0  0  0  0  0  0
  151.7135  145.3690  157.8370 H   0  0  0  0  0  0  0  0  0  0  0  0
  153.6193  142.4862  158.8597 H   0  0  0  0  0  0  0  0  0  0  0  0
  152.6874  142.2608  160.3272 H   0  0  0  0  0  0  0  0  0  0  0  0
  150.6888  141.5731  159.0467 H   0  0  0  0  0  0  0  0  0  0  0  0
  152.0601  140.5869  158.5559 H   0  0  0  0  0  0  0  0  0  0  0  0
  147.9262  140.9163  154.7200 H   0  0  0  0  0  0  0  0  0  0  0  0
  1  2  1  0  0  0  0
  1 21  1  0  0  0  0
  1 22  1  0  0  0  0
  1 23  1  0  0  0  0
  2  3  1  0  0  0  0
  2  4  1  0  0  0  0
  2 24  1  0  0  0  0
  3 25  1  0  0  0  0
  4  5  1  0  0  0  0
  4 26  1  0  0  0  0
  4 27  1  0  0  0  0
  5  6  1  0  0  0  0
  5 28  1  0  0  0  0
  6  7  2  0  0  0  0
  6  8  1  0  0  0  0
  8  9  1  0  0  0  0
  8 29  1  0  0  0  0
  9 20  1  0  0  0  0
  9 10  2  0  0  0  0
 10 11  1  0  0  0  0
 10 30  1  0  0  0  0
 11 12  2  0  0  0  0
 11 31  1  0  0  0  0
 12 13  1  0  0  0  0
 12 19  1  0  0  0  0
 13 18  1  0  0  0  0
 13 14  1  0  0  0  0
 14 15  1  0  0  0  0
 14 32  1  0  0  0  0
 14 33  1  0  0  0  0
 15 16  1  0  0  0  0
 15 34  1  0  0  0  0
 15 35  1  0  0  0  0
 16 17  1  0  0  0  0
 17 18  1  0  0  0  0
 17 36  1  0  0  0  0
 17 37  1  0  0  0  0
 18 38  1  0  0  0  0
 18 39  1  0  0  0  0
 19 20  2  0  0  0  0
 20 40  1  0  0  0  0
M  END
> <s_m_source_file>
AV-unprocessed.smi

> <i_m_source_file_index>
1113

> <i_lp_mmshare_version>
43012

> <i_f3d_flags>
0

> <s_epik_input>
W0NIM11bQ0BIXShbT0hdKVtDSDJdW05IXUMoPU8pW05IXWMxW2NIXVtjSF1jKG5bY0hdMSlOMltDSDJdW0NIMl1PW0NIMl1bQ0gyXTI=

> <s_epik_cmdline>
J2VwaWtfcHl0aG9uJywgJy1waCcsICc3LjAnLCAnLXRuJywgJzgnLCAnLW1hJywgJzIwMCcsICctbWV0YWxfYmluZGluZycsICctaW1hZScsICc8aW5maWxlLm1hZT4nLCAnLW9tYWUnLCAnPG91dGZpbGUubWFlPic=

> <r_lp_tautomer_probability>
1

> <r_epik_Ionization_Penalty>
0.00204837

> <r_epik_Ionization_Penalty_Charging>
0

> <r_epik_Ionization_Penalty_Neutral>
0.00204837

> <r_epik_State_Penalty>
0.00137592

> <r_epik_Charging_Adjusted_Penalty>
0.00137592

> <i_epik_Tot_Q>
0

> <i_epik_Tot_abs_Q>
0

> <r_epik_Metal_State_Penalty>
-0

> <b_epik_Metal_Only>
0

> <s_lp_Force_Field>
OPLS_2005

> <r_lp_Energy>
20.0691

> <b_lp_Chiralities_Consistent>
1

> <s_lp_Variant>
AV-unprocessed.smi:1113-2

> <Gold.Version>
5.8.1

> <Gold.Id.Protein>
6NUR|6NUR_protein|mol2

> <Gold.PLP.Fitness>
44.3601

> <Gold.PLP.PLP>
-38.8613

> <Gold.PLP.part.hbond>
-4.8823

> <Gold.PLP.part.metal>
0.0000

> <Gold.PLP.part.buried>
0.6561

> <Gold.PLP.part.nonpolar>
-35.1758

> <Gold.PLP.part.repulsive>
0.4055

> <Gold.PLP.ligand.clash>
0.0000

> <Gold.PLP.ligand.torsion>
1.1960

> <Gold.PLP.Chemscore.Hbond>
2.5143

> <Gold.PLP.Chemscore.CHOScore>
0.0000

> <Gold.PLP.Chemscore.Metal>
0.0000

> <Gold.Chemscore.Hbonds>
donor molecule, donor type, donor heavy atom, donor atom, acceptor molecule, acceptor atom, score
      L1  H     3    25       P1 10171  1.00
      L1  H     5    28       P1  7948  0.98
      L1  H     8    29       P1  7948  0.62

> <Gold.PLP.Chemscore.Internal.Correction>
0.3480

> <Gold.Rescore>
     Score         DG    S(hbond)    S(metal)    S(lipo)     H(rot)  DE(clash)    DE(int)     intcor
     16.80     -19.48       2.85        0.00      83.76       2.08       0.09       2.59       ----

> <Gold.Chemscore.Fitness>
16.7991

> <Gold.Chemscore.DG>
-19.4779

> <Gold.Chemscore.ZeroCoef>
-5.4800

> <Gold.Chemscore.Hbond>
2.8511

> <Gold.Chemscore.Metal>
0.0000

> <Gold.Chemscore.Lipo>
83.7592

> <Gold.Chemscore.Internal_Hbond>
0.0000

> <Gold.Chemscore.DEClash>
0.0856

> <Gold.Chemscore.DEInternal>
2.5931

> <Gold.Chemscore.Rot>
2.0799

> <Gold.Chemscore.Internal.Correction>
   9.000000E+99

> <Gold.Chemscore.Hbonds>
donor molecule, donor type, donor heavy atom, donor atom, acceptor molecule, acceptor atom, score
      L1  H     3    25       P1 10171  0.98
      L1  H     5    28       P1  7948  0.91
      L1  H     8    29       P1  7948  0.59

> <Gold.Chemscore.Hbond.Weighted>
-9.5226

> <Gold.Chemscore.Metal.Weighted>
-0.0000

> <Gold.Chemscore.Lipo.Weighted>
-9.7998

> <Gold.Chemscore.Internal_Hbond.Weighted>
0.0000

> <Gold.Chemscore.DEClash.Weighted>
0.0856

> <Gold.Chemscore.DEInternal.Weighted>
2.5931

> <Gold.Chemscore.Rot.Weighted>
5.3246

> <Gold.Chemscore.Internal.Correction.Weighted>
   9.000000E+99

> <Gold.Protein.RotatedTorsions>
[ 6907 6896 6895 6894 ] final  174.40 input  -60.11 | X-H torsion
[ 7974 7965 7964 7962 ] final  -58.08 input  175.53 | X-H torsion
[ 8008 7997 7996 7995 ] final  141.72 input   59.86 | X-H torsion
[ 10167 10162 10161 10158 ] final   71.53 input  -65.29 | X-H torsion
[ 10718 10713 10712 10709 ] final  -11.34 input   66.30 | X-H torsion
[ 10763 10752 10751 10750 ] final   37.94 input  -60.55 | X-H torsion
[ 11005 11000 10999 10996 ] final -121.86 input  -57.11 | X-H torsion

> <Gold.Protein.ActiveResidues>
 VAL166  LYS551  ARG553  GLY616  TRP617  ASP618  TYR619  PRO620  LYS621  CYS622 
 ASP623  PHE694  ASN695  SER759  ASP760  ASP761  ALA762  ILE779  LEU786  VAL792 
 PHE793  MET794  SER795  GLU796  ALA797  LYS798  CYS799  TRP800  GLU811  SER814 

> <Gold.Protein.RotatedAtoms>
  151.7529  133.3328  159.3396 H   0  0  0  0  0  0  0  0  0  0  0  0  # atno 6907 bound_to 6896
  150.7528  134.6176  159.6128 H   0  0  0  0  0  0  0  0  0  0  0  0  # atno 6908 bound_to 6896
  152.3456  134.7077  160.0303 H   0  0  0  0  0  0  0  0  0  0  0  0  # atno 6909 bound_to 6896
  145.8435  140.8401  143.0022 H   0  0  0  0  0  0  0  0  0  0  0  0  # atno 7974 bound_to 7965
  156.2961  140.2307  156.4611 H   0  0  0  0  0  0  0  0  0  0  0  0  # atno 8008 bound_to 7997
  154.8017  140.0448  157.1298 H   0  0  0  0  0  0  0  0  0  0  0  0  # atno 8009 bound_to 7997
  154.9526  140.3044  155.5071 H   0  0  0  0  0  0  0  0  0  0  0  0  # atno 8010 bound_to 7997
  140.0451  144.5358  150.7405 H   0  0  0  0  0  0  0  0  0  0  0  0  # atno 10167 bound_to 10162
  156.6605  130.4980  149.6032 H   0  0  0  0  0  0  0  0  0  0  0  0  # atno 10718 bound_to 10713
  153.0019  135.6263  154.2224 H   0  0  0  0  0  0  0  0  0  0  0  0  # atno 10763 bound_to 10752
  154.1967  135.2806  155.3006 H   0  0  0  0  0  0  0  0  0  0  0  0  # atno 10764 bound_to 10752
  154.5716  135.5675  153.7159 H   0  0  0  0  0  0  0  0  0  0  0  0  # atno 10765 bound_to 10752
  141.0038  134.0364  157.3503 H   0  0  0  0  0  0  0  0  0  0  0  0  # atno 11005 bound_to 11000
  144.6732  140.0847  143.7468 LP  0  0  0  0  0  0  0  0  0  0  0  0  # atno 17320 bound_to 7965
  145.9439  139.2687  143.1252 LP  0  0  0  0  0  0  0  0  0  0  0  0  # atno 17321 bound_to 7965
  140.7243  143.2619  151.4175 LP  0  0  0  0  0  0  0  0  0  0  0  0  # atno 17342 bound_to 10162
  139.5989  144.1338  152.2175 LP  0  0  0  0  0  0  0  0  0  0  0  0  # atno 17343 bound_to 10162
  156.2015  130.6622  151.1172 LP  0  0  0  0  0  0  0  0  0  0  0  0  # atno 17370 bound_to 10713
  157.7111  131.0733  150.6496 LP  0  0  0  0  0  0  0  0  0  0  0  0  # atno 17371 bound_to 10713
  139.9053  135.0177  156.7455 LP  0  0  0  0  0  0  0  0  0  0  0  0  # atno 17394 bound_to 11000
  140.6846  133.9444  155.7930 LP  0  0  0  0  0  0  0  0  0  0  0  0  # atno 17395 bound_to 11000

$$$$
