#       Name:                AV-unprocessed.smi:670
#       Creating user name   scv26
#       Creation time:       Fri Mar 27 00:22:28 2020


#       File generated by GOLD software.
#

@<TRIPOS>MOLECULE
AV-unprocessed.smi:670
    54    55     1
SMALL
NO_CHARGES


@<TRIPOS>ATOM
      1 ****        -1.7747  -0.7008   3.2023 C.3            1 S1                 0.0000
      2 ****        -2.3201  -0.0399   1.9258 C.3            1 S1                 0.0000
      3 ****        -3.7317   0.5307   2.1698 C.3            1 S1                 0.0000
      4 ****        -4.3021   1.1977   0.9092 C.3            1 S1                 0.0000
      5 ****        -4.3130   0.2191  -0.2728 C.3            1 S1                 0.0000
      6 ****        -2.9095  -0.3478  -0.5322 C.3            1 S1                 0.0000
      7 ****        -2.3246  -1.0190   0.7295 C.3            1 S1                 0.0000
      8 ****        -0.9784  -1.4071   0.4874 O.3            1 S1                 0.0000
      9 ****        -0.8253  -2.6287  -0.2205 C.3            1 S1                 0.0000
     10 ****         0.6702  -2.9245  -0.3999 C.3            1 S1                 0.0000
     11 ****         1.2958  -1.9759  -1.3152 N.am           1 S1                 0.0000
     12 ****         1.8759  -0.8210  -0.9548 C.2            1 S1                 0.0000
     13 ****         1.9464  -0.4360   0.2133 O.2            1 S1                 0.0000
     14 ****         2.4389   0.0346  -2.0990 C.3            1 S1                 0.0000
     15 ****         3.4975   0.9589  -1.6673 N.am           1 S1                 0.0000
     16 ****         3.0656   2.2610  -1.4641 N.2            1 S1                 0.0000
     17 ****         3.8990   3.1621  -1.0666 C.2            1 S1                 0.0000
     18 ****         3.4294   4.4384  -0.8739 O.3            1 S1                 0.0000
     19 ****         5.2900   2.8432  -0.8298 C.2            1 S1                 0.0000
     20 ****         5.7026   1.5735  -1.0371 C.2            1 S1                 0.0000
     21 ****         4.7835   0.5265  -1.4873 C.2            1 S1                 0.0000
     22 ****         5.1326  -0.6371  -1.6858 O.2            1 S1                 0.0000
     23 ****         4.1759   4.9404  -0.5854 H              1 S1                 0.0000
     24 ****        -2.3802  -1.5592   3.4940 H              1 S1                 0.0000
     25 ****        -1.7689   0.0018   4.0361 H              1 S1                 0.0000
     26 ****        -0.7504  -1.0479   3.0635 H              1 S1                 0.0000
     27 ****        -1.6610   0.7939   1.6780 H              1 S1                 0.0000
     28 ****        -4.4015  -0.2680   2.4914 H              1 S1                 0.0000
     29 ****        -3.7052   1.2564   2.9834 H              1 S1                 0.0000
     30 ****        -5.3125   1.5582   1.1036 H              1 S1                 0.0000
     31 ****        -3.7041   2.0737   0.6551 H              1 S1                 0.0000
     32 ****        -5.0056  -0.5979  -0.0664 H              1 S1                 0.0000
     33 ****        -4.6829   0.7206  -1.1673 H              1 S1                 0.0000
     34 ****        -2.9604  -1.0564  -1.3582 H              1 S1                 0.0000
     35 ****        -2.2478   0.4563  -0.8570 H              1 S1                 0.0000
     36 ****        -2.9253  -1.8910   0.9957 H              1 S1                 0.0000
     37 ****        -1.2894  -3.4367   0.3466 H              1 S1                 0.0000
     38 ****        -1.3166  -2.5897  -1.1928 H              1 S1                 0.0000
     39 ****         1.1789  -2.9358   0.5657 H              1 S1                 0.0000
     40 ****         0.7935  -3.9212  -0.8236 H              1 S1                 0.0000
     41 ****         1.2782  -2.2109  -2.2969 H              1 S1                 0.0000
     42 ****         2.8120  -0.6143  -2.8937 H              1 S1                 0.0000
     43 ****         1.6104   0.5910  -2.5412 H              1 S1                 0.0000
     44 ****         5.9758   3.6082  -0.4965 H              1 S1                 0.0000
     45 ****         6.7386   1.3212  -0.8652 H              1 S1                 0.0000
     46 ****        -0.5186  -1.5003   1.3705 LP             1 S1                 0.0000
     47 ****        -0.5373  -0.6834  -0.0433 LP             1 S1                 0.0000
     48 ****         1.5597  -0.9937   0.9478 LP             1 S1                 0.0000
     49 ****         2.3903   0.4342   0.4270 LP             1 S1                 0.0000
     50 ****         2.1085   2.5014  -1.6256 LP             1 S1                 0.0000
     51 ****         2.7126   4.4457  -0.1767 LP             1 S1                 0.0000
     52 ****         3.0670   4.8104  -1.7285 LP             1 S1                 0.0000
     53 ****         4.4639  -1.3143  -1.9927 LP             1 S1                 0.0000
     54 ****         6.0849  -0.9052  -1.5402 LP             1 S1                 0.0000
@<TRIPOS>BOND
    1    1    2 1     
    2    1   24 1     
    3    1   25 1     
    4    1   26 1     
    5    2    7 1     
    6    2    3 1     
    7    2   27 1     
    8    3    4 1     
    9    3   28 1     
   10    3   29 1     
   11    4    5 1     
   12    4   30 1     
   13    4   31 1     
   14    5    6 1     
   15    5   32 1     
   16    5   33 1     
   17    6    7 1     
   18    6   34 1     
   19    6   35 1     
   20    7    8 1     
   21    7   36 1     
   22    8    9 1     
   23    9   10 1     
   24    9   37 1     
   25    9   38 1     
   26   10   11 1     
   27   10   39 1     
   28   10   40 1     
   29   11   12 am    
   30   11   41 1     
   31   12   13 2     
   32   12   14 1     
   33   14   42 1     
   34   14   43 1     
   35   14   15 1     
   36   15   16 1     
   37   15   21 am    
   38   16   17 2     
   39   17   18 1     
   40   17   19 1     
   41   18   23 1     
   42   19   44 1     
   43   19   20 2     
   44   20   45 1     
   45   20   21 1     
   46   21   22 2     
   47    8   46 1     
   48    8   47 1     
   49   13   48 1     
   50   13   49 1     
   51   16   50 1     
   52   18   51 1     
   53   18   52 1     
   54   22   53 1     
   55   22   54 1     
@<TRIPOS>SUBSTRUCTURE
      1 S1             1
@<TRIPOS>SET
LONE_PAIRS      STATIC     ATOMS    <user>   **** ""
9 46 47 48 49 50 51 52 53 54
DONOR_HYDROGENS      STATIC     ATOMS    <user>   **** ""
2 41 23
ATOM$BLUE        STATIC     ATOMS    COLORGROUP SYSTEM
9 46 47 48 49 50 51 52 53 54
ATOM$RED        STATIC     ATOMS    COLORGROUP SYSTEM
2 41 23
