AV-unprocessed.smi:2981|AV-procd|sdf|11374|dock6
  -GOLD-   2272016293D 1   1.00000     0.00000
 Structure written by MMmdl.
 31 32  0  0  0  0  0  0  0  0  1 V2000
  149.6308  137.9629  154.4201 O   0  0  0  0  0  0  0  0  0  0  0  0
  150.7232  137.6484  154.8945 C   0  0  0  0  0  0  0  0  0  0  0  0
  151.8796  138.6580  154.9445 C   0  0  0  0  0  0  0  0  0  0  0  0
  151.6512  139.7610  155.8902 N   0  0  0  0  0  0  0  0  0  0  0  0
  150.7330  140.6991  155.4518 N   0  0  0  0  0  0  0  0  0  0  0  0
  150.4426  141.7029  156.2056 C   0  0  0  0  0  0  0  0  0  0  0  0
  151.0489  141.8917  157.5049 C   0  0  0  0  0  0  0  0  0  0  0  0
  150.6194  143.2582  158.4722 Cl  0  0  0  0  0  0  0  0  0  0  0  0
  151.9525  140.9697  157.9226 C   0  0  0  0  0  0  0  0  0  0  0  0
  152.7215  141.1284  159.4646 Cl  0  0  0  0  0  0  0  0  0  0  0  0
  152.3083  139.8125  157.0898 C   0  0  0  0  0  0  0  0  0  0  0  0
  153.1248  138.9556  157.4314 O   0  0  0  0  0  0  0  0  0  0  0  0
  150.9900  136.4242  155.3739 N   0  0  0  0  0  0  0  0  0  0  0  0
  150.0389  135.3185  155.4252 C   0  0  2  0  0  0  0  0  0  0  0  0
  148.7521  135.7256  156.1663 C   0  0  0  0  0  0  0  0  0  0  0  0
  147.9551  134.4586  156.5011 C   0  0  0  0  0  0  0  0  0  0  0  0
  149.1919  133.1257  156.7363 S   0  0  0  0  0  0  0  0  0  0  0  0
  149.3571  132.8535  158.1724 O   0  0  0  0  0  0  0  0  0  0  0  0
  148.9051  132.0387  155.7881 O   0  0  0  0  0  0  0  0  0  0  0  0
  150.6292  134.0929  156.1400 C   0  0  0  0  0  0  0  0  0  0  0  0
  152.8075  138.1404  155.1956 H   0  0  0  0  0  0  0  0  0  0  0  0
  152.0275  139.0492  153.9363 H   0  0  0  0  0  0  0  0  0  0  0  0
  149.7236  142.4646  155.9037 H   0  0  0  0  0  0  0  0  0  0  0  0
  151.9147  136.2492  155.7402 H   0  0  0  0  0  0  0  0  0  0  0  0
  149.7593  135.0290  154.4101 H   0  0  0  0  0  0  0  0  0  0  0  0
  149.0176  136.2255  157.0990 H   0  0  0  0  0  0  0  0  0  0  0  0
  148.1557  136.4310  155.5864 H   0  0  0  0  0  0  0  0  0  0  0  0
  147.3403  134.5659  157.3948 H   0  0  0  0  0  0  0  0  0  0  0  0
  147.3118  134.1755  155.6676 H   0  0  0  0  0  0  0  0  0  0  0  0
  151.2526  133.4787  155.4897 H   0  0  0  0  0  0  0  0  0  0  0  0
  151.2166  134.3865  157.0106 H   0  0  0  0  0  0  0  0  0  0  0  0
  1  2  2  0  0  0  0
  2  3  1  0  0  0  0
  2 13  1  0  0  0  0
  3  4  1  0  0  0  0
  3 21  1  0  0  0  0
  3 22  1  0  0  0  0
  4 11  1  0  0  0  0
  4  5  1  0  0  0  0
  5  6  2  0  0  0  0
  6  7  1  0  0  0  0
  6 23  1  0  0  0  0
  7  8  1  0  0  0  0
  7  9  2  0  0  0  0
  9 10  1  0  0  0  0
  9 11  1  0  0  0  0
 11 12  2  0  0  0  0
 13 14  1  0  0  0  0
 13 24  1  0  0  0  0
 14 20  1  0  0  0  0
 14 15  1  0  0  0  0
 14 25  1  0  0  0  0
 15 16  1  0  0  0  0
 15 26  1  0  0  0  0
 15 27  1  0  0  0  0
 16 17  1  0  0  0  0
 16 28  1  0  0  0  0
 16 29  1  0  0  0  0
 17 18  2  0  0  0  0
 17 19  2  0  0  0  0
 17 20  1  0  0  0  0
 20 30  1  0  0  0  0
 20 31  1  0  0  0  0
M  END
> <s_m_source_file>
AV-unprocessed.smi

> <i_m_source_file_index>
2981

> <i_lp_mmshare_version>
43012

> <i_f3d_flags>
0

> <s_epik_input>
Tz1TMSg9TylbQ0gyXVtDSDJdW0NASF0oW0NIMl0xKVtOSF1DKD1PKVtDSDJdbjJuW2NIXWMoQ2wpYyhDbCljMj1P

> <s_epik_cmdline>
J2VwaWtfcHl0aG9uJywgJy1waCcsICc3LjAnLCAnLXRuJywgJzgnLCAnLW1hJywgJzIwMCcsICctbWV0YWxfYmluZGluZycsICctaW1hZScsICc8aW5maWxlLm1hZT4nLCAnLW9tYWUnLCAnPG91dGZpbGUubWFlPic=

> <r_lp_tautomer_probability>
1

> <r_epik_Ionization_Penalty>
1.07216e-07

> <r_epik_Ionization_Penalty_Charging>
2.33395e-11

> <r_epik_Ionization_Penalty_Neutral>
1.07193e-07

> <r_epik_State_Penalty>
-0

> <r_epik_Charging_Adjusted_Penalty>
2.33395e-11

> <i_epik_Tot_Q>
0

> <i_epik_Tot_abs_Q>
0

> <r_epik_Metal_State_Penalty>
-0

> <b_epik_Metal_Only>
0

> <s_lp_Force_Field>
OPLS_2005

> <r_lp_Energy>
19.0616

> <b_lp_Chiralities_Consistent>
1

> <s_lp_Variant>
AV-unprocessed.smi:2981-1

> <Gold.Version>
5.8.1

> <Gold.Id.Protein>
6NUR|6NUR_protein|mol2

> <Gold.PLP.Fitness>
38.0987

> <Gold.PLP.PLP>
-27.7869

> <Gold.PLP.part.hbond>
-3.0000

> <Gold.PLP.part.metal>
0.0000

> <Gold.PLP.part.buried>
-3.3939

> <Gold.PLP.part.nonpolar>
-22.3127

> <Gold.PLP.part.repulsive>
0.3742

> <Gold.PLP.ligand.clash>
0.0000

> <Gold.PLP.ligand.torsion>
0.2688

> <Gold.PLP.Chemscore.Hbond>
2.6160

> <Gold.PLP.Chemscore.CHOScore>
1.0000

> <Gold.PLP.Chemscore.Metal>
0.0000

> <Gold.Chemscore.Hbonds>
donor molecule, donor type, donor heavy atom, donor atom, acceptor molecule, acceptor atom, score
      P1  H  6896  6908       L1    18  0.94
      P1  H  7989  7998       L1     5  0.42
      P1  H  7997  8008       L1    12  0.79
      L1  C     6    23       P1  8028  1.00

> <Gold.PLP.Chemscore.Internal.Correction>
0.0014

> <Gold.Rescore>
     Score         DG    S(hbond)    S(metal)    S(lipo)     H(rot)  DE(clash)    DE(int)     intcor
     12.81     -14.09       1.85        0.00      58.06       1.70       0.02       1.26       ----

> <Gold.Chemscore.Fitness>
12.8066

> <Gold.Chemscore.DG>
-14.0906

> <Gold.Chemscore.ZeroCoef>
-5.4800

> <Gold.Chemscore.Hbond>
1.8509

> <Gold.Chemscore.Metal>
0.0000

> <Gold.Chemscore.Lipo>
58.0627

> <Gold.Chemscore.Internal_Hbond>
0.0000

> <Gold.Chemscore.DEClash>
0.0203

> <Gold.Chemscore.DEInternal>
1.2637

> <Gold.Chemscore.Rot>
1.7049

> <Gold.Chemscore.Internal.Correction>
   9.000000E+99

> <Gold.Chemscore.Hbonds>
donor molecule, donor type, donor heavy atom, donor atom, acceptor molecule, acceptor atom, score
      P1  H  6896  6908       L1    18  0.88
      P1  H  7989  7998       L1     5  0.04
      P1  H  7997  8008       L1    12  0.11

> <Gold.Chemscore.Hbond.Weighted>
-6.1819

> <Gold.Chemscore.Metal.Weighted>
-0.0000

> <Gold.Chemscore.Lipo.Weighted>
-6.7933

> <Gold.Chemscore.Internal_Hbond.Weighted>
0.0000

> <Gold.Chemscore.DEClash.Weighted>
0.0203

> <Gold.Chemscore.DEInternal.Weighted>
1.2637

> <Gold.Chemscore.Rot.Weighted>
4.3646

> <Gold.Chemscore.Internal.Correction.Weighted>
   9.000000E+99

> <Gold.Protein.RotatedTorsions>
[ 6907 6896 6895 6894 ] final  128.84 input  -60.11 | X-H torsion
[ 7974 7965 7964 7962 ] final   84.69 input  175.53 | X-H torsion
[ 8008 7997 7996 7995 ] final  -92.91 input   59.86 | X-H torsion
[ 10167 10162 10161 10158 ] final  157.04 input  -65.29 | X-H torsion
[ 10718 10713 10712 10709 ] final -145.38 input   66.30 | X-H torsion
[ 10763 10752 10751 10750 ] final  178.79 input  -60.55 | X-H torsion
[ 11005 11000 10999 10996 ] final  158.05 input  -57.11 | X-H torsion

> <Gold.Protein.ActiveResidues>
 VAL166  LYS551  ARG553  GLY616  TRP617  ASP618  TYR619  PRO620  LYS621  CYS622 
 ASP623  PHE694  ASN695  SER759  ASP760  ASP761  ALA762  ILE779  LEU786  VAL792 
 PHE793  MET794  SER795  GLU796  ALA797  LYS798  CYS799  TRP800  GLU811  SER814 

> <Gold.Protein.RotatedAtoms>
  152.3681  133.6383  159.6065 H   0  0  0  0  0  0  0  0  0  0  0  0  # atno 6907 bound_to 6896
  150.7648  133.9315  159.3437 H   0  0  0  0  0  0  0  0  0  0  0  0  # atno 6908 bound_to 6896
  151.7142  135.0908  160.0324 H   0  0  0  0  0  0  0  0  0  0  0  0  # atno 6909 bound_to 6896
  145.5953  139.2344  143.2276 H   0  0  0  0  0  0  0  0  0  0  0  0  # atno 7974 bound_to 7965
  154.7291  140.0504  157.0710 H   0  0  0  0  0  0  0  0  0  0  0  0  # atno 8008 bound_to 7997
  155.0326  140.3159  155.4734 H   0  0  0  0  0  0  0  0  0  0  0  0  # atno 8009 bound_to 7997
  156.2837  140.2147  156.5447 H   0  0  0  0  0  0  0  0  0  0  0  0  # atno 8010 bound_to 7997
  139.4822  144.4953  151.8248 H   0  0  0  0  0  0  0  0  0  0  0  0  # atno 10167 bound_to 10162
  156.3818  130.7841  151.2034 H   0  0  0  0  0  0  0  0  0  0  0  0  # atno 10718 bound_to 10713
  154.5123  135.2789  155.1332 H   0  0  0  0  0  0  0  0  0  0  0  0  # atno 10763 bound_to 10752
  154.2923  135.6264  153.5394 H   0  0  0  0  0  0  0  0  0  0  0  0  # atno 10764 bound_to 10752
  152.9921  135.5677  154.5591 H   0  0  0  0  0  0  0  0  0  0  0  0  # atno 10765 bound_to 10752
  140.1828  134.8463  157.2822 H   0  0  0  0  0  0  0  0  0  0  0  0  # atno 11005 bound_to 11000
  146.1616  140.6779  142.9275 LP  0  0  0  0  0  0  0  0  0  0  0  0  # atno 17320 bound_to 7965
  144.7333  140.4736  143.6922 LP  0  0  0  0  0  0  0  0  0  0  0  0  # atno 17321 bound_to 7965
  140.4441  144.1945  150.5893 LP  0  0  0  0  0  0  0  0  0  0  0  0  # atno 17342 bound_to 10162
  140.4652  143.2433  151.9165 LP  0  0  0  0  0  0  0  0  0  0  0  0  # atno 17343 bound_to 10162
  157.7493  131.0342  150.4305 LP  0  0  0  0  0  0  0  0  0  0  0  0  # atno 17370 bound_to 10713
  156.4550  130.4020  149.6611 LP  0  0  0  0  0  0  0  0  0  0  0  0  # atno 17371 bound_to 10713
  140.2248  134.3980  155.7549 LP  0  0  0  0  0  0  0  0  0  0  0  0  # atno 17394 bound_to 11000
  141.2223  133.7184  156.8547 LP  0  0  0  0  0  0  0  0  0  0  0  0  # atno 17395 bound_to 11000

$$$$
