AV-unprocessed.smi:2942|AV-procd|sdf|11267|dock4
  -GOLD-   2272016163D 1   1.00000     0.00000
 Structure written by MMmdl.
 46 49  0  0  0  0  0  0  0  0  2 V2000
  150.2226  140.3428  157.2432 O   0  0  0  0  0  0  0  0  0  0  0  0
  150.0264  141.5494  157.0958 C   0  0  0  0  0  0  0  0  0  0  0  0
  149.1543  142.0257  156.1917 N   0  0  0  0  0  0  0  0  0  0  0  0
  148.2920  141.2116  155.3407 C   0  0  0  0  0  0  0  0  0  0  0  0
  147.7084  141.9931  154.1440 C   0  0  0  0  0  0  0  0  0  0  0  0
  146.4872  142.8290  154.4910 C   0  0  0  0  0  0  0  0  0  0  0  0
  145.8097  143.6026  153.5241 C   0  0  0  0  0  0  0  0  0  0  0  0
  144.6925  144.3702  153.9149 C   0  0  0  0  0  0  0  0  0  0  0  0
  144.2780  144.3506  155.2631 C   0  0  0  0  0  0  0  0  0  0  0  0
  144.9906  143.5599  156.1875 C   0  0  0  0  0  0  0  0  0  0  0  0
  146.0529  142.8358  155.7729 N   0  3  0  0  0  0  0  0  0  0  0  0
  150.7697  142.5621  157.9975 C   0  0  0  0  0  0  0  0  0  0  0  0
  151.7500  141.7892  158.9232 C   0  0  0  0  0  0  0  0  0  0  0  0
  152.5471  142.7738  159.8048 C   0  0  1  0  0  0  0  0  0  0  0  0
  153.3600  143.7280  158.9055 C   0  0  0  0  0  0  0  0  0  0  0  0
  152.3938  144.5178  157.9979 C   0  0  2  0  0  0  0  0  0  0  0  0
  151.4212  145.3390  158.8692 C   0  0  0  0  0  0  0  0  0  0  0  0
  150.6134  144.3822  159.7703 C   0  0  2  0  0  0  0  0  0  0  0  0
  151.5738  143.5893  160.6808 C   0  0  0  0  0  0  0  0  0  0  0  0
  149.8083  143.4016  158.8917 C   0  0  0  0  0  0  0  0  0  0  0  0
  151.5957  143.5356  157.1128 C   0  0  0  0  0  0  0  0  0  0  0  0
  149.0554  143.0280  156.1148 H   0  0  0  0  0  0  0  0  0  0  0  0
  148.8938  140.3817  154.9697 H   0  0  0  0  0  0  0  0  0  0  0  0
  147.4899  140.7686  155.9330 H   0  0  0  0  0  0  0  0  0  0  0  0
  148.4766  142.6437  153.7247 H   0  0  0  0  0  0  0  0  0  0  0  0
  147.4393  141.2994  153.3463 H   0  0  0  0  0  0  0  0  0  0  0  0
  146.1423  143.6115  152.4963 H   0  0  0  0  0  0  0  0  0  0  0  0
  144.1614  144.9691  153.1896 H   0  0  0  0  0  0  0  0  0  0  0  0
  143.4270  144.9339  155.5829 H   0  0  0  0  0  0  0  0  0  0  0  0
  144.7465  143.4859  157.2373 H   0  0  0  0  0  0  0  0  0  0  0  0
  151.2027  141.0898  159.5569 H   0  0  0  0  0  0  0  0  0  0  0  0
  152.4449  141.1871  158.3355 H   0  0  0  0  0  0  0  0  0  0  0  0
  153.2283  142.2142  160.4464 H   0  0  0  0  0  0  0  0  0  0  0  0
  153.9500  144.4124  159.5164 H   0  0  0  0  0  0  0  0  0  0  0  0
  154.0709  143.1640  158.3003 H   0  0  0  0  0  0  0  0  0  0  0  0
  152.9671  145.1931  157.3621 H   0  0  0  0  0  0  0  0  0  0  0  0
  151.9730  146.0561  159.4784 H   0  0  0  0  0  0  0  0  0  0  0  0
  150.7496  145.9226  158.2384 H   0  0  0  0  0  0  0  0  0  0  0  0
  149.9267  144.9620  160.3879 H   0  0  0  0  0  0  0  0  0  0  0  0
  151.0107  142.9262  161.3387 H   0  0  0  0  0  0  0  0  0  0  0  0
  152.1280  144.2693  161.3292 H   0  0  0  0  0  0  0  0  0  0  0  0
  149.1033  143.9637  158.2767 H   0  0  0  0  0  0  0  0  0  0  0  0
  149.2113  142.7517  159.5336 H   0  0  0  0  0  0  0  0  0  0  0  0
  152.2849  142.9862  156.4695 H   0  0  0  0  0  0  0  0  0  0  0  0
  150.9366  144.0935  156.4457 H   0  0  0  0  0  0  0  0  0  0  0  0
  146.5563  142.2726  156.4589 H   0  0  0  0  0  0  0  0  0  0  0  0
  1  2  2  0  0  0  0
  2  3  1  0  0  0  0
  2 12  1  0  0  0  0
  3  4  1  0  0  0  0
  3 22  1  0  0  0  0
  4  5  1  0  0  0  0
  4 23  1  0  0  0  0
  4 24  1  0  0  0  0
  5  6  1  0  0  0  0
  5 25  1  0  0  0  0
  5 26  1  0  0  0  0
  6 11  1  0  0  0  0
  6  7  2  0  0  0  0
  7  8  1  0  0  0  0
  7 27  1  0  0  0  0
  8  9  2  0  0  0  0
  8 28  1  0  0  0  0
  9 10  1  0  0  0  0
  9 29  1  0  0  0  0
 10 11  2  0  0  0  0
 10 30  1  0  0  0  0
 11 46  1  0  0  0  0
 12 20  1  0  0  0  0
 12 21  1  0  0  0  0
 12 13  1  0  0  0  0
 13 14  1  0  0  0  0
 13 31  1  0  0  0  0
 13 32  1  0  0  0  0
 14 19  1  0  0  0  0
 14 15  1  0  0  0  0
 14 33  1  0  0  0  0
 15 16  1  0  0  0  0
 15 34  1  0  0  0  0
 15 35  1  0  0  0  0
 16 17  1  0  0  0  0
 16 21  1  0  0  0  0
 16 36  1  0  0  0  0
 17 18  1  0  0  0  0
 17 37  1  0  0  0  0
 17 38  1  0  0  0  0
 18 19  1  0  0  0  0
 18 20  1  0  0  0  0
 18 39  1  0  0  0  0
 19 40  1  0  0  0  0
 19 41  1  0  0  0  0
 20 42  1  0  0  0  0
 20 43  1  0  0  0  0
 21 44  1  0  0  0  0
 21 45  1  0  0  0  0
M  CHG  1  11   1
M  END
> <s_m_source_file>
AV-unprocessed.smi

> <i_m_source_file_index>
2942

> <i_lp_mmshare_version>
43012

> <i_f3d_flags>
0

> <s_epik_input>
W0NIMl0xW0NASF0oW0NIMl0yKVtDSDJdW0NASF0oW0NIMl0zKVtDSDJdW0NAQEhdMVtDSDJdQzIzQyg9TylbTkhdW0NIMl1bQ0gyXWM0W2NIXVtjSF1bY0hdW2NIXW40

> <s_epik_cmdline>
J2VwaWtfcHl0aG9uJywgJy1waCcsICc3LjAnLCAnLXRuJywgJzgnLCAnLW1hJywgJzIwMCcsICctbWV0YWxfYmluZGluZycsICctaW1hZScsICc8aW5maWxlLm1hZT4nLCAnLW9tYWUnLCAnPG91dGZpbGUubWFlPic=

> <r_epik_Ionization_Penalty>
1.81477

> <r_epik_Ionization_Penalty_Charging>
1.81477

> <r_epik_Ionization_Penalty_Neutral>
2.68418e-08

> <r_epik_State_Penalty>
1.92951

> <r_epik_Charging_Adjusted_Penalty>
3.74429

> <i_epik_Tot_Q>
1

> <i_epik_Tot_abs_Q>
1

> <r_epik_Metal_State_Penalty>
1.95679

> <b_epik_Metal_Only>
0

> <s_lp_Force_Field>
OPLS_2005

> <r_lp_Energy>
40.8466

> <b_lp_Chiralities_Consistent>
1

> <s_lp_Variant>
AV-unprocessed.smi:2942-2

> <Gold.Version>
5.8.1

> <Gold.Id.Protein>
6NUR|6NUR_protein|mol2

> <Gold.PLP.Fitness>
50.3139

> <Gold.PLP.PLP>
-47.7590

> <Gold.PLP.part.hbond>
-1.0000

> <Gold.PLP.part.metal>
0.0000

> <Gold.PLP.part.buried>
-5.8258

> <Gold.PLP.part.nonpolar>
-40.7298

> <Gold.PLP.part.repulsive>
0.0957

> <Gold.PLP.ligand.clash>
0.0000

> <Gold.PLP.ligand.torsion>
0.2317

> <Gold.PLP.Chemscore.Hbond>
1.0000

> <Gold.PLP.Chemscore.CHOScore>
0.0000

> <Gold.PLP.Chemscore.Metal>
0.0000

> <Gold.Chemscore.Hbonds>
donor molecule, donor type, donor heavy atom, donor atom, acceptor molecule, acceptor atom, score
      L1  H     3    22       P1  8028  1.00

> <Gold.PLP.Chemscore.Internal.Correction>
0.0183

> <Gold.Rescore>
     Score         DG    S(hbond)    S(metal)    S(lipo)     H(rot)  DE(clash)    DE(int)     intcor
     21.76     -22.68       0.97        0.00     150.34       1.41       0.71       0.20       ----

> <Gold.Chemscore.Fitness>
21.7631

> <Gold.Chemscore.DG>
-22.6797

> <Gold.Chemscore.ZeroCoef>
-5.4800

> <Gold.Chemscore.Hbond>
0.9675

> <Gold.Chemscore.Metal>
0.0000

> <Gold.Chemscore.Lipo>
150.3353

> <Gold.Chemscore.Internal_Hbond>
0.0000

> <Gold.Chemscore.DEClash>
0.7120

> <Gold.Chemscore.DEInternal>
0.2046

> <Gold.Chemscore.Rot>
1.4145

> <Gold.Chemscore.Internal.Correction>
   9.000000E+99

> <Gold.Chemscore.Hbonds>
donor molecule, donor type, donor heavy atom, donor atom, acceptor molecule, acceptor atom, score
      L1  H     3    22       P1  8028  1.00

> <Gold.Chemscore.Hbond.Weighted>
-3.2315

> <Gold.Chemscore.Metal.Weighted>
-0.0000

> <Gold.Chemscore.Lipo.Weighted>
-17.5892

> <Gold.Chemscore.Internal_Hbond.Weighted>
0.0000

> <Gold.Chemscore.DEClash.Weighted>
0.7120

> <Gold.Chemscore.DEInternal.Weighted>
0.2046

> <Gold.Chemscore.Rot.Weighted>
3.6210

> <Gold.Chemscore.Internal.Correction.Weighted>
   9.000000E+99

> <Gold.Protein.RotatedTorsions>
[ 6907 6896 6895 6894 ] final   -3.39 input  -60.11 | X-H torsion
[ 7974 7965 7964 7962 ] final   21.93 input  175.53 | X-H torsion
[ 8008 7997 7996 7995 ] final    9.01 input   59.86 | X-H torsion
[ 10167 10162 10161 10158 ] final -133.75 input  -65.29 | X-H torsion
[ 10718 10713 10712 10709 ] final  -20.48 input   66.30 | X-H torsion
[ 10763 10752 10751 10750 ] final  144.89 input  -60.55 | X-H torsion
[ 11005 11000 10999 10996 ] final  160.06 input  -57.11 | X-H torsion

> <Gold.Protein.ActiveResidues>
 VAL166  LYS551  ARG553  GLY616  TRP617  ASP618  TYR619  PRO620  LYS621  CYS622 
 ASP623  PHE694  ASN695  SER759  ASP760  ASP761  ALA762  ILE779  LEU786  VAL792 
 PHE793  MET794  SER795  GLU796  ALA797  LYS798  CYS799  TRP800  GLU811  SER814 

> <Gold.Protein.RotatedAtoms>
  151.5145  135.1066  159.9862 H   0  0  0  0  0  0  0  0  0  0  0  0  # atno 6907 bound_to 6896
  152.4647  133.7893  159.6904 H   0  0  0  0  0  0  0  0  0  0  0  0  # atno 6908 bound_to 6896
  150.8625  133.7558  159.3013 H   0  0  0  0  0  0  0  0  0  0  0  0  # atno 6909 bound_to 6896
  146.2050  139.7957  142.8732 H   0  0  0  0  0  0  0  0  0  0  0  0  # atno 7974 bound_to 7965
  154.7744  140.2807  155.6113 H   0  0  0  0  0  0  0  0  0  0  0  0  # atno 8008 bound_to 7997
  156.2939  140.2635  156.2482 H   0  0  0  0  0  0  0  0  0  0  0  0  # atno 8009 bound_to 7997
  154.9861  140.0374  157.2288 H   0  0  0  0  0  0  0  0  0  0  0  0  # atno 8010 bound_to 7997
  139.8950  143.6676  152.2605 H   0  0  0  0  0  0  0  0  0  0  0  0  # atno 10167 bound_to 10162
  156.5312  130.4655  149.6546 H   0  0  0  0  0  0  0  0  0  0  0  0  # atno 10718 bound_to 10713
  153.9963  135.2927  155.3407 H   0  0  0  0  0  0  0  0  0  0  0  0  # atno 10763 bound_to 10752
  154.7185  135.5119  153.8779 H   0  0  0  0  0  0  0  0  0  0  0  0  # atno 10764 bound_to 10752
  153.0786  135.6672  154.0209 H   0  0  0  0  0  0  0  0  0  0  0  0  # atno 10765 bound_to 10752
  140.2022  134.8329  157.3030 H   0  0  0  0  0  0  0  0  0  0  0  0  # atno 11005 bound_to 11000
  145.3350  141.0275  143.3425 LP  0  0  0  0  0  0  0  0  0  0  0  0  # atno 17320 bound_to 7965
  144.8772  139.4955  143.6740 LP  0  0  0  0  0  0  0  0  0  0  0  0  # atno 17321 bound_to 7965
  139.7075  144.7625  151.1167 LP  0  0  0  0  0  0  0  0  0  0  0  0  # atno 17342 bound_to 10162
  140.7719  143.5374  150.9352 LP  0  0  0  0  0  0  0  0  0  0  0  0  # atno 17343 bound_to 10162
  156.3058  130.7201  151.2083 LP  0  0  0  0  0  0  0  0  0  0  0  0  # atno 17370 bound_to 10713
  157.7421  131.0494  150.5047 LP  0  0  0  0  0  0  0  0  0  0  0  0  # atno 17371 bound_to 10713
  140.2042  134.4218  155.7646 LP  0  0  0  0  0  0  0  0  0  0  0  0  # atno 17394 bound_to 11000
  141.2227  133.7086  156.8233 LP  0  0  0  0  0  0  0  0  0  0  0  0  # atno 17395 bound_to 11000

$$$$
