#       Name:                AV-unprocessed.smi:1385
#       Creating user name   scv26
#       Creation time:       Fri Mar 27 05:25:14 2020


#       File generated by GOLD software.
#

@<TRIPOS>MOLECULE
AV-unprocessed.smi:1385
    45    46     1
SMALL
NO_CHARGES


@<TRIPOS>ATOM
      1 ****        -7.6058   2.8811   0.7738 C.3            1 S1                 0.0000
      2 ****        -6.1729   2.4732   0.7268 C.2            1 S1                 0.0000
      3 ****        -5.1673   3.3470   0.8581 N.2            1 S1                 0.0000
      4 ****        -3.9245   2.7334   0.7873 N.2            1 S1                 0.0000
      5 ****        -4.0303   1.4095   0.6068 C.2            1 S1                 0.0000
      6 ****        -2.9158   0.5351   0.5056 N.am           1 S1                 0.0000
      7 ****        -1.6085   0.8388   0.5908 C.2            1 S1                 0.0000
      8 ****        -1.1486   1.9688   0.7570 O.2            1 S1                 0.0000
      9 ****        -0.8458  -0.2577   0.4705 N.am           1 S1                 0.0000
     10 ****         0.6129  -0.2753   0.5314 C.3            1 S1                 0.0000
     11 ****         1.2259   0.1188  -0.8248 C.3            1 S1                 0.0000
     12 ****         2.7590   0.0051  -0.7949 C.3            1 S1                 0.0000
     13 ****         3.1902  -1.3636  -0.4012 N.4            1 S1                 1.0000
     14 ****         4.6593  -1.5589  -0.4800 C.3            1 S1                 0.0000
     15 ****         5.0838  -1.7858  -1.9346 C.2            1 S1                 0.0000
     16 ****         5.8739  -0.8001  -2.4005 N.pl3          1 S1                -1.0000
     17 ****         4.6834  -2.7809  -2.5353 O.2            1 S1                 0.0000
     18 ****         2.6394  -1.7504   0.9225 C.3            1 S1                 0.0000
     19 ****         1.1033  -1.6769   0.9280 C.3            1 S1                 0.0000
     20 ****        -5.6736   0.8010   0.5022 S.3            1 S1                 0.0000
     21 ****        -7.7199   3.9135   0.4417 H              1 S1                 0.0000
     22 ****        -7.9829   2.7965   1.7930 H              1 S1                 0.0000
     23 ****        -8.2018   2.2393   0.1248 H              1 S1                 0.0000
     24 ****        -3.1429  -0.4380   0.3645 H              1 S1                 0.0000
     25 ****        -1.3072  -1.1454   0.3358 H              1 S1                 0.0000
     26 ****         0.9472   0.4320   1.2931 H              1 S1                 0.0000
     27 ****         0.8304  -0.5232  -1.6134 H              1 S1                 0.0000
     28 ****         0.9417   1.1388  -1.0860 H              1 S1                 0.0000
     29 ****         3.1517   0.2562  -1.7805 H              1 S1                 0.0000
     30 ****         3.1746   0.7334  -0.0967 H              1 S1                 0.0000
     31 ****         5.1831  -0.7231  -0.0106 H              1 S1                 0.0000
     32 ****         4.9474  -2.4535   0.0738 H              1 S1                 0.0000
     33 ****         6.2155  -0.8578  -3.3675 H              1 S1                 0.0000
     34 ****         2.9485  -2.7674   1.1671 H              1 S1                 0.0000
     35 ****         3.0523  -1.0986   1.6942 H              1 S1                 0.0000
     36 ****         0.7261  -1.9397   1.9171 H              1 S1                 0.0000
     37 ****         0.7041  -2.4206   0.2363 H              1 S1                 0.0000
     38 ****         2.7926  -2.0031  -1.0744 H              1 S1                 0.0000
     39 ****        -5.2967   4.3295   0.9918 LP             1 S1                 0.0000
     40 ****        -3.0544   3.2206   0.8619 LP             1 S1                 0.0000
     41 ****        -1.7646   2.7521   0.8401 LP             1 S1                 0.0000
     42 ****        -0.1590   2.1032   0.8087 LP             1 S1                 0.0000
     43 ****         6.1232  -0.0274  -1.8169 LP             1 S1                 0.0000
     44 ****         4.0847  -3.4360  -2.0744 LP             1 S1                 0.0000
     45 ****         4.9565  -2.9354  -3.4849 LP             1 S1                 0.0000
@<TRIPOS>BOND
    1    1    2 1     
    2    1   21 1     
    3    1   22 1     
    4    1   23 1     
    5    2   20 1     
    6    2    3 2     
    7    3    4 1     
    8    4    5 2     
    9    5    6 1     
   10    5   20 1     
   11    6    7 am    
   12    6   24 1     
   13    7    8 2     
   14    7    9 am    
   15    9   10 1     
   16    9   25 1     
   17   10   19 1     
   18   10   11 1     
   19   10   26 1     
   20   11   12 1     
   21   11   27 1     
   22   11   28 1     
   23   12   13 1     
   24   12   29 1     
   25   12   30 1     
   26   13   14 1     
   27   13   18 1     
   28   13   38 1     
   29   14   15 1     
   30   14   31 1     
   31   14   32 1     
   32   15   16 1     
   33   15   17 2     
   34   16   33 1     
   35   18   19 1     
   36   18   34 1     
   37   18   35 1     
   38   19   36 1     
   39   19   37 1     
   40    3   39 1     
   41    4   40 1     
   42    8   41 1     
   43    8   42 1     
   44   16   43 1     
   45   17   44 1     
   46   17   45 1     
@<TRIPOS>SUBSTRUCTURE
      1 S1             1
@<TRIPOS>SET
LONE_PAIRS      STATIC     ATOMS    <user>   **** ""
7 39 40 41 42 43 44 45
DONOR_HYDROGENS      STATIC     ATOMS    <user>   **** ""
4 24 25 38 33
ATOM$BLUE        STATIC     ATOMS    COLORGROUP SYSTEM
7 39 40 41 42 43 44 45
ATOM$RED        STATIC     ATOMS    COLORGROUP SYSTEM
4 24 25 38 33
