AV-unprocessed.smi:2313|AV-procd|sdf|9264|dock7
  -GOLD-   2272012483D 1   1.00000     0.00000
 Structure written by MMmdl.
 37 38  0  0  0  0  0  0  0  0  1 V2000
  153.1852  143.1935  163.2205 C   0  0  0  0  0  0  0  0  0  0  0  0
  152.7541  143.0067  161.7777 C   0  0  0  0  0  0  0  0  0  0  0  0
  151.7668  143.8916  161.1949 C   0  0  0  0  0  0  0  0  0  0  0  0
  151.4026  143.7173  159.9157 C   0  0  0  0  0  0  0  0  0  0  0  0
  151.9496  142.6960  159.1195 N   0  0  0  0  0  0  0  0  0  0  0  0
  151.4686  142.5970  157.7313 C   0  0  0  0  0  0  0  0  0  0  0  0
  150.2667  141.6549  157.5757 C   0  0  0  0  0  0  0  0  0  0  0  0
  150.2019  140.6119  158.2263 O   0  0  0  0  0  0  0  0  0  0  0  0
  149.3116  142.0637  156.7231 N   0  0  0  0  0  0  0  0  0  0  0  0
  148.0563  141.3896  156.3653 C   0  0  1  0  0  0  0  0  0  0  0  0
  148.4490  139.9743  155.9109 C   0  0  0  0  0  0  0  0  0  0  0  0
  147.1569  141.2514  157.5282 C   0  0  0  0  0  0  0  0  0  0  0  0
  146.4527  141.1401  158.4399 N   0  0  0  0  0  0  0  0  0  0  0  0
  147.2583  142.0554  155.2419 C   0  0  0  0  0  0  0  0  0  0  0  0
  146.4342  141.2590  154.2553 C   0  0  0  0  0  0  0  0  0  0  0  0
  147.6537  142.0186  153.7820 C   0  0  0  0  0  0  0  0  0  0  0  0
  152.8779  141.8180  159.6051 C   0  0  0  0  0  0  0  0  0  0  0  0
  153.3459  140.9186  158.9040 O   0  0  0  0  0  0  0  0  0  0  0  0
  153.2752  142.0218  161.0074 C   0  0  0  0  0  0  0  0  0  0  0  0
  154.2538  141.1123  161.5110 C   0  0  0  0  0  0  0  0  0  0  0  0
  155.0415  140.3600  161.9029 N   0  0  0  0  0  0  0  0  0  0  0  0
  152.6350  144.0070  163.6942 H   0  0  0  0  0  0  0  0  0  0  0  0
  154.2486  143.4291  163.2722 H   0  0  0  0  0  0  0  0  0  0  0  0
  153.0041  142.2844  163.7948 H   0  0  0  0  0  0  0  0  0  0  0  0
  151.3226  144.6829  161.7811 H   0  0  0  0  0  0  0  0  0  0  0  0
  150.6668  144.3391  159.4265 H   0  0  0  0  0  0  0  0  0  0  0  0
  151.1779  143.5792  157.3566 H   0  0  0  0  0  0  0  0  0  0  0  0
  152.2781  142.2705  157.0755 H   0  0  0  0  0  0  0  0  0  0  0  0
  149.4758  142.9430  156.2552 H   0  0  0  0  0  0  0  0  0  0  0  0
  147.5696  139.3819  155.6552 H   0  0  0  0  0  0  0  0  0  0  0  0
  148.9835  139.4394  156.6973 H   0  0  0  0  0  0  0  0  0  0  0  0
  149.0934  140.0020  155.0314 H   0  0  0  0  0  0  0  0  0  0  0  0
  146.8121  142.9973  155.5570 H   0  0  0  0  0  0  0  0  0  0  0  0
  146.5013  140.1734  154.2834 H   0  0  0  0  0  0  0  0  0  0  0  0
  145.4580  141.6558  153.9848 H   0  0  0  0  0  0  0  0  0  0  0  0
  147.4848  142.9206  153.1977 H   0  0  0  0  0  0  0  0  0  0  0  0
  148.5156  141.4312  153.4787 H   0  0  0  0  0  0  0  0  0  0  0  0
  1  2  1  0  0  0  0
  1 22  1  0  0  0  0
  1 23  1  0  0  0  0
  1 24  1  0  0  0  0
  2 19  2  0  0  0  0
  2  3  1  0  0  0  0
  3  4  2  0  0  0  0
  3 25  1  0  0  0  0
  4  5  1  0  0  0  0
  4 26  1  0  0  0  0
  5  6  1  0  0  0  0
  5 17  1  0  0  0  0
  6  7  1  0  0  0  0
  6 27  1  0  0  0  0
  6 28  1  0  0  0  0
  7  8  2  0  0  0  0
  7  9  1  0  0  0  0
  9 10  1  0  0  0  0
  9 29  1  0  0  0  0
 10 11  1  0  0  0  0
 10 12  1  0  0  0  0
 10 14  1  0  0  0  0
 11 30  1  0  0  0  0
 11 31  1  0  0  0  0
 11 32  1  0  0  0  0
 12 13  3  0  0  0  0
 14 16  1  0  0  0  0
 14 15  1  0  0  0  0
 14 33  1  0  0  0  0
 15 16  1  0  0  0  0
 15 34  1  0  0  0  0
 15 35  1  0  0  0  0
 16 36  1  0  0  0  0
 16 37  1  0  0  0  0
 17 18  2  0  0  0  0
 17 19  1  0  0  0  0
 19 20  1  0  0  0  0
 20 21  3  0  0  0  0
M  END
> <s_m_source_file>
AV-unprocessed.smi

> <i_m_source_file_index>
2313

> <i_lp_mmshare_version>
43012

> <i_f3d_flags>
0

> <s_epik_input>
W0NIM11jMVtjSF1bY0hdbihjKD1PKWMxQyNOKVtDSDJdQyg9TylbTkhdW0NAQF0oW0NIM10pKEMjTilbQ0hdMltDSDJdW0NIMl0y

> <s_epik_cmdline>
J2VwaWtfcHl0aG9uJywgJy1waCcsICc3LjAnLCAnLXRuJywgJzgnLCAnLW1hJywgJzIwMCcsICctbWV0YWxfYmluZGluZycsICctaW1hZScsICc8aW5maWxlLm1hZT4nLCAnLW9tYWUnLCAnPG91dGZpbGUubWFlPic=

> <r_lp_tautomer_probability>
1

> <r_epik_Ionization_Penalty>
4.65501e-07

> <r_epik_Ionization_Penalty_Charging>
2.39086e-10

> <r_epik_Ionization_Penalty_Neutral>
4.65262e-07

> <r_epik_State_Penalty>
-0

> <r_epik_Charging_Adjusted_Penalty>
2.39086e-10

> <i_epik_Tot_Q>
0

> <i_epik_Tot_abs_Q>
0

> <r_epik_Metal_State_Penalty>
-0

> <b_epik_Metal_Only>
0

> <s_lp_Force_Field>
OPLS_2005

> <r_lp_Energy>
24.9024

> <b_lp_Chiralities_Consistent>
1

> <s_lp_Variant>
AV-unprocessed.smi:2313-1

> <Gold.Version>
5.8.1

> <Gold.Id.Protein>
6NUR|6NUR_protein|mol2

> <Gold.PLP.Fitness>
45.2895

> <Gold.PLP.PLP>
-41.9544

> <Gold.PLP.part.hbond>
-2.7500

> <Gold.PLP.part.metal>
0.0000

> <Gold.PLP.part.buried>
-4.7530

> <Gold.PLP.part.nonpolar>
-34.2865

> <Gold.PLP.part.repulsive>
0.0035

> <Gold.PLP.ligand.clash>
0.0000

> <Gold.PLP.ligand.torsion>
1.4924

> <Gold.PLP.Chemscore.Hbond>
1.6079

> <Gold.PLP.Chemscore.CHOScore>
0.0000

> <Gold.PLP.Chemscore.Metal>
0.0000

> <Gold.Chemscore.Hbonds>
donor molecule, donor type, donor heavy atom, donor atom, acceptor molecule, acceptor atom, score
      L1  H     9    29       P1  8028  1.00
      P1  H  6934  6946       L1    13  0.14
      P1  H  7997  8008       L1    18  0.07

> <Gold.PLP.Chemscore.Internal.Correction>
1.4964

> <Gold.Rescore>
     Score         DG    S(hbond)    S(metal)    S(lipo)     H(rot)  DE(clash)    DE(int)     intcor
     13.32     -16.02       1.46        0.00      87.61       1.80       0.08       2.62       ----

> <Gold.Chemscore.Fitness>
13.3160

> <Gold.Chemscore.DG>
-16.0214

> <Gold.Chemscore.ZeroCoef>
-5.4800

> <Gold.Chemscore.Hbond>
1.4634

> <Gold.Chemscore.Metal>
0.0000

> <Gold.Chemscore.Lipo>
87.6075

> <Gold.Chemscore.Internal_Hbond>
0.0000

> <Gold.Chemscore.DEClash>
0.0822

> <Gold.Chemscore.DEInternal>
2.6232

> <Gold.Chemscore.Rot>
1.7955

> <Gold.Chemscore.Internal.Correction>
   9.000000E+99

> <Gold.Chemscore.Hbonds>
donor molecule, donor type, donor heavy atom, donor atom, acceptor molecule, acceptor atom, score
      L1  H     9    29       P1  8028  0.94
      P1  H  6934  6946       L1    13  0.14
      P1  H  7997  8008       L1    18  0.09

> <Gold.Chemscore.Hbond.Weighted>
-4.8878

> <Gold.Chemscore.Metal.Weighted>
-0.0000

> <Gold.Chemscore.Lipo.Weighted>
-10.2501

> <Gold.Chemscore.Internal_Hbond.Weighted>
0.0000

> <Gold.Chemscore.DEClash.Weighted>
0.0822

> <Gold.Chemscore.DEInternal.Weighted>
2.6232

> <Gold.Chemscore.Rot.Weighted>
4.5965

> <Gold.Chemscore.Internal.Correction.Weighted>
   9.000000E+99

> <Gold.Protein.RotatedTorsions>
[ 6907 6896 6895 6894 ] final -122.53 input  -60.11 | X-H torsion
[ 7974 7965 7964 7962 ] final   98.34 input  175.53 | X-H torsion
[ 8008 7997 7996 7995 ] final  -96.11 input   59.86 | X-H torsion
[ 10167 10162 10161 10158 ] final -143.80 input  -65.29 | X-H torsion
[ 10718 10713 10712 10709 ] final  128.08 input   66.30 | X-H torsion
[ 10763 10752 10751 10750 ] final  -75.59 input  -60.55 | X-H torsion
[ 11005 11000 10999 10996 ] final -162.98 input  -57.11 | X-H torsion

> <Gold.Protein.ActiveResidues>
 VAL166  LYS551  ARG553  GLY616  TRP617  ASP618  TYR619  PRO620  LYS621  CYS622 
 ASP623  PHE694  ASN695  SER759  ASP760  ASP761  ALA762  ILE779  LEU786  VAL792 
 PHE793  MET794  SER795  GLU796  ALA797  LYS798  CYS799  TRP800  GLU811  SER814 

> <Gold.Protein.RotatedAtoms>
  150.8584  133.7680  159.3000 H   0  0  0  0  0  0  0  0  0  0  0  0  # atno 6907 bound_to 6896
  151.5330  135.1067  159.9917 H   0  0  0  0  0  0  0  0  0  0  0  0  # atno 6908 bound_to 6896
  152.4608  133.7774  159.6887 H   0  0  0  0  0  0  0  0  0  0  0  0  # atno 6909 bound_to 6896
  145.4134  139.2330  143.3235 H   0  0  0  0  0  0  0  0  0  0  0  0  # atno 7974 bound_to 7965
  154.7701  140.0474  157.1044 H   0  0  0  0  0  0  0  0  0  0  0  0  # atno 8008 bound_to 7997
  154.9830  140.3104  155.4918 H   0  0  0  0  0  0  0  0  0  0  0  0  # atno 8009 bound_to 7997
  156.2920  140.2232  156.4931 H   0  0  0  0  0  0  0  0  0  0  0  0  # atno 8010 bound_to 7997
  139.7959  143.7901  152.2654 H   0  0  0  0  0  0  0  0  0  0  0  0  # atno 10167 bound_to 10162
  157.5276  131.1098  150.9058 H   0  0  0  0  0  0  0  0  0  0  0  0  # atno 10718 bound_to 10713
  154.4886  135.5826  153.6442 H   0  0  0  0  0  0  0  0  0  0  0  0  # atno 10763 bound_to 10752
  152.9858  135.6107  154.3154 H   0  0  0  0  0  0  0  0  0  0  0  0  # atno 10764 bound_to 10752
  154.3052  135.2846  155.2571 H   0  0  0  0  0  0  0  0  0  0  0  0  # atno 10765 bound_to 10752
  140.6032  134.4925  157.5207 H   0  0  0  0  0  0  0  0  0  0  0  0  # atno 11005 bound_to 11000
  146.2693  140.4849  142.8821 LP  0  0  0  0  0  0  0  0  0  0  0  0  # atno 17320 bound_to 7965
  144.8293  140.6681  143.6301 LP  0  0  0  0  0  0  0  0  0  0  0  0  # atno 17321 bound_to 7965
  139.8006  144.7375  150.9830 LP  0  0  0  0  0  0  0  0  0  0  0  0  # atno 17342 bound_to 10162
  140.7820  143.4349  151.0639 LP  0  0  0  0  0  0  0  0  0  0  0  0  # atno 17343 bound_to 10162
  156.9649  130.5469  149.5287 LP  0  0  0  0  0  0  0  0  0  0  0  0  # atno 17370 bound_to 10713
  156.0399  130.5482  150.8745 LP  0  0  0  0  0  0  0  0  0  0  0  0  # atno 17371 bound_to 10713
  139.9223  134.8124  156.1173 LP  0  0  0  0  0  0  0  0  0  0  0  0  # atno 17394 bound_to 11000
  141.0858  133.6735  156.2433 LP  0  0  0  0  0  0  0  0  0  0  0  0  # atno 17395 bound_to 11000

$$$$
