AV-unprocessed.smi:1762|AV-procd|sdf|7123|dock2
  -GOLD-   22720 8353D 1   1.00000     0.00000
 Structure written by MMmdl.
 52 53  0  0  0  0  0  0  0  0  3 V2000
  148.6856  140.8160  154.1463 C   0  0  0  0  0  0  0  0  0  0  0  0
  149.3111  139.4242  154.0018 C   0  0  2  0  0  0  0  0  0  0  0  0
  148.4436  138.3289  154.6506 C   0  0  0  0  0  0  0  0  0  0  0  0
  149.1036  136.9969  154.5619 N   0  3  2  0  0  0  0  0  0  0  0  0
  148.3086  135.8544  155.1276 C   0  0  2  0  0  0  0  0  0  0  0  0
  147.5985  136.2748  156.4381 C   0  0  0  0  0  0  0  0  0  0  0  0
  146.3655  136.3629  156.4380 O   0  0  0  0  0  0  0  0  0  0  0  0
  148.4927  136.4726  157.4447 N   0  5  0  0  0  0  0  0  0  0  0  0
  148.3054  137.4434  158.5213 C   0  0  0  0  0  0  0  0  0  0  0  0
  149.1061  137.0194  159.7747 C   0  0  0  0  0  0  0  0  0  0  0  0
  148.3243  136.1985  160.7988 C   0  0  0  0  0  0  0  0  0  0  0  0
  147.8340  134.9149  160.4669 C   0  0  0  0  0  0  0  0  0  0  0  0
  147.1171  134.1924  161.4395 C   0  0  0  0  0  0  0  0  0  0  0  0
  146.9067  134.7790  162.7014 C   0  0  0  0  0  0  0  0  0  0  0  0
  147.4229  136.0691  162.9343 C   0  0  0  0  0  0  0  0  0  0  0  0
  148.1121  136.7707  162.0094 N   0  0  0  0  0  0  0  0  0  0  0  0
  149.1225  134.5299  155.3304 C   0  0  0  0  0  0  0  0  0  0  0  0
  149.5282  133.8616  154.0024 C   0  0  0  0  0  0  0  0  0  0  0  0
  148.4430  133.4987  156.2557 C   0  0  0  0  0  0  0  0  0  0  0  0
  150.4748  137.0962  155.1404 C   0  0  0  0  0  0  0  0  0  0  0  0
  151.2834  138.2191  154.4675 C   0  0  2  0  0  0  0  0  0  0  0  0
  152.6764  138.3785  155.0867 C   0  0  0  0  0  0  0  0  0  0  0  0
  150.5870  139.4475  154.6265 O   0  0  0  0  0  0  0  0  0  0  0  0
  147.7052  140.8580  153.6714 H   0  0  0  0  0  0  0  0  0  0  0  0
  149.3131  141.5753  153.6791 H   0  0  0  0  0  0  0  0  0  0  0  0
  148.5613  141.0862  155.1951 H   0  0  0  0  0  0  0  0  0  0  0  0
  149.4353  139.2107  152.9386 H   0  0  0  0  0  0  0  0  0  0  0  0
  148.2471  138.5672  155.6972 H   0  0  0  0  0  0  0  0  0  0  0  0
  147.4866  138.3305  154.1329 H   0  0  0  0  0  0  0  0  0  0  0  0
  147.5537  135.6288  154.3700 H   0  0  0  0  0  0  0  0  0  0  0  0
  148.6075  138.4518  158.2341 H   0  0  0  0  0  0  0  0  0  0  0  0
  147.2517  137.5190  158.7920 H   0  0  0  0  0  0  0  0  0  0  0  0
  149.9690  136.4319  159.4584 H   0  0  0  0  0  0  0  0  0  0  0  0
  149.5181  137.9022  160.2656 H   0  0  0  0  0  0  0  0  0  0  0  0
  148.0178  134.4888  159.4914 H   0  0  0  0  0  0  0  0  0  0  0  0
  146.7375  133.2054  161.2214 H   0  0  0  0  0  0  0  0  0  0  0  0
  146.3621  134.2543  163.4722 H   0  0  0  0  0  0  0  0  0  0  0  0
  147.2766  136.5511  163.8895 H   0  0  0  0  0  0  0  0  0  0  0  0
  150.0747  134.7949  155.7875 H   0  0  0  0  0  0  0  0  0  0  0  0
  148.6674  133.4663  153.4617 H   0  0  0  0  0  0  0  0  0  0  0  0
  150.2110  133.0296  154.1756 H   0  0  0  0  0  0  0  0  0  0  0  0
  150.0365  134.5697  153.3476 H   0  0  0  0  0  0  0  0  0  0  0  0
  147.5557  133.0655  155.7945 H   0  0  0  0  0  0  0  0  0  0  0  0
  148.1407  133.9367  157.2064 H   0  0  0  0  0  0  0  0  0  0  0  0
  149.1219  132.6755  156.4796 H   0  0  0  0  0  0  0  0  0  0  0  0
  150.4013  137.2779  156.2141 H   0  0  0  0  0  0  0  0  0  0  0  0
  151.0244  136.1631  155.0182 H   0  0  0  0  0  0  0  0  0  0  0  0
  151.4001  138.0031  153.4039 H   0  0  0  0  0  0  0  0  0  0  0  0
  153.2593  137.4628  154.9838 H   0  0  0  0  0  0  0  0  0  0  0  0
  152.6118  138.6167  156.1489 H   0  0  0  0  0  0  0  0  0  0  0  0
  153.2305  139.1806  154.5986 H   0  0  0  0  0  0  0  0  0  0  0  0
  149.2166  136.7942  153.5789 H   0  0  0  0  0  0  0  0  0  0  0  0
  1  2  1  0  0  0  0
  1 24  1  0  0  0  0
  1 25  1  0  0  0  0
  1 26  1  0  0  0  0
  2 23  1  0  0  0  0
  2  3  1  0  0  0  0
  2 27  1  0  0  0  0
  3  4  1  0  0  0  0
  3 28  1  0  0  0  0
  3 29  1  0  0  0  0
  4  5  1  0  0  0  0
  4 20  1  0  0  0  0
  4 52  1  0  0  0  0
  5  6  1  0  0  0  0
  5 17  1  0  0  0  0
  5 30  1  0  0  0  0
  6  7  2  0  0  0  0
  6  8  1  0  0  0  0
  8  9  1  0  0  0  0
  9 10  1  0  0  0  0
  9 31  1  0  0  0  0
  9 32  1  0  0  0  0
 10 11  1  0  0  0  0
 10 33  1  0  0  0  0
 10 34  1  0  0  0  0
 11 16  1  0  0  0  0
 11 12  2  0  0  0  0
 12 13  1  0  0  0  0
 12 35  1  0  0  0  0
 13 14  2  0  0  0  0
 13 36  1  0  0  0  0
 14 15  1  0  0  0  0
 14 37  1  0  0  0  0
 15 16  2  0  0  0  0
 15 38  1  0  0  0  0
 17 18  1  0  0  0  0
 17 19  1  0  0  0  0
 17 39  1  0  0  0  0
 18 40  1  0  0  0  0
 18 41  1  0  0  0  0
 18 42  1  0  0  0  0
 19 43  1  0  0  0  0
 19 44  1  0  0  0  0
 19 45  1  0  0  0  0
 20 21  1  0  0  0  0
 20 46  1  0  0  0  0
 20 47  1  0  0  0  0
 21 22  1  0  0  0  0
 21 23  1  0  0  0  0
 21 48  1  0  0  0  0
 22 49  1  0  0  0  0
 22 50  1  0  0  0  0
 22 51  1  0  0  0  0
M  CHG  1   4   1
M  CHG  1   8  -1
M  END
> <s_m_source_file>
AV-unprocessed.smi

> <i_m_source_file_index>
1762

> <i_lp_mmshare_version>
43012

> <i_f3d_flags>
0

> <s_epik_input>
W0NIM11bQ0BASF0xW0NIMl1OKFtDSDJdW0NASF0oTzEpW0NIM10pW0NAQEhdKFtDSF0oW0NIM10pW0NIM10pQyg9TylbTkhdW0NIMl1bQ0gyXWMyW2NIXVtjSF1bY0hdW2NIXW4y

> <s_epik_cmdline>
J2VwaWtfcHl0aG9uJywgJy1waCcsICc3LjAnLCAnLXRuJywgJzgnLCAnLW1hJywgJzIwMCcsICctbWV0YWxfYmluZGluZycsICctaW1hZScsICc8aW5maWxlLm1hZT4nLCAnLW9tYWUnLCAnPG91dGZpbGUubWFlPic=

> <r_epik_Ionization_Penalty>
7.82966

> <r_epik_Ionization_Penalty_Charging>
7.7461

> <r_epik_Ionization_Penalty_Neutral>
0.0835571

> <r_epik_State_Penalty>
8.52273

> <r_epik_Charging_Adjusted_Penalty>
16.2688

> <i_epik_Tot_Q>
0

> <i_epik_Tot_abs_Q>
2

> <r_epik_Metal_State_Penalty>
4.47451

> <b_epik_Metal_Only>
1

> <s_lp_Force_Field>
OPLS_2005

> <r_lp_Energy>
21.039

> <b_lp_Chiralities_Consistent>
1

> <s_lp_Variant>
AV-unprocessed.smi:1762-25

> <Gold.Version>
5.8.1

> <Gold.Id.Protein>
6NUR|6NUR_protein|mol2

> <Gold.PLP.Fitness>
48.1577

> <Gold.PLP.PLP>
-38.3077

> <Gold.PLP.part.hbond>
-3.0478

> <Gold.PLP.part.metal>
0.0000

> <Gold.PLP.part.buried>
-0.4683

> <Gold.PLP.part.nonpolar>
-34.7993

> <Gold.PLP.part.repulsive>
0.1137

> <Gold.PLP.ligand.clash>
0.0000

> <Gold.PLP.ligand.torsion>
1.3417

> <Gold.PLP.Chemscore.Hbond>
4.0000

> <Gold.PLP.Chemscore.CHOScore>
0.0000

> <Gold.PLP.Chemscore.Metal>
0.0000

> <Gold.Chemscore.Hbonds>
donor molecule, donor type, donor heavy atom, donor atom, acceptor molecule, acceptor atom, score
      L1  H     4    52       P1  7948  2.00
      P1  H  6931  6943       L1    16  1.00
      P1  H  7989  7998       L1    23  0.84

> <Gold.PLP.Chemscore.Internal.Correction>
0.5334

> <Gold.Rescore>
     Score         DG    S(hbond)    S(metal)    S(lipo)     H(rot)  DE(clash)    DE(int)     intcor
     18.30     -20.28       2.01        0.00     104.04       1.60       0.70       1.27       ----

> <Gold.Chemscore.Fitness>
18.3009

> <Gold.Chemscore.DG>
-20.2770

> <Gold.Chemscore.ZeroCoef>
-5.4800

> <Gold.Chemscore.Hbond>
2.0128

> <Gold.Chemscore.Metal>
0.0000

> <Gold.Chemscore.Lipo>
104.0447

> <Gold.Chemscore.Internal_Hbond>
0.0000

> <Gold.Chemscore.DEClash>
0.7044

> <Gold.Chemscore.DEInternal>
1.2718

> <Gold.Chemscore.Rot>
1.6012

> <Gold.Chemscore.Internal.Correction>
   9.000000E+99

> <Gold.Chemscore.Hbonds>
donor molecule, donor type, donor heavy atom, donor atom, acceptor molecule, acceptor atom, score
      L1  H     4    52       P1  7948  0.98
      P1  H  6931  6943       L1    16  0.40
      P1  H  7989  7998       L1    23  0.18

> <Gold.Chemscore.Hbond.Weighted>
-6.7228

> <Gold.Chemscore.Metal.Weighted>
-0.0000

> <Gold.Chemscore.Lipo.Weighted>
-12.1732

> <Gold.Chemscore.Internal_Hbond.Weighted>
0.0000

> <Gold.Chemscore.DEClash.Weighted>
0.7044

> <Gold.Chemscore.DEInternal.Weighted>
1.2718

> <Gold.Chemscore.Rot.Weighted>
4.0990

> <Gold.Chemscore.Internal.Correction.Weighted>
   9.000000E+99

> <Gold.Protein.RotatedTorsions>
[ 6907 6896 6895 6894 ] final -150.69 input  -60.11 | X-H torsion
[ 7974 7965 7964 7962 ] final  -98.91 input  175.53 | X-H torsion
[ 8008 7997 7996 7995 ] final   -0.05 input   59.86 | X-H torsion
[ 10167 10162 10161 10158 ] final  -11.61 input  -65.29 | X-H torsion
[ 10718 10713 10712 10709 ] final  146.29 input   66.30 | X-H torsion
[ 10763 10752 10751 10750 ] final   -3.81 input  -60.55 | X-H torsion
[ 11005 11000 10999 10996 ] final  112.28 input  -57.11 | X-H torsion

> <Gold.Protein.ActiveResidues>
 VAL166  LYS551  ARG553  GLY616  TRP617  ASP618  TYR619  PRO620  LYS621  CYS622 
 ASP623  PHE694  ASN695  SER759  ASP760  ASP761  ALA762  ILE779  LEU786  VAL792 
 PHE793  MET794  SER795  GLU796  ALA797  LYS798  CYS799  TRP800  GLU811  SER814 

> <Gold.Protein.RotatedAtoms>
  151.2022  133.4604  159.2596 H   0  0  0  0  0  0  0  0  0  0  0  0  # atno 6907 bound_to 6896
  151.1058  134.9998  159.8480 H   0  0  0  0  0  0  0  0  0  0  0  0  # atno 6908 bound_to 6896
  152.5447  134.1945  159.8740 H   0  0  0  0  0  0  0  0  0  0  0  0  # atno 6909 bound_to 6896
  145.3144  140.9407  143.2751 H   0  0  0  0  0  0  0  0  0  0  0  0  # atno 7974 bound_to 7965
  154.6624  140.2593  155.7094 H   0  0  0  0  0  0  0  0  0  0  0  0  # atno 8008 bound_to 7997
  156.2624  140.2846  156.1023 H   0  0  0  0  0  0  0  0  0  0  0  0  # atno 8009 bound_to 7997
  155.1288  140.0378  157.2759 H   0  0  0  0  0  0  0  0  0  0  0  0  # atno 8010 bound_to 7997
  140.7142  143.5621  150.9184 H   0  0  0  0  0  0  0  0  0  0  0  0  # atno 10167 bound_to 10162
  157.3350  131.0926  151.1130 H   0  0  0  0  0  0  0  0  0  0  0  0  # atno 10718 bound_to 10713
  153.3764  135.6996  153.6598 H   0  0  0  0  0  0  0  0  0  0  0  0  # atno 10763 bound_to 10752
  153.5227  135.3608  155.2640 H   0  0  0  0  0  0  0  0  0  0  0  0  # atno 10764 bound_to 10752
  154.8687  135.4162  154.3053 H   0  0  0  0  0  0  0  0  0  0  0  0  # atno 10765 bound_to 10752
  139.8923  134.9526  156.6561 H   0  0  0  0  0  0  0  0  0  0  0  0  # atno 11005 bound_to 11000
  144.8990  139.4675  143.6642 LP  0  0  0  0  0  0  0  0  0  0  0  0  # atno 17320 bound_to 7965
  146.3106  139.7732  142.9023 LP  0  0  0  0  0  0  0  0  0  0  0  0  # atno 17321 bound_to 7965
  139.9347  143.6452  152.3068 LP  0  0  0  0  0  0  0  0  0  0  0  0  # atno 17342 bound_to 10162
  139.6915  144.7646  151.1430 LP  0  0  0  0  0  0  0  0  0  0  0  0  # atno 17343 bound_to 10162
  157.2364  130.6549  149.5871 LP  0  0  0  0  0  0  0  0  0  0  0  0  # atno 17370 bound_to 10713
  155.9700  130.4582  150.5991 LP  0  0  0  0  0  0  0  0  0  0  0  0  # atno 17371 bound_to 10713
  140.7483  133.8919  155.8328 LP  0  0  0  0  0  0  0  0  0  0  0  0  # atno 17394 bound_to 11000
  141.0022  134.1135  157.4306 LP  0  0  0  0  0  0  0  0  0  0  0  0  # atno 17395 bound_to 11000

$$$$
