#       Name:                AV-unprocessed.smi:2870
#       Creating user name   scv26
#       Creation time:       Fri Mar 27 15:49:23 2020


#       File generated by GOLD software.
#

@<TRIPOS>MOLECULE
AV-unprocessed.smi:2870
    47    49     1
SMALL
NO_CHARGES


@<TRIPOS>ATOM
      1 ****        -4.8791  -4.0155  -1.5592 N.1            1 S1                 0.0000
      2 ****        -4.2821  -3.0288  -1.4608 C.1            1 S1                 0.0000
      3 ****        -3.5738  -1.7974  -1.3417 C.2            1 S1                 0.0000
      4 ****        -4.2153  -0.6136  -1.2616 C.2            1 S1                 0.0000
      5 ****        -3.5470   0.5841  -1.1320 N.am           1 S1                 0.0000
      6 ****        -4.2431   1.8387  -1.1892 C.3            1 S1                 0.0000
      7 ****        -4.0672   2.8675  -0.0889 C.3            1 S1                 0.0000
      8 ****        -5.3616   2.1005  -0.2043 C.3            1 S1                 0.0000
      9 ****        -2.1357   0.6168  -1.1640 C.2            1 S1                 0.0000
     10 ****        -1.5209   1.6858  -1.1315 O.2            1 S1                 0.0000
     11 ****        -1.4457  -0.6177  -1.2375 N.am           1 S1                 0.0000
     12 ****         0.0336  -0.6033  -1.2069 C.3            1 S1                 0.0000
     13 ****         0.6167  -0.6412   0.2142 C.2            1 S1                 0.0000
     14 ****        -0.0952  -0.8906   1.1883 O.2            1 S1                 0.0000
     15 ****         1.9312  -0.3993   0.3116 N.am           1 S1                 0.0000
     16 ****         2.6838  -0.4077   1.5581 C.3            1 S1                 0.0000
     17 ****         4.0869   0.1435   1.3352 C.3            1 S1                 0.0000
     18 ****         5.0766  -0.6166   0.4386 C.3            1 S1                 0.0000
     19 ****         6.2008  -0.1629   1.3735 C.3            1 S1                 0.0000
     20 ****         5.1332   0.0312   2.4539 C.3            1 S1                 0.0000
     21 ****        -2.1146  -1.8664  -1.3131 C.2            1 S1                 0.0000
     22 ****        -1.4834  -2.9240  -1.3508 O.2            1 S1                 0.0000
     23 ****        -5.2955  -0.6016  -1.2908 H              1 S1                 0.0000
     24 ****        -4.3917   2.2392  -2.1905 H              1 S1                 0.0000
     25 ****        -3.4189   2.6216   0.7499 H              1 S1                 0.0000
     26 ****        -4.0754   3.9162  -0.3784 H              1 S1                 0.0000
     27 ****        -6.2342   2.6387  -0.5684 H              1 S1                 0.0000
     28 ****        -5.5626   1.3482   0.5561 H              1 S1                 0.0000
     29 ****         0.4487  -1.4421  -1.7675 H              1 S1                 0.0000
     30 ****         0.4235   0.2754  -1.7234 H              1 S1                 0.0000
     31 ****         2.4466  -0.2056  -0.5348 H              1 S1                 0.0000
     32 ****         2.1614   0.1873   2.3089 H              1 S1                 0.0000
     33 ****         2.7278  -1.4295   1.9380 H              1 S1                 0.0000
     34 ****         4.0445   1.1837   1.0043 H              1 S1                 0.0000
     35 ****         4.9230  -1.6970   0.4574 H              1 S1                 0.0000
     36 ****         5.1487  -0.2387  -0.5816 H              1 S1                 0.0000
     37 ****         6.9459  -0.9269   1.5974 H              1 S1                 0.0000
     38 ****         6.6609   0.7752   1.0590 H              1 S1                 0.0000
     39 ****         5.2525   0.9306   3.0588 H              1 S1                 0.0000
     40 ****         4.9980  -0.8562   3.0749 H              1 S1                 0.0000
     41 ****        -5.3949  -4.8680  -1.6442 LP             1 S1                 0.0000
     42 ****        -2.0223   2.5496  -1.0816 LP             1 S1                 0.0000
     43 ****        -0.5212   1.6885  -1.1551 LP             1 S1                 0.0000
     44 ****        -1.0703  -1.0728   1.0614 LP             1 S1                 0.0000
     45 ****         0.3020  -0.9109   2.1058 LP             1 S1                 0.0000
     46 ****        -1.9708  -3.7956  -1.4040 LP             1 S1                 0.0000
     47 ****        -0.4838  -2.9108  -1.3283 LP             1 S1                 0.0000
@<TRIPOS>BOND
    1    1    2 3     
    2    2    3 1     
    3    3   21 1     
    4    3    4 2     
    5    4    5 1     
    6    4   23 1     
    7    5    6 1     
    8    5    9 am    
    9    6    8 1     
   10    6    7 1     
   11    6   24 1     
   12    7    8 1     
   13    7   25 1     
   14    7   26 1     
   15    8   27 1     
   16    8   28 1     
   17    9   10 2     
   18    9   11 am    
   19   11   12 1     
   20   11   21 am    
   21   12   13 1     
   22   12   29 1     
   23   12   30 1     
   24   13   14 2     
   25   13   15 am    
   26   15   16 1     
   27   15   31 1     
   28   16   17 1     
   29   16   32 1     
   30   16   33 1     
   31   17   20 1     
   32   17   18 1     
   33   17   34 1     
   34   18   19 1     
   35   18   35 1     
   36   18   36 1     
   37   19   20 1     
   38   19   37 1     
   39   19   38 1     
   40   20   39 1     
   41   20   40 1     
   42   21   22 2     
   43    1   41 1     
   44   10   42 1     
   45   10   43 1     
   46   14   44 1     
   47   14   45 1     
   48   22   46 1     
   49   22   47 1     
@<TRIPOS>SUBSTRUCTURE
      1 S1             1
@<TRIPOS>SET
LONE_PAIRS      STATIC     ATOMS    <user>   **** ""
7 41 42 43 44 45 46 47
DONOR_HYDROGENS      STATIC     ATOMS    <user>   **** ""
1 31
ATOM$BLUE        STATIC     ATOMS    COLORGROUP SYSTEM
7 41 42 43 44 45 46 47
ATOM$RED        STATIC     ATOMS    COLORGROUP SYSTEM
1 31
