AV-unprocessed.smi:1849|AV-procd|sdf|7521|dock4
  -GOLD-   22720 9233D 1   1.00000     0.00000
 Structure written by MMmdl.
 40 41  0  0  0  0  0  0  0  0  1 V2000
  147.0623  142.3812  154.1207 C   0  0  0  0  0  0  0  0  0  0  0  0
  148.0170  141.3030  154.2939 N   0  0  0  0  0  0  0  0  0  0  0  0
  149.2053  141.3716  155.0090 C   0  0  0  0  0  0  0  0  0  0  0  0
  149.7994  140.1371  154.9050 C   0  0  0  0  0  0  0  0  0  0  0  0
  148.9968  139.3018  154.1353 N   0  0  0  0  0  0  0  0  0  0  0  0
  147.9466  140.0488  153.8076 C   0  0  0  0  0  0  0  0  0  0  0  0
  146.8165  139.5655  152.9538 C   0  0  0  0  0  0  0  0  0  0  0  0
  146.1792  138.2778  153.5006 C   0  0  0  0  0  0  0  0  0  0  0  0
  146.6244  137.1030  152.7610 N   0  0  0  0  0  0  0  0  0  0  0  0
  145.8195  136.1238  152.3254 C   0  0  0  0  0  0  0  0  0  0  0  0
  144.6007  136.1042  152.5006 O   0  0  0  0  0  0  0  0  0  0  0  0
  146.5030  135.1679  151.6809 N   0  0  0  0  0  0  0  0  0  0  0  0
  145.9193  133.9674  151.0899 C   0  0  0  0  0  0  0  0  0  0  0  0
  144.7795  134.3372  150.1175 C   0  0  0  0  0  0  0  0  0  0  0  0
  144.0965  133.0835  149.5475 C   0  0  0  0  0  0  0  0  0  0  0  0
  143.5878  132.1653  150.6698 C   0  0  0  0  0  0  0  0  0  0  0  0
  144.7239  131.7881  151.6335 C   0  0  0  0  0  0  0  0  0  0  0  0
  145.4048  133.0407  152.2080 C   0  0  0  0  0  0  0  0  0  0  0  0
  147.4669  143.3103  154.5230 H   0  0  0  0  0  0  0  0  0  0  0  0
  146.1374  142.1417  154.6455 H   0  0  0  0  0  0  0  0  0  0  0  0
  146.8476  142.5217  153.0610 H   0  0  0  0  0  0  0  0  0  0  0  0
  149.5232  142.2703  155.5165 H   0  0  0  0  0  0  0  0  0  0  0  0
  150.7342  139.7889  155.3191 H   0  0  0  0  0  0  0  0  0  0  0  0
  146.0648  140.3540  152.8990 H   0  0  0  0  0  0  0  0  0  0  0  0
  147.1728  139.4166  151.9342 H   0  0  0  0  0  0  0  0  0  0  0  0
  146.4075  138.1569  154.5608 H   0  0  0  0  0  0  0  0  0  0  0  0
  145.0934  138.3389  153.4227 H   0  0  0  0  0  0  0  0  0  0  0  0
  147.6131  137.0308  152.5704 H   0  0  0  0  0  0  0  0  0  0  0  0
  147.5025  135.2773  151.5914 H   0  0  0  0  0  0  0  0  0  0  0  0
  146.6939  133.4321  150.5372 H   0  0  0  0  0  0  0  0  0  0  0  0
  144.0383  134.9497  150.6327 H   0  0  0  0  0  0  0  0  0  0  0  0
  145.1646  134.9448  149.2978 H   0  0  0  0  0  0  0  0  0  0  0  0
  143.2684  133.3731  148.8999 H   0  0  0  0  0  0  0  0  0  0  0  0
  144.8024  132.5370  148.9210 H   0  0  0  0  0  0  0  0  0  0  0  0
  142.7918  132.6677  151.2212 H   0  0  0  0  0  0  0  0  0  0  0  0
  143.1472  131.2644  150.2419 H   0  0  0  0  0  0  0  0  0  0  0  0
  144.3347  131.1718  152.4446 H   0  0  0  0  0  0  0  0  0  0  0  0
  145.4613  131.1790  151.1090 H   0  0  0  0  0  0  0  0  0  0  0  0
  146.2294  132.7441  152.8575 H   0  0  0  0  0  0  0  0  0  0  0  0
  144.6941  133.5790  152.8372 H   0  0  0  0  0  0  0  0  0  0  0  0
  1  2  1  0  0  0  0
  1 19  1  0  0  0  0
  1 20  1  0  0  0  0
  1 21  1  0  0  0  0
  2  6  1  0  0  0  0
  2  3  1  0  0  0  0
  3  4  2  0  0  0  0
  3 22  1  0  0  0  0
  4  5  1  0  0  0  0
  4 23  1  0  0  0  0
  5  6  2  0  0  0  0
  6  7  1  0  0  0  0
  7  8  1  0  0  0  0
  7 24  1  0  0  0  0
  7 25  1  0  0  0  0
  8  9  1  0  0  0  0
  8 26  1  0  0  0  0
  8 27  1  0  0  0  0
  9 10  1  0  0  0  0
  9 28  1  0  0  0  0
 10 11  2  0  0  0  0
 10 12  1  0  0  0  0
 12 13  1  0  0  0  0
 12 29  1  0  0  0  0
 13 18  1  0  0  0  0
 13 14  1  0  0  0  0
 13 30  1  0  0  0  0
 14 15  1  0  0  0  0
 14 31  1  0  0  0  0
 14 32  1  0  0  0  0
 15 16  1  0  0  0  0
 15 33  1  0  0  0  0
 15 34  1  0  0  0  0
 16 17  1  0  0  0  0
 16 35  1  0  0  0  0
 16 36  1  0  0  0  0
 17 18  1  0  0  0  0
 17 37  1  0  0  0  0
 17 38  1  0  0  0  0
 18 39  1  0  0  0  0
 18 40  1  0  0  0  0
M  END
> <s_m_source_file>
AV-unprocessed.smi

> <i_m_source_file_index>
1849

> <i_lp_mmshare_version>
43012

> <i_f3d_flags>
0

> <s_epik_input>
W0NIM11uMVtjSF1bY0hdbmMxW0NIMl1bQ0gyXVtOSF1DKD1PKVtOSF1bQ0hdMltDSDJdW0NIMl1bQ0gyXVtDSDJdW0NIMl0y

> <s_epik_cmdline>
J2VwaWtfcHl0aG9uJywgJy1waCcsICc3LjAnLCAnLXRuJywgJzgnLCAnLW1hJywgJzIwMCcsICctbWV0YWxfYmluZGluZycsICctaW1hZScsICc8aW5maWxlLm1hZT4nLCAnLW9tYWUnLCAnPG91dGZpbGUubWFlPic=

> <r_lp_tautomer_probability>
1

> <r_epik_Ionization_Penalty>
1.48237

> <r_epik_Ionization_Penalty_Charging>
1.48231

> <r_epik_Ionization_Penalty_Neutral>
5.84917e-05

> <r_epik_State_Penalty>
1.57104

> <r_epik_Charging_Adjusted_Penalty>
3.05335

> <i_epik_Tot_Q>
0

> <i_epik_Tot_abs_Q>
0

> <r_epik_Metal_State_Penalty>
0.437242

> <b_epik_Metal_Only>
0

> <s_lp_Force_Field>
OPLS_2005

> <r_lp_Energy>
3.77176

> <b_lp_Chiralities_Consistent>
1

> <s_lp_Variant>
AV-unprocessed.smi:1849-2

> <Gold.Version>
5.8.1

> <Gold.Id.Protein>
6NUR|6NUR_protein|mol2

> <Gold.PLP.Fitness>
42.1675

> <Gold.PLP.PLP>
-34.1040

> <Gold.PLP.part.hbond>
-2.0000

> <Gold.PLP.part.metal>
0.0000

> <Gold.PLP.part.buried>
-2.6492

> <Gold.PLP.part.nonpolar>
-30.6943

> <Gold.PLP.part.repulsive>
0.6654

> <Gold.PLP.ligand.clash>
0.0000

> <Gold.PLP.ligand.torsion>
0.4746

> <Gold.PLP.Chemscore.Hbond>
2.0000

> <Gold.PLP.Chemscore.CHOScore>
1.0000

> <Gold.PLP.Chemscore.Metal>
0.0000

> <Gold.Chemscore.Hbonds>
donor molecule, donor type, donor heavy atom, donor atom, acceptor molecule, acceptor atom, score
      L1  H     9    28       P1  7948  1.00
      L1  H    12    29       P1  7948  1.00
      L1  C     3    22       P1  8028  0.99

> <Gold.PLP.Chemscore.Internal.Correction>
0.0127

> <Gold.Rescore>
     Score         DG    S(hbond)    S(metal)    S(lipo)     H(rot)  DE(clash)    DE(int)     intcor
     14.58     -16.50       1.84        0.00      78.03       1.66       0.39       1.54       ----

> <Gold.Chemscore.Fitness>
14.5750

> <Gold.Chemscore.DG>
-16.4973

> <Gold.Chemscore.ZeroCoef>
-5.4800

> <Gold.Chemscore.Hbond>
1.8355

> <Gold.Chemscore.Metal>
0.0000

> <Gold.Chemscore.Lipo>
78.0326

> <Gold.Chemscore.Internal_Hbond>
0.0000

> <Gold.Chemscore.DEClash>
0.3855

> <Gold.Chemscore.DEInternal>
1.5367

> <Gold.Chemscore.Rot>
1.6575

> <Gold.Chemscore.Internal.Correction>
   9.000000E+99

> <Gold.Chemscore.Hbonds>
donor molecule, donor type, donor heavy atom, donor atom, acceptor molecule, acceptor atom, score
      L1  H     9    28       P1  7948  0.95
      L1  H    12    29       P1  7948  0.81

> <Gold.Chemscore.Hbond.Weighted>
-6.1306

> <Gold.Chemscore.Metal.Weighted>
-0.0000

> <Gold.Chemscore.Lipo.Weighted>
-9.1298

> <Gold.Chemscore.Internal_Hbond.Weighted>
0.0000

> <Gold.Chemscore.DEClash.Weighted>
0.3855

> <Gold.Chemscore.DEInternal.Weighted>
1.5367

> <Gold.Chemscore.Rot.Weighted>
4.2432

> <Gold.Chemscore.Internal.Correction.Weighted>
   9.000000E+99

> <Gold.Protein.RotatedTorsions>
[ 6907 6896 6895 6894 ] final   94.20 input  -60.11 | X-H torsion
[ 7974 7965 7964 7962 ] final  156.95 input  175.53 | X-H torsion
[ 8008 7997 7996 7995 ] final   44.03 input   59.86 | X-H torsion
[ 10167 10162 10161 10158 ] final -139.43 input  -65.29 | X-H torsion
[ 10718 10713 10712 10709 ] final   80.84 input   66.30 | X-H torsion
[ 10763 10752 10751 10750 ] final -151.60 input  -60.55 | X-H torsion
[ 11005 11000 10999 10996 ] final  -60.29 input  -57.11 | X-H torsion

> <Gold.Protein.ActiveResidues>
 VAL166  LYS551  ARG553  GLY616  TRP617  ASP618  TYR619  PRO620  LYS621  CYS622 
 ASP623  PHE694  ASN695  SER759  ASP760  ASP761  ALA762  ILE779  LEU786  VAL792 
 PHE793  MET794  SER795  GLU796  ALA797  LYS798  CYS799  TRP800  GLU811  SER814 

> <Gold.Protein.RotatedAtoms>
  152.5450  134.1231  159.8406 H   0  0  0  0  0  0  0  0  0  0  0  0  # atno 6907 bound_to 6896
  151.1285  133.5046  159.2607 H   0  0  0  0  0  0  0  0  0  0  0  0  # atno 6908 bound_to 6896
  151.1701  135.0324  159.8803 H   0  0  0  0  0  0  0  0  0  0  0  0  # atno 6909 bound_to 6896
  144.7932  139.7274  143.6213 H   0  0  0  0  0  0  0  0  0  0  0  0  # atno 7974 bound_to 7965
  155.3126  140.3392  155.4243 H   0  0  0  0  0  0  0  0  0  0  0  0  # atno 8008 bound_to 7997
  156.1948  140.1711  156.8058 H   0  0  0  0  0  0  0  0  0  0  0  0  # atno 8009 bound_to 7997
  154.5485  140.0710  156.8613 H   0  0  0  0  0  0  0  0  0  0  0  0  # atno 8010 bound_to 7997
  139.8380  143.7359  152.2664 H   0  0  0  0  0  0  0  0  0  0  0  0  # atno 10167 bound_to 10162
  157.6817  130.9977  150.2138 H   0  0  0  0  0  0  0  0  0  0  0  0  # atno 10718 bound_to 10713
  154.8048  135.3256  154.7460 H   0  0  0  0  0  0  0  0  0  0  0  0  # atno 10763 bound_to 10752
  153.8121  135.6895  153.4844 H   0  0  0  0  0  0  0  0  0  0  0  0  # atno 10764 bound_to 10752
  153.1786  135.4595  154.9942 H   0  0  0  0  0  0  0  0  0  0  0  0  # atno 10765 bound_to 10752
  141.1281  133.6621  156.5201 H   0  0  0  0  0  0  0  0  0  0  0  0  # atno 11005 bound_to 11000
  146.2191  139.5603  142.9630 LP  0  0  0  0  0  0  0  0  0  0  0  0  # atno 17320 bound_to 7965
  145.5741  141.0390  143.2158 LP  0  0  0  0  0  0  0  0  0  0  0  0  # atno 17321 bound_to 7965
  139.7587  144.7513  151.0396 LP  0  0  0  0  0  0  0  0  0  0  0  0  # atno 17342 bound_to 10162
  140.7801  143.4775  151.0062 LP  0  0  0  0  0  0  0  0  0  0  0  0  # atno 17343 bound_to 10162
  156.2803  130.3732  149.7942 LP  0  0  0  0  0  0  0  0  0  0  0  0  # atno 17370 bound_to 10713
  156.5632  130.8392  151.3335 LP  0  0  0  0  0  0  0  0  0  0  0  0  # atno 17371 bound_to 10713
  140.4299  134.7111  157.4936 LP  0  0  0  0  0  0  0  0  0  0  0  0  # atno 17394 bound_to 11000
  140.0301  134.6419  155.9118 LP  0  0  0  0  0  0  0  0  0  0  0  0  # atno 17395 bound_to 11000

$$$$
