AV-unprocessed.smi:102|AV-procd|sdf|952|dock8
  -GOLD-   2262017483D 1   1.00000     0.00000
 Structure written by MMmdl.
 44 45  0  0  0  0  0  0  0  0  1 V2000
  153.2319  142.7090  162.5775 C   0  0  0  0  0  0  0  0  0  0  0  0
  153.6430  141.8873  161.3624 C   0  0  0  0  0  0  0  0  0  0  0  0
  154.7040  141.2640  161.3435 O   0  0  0  0  0  0  0  0  0  0  0  0
  152.7328  141.9393  160.3731 O   0  0  0  0  0  0  0  0  0  0  0  0
  153.1038  141.6712  159.0273 C   0  0  0  0  0  0  0  0  0  0  0  0
  152.2470  140.5357  158.4415 C   0  0  1  0  0  0  0  0  0  0  0  0
  152.6773  140.1862  157.1326 O   0  0  0  0  0  0  0  0  0  0  0  0
  152.2167  138.9052  156.8136 C   0  0  2  0  0  0  0  0  0  0  0  0
  151.0964  138.9949  155.7939 N   0  0  0  0  0  0  0  0  0  0  0  0
  150.3413  140.1471  155.6090 C   0  0  0  0  0  0  0  0  0  0  0  0
  149.3321  140.2285  154.7097 C   0  0  0  0  0  0  0  0  0  0  0  0
  148.6445  141.3765  154.5867 F   0  0  0  0  0  0  0  0  0  0  0  0
  148.9835  139.0838  153.8733 C   0  0  0  0  0  0  0  0  0  0  0  0
  148.0863  139.0616  153.0330 O   0  0  0  0  0  0  0  0  0  0  0  0
  149.7691  137.9489  154.0925 N   0  0  0  0  0  0  0  0  0  0  0  0
  150.8108  137.8511  155.0158 C   0  0  0  0  0  0  0  0  0  0  0  0
  151.4330  136.7964  155.1350 O   0  0  0  0  0  0  0  0  0  0  0  0
  151.7775  138.2252  158.1338 C   0  0  2  0  0  0  0  0  0  0  0  0
  150.3626  138.0747  158.2212 O   0  0  0  0  0  0  0  0  0  0  0  0
  149.8215  136.8970  158.5712 C   0  0  0  0  0  0  0  0  0  0  0  0
  148.4679  137.0637  159.2481 C   0  0  0  0  0  0  0  0  0  0  0  0
  150.3168  135.7855  158.3870 O   0  0  0  0  0  0  0  0  0  0  0  0
  152.2532  139.2065  159.1978 C   0  0  1  0  0  0  0  0  0  0  0  0
  153.5621  138.8586  159.6353 O   0  0  0  0  0  0  0  0  0  0  0  0
  153.8095  137.6332  160.1316 C   0  0  0  0  0  0  0  0  0  0  0  0
  154.9268  137.6421  161.1658 C   0  0  0  0  0  0  0  0  0  0  0  0
  153.2274  136.5941  159.8218 O   0  0  0  0  0  0  0  0  0  0  0  0
  149.5636  137.1305  153.5379 H   0  0  0  0  0  0  0  0  0  0  0  0
  152.8945  142.0520  163.3790 H   0  0  0  0  0  0  0  0  0  0  0  0
  152.4220  143.3953  162.3283 H   0  0  0  0  0  0  0  0  0  0  0  0
  154.0771  143.2932  162.9417 H   0  0  0  0  0  0  0  0  0  0  0  0
  152.9066  142.5826  158.4628 H   0  0  0  0  0  0  0  0  0  0  0  0
  154.1711  141.4740  158.9175 H   0  0  0  0  0  0  0  0  0  0  0  0
  151.2158  140.8820  158.3580 H   0  0  0  0  0  0  0  0  0  0  0  0
  153.0313  138.3806  156.3111 H   0  0  0  0  0  0  0  0  0  0  0  0
  150.5470  141.0302  156.1940 H   0  0  0  0  0  0  0  0  0  0  0  0
  152.2776  137.2583  158.2104 H   0  0  0  0  0  0  0  0  0  0  0  0
  147.7569  137.5232  158.5610 H   0  0  0  0  0  0  0  0  0  0  0  0
  148.5601  137.6994  160.1290 H   0  0  0  0  0  0  0  0  0  0  0  0
  148.0728  136.0965  159.5591 H   0  0  0  0  0  0  0  0  0  0  0  0
  151.5759  139.2521  160.0524 H   0  0  0  0  0  0  0  0  0  0  0  0
  154.6679  138.3003  161.9954 H   0  0  0  0  0  0  0  0  0  0  0  0
  155.8555  137.9957  160.7176 H   0  0  0  0  0  0  0  0  0  0  0  0
  155.0925  136.6391  161.5595 H   0  0  0  0  0  0  0  0  0  0  0  0
  1  2  1  0  0  0  0
  1 29  1  0  0  0  0
  1 30  1  0  0  0  0
  1 31  1  0  0  0  0
  2  3  2  0  0  0  0
  2  4  1  0  0  0  0
  4  5  1  0  0  0  0
  5  6  1  0  0  0  0
  5 32  1  0  0  0  0
  5 33  1  0  0  0  0
  6 23  1  0  0  0  0
  6  7  1  0  0  0  0
  6 34  1  0  0  0  0
  7  8  1  0  0  0  0
  8  9  1  0  0  0  0
  8 18  1  0  0  0  0
  8 35  1  0  0  0  0
  9 16  1  0  0  0  0
  9 10  1  0  0  0  0
 10 11  2  0  0  0  0
 10 36  1  0  0  0  0
 11 12  1  0  0  0  0
 11 13  1  0  0  0  0
 13 14  2  0  0  0  0
 13 15  1  0  0  0  0
 15 28  1  0  0  0  0
 15 16  1  0  0  0  0
 16 17  2  0  0  0  0
 18 19  1  0  0  0  0
 18 23  1  0  0  0  0
 18 37  1  0  0  0  0
 19 20  1  0  0  0  0
 20 21  1  0  0  0  0
 20 22  2  0  0  0  0
 21 38  1  0  0  0  0
 21 39  1  0  0  0  0
 21 40  1  0  0  0  0
 23 24  1  0  0  0  0
 23 41  1  0  0  0  0
 24 25  1  0  0  0  0
 25 26  1  0  0  0  0
 25 27  2  0  0  0  0
 26 42  1  0  0  0  0
 26 43  1  0  0  0  0
 26 44  1  0  0  0  0
M  END
> <s_m_source_file>
AV-unprocessed.smi

> <i_m_source_file_index>
102

> <i_lp_mmshare_version>
43012

> <i_f3d_flags>
0

> <s_epik_input>
W0NIM11DKD1PKU9bQ0gyXVtDQEBIXTFPW0NASF0oW0NAQEhdKE9DKD1PKVtDSDNdKVtDQEhdMU9DKD1PKVtDSDNdKW4yW2NIXWMoRiljKD1PKVtuSF1jMj1P

> <s_epik_cmdline>
J2VwaWtfcHl0aG9uJywgJy1waCcsICc3LjAnLCAnLXRuJywgJzgnLCAnLW1hJywgJzIwMCcsICctbWV0YWxfYmluZGluZycsICctaW1hZScsICc8aW5maWxlLm1hZT4nLCAnLW9tYWUnLCAnPG91dGZpbGUubWFlPic=

> <r_lp_tautomer_probability>
0.999537

> <r_epik_Ionization_Penalty>
0.058267

> <r_epik_Ionization_Penalty_Charging>
0.058267

> <r_epik_Ionization_Penalty_Neutral>
6.57791e-16

> <r_epik_State_Penalty>
0.0503774

> <r_epik_Charging_Adjusted_Penalty>
0.108644

> <i_epik_Tot_Q>
0

> <i_epik_Tot_abs_Q>
0

> <r_epik_Metal_State_Penalty>
2.6644

> <b_epik_Metal_Only>
0

> <s_epik_Chemistry_Notes>
This compound has an ester and may undergo hydrolysis at high or low pH. This compound contains an acetal/aminal-like group ( X-CH(R)-Y where X, Y are N, S, or O) that may be acid/base labile, releasing an aldehyde.

> <s_lp_Force_Field>
OPLS_2005

> <r_lp_Energy>
12.8015

> <b_lp_Chiralities_Consistent>
1

> <s_lp_Variant>
AV-unprocessed.smi:102-8

> <Gold.Version>
5.8.1

> <Gold.Id.Protein>
6NUR|6NUR_protein|mol2

> <Gold.PLP.Fitness>
49.2625

> <Gold.PLP.PLP>
-40.1192

> <Gold.PLP.part.hbond>
-6.0000

> <Gold.PLP.part.metal>
0.0000

> <Gold.PLP.part.buried>
-5.4967

> <Gold.PLP.part.nonpolar>
-31.0297

> <Gold.PLP.part.repulsive>
3.3819

> <Gold.PLP.ligand.clash>
0.0000

> <Gold.PLP.ligand.torsion>
2.7973

> <Gold.PLP.Chemscore.Hbond>
4.8712

> <Gold.PLP.Chemscore.CHOScore>
0.0000

> <Gold.PLP.Chemscore.Metal>
0.0000

> <Gold.Chemscore.Hbonds>
donor molecule, donor type, donor heavy atom, donor atom, acceptor molecule, acceptor atom, score
      L1  H    15    28       P1  7948  1.00
      P1  H  6896  6908       L1    22  0.83
      P1  H  6896  6909       L1    27  1.00
      P1  H  7997  8009       L1     7  1.00
      P1  H 10752 10765       L1    17  1.00

> <Gold.PLP.Chemscore.Internal.Correction>
0.1243

> <Gold.Rescore>
     Score         DG    S(hbond)    S(metal)    S(lipo)     H(rot)  DE(clash)    DE(int)     intcor
     11.34     -16.60       4.50        0.00      55.34       4.05       0.97       4.30       ----

> <Gold.Chemscore.Fitness>
11.3352

> <Gold.Chemscore.DG>
-16.6042

> <Gold.Chemscore.ZeroCoef>
-5.4800

> <Gold.Chemscore.Hbond>
4.4978

> <Gold.Chemscore.Metal>
0.0000

> <Gold.Chemscore.Lipo>
55.3405

> <Gold.Chemscore.Internal_Hbond>
0.0000

> <Gold.Chemscore.DEClash>
0.9725

> <Gold.Chemscore.DEInternal>
4.2965

> <Gold.Chemscore.Rot>
4.0520

> <Gold.Chemscore.Internal.Correction>
   9.000000E+99

> <Gold.Chemscore.Hbonds>
donor molecule, donor type, donor heavy atom, donor atom, acceptor molecule, acceptor atom, score
      L1  H    15    28       P1  7948  0.81
      P1  H  6896  6908       L1    22  0.81
      P1  H  6896  6909       L1    27  0.91
      P1  H  7997  8009       L1     7  0.38
      P1  H 10752 10765       L1    17  0.96

> <Gold.Chemscore.Hbond.Weighted>
-15.0226

> <Gold.Chemscore.Metal.Weighted>
-0.0000

> <Gold.Chemscore.Lipo.Weighted>
-6.4748

> <Gold.Chemscore.Internal_Hbond.Weighted>
0.0000

> <Gold.Chemscore.DEClash.Weighted>
0.9725

> <Gold.Chemscore.DEInternal.Weighted>
4.2965

> <Gold.Chemscore.Rot.Weighted>
10.3732

> <Gold.Chemscore.Internal.Correction.Weighted>
   9.000000E+99

> <Gold.Protein.RotatedTorsions>
[ 6907 6896 6895 6894 ] final  173.57 input  -60.11 | X-H torsion
[ 7974 7965 7964 7962 ] final   93.93 input  175.53 | X-H torsion
[ 8008 7997 7996 7995 ] final  175.90 input   59.86 | X-H torsion
[ 10167 10162 10161 10158 ] final -104.17 input  -65.29 | X-H torsion
[ 10718 10713 10712 10709 ] final  -95.96 input   66.30 | X-H torsion
[ 10763 10752 10751 10750 ] final -177.29 input  -60.55 | X-H torsion
[ 11005 11000 10999 10996 ] final  -92.54 input  -57.11 | X-H torsion

> <Gold.Protein.ActiveResidues>
 VAL166  LYS551  ARG553  GLY616  TRP617  ASP618  TYR619  PRO620  LYS621  CYS622 
 ASP623  PHE694  ASN695  SER759  ASP760  ASP761  ALA762  ILE779  LEU786  VAL792 
 PHE793  MET794  SER795  GLU796  ALA797  LYS798  CYS799  TRP800  GLU811  SER814 

> <Gold.Protein.RotatedAtoms>
  151.7662  133.3337  159.3431 H   0  0  0  0  0  0  0  0  0  0  0  0  # atno 6907 bound_to 6896
  150.7479  134.6060  159.6071 H   0  0  0  0  0  0  0  0  0  0  0  0  # atno 6908 bound_to 6896
  152.3372  134.7184  160.0325 H   0  0  0  0  0  0  0  0  0  0  0  0  # atno 6909 bound_to 6896
  145.4723  139.2281  143.2928 H   0  0  0  0  0  0  0  0  0  0  0  0  # atno 7974 bound_to 7965
  156.0822  140.1397  156.9698 H   0  0  0  0  0  0  0  0  0  0  0  0  # atno 8008 bound_to 7997
  154.4591  140.0950  156.6892 H   0  0  0  0  0  0  0  0  0  0  0  0  # atno 8009 bound_to 7997
  155.5057  140.3452  155.4381 H   0  0  0  0  0  0  0  0  0  0  0  0  # atno 8010 bound_to 7997
  140.2121  143.3739  152.1042 H   0  0  0  0  0  0  0  0  0  0  0  0  # atno 10167 bound_to 10162
  156.0053  130.5131  150.6155 H   0  0  0  0  0  0  0  0  0  0  0  0  # atno 10718 bound_to 10713
  154.5619  135.2821  155.0911 H   0  0  0  0  0  0  0  0  0  0  0  0  # atno 10763 bound_to 10752
  154.2317  135.6373  153.5181 H   0  0  0  0  0  0  0  0  0  0  0  0  # atno 10764 bound_to 10752
  153.0031  135.5538  154.6216 H   0  0  0  0  0  0  0  0  0  0  0  0  # atno 10765 bound_to 10752
  141.1519  133.7828  157.0035 H   0  0  0  0  0  0  0  0  0  0  0  0  # atno 11005 bound_to 11000
  146.2389  140.5502  142.8942 LP  0  0  0  0  0  0  0  0  0  0  0  0  # atno 17320 bound_to 7965
  144.7938  140.6083  143.6524 LP  0  0  0  0  0  0  0  0  0  0  0  0  # atno 17321 bound_to 7965
  139.5176  144.6994  151.5537 LP  0  0  0  0  0  0  0  0  0  0  0  0  # atno 17342 bound_to 10162
  140.6316  143.9065  150.6610 LP  0  0  0  0  0  0  0  0  0  0  0  0  # atno 17343 bound_to 10162
  157.3980  131.0805  151.1334 LP  0  0  0  0  0  0  0  0  0  0  0  0  # atno 17370 bound_to 10713
  157.2005  130.6392  149.5737 LP  0  0  0  0  0  0  0  0  0  0  0  0  # atno 17371 bound_to 10713
  140.0925  134.9584  157.1798 LP  0  0  0  0  0  0  0  0  0  0  0  0  # atno 17394 bound_to 11000
  140.3427  134.2686  155.7209 LP  0  0  0  0  0  0  0  0  0  0  0  0  # atno 17395 bound_to 11000

$$$$
