AV-unprocessed.smi:362|AV-procd|sdf|2422|dock8
  -GOLD-   2262022363D 1   1.00000     0.00000
 Structure written by MMmdl.
 35 37  0  0  0  0  0  0  0  0  2 V2000
  152.5667  139.5786  156.7952 O   0  0  0  0  0  0  0  0  0  0  0  0
  151.4492  140.0874  156.6983 C   0  0  0  0  0  0  0  0  0  0  0  0
  150.4170  139.5123  155.7197 C   0  0  0  0  0  0  0  0  0  0  0  0
  150.3415  138.0439  155.7786 N   0  0  0  0  0  0  0  0  0  0  0  0
  149.1766  137.4685  156.3160 C   0  0  0  0  0  0  0  0  0  0  0  0
  149.0238  136.1341  156.4142 C   0  0  0  0  0  0  0  0  0  0  0  0
  150.1065  135.2789  155.9439 C   0  0  0  0  0  0  0  0  0  0  0  0
  149.9813  134.0580  156.0194 O   0  0  0  0  0  0  0  0  0  0  0  0
  151.2195  135.8850  155.4359 N   0  5  0  0  0  0  0  0  0  0  0  0
  151.3624  137.2437  155.3454 C   0  0  0  0  0  0  0  0  0  0  0  0
  152.3768  137.7706  154.8863 O   0  0  0  0  0  0  0  0  0  0  0  0
  151.0451  141.1376  157.4313 N   0  0  0  0  0  0  0  0  0  0  0  0
  151.8412  141.8836  158.4032 C   0  0  0  0  0  0  0  0  0  0  0  0
  152.1848  141.0835  159.6510 C   0  0  0  0  0  0  0  0  0  0  0  0
  153.4995  141.2738  160.3687 C   0  0  0  0  0  0  0  0  0  0  0  0
  153.2263  139.9918  159.6137 C   0  0  0  0  0  0  0  0  0  0  0  0
  151.2569  143.2398  158.7704 C   0  0  0  0  0  0  0  0  0  0  0  0
  151.6517  144.4905  158.0227 C   0  0  0  0  0  0  0  0  0  0  0  0
  152.0947  144.2934  159.4554 C   0  0  0  0  0  0  0  0  0  0  0  0
  149.4475  139.9556  155.9500 H   0  0  0  0  0  0  0  0  0  0  0  0
  150.6449  139.8343  154.7015 H   0  0  0  0  0  0  0  0  0  0  0  0
  148.4264  138.1715  156.6470 H   0  0  0  0  0  0  0  0  0  0  0  0
  148.1244  135.7075  156.8334 H   0  0  0  0  0  0  0  0  0  0  0  0
  150.1057  141.4728  157.2750 H   0  0  0  0  0  0  0  0  0  0  0  0
  152.7827  142.0776  157.8878 H   0  0  0  0  0  0  0  0  0  0  0  0
  151.3286  140.8899  160.2946 H   0  0  0  0  0  0  0  0  0  0  0  0
  154.2226  141.9626  159.9369 H   0  0  0  0  0  0  0  0  0  0  0  0
  153.4874  141.2308  161.4558 H   0  0  0  0  0  0  0  0  0  0  0  0
  153.0288  139.0937  160.1952 H   0  0  0  0  0  0  0  0  0  0  0  0
  153.7606  139.8339  158.6790 H   0  0  0  0  0  0  0  0  0  0  0  0
  150.2190  143.1945  159.0950 H   0  0  0  0  0  0  0  0  0  0  0  0
  152.4089  144.3999  157.2463 H   0  0  0  0  0  0  0  0  0  0  0  0
  150.8735  145.2266  157.8319 H   0  0  0  0  0  0  0  0  0  0  0  0
  151.6119  144.8982  160.2203 H   0  0  0  0  0  0  0  0  0  0  0  0
  153.1470  144.0772  159.6273 H   0  0  0  0  0  0  0  0  0  0  0  0
  1  2  2  0  0  0  0
  2  3  1  0  0  0  0
  2 12  1  0  0  0  0
  3  4  1  0  0  0  0
  3 20  1  0  0  0  0
  3 21  1  0  0  0  0
  4 10  1  0  0  0  0
  4  5  1  0  0  0  0
  5  6  2  0  0  0  0
  5 22  1  0  0  0  0
  6  7  1  0  0  0  0
  6 23  1  0  0  0  0
  7  8  2  0  0  0  0
  7  9  1  0  0  0  0
  9 10  1  0  0  0  0
 10 11  2  0  0  0  0
 12 13  1  0  0  0  0
 12 24  1  0  0  0  0
 13 14  1  0  0  0  0
 13 17  1  0  0  0  0
 13 25  1  0  0  0  0
 14 16  1  0  0  0  0
 14 15  1  0  0  0  0
 14 26  1  0  0  0  0
 15 16  1  0  0  0  0
 15 27  1  0  0  0  0
 15 28  1  0  0  0  0
 16 29  1  0  0  0  0
 16 30  1  0  0  0  0
 17 19  1  0  0  0  0
 17 18  1  0  0  0  0
 17 31  1  0  0  0  0
 18 19  1  0  0  0  0
 18 32  1  0  0  0  0
 18 33  1  0  0  0  0
 19 34  1  0  0  0  0
 19 35  1  0  0  0  0
M  CHG  1   9  -1
M  END
> <s_m_source_file>
AV-unprocessed.smi

> <i_m_source_file_index>
362

> <i_lp_mmshare_version>
43012

> <i_f3d_flags>
0

> <s_epik_input>
W0NIMl0xW0NIMl1bQ0hdMVtDSF0oW0NIXTJbQ0gyXVtDSDJdMilbTkhdQyg9TylbQ0gyXW4zW2NIXVtjSF1jKD1PKVtuSF1jMz1P

> <s_epik_cmdline>
J2VwaWtfcHl0aG9uJywgJy1waCcsICc3LjAnLCAnLXRuJywgJzgnLCAnLW1hJywgJzIwMCcsICctbWV0YWxfYmluZGluZycsICctaW1hZScsICc8aW5maWxlLm1hZT4nLCAnLW9tYWUnLCAnPG91dGZpbGUubWFlPic=

> <r_lp_tautomer_probability>
0.999537

> <r_epik_Ionization_Penalty>
3.10326

> <r_epik_Ionization_Penalty_Charging>
2.95532e-08

> <r_epik_Ionization_Penalty_Neutral>
3.10326

> <r_epik_State_Penalty>
3.10233

> <r_epik_Charging_Adjusted_Penalty>
3.10233

> <i_epik_Tot_Q>
-1

> <i_epik_Tot_abs_Q>
1

> <r_epik_Metal_State_Penalty>
0.461987

> <b_epik_Metal_Only>
1

> <s_lp_Force_Field>
OPLS_2005

> <r_lp_Energy>
32.875

> <b_lp_Chiralities_Consistent>
1

> <s_lp_Variant>
AV-unprocessed.smi:362-2

> <Gold.Version>
5.8.1

> <Gold.Id.Protein>
6NUR|6NUR_protein|mol2

> <Gold.PLP.Fitness>
45.3633

> <Gold.PLP.PLP>
-37.2147

> <Gold.PLP.part.hbond>
-2.7600

> <Gold.PLP.part.metal>
0.0000

> <Gold.PLP.part.buried>
-4.8210

> <Gold.PLP.part.nonpolar>
-30.1232

> <Gold.PLP.part.repulsive>
0.4288

> <Gold.PLP.ligand.clash>
0.0000

> <Gold.PLP.ligand.torsion>
1.5146

> <Gold.PLP.Chemscore.Hbond>
3.0000

> <Gold.PLP.Chemscore.CHOScore>
0.0000

> <Gold.PLP.Chemscore.Metal>
0.0000

> <Gold.Chemscore.Hbonds>
donor molecule, donor type, donor heavy atom, donor atom, acceptor molecule, acceptor atom, score
      P1  H  7997  8009       L1     1  1.00
      P1  H 10752 10764       L1     9  1.40

> <Gold.PLP.Chemscore.Internal.Correction>
2.1779

> <Gold.Rescore>
     Score         DG    S(hbond)    S(metal)    S(lipo)     H(rot)  DE(clash)    DE(int)     intcor
     11.03     -15.62       1.85        0.00      79.56       2.09       0.39       4.20       ----

> <Gold.Chemscore.Fitness>
11.0274

> <Gold.Chemscore.DG>
-15.6176

> <Gold.Chemscore.ZeroCoef>
-5.4800

> <Gold.Chemscore.Hbond>
1.8525

> <Gold.Chemscore.Metal>
0.0000

> <Gold.Chemscore.Lipo>
79.5575

> <Gold.Chemscore.Internal_Hbond>
0.0000

> <Gold.Chemscore.DEClash>
0.3861

> <Gold.Chemscore.DEInternal>
4.2042

> <Gold.Chemscore.Rot>
2.0929

> <Gold.Chemscore.Internal.Correction>
   9.000000E+99

> <Gold.Chemscore.Hbonds>
donor molecule, donor type, donor heavy atom, donor atom, acceptor molecule, acceptor atom, score
      P1  H  7997  8009       L1     1  0.99
      P1  H 10752 10764       L1     9  0.07

> <Gold.Chemscore.Hbond.Weighted>
-6.1873

> <Gold.Chemscore.Metal.Weighted>
-0.0000

> <Gold.Chemscore.Lipo.Weighted>
-9.3082

> <Gold.Chemscore.Internal_Hbond.Weighted>
0.0000

> <Gold.Chemscore.DEClash.Weighted>
0.3861

> <Gold.Chemscore.DEInternal.Weighted>
4.2042

> <Gold.Chemscore.Rot.Weighted>
5.3579

> <Gold.Chemscore.Internal.Correction.Weighted>
   9.000000E+99

> <Gold.Protein.RotatedTorsions>
[ 6907 6896 6895 6894 ] final  -79.10 input  -60.11 | X-H torsion
[ 7974 7965 7964 7962 ] final   12.97 input  175.53 | X-H torsion
[ 8008 7997 7996 7995 ] final -159.69 input   59.86 | X-H torsion
[ 10167 10162 10161 10158 ] final   41.19 input  -65.29 | X-H torsion
[ 10718 10713 10712 10709 ] final  107.00 input   66.30 | X-H torsion
[ 10763 10752 10751 10750 ] final  -49.39 input  -60.55 | X-H torsion
[ 11005 11000 10999 10996 ] final  122.71 input  -57.11 | X-H torsion

> <Gold.Protein.ActiveResidues>
 VAL166  LYS551  ARG553  GLY616  TRP617  ASP618  TYR619  PRO620  LYS621  CYS622 
 ASP623  PHE694  ASN695  SER759  ASP760  ASP761  ALA762  ILE779  LEU786  VAL792 
 PHE793  MET794  SER795  GLU796  ALA797  LYS798  CYS799  TRP800  GLU811  SER814 

> <Gold.Protein.RotatedAtoms>
  150.6957  134.4173  159.5188 H   0  0  0  0  0  0  0  0  0  0  0  0  # atno 6907 bound_to 6896
  152.1921  134.8660  160.0525 H   0  0  0  0  0  0  0  0  0  0  0  0  # atno 6908 bound_to 6896
  151.9611  133.3660  159.4072 H   0  0  0  0  0  0  0  0  0  0  0  0  # atno 6909 bound_to 6896
  146.2340  139.9258  142.8503 H   0  0  0  0  0  0  0  0  0  0  0  0  # atno 7974 bound_to 7965
  155.7663  140.0846  157.2130 H   0  0  0  0  0  0  0  0  0  0  0  0  # atno 8008 bound_to 7997
  154.3999  140.1533  156.2947 H   0  0  0  0  0  0  0  0  0  0  0  0  # atno 8009 bound_to 7997
  155.8791  140.3421  155.5877 H   0  0  0  0  0  0  0  0  0  0  0  0  # atno 8010 bound_to 7997
  140.3668  144.2157  150.6135 H   0  0  0  0  0  0  0  0  0  0  0  0  # atno 10167 bound_to 10162
  157.6646  131.0863  150.6090 H   0  0  0  0  0  0  0  0  0  0  0  0  # atno 10718 bound_to 10713
  154.0934  135.6574  153.4856 H   0  0  0  0  0  0  0  0  0  0  0  0  # atno 10763 bound_to 10752
  153.0314  135.5208  154.7358 H   0  0  0  0  0  0  0  0  0  0  0  0  # atno 10764 bound_to 10752
  154.6489  135.2998  154.9981 H   0  0  0  0  0  0  0  0  0  0  0  0  # atno 10765 bound_to 10752
  139.9280  134.9641  156.8151 H   0  0  0  0  0  0  0  0  0  0  0  0  # atno 11005 bound_to 11000
  145.2092  140.9888  143.4110 LP  0  0  0  0  0  0  0  0  0  0  0  0  # atno 17320 bound_to 7965
  144.9706  139.3884  143.6311 LP  0  0  0  0  0  0  0  0  0  0  0  0  # atno 17321 bound_to 7965
  140.5073  143.2300  151.8589 LP  0  0  0  0  0  0  0  0  0  0  0  0  # atno 17342 bound_to 10162
  139.4808  144.4991  151.9085 LP  0  0  0  0  0  0  0  0  0  0  0  0  # atno 17343 bound_to 10162
  156.6391  130.4453  149.5759 LP  0  0  0  0  0  0  0  0  0  0  0  0  # atno 17370 bound_to 10713
  156.2223  130.6744  151.1380 LP  0  0  0  0  0  0  0  0  0  0  0  0  # atno 17371 bound_to 10713
  140.6280  133.9932  155.7649 LP  0  0  0  0  0  0  0  0  0  0  0  0  # atno 17394 bound_to 11000
  141.0851  134.0003  157.3326 LP  0  0  0  0  0  0  0  0  0  0  0  0  # atno 17395 bound_to 11000

$$$$
