#       Name:                AV-unprocessed.smi:261
#       Creating user name   scv26
#       Creation time:       Thu Mar 26 21:18:46 2020


#       File generated by GOLD software.
#

@<TRIPOS>MOLECULE
AV-unprocessed.smi:261
    62    65     1
SMALL
NO_CHARGES


@<TRIPOS>ATOM
      1 ****        -6.2989   3.5006   1.3031 C.3            1 S1                 0.0000
      2 ****        -4.9999   3.2538   0.7901 O.3            1 S1                 0.0000
      3 ****        -4.4029   2.0721   1.3037 C.3            1 S1                 0.0000
      4 ****        -3.9314   2.2098   2.7547 C.3            1 S1                 0.0000
      5 ****        -2.8091   1.1673   2.8924 C.3            1 S1                 0.0000
      6 ****        -3.3470  -0.1935   3.3693 C.2            1 S1                 0.0000
      7 ****        -3.2966  -0.4319   4.6817 N.am           1 S1                 0.0000
      8 ****        -3.8107  -1.0107   2.5754 O.2            1 S1                 0.0000
      9 ****        -2.2524   1.0928   1.5394 N.pl3          1 S1                 0.0000
     10 ****        -0.9940   0.6514   1.2641 C.ar           1 S1                 0.0000
     11 ****        -0.2451   0.1580   2.2865 N.ar           1 S1                 0.0000
     12 ****         0.9933  -0.2932   2.0726 C.ar           1 S1                 0.0000
     13 ****         1.6747  -0.3440   0.9282 N.ar           1 S1                 0.0000
     14 ****         0.9358   0.1490  -0.1055 C.ar           1 S1                 0.0000
     15 ****        -0.3918   0.6634  -0.0307 C.ar           1 S1                 0.0000
     16 ****        -0.7991   1.0702  -1.2979 N.2            1 S1                 0.0000
     17 ****         0.2197   0.8111  -2.0699 C.2            1 S1                 0.0000
     18 ****         1.3029   0.2512  -1.4348 N.pl3          1 S1                 0.0000
     19 ****         2.5623  -0.1440  -2.0410 C.3            1 S1                 0.0000
     20 ****         2.6820  -1.6743  -2.2084 C.3            1 S1                 0.0000
     21 ****         1.5991  -2.1137  -3.0062 O.3            1 S1                 0.0000
     22 ****         3.9889  -2.1064  -2.9028 C.3            1 S1                 0.0000
     23 ****         5.2655  -1.5451  -2.2726 C.3            1 S1                 0.0000
     24 ****         6.3362  -2.5450  -2.6770 C.3            1 S1                 0.0000
     25 ****         5.5424  -3.7903  -3.0773 C.3            1 S1                 0.0000
     26 ****         4.1965  -3.5001  -2.7263 O.3            1 S1                 0.0000
     27 ****        -3.1050   1.7535   0.5603 C.3            1 S1                 0.0000
     28 ****        -5.0824   1.2227   1.2102 H              1 S1                 0.0000
     29 ****        -2.0638   1.5344   3.6006 H              1 S1                 0.0000
     30 ****        -6.7056   4.4022   0.8454 H              1 S1                 0.0000
     31 ****        -6.2819   3.6540   2.3825 H              1 S1                 0.0000
     32 ****        -6.9758   2.6758   1.0767 H              1 S1                 0.0000
     33 ****        -3.5181   3.2071   2.9127 H              1 S1                 0.0000
     34 ****        -4.7401   2.0754   3.4745 H              1 S1                 0.0000
     35 ****        -3.6409  -1.3069   5.0489 H              1 S1                 0.0000
     36 ****        -2.9179   0.2680   5.3032 H              1 S1                 0.0000
     37 ****         1.5114  -0.6680   2.9429 H              1 S1                 0.0000
     38 ****         0.2057   1.0167  -3.1305 H              1 S1                 0.0000
     39 ****         2.6567   0.3537  -3.0073 H              1 S1                 0.0000
     40 ****         3.3666   0.2399  -1.4130 H              1 S1                 0.0000
     41 ****         2.6134  -2.1518  -1.2301 H              1 S1                 0.0000
     42 ****         0.7945  -1.9182  -2.5505 H              1 S1                 0.0000
     43 ****         3.9676  -1.8659  -3.9679 H              1 S1                 0.0000
     44 ****         5.4901  -0.5306  -2.6033 H              1 S1                 0.0000
     45 ****         5.1728  -1.5328  -1.1856 H              1 S1                 0.0000
     46 ****         6.9224  -2.1791  -3.5207 H              1 S1                 0.0000
     47 ****         7.0206  -2.7437  -1.8517 H              1 S1                 0.0000
     48 ****         5.6065  -3.9576  -4.1535 H              1 S1                 0.0000
     49 ****         5.8916  -4.6903  -2.5708 H              1 S1                 0.0000
     50 ****        -3.3010   1.1216  -0.3062 H              1 S1                 0.0000
     51 ****        -2.6161   2.6689   0.2235 H              1 S1                 0.0000
     52 ****        -4.4149   4.0308   1.0227 LP             1 S1                 0.0000
     53 ****        -5.0630   3.1700  -0.2044 LP             1 S1                 0.0000
     54 ****        -3.8433  -0.7964   1.5992 LP             1 S1                 0.0000
     55 ****        -4.1550  -1.8893   2.9062 LP             1 S1                 0.0000
     56 ****        -0.6268   0.1328   3.2104 LP             1 S1                 0.0000
     57 ****         2.6060  -0.6975   0.8397 LP             1 S1                 0.0000
     58 ****        -1.6771   1.4717  -1.5584 LP             1 S1                 0.0000
     59 ****         1.6700  -3.0994  -3.1586 LP             1 S1                 0.0000
     60 ****         1.6131  -1.6385  -3.8860 LP             1 S1                 0.0000
     61 ****         3.5735  -4.0136  -3.3163 LP             1 S1                 0.0000
     62 ****         4.0332  -3.7495  -1.7718 LP             1 S1                 0.0000
@<TRIPOS>BOND
    1    1    2 1     
    2    1   30 1     
    3    1   31 1     
    4    1   32 1     
    5    2    3 1     
    6    3   28 1     
    7    3   27 1     
    8    3    4 1     
    9    4    5 1     
   10    4   33 1     
   11    4   34 1     
   12    5   29 1     
   13    5    6 1     
   14    5    9 1     
   15    6    7 am    
   16    6    8 2     
   17    7   35 1     
   18    7   36 1     
   19    9   10 1     
   20    9   27 1     
   21   10   15 ar    
   22   10   11 ar    
   23   11   12 ar    
   24   12   13 ar    
   25   12   37 1     
   26   13   14 ar    
   27   14   18 1     
   28   14   15 ar    
   29   15   16 1     
   30   16   17 2     
   31   17   18 1     
   32   17   38 1     
   33   18   19 1     
   34   19   20 1     
   35   19   39 1     
   36   19   40 1     
   37   20   21 1     
   38   20   22 1     
   39   20   41 1     
   40   21   42 1     
   41   22   26 1     
   42   22   23 1     
   43   22   43 1     
   44   23   24 1     
   45   23   44 1     
   46   23   45 1     
   47   24   25 1     
   48   24   46 1     
   49   24   47 1     
   50   25   26 1     
   51   25   48 1     
   52   25   49 1     
   53   27   50 1     
   54   27   51 1     
   55    2   52 1     
   56    2   53 1     
   57    8   54 1     
   58    8   55 1     
   59   11   56 1     
   60   13   57 1     
   61   16   58 1     
   62   21   59 1     
   63   21   60 1     
   64   26   61 1     
   65   26   62 1     
@<TRIPOS>SUBSTRUCTURE
      1 S1             1
@<TRIPOS>SET
LONE_PAIRS      STATIC     ATOMS    <user>   **** ""
11 52 53 54 55 56 57 58 59 60 61 62
DONOR_HYDROGENS      STATIC     ATOMS    <user>   **** ""
3 35 36 42
ATOM$BLUE        STATIC     ATOMS    COLORGROUP SYSTEM
11 52 53 54 55 56 57 58 59 60 61 62
ATOM$RED        STATIC     ATOMS    COLORGROUP SYSTEM
3 35 36 42
