#       Name:                AV-unprocessed.smi:2066
#       Creating user name   scv26
#       Creation time:       Fri Mar 27 11:11:13 2020


#       File generated by GOLD software.
#

@<TRIPOS>MOLECULE
AV-unprocessed.smi:2066
    45    46     1
SMALL
NO_CHARGES


@<TRIPOS>ATOM
      1 ****        -1.3174  -0.4399   0.5158 C.3            1 S1                 0.0000
      2 ****        -0.7232   0.2790  -0.7205 C.3            1 S1                 0.0000
      3 ****        -1.2316   1.7452  -0.7051 C.3            1 S1                 0.0000
      4 ****         0.8349   0.3196  -0.6464 C.3            1 S1                 0.0000
      5 ****         1.3646   1.0231   0.5224 N.am           1 S1                 0.0000
      6 ****         1.7868   0.4444   1.6562 C.2            1 S1                 0.0000
      7 ****         1.7612  -0.7718   1.8472 O.2            1 S1                 0.0000
      8 ****         2.2274   1.3610   2.5353 N.am           1 S1                 0.0000
      9 ****         2.7347   1.1481   3.8438 C.2            1 S1                 0.0000
     10 ****         2.8405  -0.0520   4.4261 N.2            1 S1                 0.0000
     11 ****         3.3719   0.0358   5.7152 C.2            1 S1                 0.0000
     12 ****         3.6663   1.3196   6.1014 C.2            1 S1                 0.0000
     13 ****         3.2840   2.4768   4.8545 S.3            1 S1                 0.0000
     14 ****        -1.1209  -0.4221  -1.9980 N.4            1 S1                 1.0000
     15 ****        -0.8649  -1.8917  -2.0249 C.3            1 S1                 0.0000
     16 ****        -1.1173  -2.4632  -3.4283 C.3            1 S1                 0.0000
     17 ****        -2.4611  -2.2020  -3.8046 O.3            1 S1                 0.0000
     18 ****        -2.7210  -0.8079  -3.8754 C.3            1 S1                 0.0000
     19 ****        -2.5001  -0.1544  -2.4993 C.3            1 S1                 0.0000
     20 ****        -1.1514   0.1323   1.4288 H              1 S1                 0.0000
     21 ****        -0.8678  -1.4202   0.6752 H              1 S1                 0.0000
     22 ****        -2.3947  -0.5781   0.4246 H              1 S1                 0.0000
     23 ****        -0.8728   2.2945   0.1654 H              1 S1                 0.0000
     24 ****        -2.3188   1.8044  -0.6533 H              1 S1                 0.0000
     25 ****        -0.9025   2.2917  -1.5897 H              1 S1                 0.0000
     26 ****         1.2688  -0.6788  -0.6724 H              1 S1                 0.0000
     27 ****         1.2259   0.8271  -1.5289 H              1 S1                 0.0000
     28 ****         1.4230   2.0289   0.4568 H              1 S1                 0.0000
     29 ****         2.1953   2.3243   2.2356 H              1 S1                 0.0000
     30 ****         3.5075  -0.8686   6.2894 H              1 S1                 0.0000
     31 ****         4.0828   1.6532   7.0402 H              1 S1                 0.0000
     32 ****         0.1567  -2.1305  -1.7386 H              1 S1                 0.0000
     33 ****        -1.5201  -2.4008  -1.3169 H              1 S1                 0.0000
     34 ****        -0.4263  -2.0365  -4.1573 H              1 S1                 0.0000
     35 ****        -0.9559  -3.5414  -3.4283 H              1 S1                 0.0000
     36 ****        -2.0823  -0.3464  -4.6302 H              1 S1                 0.0000
     37 ****        -3.7511  -0.6588  -4.1999 H              1 S1                 0.0000
     38 ****        -3.2358  -0.5282  -1.7862 H              1 S1                 0.0000
     39 ****        -2.6823   0.9113  -2.6272 H              1 S1                 0.0000
     40 ****        -0.5134  -0.0288  -2.7025 H              1 S1                 0.0000
     41 ****         1.4123  -1.3823   1.1362 LP             1 S1                 0.0000
     42 ****         2.0893  -1.1489   2.7133 LP             1 S1                 0.0000
     43 ****         2.5710  -0.9105   3.9900 LP             1 S1                 0.0000
     44 ****        -3.0733  -2.6126  -3.1288 LP             1 S1                 0.0000
     45 ****        -2.6325  -2.6102  -4.7012 LP             1 S1                 0.0000
@<TRIPOS>BOND
    1    1    2 1     
    2    1   20 1     
    3    1   21 1     
    4    1   22 1     
    5    2    3 1     
    6    2    4 1     
    7    2   14 1     
    8    3   23 1     
    9    3   24 1     
   10    3   25 1     
   11    4    5 1     
   12    4   26 1     
   13    4   27 1     
   14    5    6 am    
   15    5   28 1     
   16    6    7 2     
   17    6    8 am    
   18    8    9 1     
   19    8   29 1     
   20    9   13 1     
   21    9   10 2     
   22   10   11 1     
   23   11   12 2     
   24   11   30 1     
   25   12   13 1     
   26   12   31 1     
   27   14   19 1     
   28   14   15 1     
   29   14   40 1     
   30   15   16 1     
   31   15   32 1     
   32   15   33 1     
   33   16   17 1     
   34   16   34 1     
   35   16   35 1     
   36   17   18 1     
   37   18   19 1     
   38   18   36 1     
   39   18   37 1     
   40   19   38 1     
   41   19   39 1     
   42    7   41 1     
   43    7   42 1     
   44   10   43 1     
   45   17   44 1     
   46   17   45 1     
@<TRIPOS>SUBSTRUCTURE
      1 S1             1
@<TRIPOS>SET
LONE_PAIRS      STATIC     ATOMS    <user>   **** ""
5 41 42 43 44 45
DONOR_HYDROGENS      STATIC     ATOMS    <user>   **** ""
3 28 29 40
ATOM$BLUE        STATIC     ATOMS    COLORGROUP SYSTEM
5 41 42 43 44 45
ATOM$RED        STATIC     ATOMS    COLORGROUP SYSTEM
3 28 29 40
