AV-unprocessed.smi:1261|AV-procd|sdf|5301|dock8
  -GOLD-   22720 4423D 1   1.00000     0.00000
 Structure written by MMmdl.
 49 50  0  0  0  0  0  0  0  0  3 V2000
  146.9869  129.2188  151.3104 C   0  0  0  0  0  0  0  0  0  0  0  0
  146.1528  130.1180  152.2397 C   0  0  2  0  0  0  0  0  0  0  0  0
  144.9724  130.7959  151.5195 C   0  0  0  0  0  0  0  0  0  0  0  0
  145.4441  131.9420  150.6069 C   0  0  1  0  0  0  0  0  0  0  0  0
  144.2559  132.6545  149.9448 C   0  0  0  0  0  0  0  0  0  0  0  0
  146.3207  132.9294  151.4011 C   0  0  0  0  0  0  0  0  0  0  0  0
  147.4711  132.2414  152.0421 N   0  3  1  0  0  0  0  0  0  0  0  0
  148.4155  133.1976  152.6740 C   0  0  0  0  0  0  0  0  0  0  0  0
  147.8058  133.9084  153.8942 C   0  0  0  0  0  0  0  0  0  0  0  0
  148.8825  134.4505  154.8482 C   0  0  0  0  0  0  0  0  0  0  0  0
  149.4241  135.7207  154.3817 N   0  0  0  0  0  0  0  0  0  0  0  0
  150.0114  136.6427  155.1595 C   0  0  0  0  0  0  0  0  0  0  0  0
  150.1775  136.5016  156.3715 O   0  0  0  0  0  0  0  0  0  0  0  0
  150.4999  137.9120  154.4539 C   0  0  0  0  0  0  0  0  0  0  0  0
  150.4549  139.0817  155.3399 N   0  0  0  0  0  0  0  0  0  0  0  0
  149.1086  139.4188  155.7961 N   0  5  0  0  0  0  0  0  0  0  0  0
  148.9394  140.4682  156.6434 C   0  0  0  0  0  0  0  0  0  0  0  0
  147.8400  140.8021  157.0791 O   0  0  0  0  0  0  0  0  0  0  0  0
  150.1166  141.2211  157.0435 C   0  0  0  0  0  0  0  0  0  0  0  0
  151.3459  140.8939  156.5987 C   0  0  0  0  0  0  0  0  0  0  0  0
  151.5759  139.7708  155.6979 C   0  0  0  0  0  0  0  0  0  0  0  0
  152.6969  139.4648  155.2918 O   0  0  0  0  0  0  0  0  0  0  0  0
  147.0186  131.1664  152.9659 C   0  0  0  0  0  0  0  0  0  0  0  0
  147.4889  129.7904  150.5299 H   0  0  0  0  0  0  0  0  0  0  0  0
  146.3607  128.4707  150.8234 H   0  0  0  0  0  0  0  0  0  0  0  0
  147.7549  128.6857  151.8714 H   0  0  0  0  0  0  0  0  0  0  0  0
  145.7304  129.4604  153.0008 H   0  0  0  0  0  0  0  0  0  0  0  0
  144.4078  130.0601  150.9456 H   0  0  0  0  0  0  0  0  0  0  0  0
  144.2823  131.1925  152.2657 H   0  0  0  0  0  0  0  0  0  0  0  0
  146.0515  131.5179  149.8062 H   0  0  0  0  0  0  0  0  0  0  0  0
  143.6022  133.1123  150.6881 H   0  0  0  0  0  0  0  0  0  0  0  0
  143.6560  131.9570  149.3595 H   0  0  0  0  0  0  0  0  0  0  0  0
  144.5952  133.4415  149.2706 H   0  0  0  0  0  0  0  0  0  0  0  0
  146.6892  133.7011  150.7239 H   0  0  0  0  0  0  0  0  0  0  0  0
  145.7286  133.4356  152.1657 H   0  0  0  0  0  0  0  0  0  0  0  0
  149.2998  132.6559  153.0123 H   0  0  0  0  0  0  0  0  0  0  0  0
  148.7624  133.9219  151.9353 H   0  0  0  0  0  0  0  0  0  0  0  0
  147.1699  134.7324  153.5711 H   0  0  0  0  0  0  0  0  0  0  0  0
  147.1611  133.2143  154.4351 H   0  0  0  0  0  0  0  0  0  0  0  0
  148.4571  134.6105  155.8392 H   0  0  0  0  0  0  0  0  0  0  0  0
  149.6888  133.7252  154.9701 H   0  0  0  0  0  0  0  0  0  0  0  0
  149.3191  135.9352  153.4000 H   0  0  0  0  0  0  0  0  0  0  0  0
  151.5150  137.7504  154.0872 H   0  0  0  0  0  0  0  0  0  0  0  0
  149.8953  138.0840  153.5611 H   0  0  0  0  0  0  0  0  0  0  0  0
  150.0024  142.0628  157.7109 H   0  0  0  0  0  0  0  0  0  0  0  0
  152.1919  141.4822  156.9214 H   0  0  0  0  0  0  0  0  0  0  0  0
  146.4477  131.6155  153.7802 H   0  0  0  0  0  0  0  0  0  0  0  0
  147.8710  130.6681  153.4263 H   0  0  0  0  0  0  0  0  0  0  0  0
  147.9802  131.7917  151.2944 H   0  0  0  0  0  0  0  0  0  0  0  0
  1  2  1  0  0  0  0
  1 24  1  0  0  0  0
  1 25  1  0  0  0  0
  1 26  1  0  0  0  0
  2 23  1  0  0  0  0
  2  3  1  0  0  0  0
  2 27  1  0  0  0  0
  3  4  1  0  0  0  0
  3 28  1  0  0  0  0
  3 29  1  0  0  0  0
  4  5  1  0  0  0  0
  4  6  1  0  0  0  0
  4 30  1  0  0  0  0
  5 31  1  0  0  0  0
  5 32  1  0  0  0  0
  5 33  1  0  0  0  0
  6  7  1  0  0  0  0
  6 34  1  0  0  0  0
  6 35  1  0  0  0  0
  7  8  1  0  0  0  0
  7 23  1  0  0  0  0
  7 49  1  0  0  0  0
  8  9  1  0  0  0  0
  8 36  1  0  0  0  0
  8 37  1  0  0  0  0
  9 10  1  0  0  0  0
  9 38  1  0  0  0  0
  9 39  1  0  0  0  0
 10 11  1  0  0  0  0
 10 40  1  0  0  0  0
 10 41  1  0  0  0  0
 11 12  1  0  0  0  0
 11 42  1  0  0  0  0
 12 13  2  0  0  0  0
 12 14  1  0  0  0  0
 14 43  1  0  0  0  0
 14 44  1  0  0  0  0
 14 15  1  0  0  0  0
 15 16  1  0  0  0  0
 15 21  1  0  0  0  0
 16 17  1  0  0  0  0
 17 18  2  0  0  0  0
 17 19  1  0  0  0  0
 19 45  1  0  0  0  0
 19 20  2  0  0  0  0
 20 46  1  0  0  0  0
 20 21  1  0  0  0  0
 21 22  2  0  0  0  0
 23 47  1  0  0  0  0
 23 48  1  0  0  0  0
M  CHG  1   7   1
M  CHG  1  16  -1
M  END
> <s_m_source_file>
AV-unprocessed.smi

> <i_m_source_file_index>
1261

> <i_lp_mmshare_version>
43012

> <i_f3d_flags>
0

> <s_epik_input>
W0NIM11bQ0BASF0xW0NIMl1bQ0BASF0oW0NIM10pW0NIMl1OKFtDSDJdMSlbQ0gyXVtDSDJdW0NIMl1bTkhdQyg9TylbQ0gyXW4yW25IXWMoPU8pW2NIXVtjSF1jMj1P

> <s_epik_cmdline>
J2VwaWtfcHl0aG9uJywgJy1waCcsICc3LjAnLCAnLXRuJywgJzgnLCAnLW1hJywgJzIwMCcsICctbWV0YWxfYmluZGluZycsICctaW1hZScsICc8aW5maWxlLm1hZT4nLCAnLW9tYWUnLCAnPG91dGZpbGUubWFlPic=

> <r_lp_tautomer_probability>
1

> <r_epik_Ionization_Penalty>
0.0955723

> <r_epik_Ionization_Penalty_Charging>
0.0955723

> <r_epik_Ionization_Penalty_Neutral>
2.68632e-08

> <r_epik_State_Penalty>
0.0334406

> <r_epik_Charging_Adjusted_Penalty>
0.129013

> <i_epik_Tot_Q>
0

> <i_epik_Tot_abs_Q>
2

> <r_epik_Metal_State_Penalty>
0.0334406

> <b_epik_Metal_Only>
0

> <s_lp_Force_Field>
OPLS_2005

> <r_lp_Energy>
33.9758

> <b_lp_Chiralities_Consistent>
1

> <s_lp_Variant>
AV-unprocessed.smi:1261-1

> <Gold.Version>
5.8.1

> <Gold.Id.Protein>
6NUR|6NUR_protein|mol2

> <Gold.PLP.Fitness>
50.1282

> <Gold.PLP.PLP>
-42.7406

> <Gold.PLP.part.hbond>
-3.0000

> <Gold.PLP.part.metal>
0.0000

> <Gold.PLP.part.buried>
-5.3018

> <Gold.PLP.part.nonpolar>
-35.2503

> <Gold.PLP.part.repulsive>
0.1590

> <Gold.PLP.ligand.clash>
0.0000

> <Gold.PLP.ligand.torsion>
0.7770

> <Gold.PLP.Chemscore.Hbond>
2.9500

> <Gold.PLP.Chemscore.CHOScore>
0.0000

> <Gold.PLP.Chemscore.Metal>
0.0000

> <Gold.Chemscore.Hbonds>
donor molecule, donor type, donor heavy atom, donor atom, acceptor molecule, acceptor atom, score
      L1  H     7    49       P1 10747  1.00
      L1  H    11    42       P1  7948  1.00
      P1  H  7997  8010       L1    22  1.00

> <Gold.PLP.Chemscore.Internal.Correction>
0.0915

> <Gold.Rescore>
     Score         DG    S(hbond)    S(metal)    S(lipo)     H(rot)  DE(clash)    DE(int)     intcor
     18.41     -19.26       2.96        0.00      87.95       2.49       0.04       0.82       ----

> <Gold.Chemscore.Fitness>
18.4090

> <Gold.Chemscore.DG>
-19.2631

> <Gold.Chemscore.ZeroCoef>
-5.4800

> <Gold.Chemscore.Hbond>
2.9572

> <Gold.Chemscore.Metal>
0.0000

> <Gold.Chemscore.Lipo>
87.9499

> <Gold.Chemscore.Internal_Hbond>
0.0000

> <Gold.Chemscore.DEClash>
0.0383

> <Gold.Chemscore.DEInternal>
0.8158

> <Gold.Chemscore.Rot>
2.4938

> <Gold.Chemscore.Internal.Correction>
   9.000000E+99

> <Gold.Chemscore.Hbonds>
donor molecule, donor type, donor heavy atom, donor atom, acceptor molecule, acceptor atom, score
      L1  H     7    49       P1 10747  1.00
      L1  H    11    42       P1  7948  0.59
      P1  H  7997  8010       L1    22  0.97

> <Gold.Chemscore.Hbond.Weighted>
-9.8770

> <Gold.Chemscore.Metal.Weighted>
-0.0000

> <Gold.Chemscore.Lipo.Weighted>
-10.2901

> <Gold.Chemscore.Internal_Hbond.Weighted>
0.0000

> <Gold.Chemscore.DEClash.Weighted>
0.0383

> <Gold.Chemscore.DEInternal.Weighted>
0.8158

> <Gold.Chemscore.Rot.Weighted>
6.3840

> <Gold.Chemscore.Internal.Correction.Weighted>
   9.000000E+99

> <Gold.Protein.RotatedTorsions>
[ 6907 6896 6895 6894 ] final -172.04 input  -60.11 | X-H torsion
[ 7974 7965 7964 7962 ] final -153.91 input  175.53 | X-H torsion
[ 8008 7997 7996 7995 ] final   90.56 input   59.86 | X-H torsion
[ 10167 10162 10161 10158 ] final -158.26 input  -65.29 | X-H torsion
[ 10718 10713 10712 10709 ] final  100.30 input   66.30 | X-H torsion
[ 10763 10752 10751 10750 ] final  -68.02 input  -60.55 | X-H torsion
[ 11005 11000 10999 10996 ] final -145.01 input  -57.11 | X-H torsion

> <Gold.Protein.ActiveResidues>
 VAL166  LYS551  ARG553  GLY616  TRP617  ASP618  TYR619  PRO620  LYS621  CYS622 
 ASP623  PHE694  ASN695  SER759  ASP760  ASP761  ALA762  ILE779  LEU786  VAL792 
 PHE793  MET794  SER795  GLU796  ALA797  LYS798  CYS799  TRP800  GLU811  SER814 

> <Gold.Protein.RotatedAtoms>
  151.5335  133.3445  159.2922 H   0  0  0  0  0  0  0  0  0  0  0  0  # atno 6907 bound_to 6896
  150.8579  134.7925  159.7071 H   0  0  0  0  0  0  0  0  0  0  0  0  # atno 6908 bound_to 6896
  152.4607  134.5199  159.9831 H   0  0  0  0  0  0  0  0  0  0  0  0  # atno 6909 bound_to 6896
  144.7716  140.4461  143.5903 H   0  0  0  0  0  0  0  0  0  0  0  0  # atno 7974 bound_to 7965
  156.0134  140.3348  155.6964 H   0  0  0  0  0  0  0  0  0  0  0  0  # atno 8008 bound_to 7997
  155.6125  140.0667  157.2719 H   0  0  0  0  0  0  0  0  0  0  0  0  # atno 8009 bound_to 7997
  154.4289  140.1791  156.1275 H   0  0  0  0  0  0  0  0  0  0  0  0  # atno 8010 bound_to 7997
  139.6706  143.9752  152.2281 H   0  0  0  0  0  0  0  0  0  0  0  0  # atno 10167 bound_to 10162
  157.6857  131.0694  150.5079 H   0  0  0  0  0  0  0  0  0  0  0  0  # atno 10718 bound_to 10713
  154.3830  135.6070  153.5801 H   0  0  0  0  0  0  0  0  0  0  0  0  # atno 10763 bound_to 10752
  152.9788  135.5865  154.4388 H   0  0  0  0  0  0  0  0  0  0  0  0  # atno 10764 bound_to 10752
  154.4160  135.2845  155.1984 H   0  0  0  0  0  0  0  0  0  0  0  0  # atno 10765 bound_to 10752
  140.7966  134.2906  157.4994 H   0  0  0  0  0  0  0  0  0  0  0  0  # atno 11005 bound_to 11000
  145.6307  139.1536  143.2971 LP  0  0  0  0  0  0  0  0  0  0  0  0  # atno 17320 bound_to 7965
  146.1867  140.6411  142.9164 LP  0  0  0  0  0  0  0  0  0  0  0  0  # atno 17321 bound_to 7965
  139.9516  144.6617  150.8167 LP  0  0  0  0  0  0  0  0  0  0  0  0  # atno 17342 bound_to 10162
  140.7616  143.3179  151.2691 LP  0  0  0  0  0  0  0  0  0  0  0  0  # atno 17343 bound_to 10162
  156.5398  130.4205  149.6160 LP  0  0  0  0  0  0  0  0  0  0  0  0  # atno 17370 bound_to 10713
  156.2996  130.7169  151.2038 LP  0  0  0  0  0  0  0  0  0  0  0  0  # atno 17371 bound_to 10713
  139.8725  134.9405  156.3772 LP  0  0  0  0  0  0  0  0  0  0  0  0  # atno 17394 bound_to 11000
  140.9336  133.7562  156.0057 LP  0  0  0  0  0  0  0  0  0  0  0  0  # atno 17395 bound_to 11000

$$$$
