AV-unprocessed.smi:2785|AV-procd|sdf|10747|dock1
  -GOLD-   2272015183D 1   1.00000     0.00000
 Structure written by MMmdl.
 37 38  0  0  0  0  0  0  0  0  1 V2000
  152.5860  140.2593  159.9445 C   0  0  0  0  0  0  0  0  0  0  0  0
  153.3453  141.5762  160.1890 C   0  0  0  0  0  0  0  0  0  0  0  0
  153.5154  141.8681  161.6883 C   0  0  0  0  0  0  0  0  0  0  0  0
  152.7227  142.7243  159.5151 N   0  0  0  0  0  0  0  0  0  0  0  0
  152.7360  144.0631  160.0822 C   0  0  0  0  0  0  0  0  0  0  0  0
  152.2226  144.9716  158.9608 C   0  0  0  0  0  0  0  0  0  0  0  0
  151.5656  144.0560  157.9153 C   0  0  2  0  0  0  0  0  0  0  0  0
  150.1113  144.1194  158.0424 N   0  0  0  0  0  0  0  0  0  0  0  0
  149.4235  143.9076  159.1742 C   0  0  0  0  0  0  0  0  0  0  0  0
  149.9528  143.6032  160.2434 O   0  0  0  0  0  0  0  0  0  0  0  0
  148.1037  144.0759  158.9788 N   0  0  0  0  0  0  0  0  0  0  0  0
  147.0532  143.9557  159.9269 C   0  0  0  0  0  0  0  0  0  0  0  0
  145.8848  144.6901  159.6209 C   0  0  0  0  0  0  0  0  0  0  0  0
  144.7844  144.6396  160.4988 C   0  0  0  0  0  0  0  0  0  0  0  0
  144.8826  143.8537  161.6607 C   0  0  0  0  0  0  0  0  0  0  0  0
  143.8510  143.7743  162.5344 F   0  0  0  0  0  0  0  0  0  0  0  0
  146.0803  143.1524  161.8917 C   0  0  0  0  0  0  0  0  0  0  0  0
  147.1357  143.2001  161.0510 N   0  0  0  0  0  0  0  0  0  0  0  0
  152.0673  142.6790  158.3468 C   0  0  0  0  0  0  0  0  0  0  0  0
  151.8889  141.6704  157.6644 O   0  0  0  0  0  0  0  0  0  0  0  0
  153.1240  139.4169  160.3798 H   0  0  0  0  0  0  0  0  0  0  0  0
  152.4768  140.0590  158.8781 H   0  0  0  0  0  0  0  0  0  0  0  0
  151.5908  140.2736  160.3901 H   0  0  0  0  0  0  0  0  0  0  0  0
  154.3421  141.4405  159.7649 H   0  0  0  0  0  0  0  0  0  0  0  0
  154.0145  141.0411  162.1939 H   0  0  0  0  0  0  0  0  0  0  0  0
  152.5510  142.0213  162.1736 H   0  0  0  0  0  0  0  0  0  0  0  0
  154.1168  142.7627  161.8520 H   0  0  0  0  0  0  0  0  0  0  0  0
  152.0667  144.1029  160.9426 H   0  0  0  0  0  0  0  0  0  0  0  0
  153.7359  144.3530  160.4079 H   0  0  0  0  0  0  0  0  0  0  0  0
  151.5525  145.7459  159.3374 H   0  0  0  0  0  0  0  0  0  0  0  0
  153.0683  145.4853  158.5013 H   0  0  0  0  0  0  0  0  0  0  0  0
  151.8986  144.3023  156.9054 H   0  0  0  0  0  0  0  0  0  0  0  0
  149.5948  144.3661  157.2111 H   0  0  0  0  0  0  0  0  0  0  0  0
  147.8177  144.3286  158.0446 H   0  0  0  0  0  0  0  0  0  0  0  0
  145.8283  145.2891  158.7234 H   0  0  0  0  0  0  0  0  0  0  0  0
  143.8828  145.1939  160.2838 H   0  0  0  0  0  0  0  0  0  0  0  0
  146.1951  142.5377  162.7723 H   0  0  0  0  0  0  0  0  0  0  0  0
  1  2  1  0  0  0  0
  1 21  1  0  0  0  0
  1 22  1  0  0  0  0
  1 23  1  0  0  0  0
  2  3  1  0  0  0  0
  2  4  1  0  0  0  0
  2 24  1  0  0  0  0
  3 25  1  0  0  0  0
  3 26  1  0  0  0  0
  3 27  1  0  0  0  0
  4 19  1  0  0  0  0
  4  5  1  0  0  0  0
  5  6  1  0  0  0  0
  5 28  1  0  0  0  0
  5 29  1  0  0  0  0
  6  7  1  0  0  0  0
  6 30  1  0  0  0  0
  6 31  1  0  0  0  0
  7  8  1  0  0  0  0
  7 19  1  0  0  0  0
  7 32  1  0  0  0  0
  8  9  1  0  0  0  0
  8 33  1  0  0  0  0
  9 10  2  0  0  0  0
  9 11  1  0  0  0  0
 11 12  1  0  0  0  0
 11 34  1  0  0  0  0
 12 18  1  0  0  0  0
 12 13  2  0  0  0  0
 13 14  1  0  0  0  0
 13 35  1  0  0  0  0
 14 15  2  0  0  0  0
 14 36  1  0  0  0  0
 15 16  1  0  0  0  0
 15 17  1  0  0  0  0
 17 18  2  0  0  0  0
 17 37  1  0  0  0  0
 19 20  2  0  0  0  0
M  END
> <s_m_source_file>
AV-unprocessed.smi

> <i_m_source_file_index>
2785

> <i_lp_mmshare_version>
43012

> <i_f3d_flags>
0

> <s_epik_input>
W0NIM11bQ0hdKFtDSDNdKU4xW0NIMl1bQ0gyXVtDQEhdKEMxPU8pW05IXUMoPU8pW05IXWMyW2NIXVtjSF1jKEYpW2NIXW4y

> <s_epik_cmdline>
J2VwaWtfcHl0aG9uJywgJy1waCcsICc3LjAnLCAnLXRuJywgJzgnLCAnLW1hJywgJzIwMCcsICctbWV0YWxfYmluZGluZycsICctaW1hZScsICc8aW5maWxlLm1hZT4nLCAnLW9tYWUnLCAnPG91dGZpbGUubWFlPic=

> <r_lp_tautomer_probability>
1

> <r_epik_Ionization_Penalty>
3.20266e-05

> <r_epik_Ionization_Penalty_Charging>
0

> <r_epik_Ionization_Penalty_Neutral>
3.20266e-05

> <r_epik_State_Penalty>
-0

> <r_epik_Charging_Adjusted_Penalty>
0

> <i_epik_Tot_Q>
0

> <i_epik_Tot_abs_Q>
0

> <r_epik_Metal_State_Penalty>
-0

> <b_epik_Metal_Only>
0

> <s_lp_Force_Field>
OPLS_2005

> <r_lp_Energy>
23.5858

> <b_lp_Chiralities_Consistent>
1

> <s_lp_Variant>
AV-unprocessed.smi:2785-2

> <Gold.Version>
5.8.1

> <Gold.Id.Protein>
6NUR|6NUR_protein|mol2

> <Gold.PLP.Fitness>
52.1985

> <Gold.PLP.PLP>
-46.0294

> <Gold.PLP.part.hbond>
-5.6581

> <Gold.PLP.part.metal>
0.0000

> <Gold.PLP.part.buried>
-3.4122

> <Gold.PLP.part.nonpolar>
-36.8783

> <Gold.PLP.part.repulsive>
0.3420

> <Gold.PLP.ligand.clash>
0.0000

> <Gold.PLP.ligand.torsion>
0.8195

> <Gold.PLP.Chemscore.Hbond>
2.5748

> <Gold.PLP.Chemscore.CHOScore>
0.0000

> <Gold.PLP.Chemscore.Metal>
0.0000

> <Gold.Chemscore.Hbonds>
donor molecule, donor type, donor heavy atom, donor atom, acceptor molecule, acceptor atom, score
      L1  H     8    33       P1  8028  0.95
      L1  H    11    34       P1  8029  0.58
      P1  H  6933  6944       L1    18  1.00
      P1  H  6934  6946       L1    18  0.05

> <Gold.PLP.Chemscore.Internal.Correction>
0.0839

> <Gold.Rescore>
     Score         DG    S(hbond)    S(metal)    S(lipo)     H(rot)  DE(clash)    DE(int)     intcor
     10.75     -19.22       1.92        0.00      90.81       1.29       0.90       7.57       ----

> <Gold.Chemscore.Fitness>
10.7487

> <Gold.Chemscore.DG>
-19.2196

> <Gold.Chemscore.ZeroCoef>
-5.4800

> <Gold.Chemscore.Hbond>
1.9192

> <Gold.Chemscore.Metal>
0.0000

> <Gold.Chemscore.Lipo>
90.8139

> <Gold.Chemscore.Internal_Hbond>
0.0000

> <Gold.Chemscore.DEClash>
0.8972

> <Gold.Chemscore.DEInternal>
7.5737

> <Gold.Chemscore.Rot>
1.2875

> <Gold.Chemscore.Internal.Correction>
   9.000000E+99

> <Gold.Chemscore.Hbonds>
donor molecule, donor type, donor heavy atom, donor atom, acceptor molecule, acceptor atom, score
      L1  H     8    33       P1  8028  0.22
      L1  H    11    34       P1  8029  0.17
      P1  H  6933  6944       L1    18  0.94

> <Gold.Chemscore.Hbond.Weighted>
-6.4103

> <Gold.Chemscore.Metal.Weighted>
-0.0000

> <Gold.Chemscore.Lipo.Weighted>
-10.6252

> <Gold.Chemscore.Internal_Hbond.Weighted>
0.0000

> <Gold.Chemscore.DEClash.Weighted>
0.8972

> <Gold.Chemscore.DEInternal.Weighted>
7.5737

> <Gold.Chemscore.Rot.Weighted>
3.2959

> <Gold.Chemscore.Internal.Correction.Weighted>
   9.000000E+99

> <Gold.Protein.RotatedTorsions>
[ 6907 6896 6895 6894 ] final -137.66 input  -60.11 | X-H torsion
[ 7974 7965 7964 7962 ] final  -45.06 input  175.53 | X-H torsion
[ 8008 7997 7996 7995 ] final   46.74 input   59.86 | X-H torsion
[ 10167 10162 10161 10158 ] final  -64.16 input  -65.29 | X-H torsion
[ 10718 10713 10712 10709 ] final   63.74 input   66.30 | X-H torsion
[ 10763 10752 10751 10750 ] final  -90.26 input  -60.55 | X-H torsion
[ 11005 11000 10999 10996 ] final  -42.03 input  -57.11 | X-H torsion

> <Gold.Protein.ActiveResidues>
 VAL166  LYS551  ARG553  GLY616  TRP617  ASP618  TYR619  PRO620  LYS621  CYS622 
 ASP623  PHE694  ASN695  SER759  ASP760  ASP761  ALA762  ILE779  LEU786  VAL792 
 PHE793  MET794  SER795  GLU796  ALA797  LYS798  CYS799  TRP800  GLU811  SER814 

> <Gold.Protein.RotatedAtoms>
  151.0253  133.5839  159.2666 H   0  0  0  0  0  0  0  0  0  0  0  0  # atno 6907 bound_to 6896
  151.2941  135.0749  159.9224 H   0  0  0  0  0  0  0  0  0  0  0  0  # atno 6908 bound_to 6896
  152.5332  133.9946  159.7921 H   0  0  0  0  0  0  0  0  0  0  0  0  # atno 6909 bound_to 6896
  145.9859  140.7234  142.9341 H   0  0  0  0  0  0  0  0  0  0  0  0  # atno 7974 bound_to 7965
  155.3575  140.3417  155.4240 H   0  0  0  0  0  0  0  0  0  0  0  0  # atno 8008 bound_to 7997
  156.1731  140.1638  156.8446 H   0  0  0  0  0  0  0  0  0  0  0  0  # atno 8009 bound_to 7997
  154.5254  140.0757  156.8231 H   0  0  0  0  0  0  0  0  0  0  0  0  # atno 8010 bound_to 7997
  140.5820  143.2328  151.6322 H   0  0  0  0  0  0  0  0  0  0  0  0  # atno 10167 bound_to 10162
  157.5992  130.9122  149.9755 H   0  0  0  0  0  0  0  0  0  0  0  0  # atno 10718 bound_to 10713
  154.6640  135.5311  153.8053 H   0  0  0  0  0  0  0  0  0  0  0  0  # atno 10763 bound_to 10752
  153.0459  135.6512  154.0828 H   0  0  0  0  0  0  0  0  0  0  0  0  # atno 10764 bound_to 10752
  154.0734  135.2952  155.3284 H   0  0  0  0  0  0  0  0  0  0  0  0  # atno 10765 bound_to 10752
  141.0287  133.6830  156.2538 H   0  0  0  0  0  0  0  0  0  0  0  0  # atno 11005 bound_to 11000
  144.6874  140.2986  143.7267 LP  0  0  0  0  0  0  0  0  0  0  0  0  # atno 17320 bound_to 7965
  145.7702  139.1854  143.2217 LP  0  0  0  0  0  0  0  0  0  0  0  0  # atno 17321 bound_to 7965
  139.5175  144.3312  152.0824 LP  0  0  0  0  0  0  0  0  0  0  0  0  # atno 17342 bound_to 10162
  140.2464  144.4215  150.6239 LP  0  0  0  0  0  0  0  0  0  0  0  0  # atno 17343 bound_to 10162
  156.1061  130.3652  150.0131 LP  0  0  0  0  0  0  0  0  0  0  0  0  # atno 17370 bound_to 10713
  156.8238  130.9368  151.3640 LP  0  0  0  0  0  0  0  0  0  0  0  0  # atno 17371 bound_to 10713
  140.6445  134.5131  157.5572 LP  0  0  0  0  0  0  0  0  0  0  0  0  # atno 17394 bound_to 11000
  139.9193  134.8181  156.1263 LP  0  0  0  0  0  0  0  0  0  0  0  0  # atno 17395 bound_to 11000

$$$$
