#       Name:                AV-unprocessed.smi:2276
#       Creating user name   scv26
#       Creation time:       Fri Mar 27 12:39:05 2020


#       File generated by GOLD software.
#

@<TRIPOS>MOLECULE
AV-unprocessed.smi:2276
    57    58     1
SMALL
NO_CHARGES


@<TRIPOS>ATOM
      1 ****        -4.3359   5.1137   1.3620 C.3            1 S1                 0.0000
      2 ****        -3.7270   3.8106   1.8358 C.ar           1 S1                 0.0000
      3 ****        -3.4030   3.6146   3.1919 C.ar           1 S1                 0.0000
      4 ****        -2.8381   2.3805   3.5689 C.ar           1 S1                 0.0000
      5 ****        -2.4686   2.0997   5.0103 C.3            1 S1                 0.0000
      6 ****        -2.5931   1.3838   2.6915 N.ar           1 S1                 0.0000
      7 ****        -2.9015   1.5612   1.3830 C.ar           1 S1                 0.0000
      8 ****        -2.6848   0.5771   0.3823 N.am           1 S1                 0.0000
      9 ****        -2.1569  -0.6513   0.5259 C.2            1 S1                 0.0000
     10 ****        -1.7658  -1.1404   1.5860 O.2            1 S1                 0.0000
     11 ****        -2.0957  -1.2946  -0.6492 N.am           1 S1                 0.0000
     12 ****        -1.5718  -2.6441  -0.8424 C.3            1 S1                 0.0000
     13 ****        -0.0314  -2.7183  -0.7352 C.3            1 S1                 0.0000
     14 ****         0.4341  -4.1784  -0.8665 C.3            1 S1                 0.0000
     15 ****         0.6673  -1.8123  -1.7763 C.3            1 S1                 0.0000
     16 ****         2.1349  -1.7219  -1.5691 N.4            1 S1                 1.0000
     17 ****         2.5234  -0.8011  -0.4710 C.3            1 S1                 0.0000
     18 ****         4.0522  -0.8222  -0.2616 C.3            1 S1                 0.0000
     19 ****         4.7834  -0.4822  -1.4834 N.3            1 S1                 0.0000
     20 ****         4.6780   0.9282  -1.8407 C.3            1 S1                 0.0000
     21 ****         4.3878  -1.3813  -2.5687 C.3            1 S1                 0.0000
     22 ****         2.8636  -1.3669  -2.8104 C.3            1 S1                 0.0000
     23 ****        -3.4709   2.7690   0.9213 C.ar           1 S1                 0.0000
     24 ****        -4.6547   5.7306   2.2028 H              1 S1                 0.0000
     25 ****        -5.2057   4.9203   0.7338 H              1 S1                 0.0000
     26 ****        -3.6087   5.6789   0.7788 H              1 S1                 0.0000
     27 ****        -3.5835   4.3888   3.9234 H              1 S1                 0.0000
     28 ****        -2.6692   2.9625   5.6458 H              1 S1                 0.0000
     29 ****        -1.4085   1.8575   5.0903 H              1 S1                 0.0000
     30 ****        -3.0441   1.2554   5.3908 H              1 S1                 0.0000
     31 ****        -2.9631   0.8414  -0.5510 H              1 S1                 0.0000
     32 ****        -2.4466  -0.8212  -1.4690 H              1 S1                 0.0000
     33 ****        -2.0352  -3.3121  -0.1143 H              1 S1                 0.0000
     34 ****        -1.8940  -2.9921  -1.8244 H              1 S1                 0.0000
     35 ****         0.2389  -2.3854   0.2662 H              1 S1                 0.0000
     36 ****         0.2048  -4.5815  -1.8535 H              1 S1                 0.0000
     37 ****        -0.0554  -4.8136  -0.1275 H              1 S1                 0.0000
     38 ****         1.5089  -4.2718  -0.7102 H              1 S1                 0.0000
     39 ****         0.4604  -2.2137  -2.7695 H              1 S1                 0.0000
     40 ****         0.2543  -0.8030  -1.7692 H              1 S1                 0.0000
     41 ****         2.1723   0.2089  -0.6856 H              1 S1                 0.0000
     42 ****         2.0415  -1.1019   0.4584 H              1 S1                 0.0000
     43 ****         4.3365  -0.1373   0.5382 H              1 S1                 0.0000
     44 ****         4.3608  -1.8175   0.0612 H              1 S1                 0.0000
     45 ****         5.2943   1.1421  -2.7145 H              1 S1                 0.0000
     46 ****         5.0387   1.5524  -1.0226 H              1 S1                 0.0000
     47 ****         3.6559   1.2287  -2.0677 H              1 S1                 0.0000
     48 ****         4.9210  -1.1112  -3.4812 H              1 S1                 0.0000
     49 ****         4.7061  -2.3933  -2.3140 H              1 S1                 0.0000
     50 ****         2.6241  -2.0911  -3.5899 H              1 S1                 0.0000
     51 ****         2.5299  -0.3950  -3.1760 H              1 S1                 0.0000
     52 ****        -3.7118   2.8990  -0.1241 H              1 S1                 0.0000
     53 ****         2.4507  -2.6458  -1.3104 H              1 S1                 0.0000
     54 ****        -2.1886   0.5240   3.0033 LP             1 S1                 0.0000
     55 ****        -1.8285  -0.6130   2.4333 LP             1 S1                 0.0000
     56 ****        -1.3854  -2.0652   1.5998 LP             1 S1                 0.0000
     57 ****         5.7580  -0.6216  -1.3078 LP             1 S1                 0.0000
@<TRIPOS>BOND
    1    1    2 1     
    2    1   24 1     
    3    1   25 1     
    4    1   26 1     
    5    2   23 ar    
    6    2    3 ar    
    7    3    4 ar    
    8    3   27 1     
    9    4    5 1     
   10    4    6 ar    
   11    5   28 1     
   12    5   29 1     
   13    5   30 1     
   14    6    7 ar    
   15    7    8 1     
   16    7   23 ar    
   17    8    9 am    
   18    8   31 1     
   19    9   10 2     
   20    9   11 am    
   21   11   12 1     
   22   11   32 1     
   23   12   13 1     
   24   12   33 1     
   25   12   34 1     
   26   13   14 1     
   27   13   15 1     
   28   13   35 1     
   29   14   36 1     
   30   14   37 1     
   31   14   38 1     
   32   15   16 1     
   33   15   39 1     
   34   15   40 1     
   35   16   22 1     
   36   16   17 1     
   37   16   53 1     
   38   17   18 1     
   39   17   41 1     
   40   17   42 1     
   41   18   19 1     
   42   18   43 1     
   43   18   44 1     
   44   19   20 1     
   45   19   21 1     
   46   20   45 1     
   47   20   46 1     
   48   20   47 1     
   49   21   22 1     
   50   21   48 1     
   51   21   49 1     
   52   22   50 1     
   53   22   51 1     
   54   23   52 1     
   55    6   54 1     
   56   10   55 1     
   57   10   56 1     
   58   19   57 1     
@<TRIPOS>SUBSTRUCTURE
      1 S1             1
@<TRIPOS>SET
LONE_PAIRS      STATIC     ATOMS    <user>   **** ""
4 54 55 56 57
DONOR_HYDROGENS      STATIC     ATOMS    <user>   **** ""
3 31 32 53
ATOM$BLUE        STATIC     ATOMS    COLORGROUP SYSTEM
4 54 55 56 57
ATOM$RED        STATIC     ATOMS    COLORGROUP SYSTEM
3 31 32 53
