AV-unprocessed.smi:618|AV-procd|sdf|3084|dock4
  -GOLD-   22720 0 03D 1   1.00000     0.00000
 Structure written by MMmdl.
 40 42  0  0  0  0  0  0  0  0  1 V2000
  150.1814  134.9822  156.0145 O   0  0  0  0  0  0  0  0  0  0  0  0
  149.7516  135.2818  154.9006 C   0  0  0  0  0  0  0  0  0  0  0  0
  149.0618  134.4361  154.1231 N   0  0  0  0  0  0  0  0  0  0  0  0
  148.7222  133.0622  154.4774 C   0  0  0  0  0  0  0  0  0  0  0  0
  147.1945  132.8480  154.5398 C   0  0  2  0  0  0  0  0  0  0  0  0
  146.8087  131.4174  154.9848 C   0  0  0  0  0  0  0  0  0  0  0  0
  147.0186  130.4696  153.9061 N   0  0  0  0  0  0  0  0  0  0  0  0
  146.6086  129.1061  154.1507 C   0  0  0  0  0  0  0  0  0  0  0  0
  146.5557  128.4665  152.7524 C   0  0  0  0  0  0  0  0  0  0  0  0
  146.4472  129.6656  151.7848 C   0  0  0  0  0  0  0  0  0  0  0  0
  146.2812  130.8542  152.7338 C   0  0  2  0  0  0  0  0  0  0  0  0
  146.7407  132.2288  152.2309 C   0  0  0  0  0  0  0  0  0  0  0  0
  146.5674  133.1767  153.2892 O   0  0  0  0  0  0  0  0  0  0  0  0
  149.8837  136.4842  154.3150 N   0  0  0  0  0  0  0  0  0  0  0  0
  150.5736  137.6265  154.8024 C   0  0  0  0  0  0  0  0  0  0  0  0
  151.4713  137.4543  155.8761 C   0  0  0  0  0  0  0  0  0  0  0  0
  152.1513  138.5759  156.3876 C   0  0  0  0  0  0  0  0  0  0  0  0
  151.8968  139.8346  155.8094 C   0  0  0  0  0  0  0  0  0  0  0  0
  151.0287  140.0202  154.7928 N   0  0  0  0  0  0  0  0  0  0  0  0
  150.3822  138.9395  154.3049 C   0  0  0  0  0  0  0  0  0  0  0  0
  148.7382  134.7673  153.2260 H   0  0  0  0  0  0  0  0  0  0  0  0
  149.1786  132.3975  153.7445 H   0  0  0  0  0  0  0  0  0  0  0  0
  149.1756  132.8064  155.4365 H   0  0  0  0  0  0  0  0  0  0  0  0
  146.7928  133.5400  155.2809 H   0  0  0  0  0  0  0  0  0  0  0  0
  147.3832  131.1226  155.8634 H   0  0  0  0  0  0  0  0  0  0  0  0
  145.7587  131.4062  155.2809 H   0  0  0  0  0  0  0  0  0  0  0  0
  147.2975  128.5932  154.8222 H   0  0  0  0  0  0  0  0  0  0  0  0
  145.6161  129.0870  154.6037 H   0  0  0  0  0  0  0  0  0  0  0  0
  147.4618  127.8947  152.5484 H   0  0  0  0  0  0  0  0  0  0  0  0
  145.7051  127.7902  152.6624 H   0  0  0  0  0  0  0  0  0  0  0  0
  147.3643  129.7614  151.2019 H   0  0  0  0  0  0  0  0  0  0  0  0
  145.6113  129.5728  151.0908 H   0  0  0  0  0  0  0  0  0  0  0  0
  145.2225  130.9261  152.9920 H   0  0  0  0  0  0  0  0  0  0  0  0
  147.7824  132.2040  151.9093 H   0  0  0  0  0  0  0  0  0  0  0  0
  146.1475  132.5404  151.3712 H   0  0  0  0  0  0  0  0  0  0  0  0
  149.3922  136.6117  153.4425 H   0  0  0  0  0  0  0  0  0  0  0  0
  151.6421  136.4760  156.3013 H   0  0  0  0  0  0  0  0  0  0  0  0
  152.8503  138.4750  157.2047 H   0  0  0  0  0  0  0  0  0  0  0  0
  152.3997  140.7169  156.1769 H   0  0  0  0  0  0  0  0  0  0  0  0
  149.6819  139.1522  153.5121 H   0  0  0  0  0  0  0  0  0  0  0  0
  1  2  2  0  0  0  0
  2  3  1  0  0  0  0
  2 14  1  0  0  0  0
  3  4  1  0  0  0  0
  3 21  1  0  0  0  0
  4  5  1  0  0  0  0
  4 22  1  0  0  0  0
  4 23  1  0  0  0  0
  5 13  1  0  0  0  0
  5  6  1  0  0  0  0
  5 24  1  0  0  0  0
  6  7  1  0  0  0  0
  6 25  1  0  0  0  0
  6 26  1  0  0  0  0
  7 11  1  0  0  0  0
  7  8  1  0  0  0  0
  8  9  1  0  0  0  0
  8 27  1  0  0  0  0
  8 28  1  0  0  0  0
  9 10  1  0  0  0  0
  9 29  1  0  0  0  0
  9 30  1  0  0  0  0
 10 11  1  0  0  0  0
 10 31  1  0  0  0  0
 10 32  1  0  0  0  0
 11 12  1  0  0  0  0
 11 33  1  0  0  0  0
 12 13  1  0  0  0  0
 12 34  1  0  0  0  0
 12 35  1  0  0  0  0
 14 15  1  0  0  0  0
 14 36  1  0  0  0  0
 15 20  1  0  0  0  0
 15 16  2  0  0  0  0
 16 17  1  0  0  0  0
 16 37  1  0  0  0  0
 17 18  2  0  0  0  0
 17 38  1  0  0  0  0
 18 19  1  0  0  0  0
 18 39  1  0  0  0  0
 19 20  2  0  0  0  0
 20 40  1  0  0  0  0
M  END
> <s_m_source_file>
AV-unprocessed.smi

> <i_m_source_file_index>
618

> <i_lp_mmshare_version>
43012

> <i_f3d_flags>
0

> <s_epik_input>
W2NIXTFuW2NIXVtjSF1bY0hdYzFbTkhdQyg9TylbTkhdW0NIMl1bQ0BIXShbQ0gyXTIpT1tDSDJdW0NAQEhdKE4yMylbQ0gyXVtDSDJdW0NIMl0z

> <s_epik_cmdline>
J2VwaWtfcHl0aG9uJywgJy1waCcsICc3LjAnLCAnLXRuJywgJzgnLCAnLW1hJywgJzIwMCcsICctbWV0YWxfYmluZGluZycsICctaW1hZScsICc8aW5maWxlLm1hZT4nLCAnLW9tYWUnLCAnPG91dGZpbGUubWFlPic=

> <r_epik_Ionization_Penalty>
1.07277

> <r_epik_Ionization_Penalty_Charging>
0

> <r_epik_Ionization_Penalty_Neutral>
1.07277

> <r_epik_State_Penalty>
1.13623

> <r_epik_Charging_Adjusted_Penalty>
1.13623

> <i_epik_Tot_Q>
0

> <i_epik_Tot_abs_Q>
0

> <r_epik_Metal_State_Penalty>
1.13277

> <b_epik_Metal_Only>
0

> <s_lp_Force_Field>
OPLS_2005

> <r_lp_Energy>
52.4513

> <b_lp_Chiralities_Consistent>
1

> <s_lp_Variant>
AV-unprocessed.smi:618-11

> <Gold.Version>
5.8.1

> <Gold.Id.Protein>
6NUR|6NUR_protein|mol2

> <Gold.PLP.Fitness>
41.9172

> <Gold.PLP.PLP>
-30.4888

> <Gold.PLP.part.hbond>
-4.0000

> <Gold.PLP.part.metal>
0.0000

> <Gold.PLP.part.buried>
-2.2177

> <Gold.PLP.part.nonpolar>
-24.6841

> <Gold.PLP.part.repulsive>
0.3933

> <Gold.PLP.ligand.clash>
0.0000

> <Gold.PLP.ligand.torsion>
0.0616

> <Gold.PLP.Chemscore.Hbond>
2.8480

> <Gold.PLP.Chemscore.CHOScore>
1.0000

> <Gold.PLP.Chemscore.Metal>
0.0000

> <Gold.Chemscore.Hbonds>
donor molecule, donor type, donor heavy atom, donor atom, acceptor molecule, acceptor atom, score
      L1  H     3    21       P1  7948  0.88
      L1  H    14    36       P1  7948  1.00
      P1  H  7989  7998       L1    19  1.00
      L1  C    20    40       P1  7957  1.00

> <Gold.PLP.Chemscore.Internal.Correction>
0.0077

> <Gold.Rescore>
     Score         DG    S(hbond)    S(metal)    S(lipo)     H(rot)  DE(clash)    DE(int)     intcor
     16.40     -17.86       1.89        0.00      79.23       1.25       0.00       1.46       ----

> <Gold.Chemscore.Fitness>
16.4030

> <Gold.Chemscore.DG>
-17.8621

> <Gold.Chemscore.ZeroCoef>
-5.4800

> <Gold.Chemscore.Hbond>
1.8869

> <Gold.Chemscore.Metal>
0.0000

> <Gold.Chemscore.Lipo>
79.2299

> <Gold.Chemscore.Internal_Hbond>
0.0000

> <Gold.Chemscore.DEClash>
0.0021

> <Gold.Chemscore.DEInternal>
1.4569

> <Gold.Chemscore.Rot>
1.2461

> <Gold.Chemscore.Internal.Correction>
   9.000000E+99

> <Gold.Chemscore.Hbonds>
donor molecule, donor type, donor heavy atom, donor atom, acceptor molecule, acceptor atom, score
      L1  H     3    21       P1  7948  0.25
      L1  H    14    36       P1  7948  0.83
      P1  H  7989  7998       L1    19  0.59

> <Gold.Chemscore.Hbond.Weighted>
-6.3023

> <Gold.Chemscore.Metal.Weighted>
-0.0000

> <Gold.Chemscore.Lipo.Weighted>
-9.2699

> <Gold.Chemscore.Internal_Hbond.Weighted>
0.0000

> <Gold.Chemscore.DEClash.Weighted>
0.0021

> <Gold.Chemscore.DEInternal.Weighted>
1.4569

> <Gold.Chemscore.Rot.Weighted>
3.1901

> <Gold.Chemscore.Internal.Correction.Weighted>
   9.000000E+99

> <Gold.Protein.RotatedTorsions>
[ 6907 6896 6895 6894 ] final  171.22 input  -60.11 | X-H torsion
[ 7974 7965 7964 7962 ] final   -1.57 input  175.53 | X-H torsion
[ 8008 7997 7996 7995 ] final -135.55 input   59.86 | X-H torsion
[ 10167 10162 10161 10158 ] final  -68.06 input  -65.29 | X-H torsion
[ 10718 10713 10712 10709 ] final -177.45 input   66.30 | X-H torsion
[ 10763 10752 10751 10750 ] final  -82.46 input  -60.55 | X-H torsion
[ 11005 11000 10999 10996 ] final  153.33 input  -57.11 | X-H torsion

> <Gold.Protein.ActiveResidues>
 VAL166  LYS551  ARG553  GLY616  TRP617  ASP618  TYR619  PRO620  LYS621  CYS622 
 ASP623  PHE694  ASN695  SER759  ASP760  ASP761  ALA762  ILE779  LEU786  VAL792 
 PHE793  MET794  SER795  GLU796  ALA797  LYS798  CYS799  TRP800  GLU811  SER814 

> <Gold.Protein.RotatedAtoms>
  151.8037  133.3373  159.3534 H   0  0  0  0  0  0  0  0  0  0  0  0  # atno 6907 bound_to 6896
  150.7349  134.5729  159.5909 H   0  0  0  0  0  0  0  0  0  0  0  0  # atno 6908 bound_to 6896
  152.3125  134.7481  160.0384 H   0  0  0  0  0  0  0  0  0  0  0  0  # atno 6909 bound_to 6896
  146.2415  140.1440  142.8335 H   0  0  0  0  0  0  0  0  0  0  0  0  # atno 7974 bound_to 7965
  155.3805  140.0494  157.3043 H   0  0  0  0  0  0  0  0  0  0  0  0  # atno 8008 bound_to 7997
  154.5085  140.2183  155.9166 H   0  0  0  0  0  0  0  0  0  0  0  0  # atno 8009 bound_to 7997
  156.1554  140.3127  155.8723 H   0  0  0  0  0  0  0  0  0  0  0  0  # atno 8010 bound_to 7997
  140.5536  143.2312  151.6864 H   0  0  0  0  0  0  0  0  0  0  0  0  # atno 10167 bound_to 10162
  156.8296  130.9648  151.3107 H   0  0  0  0  0  0  0  0  0  0  0  0  # atno 10718 bound_to 10713
  154.5760  135.5590  153.7139 H   0  0  0  0  0  0  0  0  0  0  0  0  # atno 10763 bound_to 10752
  153.0064  135.6308  154.2049 H   0  0  0  0  0  0  0  0  0  0  0  0  # atno 10764 bound_to 10752
  154.1989  135.2879  155.2977 H   0  0  0  0  0  0  0  0  0  0  0  0  # atno 10765 bound_to 10752
  140.1388  134.8752  157.2304 H   0  0  0  0  0  0  0  0  0  0  0  0  # atno 11005 bound_to 11000
  145.0223  140.8804  143.5159 LP  0  0  0  0  0  0  0  0  0  0  0  0  # atno 17320 bound_to 7965
  145.1490  139.2526  143.5451 LP  0  0  0  0  0  0  0  0  0  0  0  0  # atno 17321 bound_to 7965
  139.5038  144.3778  152.0406 LP  0  0  0  0  0  0  0  0  0  0  0  0  # atno 17342 bound_to 10162
  140.2897  144.3767  150.6092 LP  0  0  0  0  0  0  0  0  0  0  0  0  # atno 17343 bound_to 10162
  157.6414  130.8808  149.9455 LP  0  0  0  0  0  0  0  0  0  0  0  0  # atno 17370 bound_to 10713
  156.0941  130.3661  150.0338 LP  0  0  0  0  0  0  0  0  0  0  0  0  # atno 17371 bound_to 10713
  140.2748  134.3418  155.7362 LP  0  0  0  0  0  0  0  0  0  0  0  0  # atno 17394 bound_to 11000
  141.2183  133.7444  156.9276 LP  0  0  0  0  0  0  0  0  0  0  0  0  # atno 17395 bound_to 11000

$$$$
