AV-unprocessed.smi:1047|AV-procd|sdf|4560|dock10
  -GOLD-   22720 3 03D 1   1.00000     0.00000
 Structure written by MMmdl.
 57 59  0  0  0  0  0  0  0  0  3 V2000
  148.1124  132.5403  161.9022 C   0  0  0  0  0  0  0  0  0  0  0  0
  146.7432  133.2347  161.9318 C   0  0  0  0  0  0  0  0  0  0  0  0
  146.8499  134.7115  161.8244 N   0  3  1  0  0  0  0  0  0  0  0  0
  147.5167  135.3144  163.0032 C   0  0  0  0  0  0  0  0  0  0  0  0
  147.5477  136.8470  162.8812 C   0  0  0  0  0  0  0  0  0  0  0  0
  148.2060  137.2193  161.6764 O   0  0  0  0  0  0  0  0  0  0  0  0
  147.5442  136.7155  160.5211 C   0  0  1  0  0  0  0  0  0  0  0  0
  148.2439  137.2691  159.2676 C   0  0  0  0  0  0  0  0  0  0  0  0
  149.7119  137.1140  159.3364 N   0  3  0  0  0  0  0  0  0  0  0  0
  150.4337  137.6402  158.1609 C   0  0  0  0  0  0  0  0  0  0  0  0
  151.8695  137.0939  158.1045 C   0  0  2  0  0  0  0  0  0  0  0  0
  152.3921  137.0586  159.4189 O   0  0  0  0  0  0  0  0  0  0  0  0
  152.7847  137.9566  157.2143 C   0  0  0  0  0  0  0  0  0  0  0  0
  152.1090  139.1394  156.7113 N   0  0  0  0  0  0  0  0  0  0  0  0
  151.4097  139.2529  155.5655 C   0  0  0  0  0  0  0  0  0  0  0  0
  150.8617  140.4356  155.3020 N   0  0  0  0  0  0  0  0  0  0  0  0
  151.2581  141.1787  156.4006 C   0  0  0  0  0  0  0  0  0  0  0  0
  151.0044  142.5265  156.7368 C   0  0  0  0  0  0  0  0  0  0  0  0
  151.5186  143.0854  157.9285 C   0  0  0  0  0  0  0  0  0  0  0  0
  151.2207  144.5391  158.2508 C   0  0  0  0  0  0  0  0  0  0  0  0
  152.3021  142.2925  158.8053 C   0  0  0  0  0  0  0  0  0  0  0  0
  152.8690  142.8733  160.0887 C   0  0  0  0  0  0  0  0  0  0  0  0
  152.5626  140.9434  158.4861 C   0  0  0  0  0  0  0  0  0  0  0  0
  152.0440  140.3984  157.2983 C   0  0  0  0  0  0  0  0  0  0  0  0
  147.5009  135.1731  160.5724 C   0  0  0  0  0  0  0  0  0  0  0  0
  147.9911  131.4569  161.8854 H   0  0  0  0  0  0  0  0  0  0  0  0
  148.7139  132.7822  162.7779 H   0  0  0  0  0  0  0  0  0  0  0  0
  148.6789  132.8215  161.0140 H   0  0  0  0  0  0  0  0  0  0  0  0
  146.1606  132.8591  161.0892 H   0  0  0  0  0  0  0  0  0  0  0  0
  146.1934  132.9616  162.8338 H   0  0  0  0  0  0  0  0  0  0  0  0
  146.9878  135.0316  163.9142 H   0  0  0  0  0  0  0  0  0  0  0  0
  148.5328  134.9253  163.0889 H   0  0  0  0  0  0  0  0  0  0  0  0
  146.5384  137.2615  162.9030 H   0  0  0  0  0  0  0  0  0  0  0  0
  148.0865  137.2793  163.7245 H   0  0  0  0  0  0  0  0  0  0  0  0
  146.5200  137.0937  160.5191 H   0  0  0  0  0  0  0  0  0  0  0  0
  147.8682  136.7623  158.3777 H   0  0  0  0  0  0  0  0  0  0  0  0
  148.0056  138.3277  159.1543 H   0  0  0  0  0  0  0  0  0  0  0  0
  150.0483  137.6051  160.1532 H   0  0  0  0  0  0  0  0  0  0  0  0
  149.8900  137.3447  157.2625 H   0  0  0  0  0  0  0  0  0  0  0  0
  150.4410  138.7310  158.1859 H   0  0  0  0  0  0  0  0  0  0  0  0
  151.8535  136.0747  157.7158 H   0  0  0  0  0  0  0  0  0  0  0  0
  151.8566  137.6100  159.9699 H   0  0  0  0  0  0  0  0  0  0  0  0
  153.6624  138.2808  157.7750 H   0  0  0  0  0  0  0  0  0  0  0  0
  153.1523  137.3757  156.3668 H   0  0  0  0  0  0  0  0  0  0  0  0
  151.2898  138.4185  154.8898 H   0  0  0  0  0  0  0  0  0  0  0  0
  150.4087  143.1305  156.0681 H   0  0  0  0  0  0  0  0  0  0  0  0
  152.1457  145.1120  158.3187 H   0  0  0  0  0  0  0  0  0  0  0  0
  150.6921  144.6194  159.2009 H   0  0  0  0  0  0  0  0  0  0  0  0
  150.5980  144.9988  157.4826 H   0  0  0  0  0  0  0  0  0  0  0  0
  153.4593  142.1357  160.6332 H   0  0  0  0  0  0  0  0  0  0  0  0
  152.0648  143.2090  160.7439 H   0  0  0  0  0  0  0  0  0  0  0  0
  153.5160  143.7235  159.8709 H   0  0  0  0  0  0  0  0  0  0  0  0
  153.1572  140.3288  159.1455 H   0  0  0  0  0  0  0  0  0  0  0  0
  148.5092  134.7596  160.5209 H   0  0  0  0  0  0  0  0  0  0  0  0
  146.9576  134.8010  159.7043 H   0  0  0  0  0  0  0  0  0  0  0  0
  149.9346  136.1341  159.4355 H   0  0  0  0  0  0  0  0  0  0  0  0
  145.9047  135.0687  161.8196 H   0  0  0  0  0  0  0  0  0  0  0  0
  1  2  1  0  0  0  0
  1 26  1  0  0  0  0
  1 27  1  0  0  0  0
  1 28  1  0  0  0  0
  2  3  1  0  0  0  0
  2 29  1  0  0  0  0
  2 30  1  0  0  0  0
  3 25  1  0  0  0  0
  3  4  1  0  0  0  0
  3 57  1  0  0  0  0
  4  5  1  0  0  0  0
  4 31  1  0  0  0  0
  4 32  1  0  0  0  0
  5  6  1  0  0  0  0
  5 33  1  0  0  0  0
  5 34  1  0  0  0  0
  6  7  1  0  0  0  0
  7  8  1  0  0  0  0
  7 25  1  0  0  0  0
  7 35  1  0  0  0  0
  8  9  1  0  0  0  0
  8 36  1  0  0  0  0
  8 37  1  0  0  0  0
  9 10  1  0  0  0  0
  9 38  1  0  0  0  0
  9 56  1  0  0  0  0
 10 11  1  0  0  0  0
 10 39  1  0  0  0  0
 10 40  1  0  0  0  0
 11 12  1  0  0  0  0
 11 13  1  0  0  0  0
 11 41  1  0  0  0  0
 12 42  1  0  0  0  0
 13 14  1  0  0  0  0
 13 43  1  0  0  0  0
 13 44  1  0  0  0  0
 14 24  1  0  0  0  0
 14 15  1  0  0  0  0
 15 16  2  0  0  0  0
 15 45  1  0  0  0  0
 16 17  1  0  0  0  0
 17 24  2  0  0  0  0
 17 18  1  0  0  0  0
 18 19  2  0  0  0  0
 18 46  1  0  0  0  0
 19 20  1  0  0  0  0
 19 21  1  0  0  0  0
 20 47  1  0  0  0  0
 20 48  1  0  0  0  0
 20 49  1  0  0  0  0
 21 22  1  0  0  0  0
 21 23  2  0  0  0  0
 22 50  1  0  0  0  0
 22 51  1  0  0  0  0
 22 52  1  0  0  0  0
 23 24  1  0  0  0  0
 23 53  1  0  0  0  0
 25 54  1  0  0  0  0
 25 55  1  0  0  0  0
M  CHG  1   3   1
M  CHG  1   9   1
M  END
> <s_m_source_file>
AV-unprocessed.smi

> <i_m_source_file_index>
1047

> <i_lp_mmshare_version>
43012

> <i_f3d_flags>
0

> <s_epik_input>
W0NIM11bQ0gyXU4xW0NIMl1bQ0gyXU9bQ0BIXShbQ0gyXTEpW0NIMl1bTkhdW0NIMl1bQ0BIXShbT0hdKVtDSDJdbihbY0hdbjIpYyhjMjMpW2NIXWMoW0NIM10pYyhbY0hdMylbQ0gzXQ==

> <s_epik_cmdline>
J2VwaWtfcHl0aG9uJywgJy1waCcsICc3LjAnLCAnLXRuJywgJzgnLCAnLW1hJywgJzIwMCcsICctbWV0YWxfYmluZGluZycsICctaW1hZScsICc8aW5maWxlLm1hZT4nLCAnLW9tYWUnLCAnPG91dGZpbGUubWFlPic=

> <r_epik_Ionization_Penalty>
0.528991

> <r_epik_Ionization_Penalty_Charging>
0.438567

> <r_epik_Ionization_Penalty_Neutral>
0.0904237

> <r_epik_State_Penalty>
0.533036

> <r_epik_Charging_Adjusted_Penalty>
0.971603

> <i_epik_Tot_Q>
2

> <i_epik_Tot_abs_Q>
2

> <r_epik_Metal_State_Penalty>
0.448985

> <b_epik_Metal_Only>
0

> <s_lp_Force_Field>
OPLS_2005

> <r_lp_Energy>
32.0872

> <b_lp_Chiralities_Consistent>
1

> <s_lp_Variant>
AV-unprocessed.smi:1047-1

> <Gold.Version>
5.8.1

> <Gold.Id.Protein>
6NUR|6NUR_protein|mol2

> <Gold.PLP.Fitness>
57.0870

> <Gold.PLP.PLP>
-50.7435

> <Gold.PLP.part.hbond>
-3.9933

> <Gold.PLP.part.metal>
0.0000

> <Gold.PLP.part.buried>
-7.0005

> <Gold.PLP.part.nonpolar>
-40.0788

> <Gold.PLP.part.repulsive>
0.2761

> <Gold.PLP.ligand.clash>
0.0000

> <Gold.PLP.ligand.torsion>
1.4650

> <Gold.PLP.Chemscore.Hbond>
3.0488

> <Gold.PLP.Chemscore.CHOScore>
0.0000

> <Gold.PLP.Chemscore.Metal>
0.0000

> <Gold.Chemscore.Hbonds>
donor molecule, donor type, donor heavy atom, donor atom, acceptor molecule, acceptor atom, score
      P1  H  6896  6907       L1    12  0.84
      P1  H  6931  6943       L1     6  0.52
      P1  H  7989  7998       L1    16  1.00

> <Gold.PLP.Chemscore.Internal.Correction>
0.1272

> <Gold.Rescore>
     Score         DG    S(hbond)    S(metal)    S(lipo)     H(rot)  DE(clash)    DE(int)     intcor
     20.16     -21.67       2.41        0.00     128.68       2.70       0.14       1.37       ----

> <Gold.Chemscore.Fitness>
20.1553

> <Gold.Chemscore.DG>
-21.6689

> <Gold.Chemscore.ZeroCoef>
-5.4800

> <Gold.Chemscore.Hbond>
2.4078

> <Gold.Chemscore.Metal>
0.0000

> <Gold.Chemscore.Lipo>
128.6754

> <Gold.Chemscore.Internal_Hbond>
0.0000

> <Gold.Chemscore.DEClash>
0.1417

> <Gold.Chemscore.DEInternal>
1.3719

> <Gold.Chemscore.Rot>
2.6985

> <Gold.Chemscore.Internal.Correction>
   9.000000E+99

> <Gold.Chemscore.Hbonds>
donor molecule, donor type, donor heavy atom, donor atom, acceptor molecule, acceptor atom, score
      P1  H  6896  6907       L1    12  0.09
      P1  H  6931  6943       L1     6  0.39
      P1  H  7989  7998       L1    16  0.35

> <Gold.Chemscore.Hbond.Weighted>
-8.0420

> <Gold.Chemscore.Metal.Weighted>
-0.0000

> <Gold.Chemscore.Lipo.Weighted>
-15.0550

> <Gold.Chemscore.Internal_Hbond.Weighted>
0.0000

> <Gold.Chemscore.DEClash.Weighted>
0.1417

> <Gold.Chemscore.DEInternal.Weighted>
1.3719

> <Gold.Chemscore.Rot.Weighted>
6.9081

> <Gold.Chemscore.Internal.Correction.Weighted>
   9.000000E+99

> <Gold.Protein.RotatedTorsions>
[ 6907 6896 6895 6894 ] final   14.73 input  -60.11 | X-H torsion
[ 7974 7965 7964 7962 ] final -154.85 input  175.53 | X-H torsion
[ 8008 7997 7996 7995 ] final -107.08 input   59.86 | X-H torsion
[ 10167 10162 10161 10158 ] final  119.25 input  -65.29 | X-H torsion
[ 10718 10713 10712 10709 ] final -137.52 input   66.30 | X-H torsion
[ 10763 10752 10751 10750 ] final -158.70 input  -60.55 | X-H torsion
[ 11005 11000 10999 10996 ] final  -60.91 input  -57.11 | X-H torsion

> <Gold.Protein.ActiveResidues>
 VAL166  LYS551  ARG553  GLY616  TRP617  ASP618  TYR619  PRO620  LYS621  CYS622 
 ASP623  PHE694  ASN695  SER759  ASP760  ASP761  ALA762  ILE779  LEU786  VAL792 
 PHE793  MET794  SER795  GLU796  ALA797  LYS798  CYS799  TRP800  GLU811  SER814 

> <Gold.Protein.RotatedAtoms>
  151.8069  135.0692  160.0407 H   0  0  0  0  0  0  0  0  0  0  0  0  # atno 6907 bound_to 6896
  152.3048  133.5688  159.5650 H   0  0  0  0  0  0  0  0  0  0  0  0  # atno 6908 bound_to 6896
  150.7291  134.0154  159.3725 H   0  0  0  0  0  0  0  0  0  0  0  0  # atno 6909 bound_to 6896
  144.7669  140.4331  143.5936 H   0  0  0  0  0  0  0  0  0  0  0  0  # atno 7974 bound_to 7965
  154.9241  140.0406  157.2013 H   0  0  0  0  0  0  0  0  0  0  0  0  # atno 8008 bound_to 7997
  154.8225  140.2886  155.5755 H   0  0  0  0  0  0  0  0  0  0  0  0  # atno 8009 bound_to 7997
  156.2981  140.2516  156.3135 H   0  0  0  0  0  0  0  0  0  0  0  0  # atno 8010 bound_to 7997
  139.6058  144.7069  151.2956 H   0  0  0  0  0  0  0  0  0  0  0  0  # atno 10167 bound_to 10162
  156.2891  130.7364  151.1385 H   0  0  0  0  0  0  0  0  0  0  0  0  # atno 10718 bound_to 10713
  154.7535  135.3098  154.8513 H   0  0  0  0  0  0  0  0  0  0  0  0  # atno 10763 bound_to 10752
  153.9294  135.6787  153.4750 H   0  0  0  0  0  0  0  0  0  0  0  0  # atno 10764 bound_to 10752
  153.1132  135.4857  154.8999 H   0  0  0  0  0  0  0  0  0  0  0  0  # atno 10765 bound_to 10752
  141.1305  133.6626  156.5295 H   0  0  0  0  0  0  0  0  0  0  0  0  # atno 11005 bound_to 11000
  145.6443  139.1555  143.2898 LP  0  0  0  0  0  0  0  0  0  0  0  0  # atno 17320 bound_to 7965
  146.1783  140.6537  142.9201 LP  0  0  0  0  0  0  0  0  0  0  0  0  # atno 17321 bound_to 7965
  140.7284  143.6937  150.7901 LP  0  0  0  0  0  0  0  0  0  0  0  0  # atno 17342 bound_to 10162
  140.0522  143.5238  152.2668 LP  0  0  0  0  0  0  0  0  0  0  0  0  # atno 17343 bound_to 10162
  157.7337  131.0588  150.5562 LP  0  0  0  0  0  0  0  0  0  0  0  0  # atno 17370 bound_to 10713
  156.5677  130.4271  149.6034 LP  0  0  0  0  0  0  0  0  0  0  0  0  # atno 17371 bound_to 10713
  140.4227  134.7172  157.4899 LP  0  0  0  0  0  0  0  0  0  0  0  0  # atno 17394 bound_to 11000
  140.0348  134.6353  155.9058 LP  0  0  0  0  0  0  0  0  0  0  0  0  # atno 17395 bound_to 11000

$$$$
