AV-unprocessed.smi:1033|AV-procd|sdf|4497|dock4
  -GOLD-   22720 2483D 1   1.00000     0.00000
 Structure written by MMmdl.
 56 58  0  0  0  0  0  0  0  0  2 V2000
  150.8944  144.4739  159.4445 C   0  0  0  0  0  0  0  0  0  0  0  0
  151.3367  143.0294  159.2897 C   0  0  0  0  0  0  0  0  0  0  0  0
  152.6036  142.6417  159.7820 C   0  0  0  0  0  0  0  0  0  0  0  0
  153.0512  141.3078  159.6592 C   0  0  0  0  0  0  0  0  0  0  0  0
  154.2355  140.7147  160.0627 N   0  0  0  0  0  0  0  0  0  0  0  0
  154.0542  139.4574  159.6675 C   0  0  0  0  0  0  0  0  0  0  0  0
  152.8906  139.1662  159.0546 N   0  0  0  0  0  0  0  0  0  0  0  0
  152.4624  137.8800  158.5368 C   0  0  0  0  0  0  0  0  0  0  0  0
  152.1173  137.9431  157.0353 C   0  0  1  0  0  0  0  0  0  0  0  0
  153.3145  137.9425  156.2843 O   0  0  0  0  0  0  0  0  0  0  0  0
  151.2594  136.7520  156.5644 C   0  0  0  0  0  0  0  0  0  0  0  0
  151.2271  136.5335  155.1131 N   0  0  0  0  0  0  0  0  0  0  0  0
  150.2903  135.4981  154.6669 C   0  0  0  0  0  0  0  0  0  0  0  0
  148.8116  135.9136  154.7998 C   0  0  0  0  0  0  0  0  0  0  0  0
  148.5632  137.1676  154.0396 N   0  3  0  0  0  0  0  0  0  0  0  0
  147.1444  137.6063  154.0527 C   0  0  0  0  0  0  0  0  0  0  0  0
  146.8274  138.6193  152.9346 C   0  0  1  0  0  0  0  0  0  0  0  0
  147.2816  140.0395  153.2951 C   0  0  0  0  0  0  0  0  0  0  0  0
  147.4963  138.2320  151.7511 O   0  0  0  0  0  0  0  0  0  0  0  0
  149.4953  138.2375  154.4796 C   0  0  0  0  0  0  0  0  0  0  0  0
  150.9573  137.7586  154.3612 C   0  0  0  0  0  0  0  0  0  0  0  0
  152.1888  140.3657  159.0267 C   0  0  0  0  0  0  0  0  0  0  0  0
  150.9263  140.7386  158.5330 C   0  0  0  0  0  0  0  0  0  0  0  0
  150.4956  142.0755  158.6621 C   0  0  0  0  0  0  0  0  0  0  0  0
  149.1308  142.4687  158.1249 C   0  0  0  0  0  0  0  0  0  0  0  0
  151.6453  145.0667  159.9677 H   0  0  0  0  0  0  0  0  0  0  0  0
  149.9674  144.5311  160.0154 H   0  0  0  0  0  0  0  0  0  0  0  0
  150.7294  144.9298  158.4681 H   0  0  0  0  0  0  0  0  0  0  0  0
  153.2446  143.3677  160.2598 H   0  0  0  0  0  0  0  0  0  0  0  0
  154.8116  138.7045  159.8309 H   0  0  0  0  0  0  0  0  0  0  0  0
  153.2446  137.1430  158.7243 H   0  0  0  0  0  0  0  0  0  0  0  0
  151.5934  137.5635  159.1146 H   0  0  0  0  0  0  0  0  0  0  0  0
  151.6104  138.8811  156.8114 H   0  0  0  0  0  0  0  0  0  0  0  0
  153.9491  137.4008  156.7281 H   0  0  0  0  0  0  0  0  0  0  0  0
  151.6014  135.8492  157.0701 H   0  0  0  0  0  0  0  0  0  0  0  0
  150.2399  136.9154  156.9165 H   0  0  0  0  0  0  0  0  0  0  0  0
  150.4928  135.2716  153.6191 H   0  0  0  0  0  0  0  0  0  0  0  0
  150.4657  134.5635  155.1975 H   0  0  0  0  0  0  0  0  0  0  0  0
  148.1864  135.1087  154.4156 H   0  0  0  0  0  0  0  0  0  0  0  0
  148.5373  136.0480  155.8468 H   0  0  0  0  0  0  0  0  0  0  0  0
  146.4972  136.7312  153.9732 H   0  0  0  0  0  0  0  0  0  0  0  0
  146.9133  138.0687  155.0139 H   0  0  0  0  0  0  0  0  0  0  0  0
  145.7574  138.6447  152.7308 H   0  0  0  0  0  0  0  0  0  0  0  0
  146.7786  140.3945  154.1950 H   0  0  0  0  0  0  0  0  0  0  0  0
  147.0518  140.7412  152.4925 H   0  0  0  0  0  0  0  0  0  0  0  0
  148.3564  140.0817  153.4764 H   0  0  0  0  0  0  0  0  0  0  0  0
  148.1433  137.5776  151.9673 H   0  0  0  0  0  0  0  0  0  0  0  0
  149.3577  139.1210  153.8551 H   0  0  0  0  0  0  0  0  0  0  0  0
  149.2623  138.5372  155.5023 H   0  0  0  0  0  0  0  0  0  0  0  0
  151.6349  138.5499  154.6846 H   0  0  0  0  0  0  0  0  0  0  0  0
  151.1863  137.5857  153.3087 H   0  0  0  0  0  0  0  0  0  0  0  0
  150.2956  140.0006  158.0600 H   0  0  0  0  0  0  0  0  0  0  0  0
  148.6325  141.6251  157.6467 H   0  0  0  0  0  0  0  0  0  0  0  0
  149.2251  143.2634  157.3847 H   0  0  0  0  0  0  0  0  0  0  0  0
  148.4901  142.8217  158.9334 H   0  0  0  0  0  0  0  0  0  0  0  0
  148.7918  136.9768  153.0741 H   0  0  0  0  0  0  0  0  0  0  0  0
  1  2  1  0  0  0  0
  1 26  1  0  0  0  0
  1 27  1  0  0  0  0
  1 28  1  0  0  0  0
  2 24  1  0  0  0  0
  2  3  2  0  0  0  0
  3  4  1  0  0  0  0
  3 29  1  0  0  0  0
  4 22  2  0  0  0  0
  4  5  1  0  0  0  0
  5  6  2  0  0  0  0
  6  7  1  0  0  0  0
  6 30  1  0  0  0  0
  7  8  1  0  0  0  0
  7 22  1  0  0  0  0
  8  9  1  0  0  0  0
  8 31  1  0  0  0  0
  8 32  1  0  0  0  0
  9 10  1  0  0  0  0
  9 11  1  0  0  0  0
  9 33  1  0  0  0  0
 10 34  1  0  0  0  0
 11 12  1  0  0  0  0
 11 35  1  0  0  0  0
 11 36  1  0  0  0  0
 12 21  1  0  0  0  0
 12 13  1  0  0  0  0
 13 14  1  0  0  0  0
 13 37  1  0  0  0  0
 13 38  1  0  0  0  0
 14 15  1  0  0  0  0
 14 39  1  0  0  0  0
 14 40  1  0  0  0  0
 15 16  1  0  0  0  0
 15 20  1  0  0  0  0
 15 56  1  0  0  0  0
 16 17  1  0  0  0  0
 16 41  1  0  0  0  0
 16 42  1  0  0  0  0
 17 18  1  0  0  0  0
 17 19  1  0  0  0  0
 17 43  1  0  0  0  0
 18 44  1  0  0  0  0
 18 45  1  0  0  0  0
 18 46  1  0  0  0  0
 19 47  1  0  0  0  0
 20 21  1  0  0  0  0
 20 48  1  0  0  0  0
 20 49  1  0  0  0  0
 21 50  1  0  0  0  0
 21 51  1  0  0  0  0
 22 23  1  0  0  0  0
 23 24  2  0  0  0  0
 23 52  1  0  0  0  0
 24 25  1  0  0  0  0
 25 53  1  0  0  0  0
 25 54  1  0  0  0  0
 25 55  1  0  0  0  0
M  CHG  1  15   1
M  END
> <s_m_source_file>
AV-unprocessed.smi

> <i_m_source_file_index>
1033

> <i_lp_mmshare_version>
43012

> <i_f3d_flags>
0

> <s_epik_input>
W0NIM11jKFtjSF0xKWMoW0NIM10pW2NIXWMoYzEyKW4oW2NIXW4yKVtDSDJdW0NASF0oW09IXSlbQ0gyXU4zW0NIMl1bQ0gyXU4oW0NIMl1bQ0gyXTMpW0NIMl1bQ0BIXShbQ0gzXSlbT0hd

> <s_epik_cmdline>
J2VwaWtfcHl0aG9uJywgJy1waCcsICc3LjAnLCAnLXRuJywgJzgnLCAnLW1hJywgJzIwMCcsICctbWV0YWxfYmluZGluZycsICctaW1hZScsICc8aW5maWxlLm1hZT4nLCAnLW9tYWUnLCAnPG91dGZpbGUubWFlPic=

> <r_epik_Ionization_Penalty>
0.129152

> <r_epik_Ionization_Penalty_Charging>
0.00083231

> <r_epik_Ionization_Penalty_Neutral>
0.128319

> <r_epik_State_Penalty>
0.556973

> <r_epik_Charging_Adjusted_Penalty>
0.557805

> <i_epik_Tot_Q>
1

> <i_epik_Tot_abs_Q>
1

> <r_epik_Metal_State_Penalty>
0.490047

> <b_epik_Metal_Only>
0

> <s_lp_Force_Field>
OPLS_2005

> <r_lp_Energy>
33.0878

> <b_lp_Chiralities_Consistent>
1

> <s_lp_Variant>
AV-unprocessed.smi:1033-8

> <Gold.Version>
5.8.1

> <Gold.Id.Protein>
6NUR|6NUR_protein|mol2

> <Gold.PLP.Fitness>
54.8623

> <Gold.PLP.PLP>
-43.3085

> <Gold.PLP.part.hbond>
-5.5394

> <Gold.PLP.part.metal>
0.0000

> <Gold.PLP.part.buried>
-3.6718

> <Gold.PLP.part.nonpolar>
-34.9190

> <Gold.PLP.part.repulsive>
0.1083

> <Gold.PLP.ligand.clash>
0.0000

> <Gold.PLP.ligand.torsion>
0.6489

> <Gold.PLP.Chemscore.Hbond>
4.1950

> <Gold.PLP.Chemscore.CHOScore>
0.0000

> <Gold.PLP.Chemscore.Metal>
0.0000

> <Gold.Chemscore.Hbonds>
donor molecule, donor type, donor heavy atom, donor atom, acceptor molecule, acceptor atom, score
      L1  H    15    56       P1  7948  1.46
      L1  H    19    47       P1  7948  1.00
      P1  H  7954  7966       L1    19  0.05
      P1  H  7997  8009       L1    10  0.07
      P1  H 10752 10765       L1    12  0.82

> <Gold.PLP.Chemscore.Internal.Correction>
0.2665

> <Gold.Rescore>
     Score         DG    S(hbond)    S(metal)    S(lipo)     H(rot)  DE(clash)    DE(int)     intcor
     18.58     -19.48       2.10        0.00     126.73       3.07       0.19       0.71       ----

> <Gold.Chemscore.Fitness>
18.5827

> <Gold.Chemscore.DG>
-19.4818

> <Gold.Chemscore.ZeroCoef>
-5.4800

> <Gold.Chemscore.Hbond>
2.1020

> <Gold.Chemscore.Metal>
0.0000

> <Gold.Chemscore.Lipo>
126.7310

> <Gold.Chemscore.Internal_Hbond>
0.0000

> <Gold.Chemscore.DEClash>
0.1923

> <Gold.Chemscore.DEInternal>
0.7068

> <Gold.Chemscore.Rot>
3.0650

> <Gold.Chemscore.Internal.Correction>
   9.000000E+99

> <Gold.Chemscore.Hbonds>
donor molecule, donor type, donor heavy atom, donor atom, acceptor molecule, acceptor atom, score
      L1  H    15    56       P1  7948  0.72
      L1  H    19    47       P1  7948  0.93
      P1  H  7997  8009       L1    10  0.03
      P1  H 10752 10765       L1    12  0.04

> <Gold.Chemscore.Hbond.Weighted>
-7.0208

> <Gold.Chemscore.Metal.Weighted>
-0.0000

> <Gold.Chemscore.Lipo.Weighted>
-14.8275

> <Gold.Chemscore.Internal_Hbond.Weighted>
0.0000

> <Gold.Chemscore.DEClash.Weighted>
0.1923

> <Gold.Chemscore.DEInternal.Weighted>
0.7068

> <Gold.Chemscore.Rot.Weighted>
7.8465

> <Gold.Chemscore.Internal.Correction.Weighted>
   9.000000E+99

> <Gold.Protein.RotatedTorsions>
[ 6907 6896 6895 6894 ] final -138.18 input  -60.11 | X-H torsion
[ 7974 7965 7964 7962 ] final  125.97 input  175.53 | X-H torsion
[ 8008 7997 7996 7995 ] final -160.27 input   59.86 | X-H torsion
[ 10167 10162 10161 10158 ] final  153.17 input  -65.29 | X-H torsion
[ 10718 10713 10712 10709 ] final  155.91 input   66.30 | X-H torsion
[ 10763 10752 10751 10750 ] final -160.24 input  -60.55 | X-H torsion
[ 11005 11000 10999 10996 ] final  -78.31 input  -57.11 | X-H torsion

> <Gold.Protein.ActiveResidues>
 VAL166  LYS551  ARG553  GLY616  TRP617  ASP618  TYR619  PRO620  LYS621  CYS622 
 ASP623  PHE694  ASN695  SER759  ASP760  ASP761  ALA762  ILE779  LEU786  VAL792 
 PHE793  MET794  SER795  GLU796  ALA797  LYS798  CYS799  TRP800  GLU811  SER814 

> <Gold.Protein.RotatedAtoms>
  151.0318  133.5784  159.2659 H   0  0  0  0  0  0  0  0  0  0  0  0  # atno 6907 bound_to 6896
  151.2863  135.0728  159.9197 H   0  0  0  0  0  0  0  0  0  0  0  0  # atno 6908 bound_to 6896
  152.5346  134.0023  159.7954 H   0  0  0  0  0  0  0  0  0  0  0  0  # atno 6909 bound_to 6896
  145.0670  139.3760  143.4977 H   0  0  0  0  0  0  0  0  0  0  0  0  # atno 7974 bound_to 7965
  155.7750  140.0857  157.2089 H   0  0  0  0  0  0  0  0  0  0  0  0  # atno 8008 bound_to 7997
  154.3993  140.1518  156.3043 H   0  0  0  0  0  0  0  0  0  0  0  0  # atno 8009 bound_to 7997
  155.8710  140.3425  155.5824 H   0  0  0  0  0  0  0  0  0  0  0  0  # atno 8010 bound_to 7997
  139.4828  144.5296  151.7744 H   0  0  0  0  0  0  0  0  0  0  0  0  # atno 10167 bound_to 10162
  157.2121  131.0700  151.1963 H   0  0  0  0  0  0  0  0  0  0  0  0  # atno 10718 bound_to 10713
  154.7407  135.3068  154.8733 H   0  0  0  0  0  0  0  0  0  0  0  0  # atno 10763 bound_to 10752
  153.9549  135.6759  153.4748 H   0  0  0  0  0  0  0  0  0  0  0  0  # atno 10764 bound_to 10752
  153.1006  135.4914  154.8784 H   0  0  0  0  0  0  0  0  0  0  0  0  # atno 10765 bound_to 10752
  141.1664  133.7058  156.7952 H   0  0  0  0  0  0  0  0  0  0  0  0  # atno 11005 bound_to 11000
  146.3527  140.0396  142.8644 LP  0  0  0  0  0  0  0  0  0  0  0  0  # atno 17320 bound_to 7965
  145.1339  140.9533  143.4528 LP  0  0  0  0  0  0  0  0  0  0  0  0  # atno 17321 bound_to 7965
  140.4821  144.1435  150.5934 LP  0  0  0  0  0  0  0  0  0  0  0  0  # atno 17342 bound_to 10162
  140.4266  143.2587  151.9648 LP  0  0  0  0  0  0  0  0  0  0  0  0  # atno 17343 bound_to 10162
  157.3662  130.7157  149.6534 LP  0  0  0  0  0  0  0  0  0  0  0  0  # atno 17370 bound_to 10713
  155.9689  130.4212  150.4457 LP  0  0  0  0  0  0  0  0  0  0  0  0  # atno 17371 bound_to 10713
  140.2296  134.8696  157.3463 LP  0  0  0  0  0  0  0  0  0  0  0  0  # atno 17394 bound_to 11000
  140.1904  134.4378  155.7719 LP  0  0  0  0  0  0  0  0  0  0  0  0  # atno 17395 bound_to 11000

$$$$
