AV-unprocessed.smi:215|AV-procd|sdf|1651|dock10
  -GOLD-   2262020 33D 1   1.00000     0.00000
 Structure written by MMmdl.
 59 62  0  0  0  0  0  0  0  0  2 V2000
  146.9606  142.3179  154.0403 C   0  0  0  0  0  0  0  0  0  0  0  0
  147.5793  141.1682  154.8663 C   0  0  1  0  0  0  0  0  0  0  0  0
  147.6927  141.5115  156.3766 C   0  0  2  0  0  0  0  0  0  0  0  0
  149.0275  142.0212  156.8259 N   0  3  2  0  0  0  0  0  0  0  0  0
  150.1115  141.0482  156.5282 C   0  0  0  0  0  0  0  0  0  0  0  0
  149.0679  142.4938  158.2405 C   0  0  0  0  0  0  0  0  0  0  0  0
  147.6875  142.8579  158.8197 C   0  0  0  0  0  0  0  0  0  0  0  0
  147.7543  144.0872  159.5122 O   0  0  0  0  0  0  0  0  0  0  0  0
  147.3149  140.1887  157.0650 C   0  0  0  0  0  0  0  0  0  0  0  0
  146.3094  139.5464  156.1192 C   0  0  0  0  0  0  0  0  0  0  0  0
  146.7255  139.9862  154.7997 N   0  0  0  0  0  0  0  0  0  0  0  0
  146.5425  139.2118  153.6969 C   0  0  0  0  0  0  0  0  0  0  0  0
  147.0067  139.6869  152.5113 N   0  0  0  0  0  0  0  0  0  0  0  0
  146.8677  138.9742  151.3903 C   0  0  0  0  0  0  0  0  0  0  0  0
  146.3045  137.7768  151.2297 N   0  0  0  0  0  0  0  0  0  0  0  0
  145.8309  137.2906  152.4120 C   0  0  0  0  0  0  0  0  0  0  0  0
  145.8995  137.9370  153.6810 C   0  0  0  0  0  0  0  0  0  0  0  0
  145.2803  137.1392  154.6382 N   0  0  0  0  0  0  0  0  0  0  0  0
  144.8782  136.0882  153.9784 C   0  0  0  0  0  0  0  0  0  0  0  0
  145.1928  136.0839  152.6396 N   0  0  0  0  0  0  0  0  0  0  0  0
  144.8428  135.0820  151.6755 C   0  0  0  0  0  0  0  0  0  0  0  0
  144.3838  133.6843  152.1056 C   0  0  0  0  0  0  0  0  0  0  0  0
  145.0512  133.0913  150.8430 C   0  0  0  0  0  0  0  0  0  0  0  0
  145.7750  131.7409  151.0147 C   0  0  0  0  0  0  0  0  0  0  0  0
  146.9289  131.8413  151.8251 O   0  0  0  0  0  0  0  0  0  0  0  0
  144.1026  132.9491  149.6373 C   0  0  0  0  0  0  0  0  0  0  0  0
  142.8824  132.3378  150.0050 O   0  0  0  0  0  0  0  0  0  0  0  0
  145.9215  134.3695  150.8547 C   0  0  0  0  0  0  0  0  0  0  0  0
  148.5632  140.8950  154.4873 H   0  0  0  0  0  0  0  0  0  0  0  0
  146.9317  142.2538  156.6252 H   0  0  0  0  0  0  0  0  0  0  0  0
  147.5404  143.2368  154.1014 H   0  0  0  0  0  0  0  0  0  0  0  0
  145.9535  142.5499  154.3884 H   0  0  0  0  0  0  0  0  0  0  0  0
  146.8827  142.0601  152.9847 H   0  0  0  0  0  0  0  0  0  0  0  0
  150.0240  140.1630  157.1594 H   0  0  0  0  0  0  0  0  0  0  0  0
  151.0986  141.4813  156.6803 H   0  0  0  0  0  0  0  0  0  0  0  0
  150.0929  140.7219  155.4895 H   0  0  0  0  0  0  0  0  0  0  0  0
  149.4704  141.7193  158.8898 H   0  0  0  0  0  0  0  0  0  0  0  0
  149.7416  143.3485  158.3147 H   0  0  0  0  0  0  0  0  0  0  0  0
  146.9692  142.9680  158.0069 H   0  0  0  0  0  0  0  0  0  0  0  0
  147.2874  142.0826  159.4716 H   0  0  0  0  0  0  0  0  0  0  0  0
  147.7568  144.7918  158.8816 H   0  0  0  0  0  0  0  0  0  0  0  0
  148.1922  139.5447  157.1470 H   0  0  0  0  0  0  0  0  0  0  0  0
  146.9004  140.3224  158.0645 H   0  0  0  0  0  0  0  0  0  0  0  0
  146.3113  138.4604  156.2225 H   0  0  0  0  0  0  0  0  0  0  0  0
  145.3001  139.9108  156.3141 H   0  0  0  0  0  0  0  0  0  0  0  0
  147.2666  139.4273  150.4947 H   0  0  0  0  0  0  0  0  0  0  0  0
  144.3417  135.2816  154.4564 H   0  0  0  0  0  0  0  0  0  0  0  0
  144.1044  135.5447  151.0185 H   0  0  0  0  0  0  0  0  0  0  0  0
  144.8485  133.3648  153.0396 H   0  0  0  0  0  0  0  0  0  0  0  0
  143.3012  133.5618  152.1518 H   0  0  0  0  0  0  0  0  0  0  0  0
  145.1133  131.0012  151.4665 H   0  0  0  0  0  0  0  0  0  0  0  0
  146.0865  131.3373  150.0510 H   0  0  0  0  0  0  0  0  0  0  0  0
  147.5639  131.2102  151.5228 H   0  0  0  0  0  0  0  0  0  0  0  0
  143.8871  133.9207  149.1911 H   0  0  0  0  0  0  0  0  0  0  0  0
  144.5516  132.3456  148.8482 H   0  0  0  0  0  0  0  0  0  0  0  0
  142.7861  131.5376  149.5117 H   0  0  0  0  0  0  0  0  0  0  0  0
  146.1051  134.8136  149.8759 H   0  0  0  0  0  0  0  0  0  0  0  0
  146.8548  134.2585  151.4090 H   0  0  0  0  0  0  0  0  0  0  0  0
  149.2132  142.8388  156.2620 H   0  0  0  0  0  0  0  0  0  0  0  0
  1  2  1  0  0  0  0
  1 31  1  0  0  0  0
  1 32  1  0  0  0  0
  1 33  1  0  0  0  0
  2 29  1  0  0  0  0
  2 11  1  0  0  0  0
  2  3  1  0  0  0  0
  3 30  1  0  0  0  0
  3  4  1  0  0  0  0
  3  9  1  0  0  0  0
  4  5  1  0  0  0  0
  4  6  1  0  0  0  0
  4 59  1  0  0  0  0
  5 34  1  0  0  0  0
  5 35  1  0  0  0  0
  5 36  1  0  0  0  0
  6  7  1  0  0  0  0
  6 37  1  0  0  0  0
  6 38  1  0  0  0  0
  7  8  1  0  0  0  0
  7 39  1  0  0  0  0
  7 40  1  0  0  0  0
  8 41  1  0  0  0  0
  9 10  1  0  0  0  0
  9 42  1  0  0  0  0
  9 43  1  0  0  0  0
 10 11  1  0  0  0  0
 10 44  1  0  0  0  0
 10 45  1  0  0  0  0
 11 12  1  0  0  0  0
 12 17  1  0  0  0  0
 12 13  2  0  0  0  0
 13 14  1  0  0  0  0
 14 15  2  0  0  0  0
 14 46  1  0  0  0  0
 15 16  1  0  0  0  0
 16 20  1  0  0  0  0
 16 17  2  0  0  0  0
 17 18  1  0  0  0  0
 18 19  2  0  0  0  0
 19 20  1  0  0  0  0
 19 47  1  0  0  0  0
 20 21  1  0  0  0  0
 21 28  1  0  0  0  0
 21 22  1  0  0  0  0
 21 48  1  0  0  0  0
 22 23  1  0  0  0  0
 22 49  1  0  0  0  0
 22 50  1  0  0  0  0
 23 24  1  0  0  0  0
 23 26  1  0  0  0  0
 23 28  1  0  0  0  0
 24 25  1  0  0  0  0
 24 51  1  0  0  0  0
 24 52  1  0  0  0  0
 25 53  1  0  0  0  0
 26 27  1  0  0  0  0
 26 54  1  0  0  0  0
 26 55  1  0  0  0  0
 27 56  1  0  0  0  0
 28 57  1  0  0  0  0
 28 58  1  0  0  0  0
M  CHG  1   4   1
M  END
> <s_m_source_file>
AV-unprocessed.smi

> <i_m_source_file_index>
215

> <i_lp_mmshare_version>
43012

> <i_f3d_flags>
0

> <s_epik_input>
W09IXVtDSDJdW0NIMl1OKFtDSDNdKVtDQEBIXShbQ0BIXTFbQ0gzXSlbQ0gyXVtDSDJdTjFjKG5bY0hdbjIpYyhjMjMpbltjSF1uM1tDSF0oW0NIMl00KVtDSDJdQzQoW0NIMl1bT0hdKVtDSDJdW09IXQ==

> <s_epik_cmdline>
J2VwaWtfcHl0aG9uJywgJy1waCcsICc3LjAnLCAnLXRuJywgJzgnLCAnLW1hJywgJzIwMCcsICctbWV0YWxfYmluZGluZycsICctaW1hZScsICc8aW5maWxlLm1hZT4nLCAnLW9tYWUnLCAnPG91dGZpbGUubWFlPic=

> <r_lp_tautomer_probability>
1

> <r_epik_Ionization_Penalty>
0.0036237

> <r_epik_Ionization_Penalty_Charging>
0.0032725

> <r_epik_Ionization_Penalty_Neutral>
0.000351196

> <r_epik_State_Penalty>
-0

> <r_epik_Charging_Adjusted_Penalty>
0.0032725

> <i_epik_Tot_Q>
1

> <i_epik_Tot_abs_Q>
1

> <r_epik_Metal_State_Penalty>
-0

> <b_epik_Metal_Only>
0

> <s_lp_Force_Field>
OPLS_2005

> <r_lp_Energy>
68.3917

> <b_lp_Chiralities_Consistent>
1

> <s_lp_Variant>
AV-unprocessed.smi:215-2

> <Gold.Version>
5.8.1

> <Gold.Id.Protein>
6NUR|6NUR_protein|mol2

> <Gold.PLP.Fitness>
50.4639

> <Gold.PLP.PLP>
-39.5264

> <Gold.PLP.part.hbond>
-5.0684

> <Gold.PLP.part.metal>
0.0000

> <Gold.PLP.part.buried>
-8.1126

> <Gold.PLP.part.nonpolar>
-29.8598

> <Gold.PLP.part.repulsive>
3.1911

> <Gold.PLP.ligand.clash>
0.0000

> <Gold.PLP.ligand.torsion>
1.6876

> <Gold.PLP.Chemscore.Hbond>
4.1069

> <Gold.PLP.Chemscore.CHOScore>
0.4692

> <Gold.PLP.Chemscore.Metal>
0.0000

> <Gold.Chemscore.Hbonds>
donor molecule, donor type, donor heavy atom, donor atom, acceptor molecule, acceptor atom, score
      L1  H     4    59       P1  8028  2.00
      L1  H     8    41       P1  8029  1.00
      L1  H    25    53       P1 10747  0.93
      L1  H    27    56       P1 10952  0.14
      L1  C    14    46       P1  7957  0.49

> <Gold.PLP.Chemscore.Internal.Correction>
0.5844

> <Gold.Rescore>
     Score         DG    S(hbond)    S(metal)    S(lipo)     H(rot)  DE(clash)    DE(int)     intcor
      8.47     -13.65       3.30        0.00      73.61       4.48       1.57       3.61       ----

> <Gold.Chemscore.Fitness>
8.4739

> <Gold.Chemscore.DG>
-13.6529

> <Gold.Chemscore.ZeroCoef>
-5.4800

> <Gold.Chemscore.Hbond>
3.3014

> <Gold.Chemscore.Metal>
0.0000

> <Gold.Chemscore.Lipo>
73.6052

> <Gold.Chemscore.Internal_Hbond>
0.0000

> <Gold.Chemscore.DEClash>
1.5734

> <Gold.Chemscore.DEInternal>
3.6056

> <Gold.Chemscore.Rot>
4.4787

> <Gold.Chemscore.Internal.Correction>
   9.000000E+99

> <Gold.Chemscore.Hbonds>
donor molecule, donor type, donor heavy atom, donor atom, acceptor molecule, acceptor atom, score
      L1  H     4    59       P1  8028  0.94
      L1  H     8    41       P1  8029  0.98
      L1  H    25    53       P1 10747  0.89
      L1  H    27    56       P1 10952  0.14

> <Gold.Chemscore.Hbond.Weighted>
-11.0265

> <Gold.Chemscore.Metal.Weighted>
-0.0000

> <Gold.Chemscore.Lipo.Weighted>
-8.6118

> <Gold.Chemscore.Internal_Hbond.Weighted>
0.0000

> <Gold.Chemscore.DEClash.Weighted>
1.5734

> <Gold.Chemscore.DEInternal.Weighted>
3.6056

> <Gold.Chemscore.Rot.Weighted>
11.4655

> <Gold.Chemscore.Internal.Correction.Weighted>
   9.000000E+99

> <Gold.Protein.RotatedTorsions>
[ 6907 6896 6895 6894 ] final   39.31 input  -60.11 | X-H torsion
[ 7974 7965 7964 7962 ] final -136.41 input  175.53 | X-H torsion
[ 8008 7997 7996 7995 ] final   61.81 input   59.86 | X-H torsion
[ 10167 10162 10161 10158 ] final   47.00 input  -65.29 | X-H torsion
[ 10718 10713 10712 10709 ] final    1.60 input   66.30 | X-H torsion
[ 10763 10752 10751 10750 ] final   68.66 input  -60.55 | X-H torsion
[ 11005 11000 10999 10996 ] final   -6.74 input  -57.11 | X-H torsion

> <Gold.Protein.ActiveResidues>
 VAL166  LYS551  ARG553  GLY616  TRP617  ASP618  TYR619  PRO620  LYS621  CYS622 
 ASP623  PHE694  ASN695  SER759  ASP760  ASP761  ALA762  ILE779  LEU786  VAL792 
 PHE793  MET794  SER795  GLU796  ALA797  LYS798  CYS799  TRP800  GLU811  SER814 

> <Gold.Protein.RotatedAtoms>
  152.1678  134.8859  160.0536 H   0  0  0  0  0  0  0  0  0  0  0  0  # atno 6907 bound_to 6896
  151.9830  133.3759  159.4123 H   0  0  0  0  0  0  0  0  0  0  0  0  # atno 6908 bound_to 6896
  150.6897  134.3941  159.5133 H   0  0  0  0  0  0  0  0  0  0  0  0  # atno 6909 bound_to 6896
  144.8930  140.6668  143.5133 H   0  0  0  0  0  0  0  0  0  0  0  0  # atno 7974 bound_to 7965
  155.6043  140.3494  155.4603 H   0  0  0  0  0  0  0  0  0  0  0  0  # atno 8008 bound_to 7997
  156.0204  140.1252  157.0387 H   0  0  0  0  0  0  0  0  0  0  0  0  # atno 8009 bound_to 7997
  154.4313  140.1063  156.5942 H   0  0  0  0  0  0  0  0  0  0  0  0  # atno 8010 bound_to 7997
  140.3081  144.2853  150.6205 H   0  0  0  0  0  0  0  0  0  0  0  0  # atno 10167 bound_to 10162
  156.8506  130.5552  149.5670 H   0  0  0  0  0  0  0  0  0  0  0  0  # atno 10718 bound_to 10713
  153.0246  135.5239  154.7168 H   0  0  0  0  0  0  0  0  0  0  0  0  # atno 10763 bound_to 10752
  154.6235  135.2891  155.0301 H   0  0  0  0  0  0  0  0  0  0  0  0  # atno 10764 bound_to 10752
  154.1279  135.6597  153.4968 H   0  0  0  0  0  0  0  0  0  0  0  0  # atno 10765 bound_to 10752
  140.7053  133.8955  155.8712 H   0  0  0  0  0  0  0  0  0  0  0  0  # atno 11005 bound_to 11000
  145.3750  139.1650  143.4311 LP  0  0  0  0  0  0  0  0  0  0  0  0  # atno 17320 bound_to 7965
  146.3065  140.3825  142.8685 LP  0  0  0  0  0  0  0  0  0  0  0  0  # atno 17321 bound_to 7965
  140.5592  143.2194  151.7795 LP  0  0  0  0  0  0  0  0  0  0  0  0  # atno 17342 bound_to 10162
  139.4900  144.4372  151.9806 LP  0  0  0  0  0  0  0  0  0  0  0  0  # atno 17343 bound_to 10162
  156.0830  130.5836  150.9597 LP  0  0  0  0  0  0  0  0  0  0  0  0  # atno 17370 bound_to 10713
  157.6305  131.0921  150.8450 LP  0  0  0  0  0  0  0  0  0  0  0  0  # atno 17371 bound_to 10713
  141.0130  134.0994  157.4202 LP  0  0  0  0  0  0  0  0  0  0  0  0  # atno 17394 bound_to 11000
  139.8886  135.0099  156.6629 LP  0  0  0  0  0  0  0  0  0  0  0  0  # atno 17395 bound_to 11000

$$$$
