AV-unprocessed.smi:3056|AV-procd|sdf|11654|dock8
  -GOLD-   2272017 53D 1   1.00000     0.00000
 Structure written by MMmdl.
 47 48  0  0  0  0  0  0  0  0  1 V2000
  151.2633  145.8124  160.2002 C   0  0  0  0  0  0  0  0  0  0  0  0
  151.7068  144.5349  159.5476 C   0  0  0  0  0  0  0  0  0  0  0  0
  151.3418  144.0385  158.2647 C   0  0  0  0  0  0  0  0  0  0  0  0
  151.9120  142.8796  157.9803 N   0  0  0  0  0  0  0  0  0  0  0  0
  152.6563  142.5889  159.0713 N   0  0  0  0  0  0  0  0  0  0  0  0
  153.4645  141.3732  159.1135 C   0  0  1  0  0  0  0  0  0  0  0  0
  153.9930  141.1419  160.5426 C   0  0  0  0  0  0  0  0  0  0  0  0
  152.6802  140.1589  158.5463 C   0  0  2  0  0  0  0  0  0  0  0  0
  153.4680  138.8371  158.6268 C   0  0  0  0  0  0  0  0  0  0  0  0
  152.3763  140.4197  157.1411 N   0  0  0  0  0  0  0  0  0  0  0  0
  151.0240  139.9904  156.7589 C   0  0  0  0  0  0  0  0  0  0  0  0
  150.5434  140.6218  155.4414 C   0  0  0  0  0  0  0  0  0  0  0  0
  151.0960  140.3019  154.3868 O   0  0  0  0  0  0  0  0  0  0  0  0
  149.5257  141.5150  155.4778 N   0  0  0  0  0  0  0  0  0  0  0  0
  148.7890  141.8449  156.7002 C   0  0  0  0  0  0  0  0  0  0  0  0
  147.3442  141.3411  156.5352 C   0  0  0  0  0  0  0  0  0  0  0  0
  146.7572  141.9319  155.3768 O   0  0  0  0  0  0  0  0  0  0  0  0
  147.4747  141.6605  154.1729 C   0  0  1  0  0  0  0  0  0  0  0  0
  146.7330  142.3293  153.0108 C   0  0  0  0  0  0  0  0  0  0  0  0
  148.9182  142.1816  154.3224 C   0  0  0  0  0  0  0  0  0  0  0  0
  152.5524  143.5760  160.0293 C   0  0  0  0  0  0  0  0  0  0  0  0
  150.1930  145.8072  160.4065 H   0  0  0  0  0  0  0  0  0  0  0  0
  151.4658  146.6776  159.5687 H   0  0  0  0  0  0  0  0  0  0  0  0
  151.7725  145.9822  161.1492 H   0  0  0  0  0  0  0  0  0  0  0  0
  150.6842  144.4860  157.5343 H   0  0  0  0  0  0  0  0  0  0  0  0
  154.3328  141.5486  158.4760 H   0  0  0  0  0  0  0  0  0  0  0  0
  154.7471  140.3561  160.5695 H   0  0  0  0  0  0  0  0  0  0  0  0
  153.1916  140.8583  161.2255 H   0  0  0  0  0  0  0  0  0  0  0  0
  154.4615  142.0448  160.9358 H   0  0  0  0  0  0  0  0  0  0  0  0
  151.7548  140.0548  159.1156 H   0  0  0  0  0  0  0  0  0  0  0  0
  153.6572  138.5475  159.6601 H   0  0  0  0  0  0  0  0  0  0  0  0
  154.4311  138.9165  158.1216 H   0  0  0  0  0  0  0  0  0  0  0  0
  152.9214  138.0127  158.1689 H   0  0  0  0  0  0  0  0  0  0  0  0
  153.0852  140.0039  156.5539 H   0  0  0  0  0  0  0  0  0  0  0  0
  150.9952  138.9051  156.6602 H   0  0  0  0  0  0  0  0  0  0  0  0
  150.3319  140.2758  157.5526 H   0  0  0  0  0  0  0  0  0  0  0  0
  149.2323  141.4100  157.5968 H   0  0  0  0  0  0  0  0  0  0  0  0
  148.7979  142.9253  156.8514 H   0  0  0  0  0  0  0  0  0  0  0  0
  147.3201  140.2535  156.4501 H   0  0  0  0  0  0  0  0  0  0  0  0
  146.7479  141.6066  157.4081 H   0  0  0  0  0  0  0  0  0  0  0  0
  147.4892  140.5822  154.0031 H   0  0  0  0  0  0  0  0  0  0  0  0
  147.2366  142.1390  152.0627 H   0  0  0  0  0  0  0  0  0  0  0  0
  146.6745  143.4092  153.1488 H   0  0  0  0  0  0  0  0  0  0  0  0
  145.7150  141.9481  152.9278 H   0  0  0  0  0  0  0  0  0  0  0  0
  148.9125  143.2591  154.4942 H   0  0  0  0  0  0  0  0  0  0  0  0
  149.4680  142.0374  153.3936 H   0  0  0  0  0  0  0  0  0  0  0  0
  153.0880  143.5173  160.9653 H   0  0  0  0  0  0  0  0  0  0  0  0
  1  2  1  0  0  0  0
  1 22  1  0  0  0  0
  1 23  1  0  0  0  0
  1 24  1  0  0  0  0
  2 21  2  0  0  0  0
  2  3  1  0  0  0  0
  3  4  2  0  0  0  0
  3 25  1  0  0  0  0
  4  5  1  0  0  0  0
  5  6  1  0  0  0  0
  5 21  1  0  0  0  0
  6  7  1  0  0  0  0
  6  8  1  0  0  0  0
  6 26  1  0  0  0  0
  7 27  1  0  0  0  0
  7 28  1  0  0  0  0
  7 29  1  0  0  0  0
  8  9  1  0  0  0  0
  8 10  1  0  0  0  0
  8 30  1  0  0  0  0
  9 31  1  0  0  0  0
  9 32  1  0  0  0  0
  9 33  1  0  0  0  0
 10 11  1  0  0  0  0
 10 34  1  0  0  0  0
 11 12  1  0  0  0  0
 11 35  1  0  0  0  0
 11 36  1  0  0  0  0
 12 13  2  0  0  0  0
 12 14  1  0  0  0  0
 14 20  1  0  0  0  0
 14 15  1  0  0  0  0
 15 16  1  0  0  0  0
 15 37  1  0  0  0  0
 15 38  1  0  0  0  0
 16 17  1  0  0  0  0
 16 39  1  0  0  0  0
 16 40  1  0  0  0  0
 17 18  1  0  0  0  0
 18 19  1  0  0  0  0
 18 20  1  0  0  0  0
 18 41  1  0  0  0  0
 19 42  1  0  0  0  0
 19 43  1  0  0  0  0
 19 44  1  0  0  0  0
 20 45  1  0  0  0  0
 20 46  1  0  0  0  0
 21 47  1  0  0  0  0
M  END
> <s_m_source_file>
AV-unprocessed.smi

> <i_m_source_file_index>
3056

> <i_lp_mmshare_version>
43012

> <i_f3d_flags>
0

> <s_epik_input>
W0NIM11jMVtjSF1ubihbY0hdMSlbQ0BIXShbQ0gzXSlbQ0BIXShbQ0gzXSlbTkhdW0NIMl1DKD1PKU4yW0NIMl1bQ0gyXU9bQ0BASF0oW0NIM10pW0NIMl0y

> <s_epik_cmdline>
J2VwaWtfcHl0aG9uJywgJy1waCcsICc3LjAnLCAnLXRuJywgJzgnLCAnLW1hJywgJzIwMCcsICctbWV0YWxfYmluZGluZycsICctaW1hZScsICc8aW5maWxlLm1hZT4nLCAnLW9tYWUnLCAnPG91dGZpbGUubWFlPic=

> <r_lp_tautomer_probability>
1

> <r_epik_Ionization_Penalty>
0.667689

> <r_epik_Ionization_Penalty_Charging>
0

> <r_epik_Ionization_Penalty_Neutral>
0.667689

> <r_epik_State_Penalty>
0.684601

> <r_epik_Charging_Adjusted_Penalty>
0.684601

> <i_epik_Tot_Q>
0

> <i_epik_Tot_abs_Q>
0

> <r_epik_Metal_State_Penalty>
0.681448

> <b_epik_Metal_Only>
0

> <s_lp_Force_Field>
OPLS_2005

> <r_lp_Energy>
29.4013

> <b_lp_Chiralities_Consistent>
1

> <s_lp_Variant>
AV-unprocessed.smi:3056-10

> <Gold.Version>
5.8.1

> <Gold.Id.Protein>
6NUR|6NUR_protein|mol2

> <Gold.PLP.Fitness>
45.7501

> <Gold.PLP.PLP>
-44.0963

> <Gold.PLP.part.hbond>
-2.0000

> <Gold.PLP.part.metal>
0.0000

> <Gold.PLP.part.buried>
-3.1694

> <Gold.PLP.part.nonpolar>
-38.4718

> <Gold.PLP.part.repulsive>
0.1646

> <Gold.PLP.ligand.clash>
0.0000

> <Gold.PLP.ligand.torsion>
1.0778

> <Gold.PLP.Chemscore.Hbond>
1.0000

> <Gold.PLP.Chemscore.CHOScore>
0.2356

> <Gold.PLP.Chemscore.Metal>
0.0000

> <Gold.Chemscore.Hbonds>
donor molecule, donor type, donor heavy atom, donor atom, acceptor molecule, acceptor atom, score
      P1  H  7989  7998       L1    13  0.13
      L1  C     3    25       P1  8028  0.89

> <Gold.PLP.Chemscore.Internal.Correction>
0.1026

> <Gold.Rescore>
     Score         DG    S(hbond)    S(metal)    S(lipo)     H(rot)  DE(clash)    DE(int)     intcor
     15.34     -16.45       0.96        0.00     102.94       1.68       0.04       1.07       ----

> <Gold.Chemscore.Fitness>
15.3355

> <Gold.Chemscore.DG>
-16.4477

> <Gold.Chemscore.ZeroCoef>
-5.4800

> <Gold.Chemscore.Hbond>
0.9648

> <Gold.Chemscore.Metal>
0.0000

> <Gold.Chemscore.Lipo>
102.9422

> <Gold.Chemscore.Internal_Hbond>
0.0000

> <Gold.Chemscore.DEClash>
0.0379

> <Gold.Chemscore.DEInternal>
1.0743

> <Gold.Chemscore.Rot>
1.6793

> <Gold.Chemscore.Internal.Correction>
   9.000000E+99

> <Gold.Chemscore.Hbonds>
donor molecule, donor type, donor heavy atom, donor atom, acceptor molecule, acceptor atom, score
      P1  H  7989  7998       L1    13  0.16

> <Gold.Chemscore.Hbond.Weighted>
-3.2225

> <Gold.Chemscore.Metal.Weighted>
-0.0000

> <Gold.Chemscore.Lipo.Weighted>
-12.0442

> <Gold.Chemscore.Internal_Hbond.Weighted>
0.0000

> <Gold.Chemscore.DEClash.Weighted>
0.0379

> <Gold.Chemscore.DEInternal.Weighted>
1.0743

> <Gold.Chemscore.Rot.Weighted>
4.2990

> <Gold.Chemscore.Internal.Correction.Weighted>
   9.000000E+99

> <Gold.Protein.RotatedTorsions>
[ 6907 6896 6895 6894 ] final  -15.66 input  -60.11 | X-H torsion
[ 7974 7965 7964 7962 ] final  -77.20 input  175.53 | X-H torsion
[ 8008 7997 7996 7995 ] final -169.57 input   59.86 | X-H torsion
[ 10167 10162 10161 10158 ] final  121.36 input  -65.29 | X-H torsion
[ 10718 10713 10712 10709 ] final    5.15 input   66.30 | X-H torsion
[ 10763 10752 10751 10750 ] final   66.38 input  -60.55 | X-H torsion
[ 11005 11000 10999 10996 ] final -168.10 input  -57.11 | X-H torsion

> <Gold.Protein.ActiveResidues>
 VAL166  LYS551  ARG553  GLY616  TRP617  ASP618  TYR619  PRO620  LYS621  CYS622 
 ASP623  PHE694  ASN695  SER759  ASP760  ASP761  ALA762  ILE779  LEU786  VAL792 
 PHE793  MET794  SER795  GLU796  ALA797  LYS798  CYS799  TRP800  GLU811  SER814 

> <Gold.Protein.RotatedAtoms>
  151.3206  135.0817  159.9304 H   0  0  0  0  0  0  0  0  0  0  0  0  # atno 6907 bound_to 6896
  152.5257  133.9643  159.7742 H   0  0  0  0  0  0  0  0  0  0  0  0  # atno 6908 bound_to 6896
  150.9963  133.6047  159.2731 H   0  0  0  0  0  0  0  0  0  0  0  0  # atno 6909 bound_to 6896
  145.6029  140.9405  143.1231 H   0  0  0  0  0  0  0  0  0  0  0  0  # atno 7974 bound_to 7965
  155.9067  140.1050  157.1310 H   0  0  0  0  0  0  0  0  0  0  0  0  # atno 8008 bound_to 7997
  154.4033  140.1282  156.4569 H   0  0  0  0  0  0  0  0  0  0  0  0  # atno 8009 bound_to 7997
  155.7359  140.3467  155.5083 H   0  0  0  0  0  0  0  0  0  0  0  0  # atno 8010 bound_to 7997
  139.5924  144.7030  151.3257 H   0  0  0  0  0  0  0  0  0  0  0  0  # atno 10167 bound_to 10162
  156.9032  130.5729  149.5648 H   0  0  0  0  0  0  0  0  0  0  0  0  # atno 10718 bound_to 10713
  153.0137  135.5322  154.6815 H   0  0  0  0  0  0  0  0  0  0  0  0  # atno 10763 bound_to 10752
  154.5974  135.2865  155.0574 H   0  0  0  0  0  0  0  0  0  0  0  0  # atno 10764 bound_to 10752
  154.1644  135.6542  153.5046 H   0  0  0  0  0  0  0  0  0  0  0  0  # atno 10765 bound_to 10752
  140.5457  134.5478  157.5110 H   0  0  0  0  0  0  0  0  0  0  0  0  # atno 11005 bound_to 11000
  144.7302  139.7748  143.7350 LP  0  0  0  0  0  0  0  0  0  0  0  0  # atno 17320 bound_to 7965
  146.1563  139.4662  143.0017 LP  0  0  0  0  0  0  0  0  0  0  0  0  # atno 17321 bound_to 7965
  140.7184  143.7202  150.7701 LP  0  0  0  0  0  0  0  0  0  0  0  0  # atno 17342 bound_to 10162
  140.0761  143.5013  152.2554 LP  0  0  0  0  0  0  0  0  0  0  0  0  # atno 17343 bound_to 10162
  156.0572  130.5631  150.9116 LP  0  0  0  0  0  0  0  0  0  0  0  0  # atno 17370 bound_to 10713
  157.6013  131.0941  150.8954 LP  0  0  0  0  0  0  0  0  0  0  0  0  # atno 17371 bound_to 10713
  139.9481  134.7666  156.0514 LP  0  0  0  0  0  0  0  0  0  0  0  0  # atno 17394 bound_to 11000
  141.1201  133.6615  156.3193 LP  0  0  0  0  0  0  0  0  0  0  0  0  # atno 17395 bound_to 11000

$$$$
