AV-unprocessed.smi:2032|AV-procd|sdf|8244|dock4
  -GOLD-   2272010513D 1   1.00000     0.00000
 Structure written by MMmdl.
 43 44  0  0  0  0  0  0  0  0  2 V2000
  149.0076  133.0133  152.6987 C   0  0  0  0  0  0  0  0  0  0  0  0
  147.5563  132.6360  153.0484 C   0  0  1  0  0  0  0  0  0  0  0  0
  146.7707  133.7712  153.7333 C   0  0  0  0  0  0  0  0  0  0  0  0
  146.3883  134.8518  152.7804 N   0  3  2  0  0  0  0  0  0  0  0  0
  145.6448  135.9880  153.4257 C   0  0  1  0  0  0  0  0  0  0  0  0
  145.9857  136.1103  154.9320 C   0  0  0  0  0  0  0  0  0  0  0  0
  145.8915  137.3384  152.6951 C   0  0  0  0  0  0  0  0  0  0  0  0
  147.2200  137.8973  152.9380 N   0  0  0  0  0  0  0  0  0  0  0  0
  147.5444  138.7195  153.9473 C   0  0  0  0  0  0  0  0  0  0  0  0
  146.7334  139.1217  154.7819 O   0  0  0  0  0  0  0  0  0  0  0  0
  148.8496  139.0405  153.9133 N   0  0  0  0  0  0  0  0  0  0  0  0
  149.5677  139.8894  154.7960 C   0  0  0  0  0  0  0  0  0  0  0  0
  150.8984  140.0308  154.7917 N   0  0  0  0  0  0  0  0  0  0  0  0
  151.3327  140.9322  155.7669 C   0  0  0  0  0  0  0  0  0  0  0  0
  150.3122  141.4696  156.5113 C   0  0  0  0  0  0  0  0  0  0  0  0
  148.7555  140.8629  156.0131 S   0  0  0  0  0  0  0  0  0  0  0  0
  145.6850  134.2525  151.6120 C   0  0  0  0  0  0  0  0  0  0  0  0
  146.5172  133.1353  150.9570 C   0  0  2  0  0  0  0  0  0  0  0  0
  145.7564  132.4496  149.8163 C   0  0  0  0  0  0  0  0  0  0  0  0
  146.8341  132.1439  151.9246 O   0  0  0  0  0  0  0  0  0  0  0  0
  149.5758  133.2402  153.6012 H   0  0  0  0  0  0  0  0  0  0  0  0
  149.0658  133.8894  152.0536 H   0  0  0  0  0  0  0  0  0  0  0  0
  149.5116  132.1897  152.1923 H   0  0  0  0  0  0  0  0  0  0  0  0
  147.6123  131.8049  153.7521 H   0  0  0  0  0  0  0  0  0  0  0  0
  145.8657  133.3661  154.1885 H   0  0  0  0  0  0  0  0  0  0  0  0
  147.3914  134.1498  154.5427 H   0  0  0  0  0  0  0  0  0  0  0  0
  144.5792  135.7649  153.3486 H   0  0  0  0  0  0  0  0  0  0  0  0
  145.4911  136.9606  155.3988 H   0  0  0  0  0  0  0  0  0  0  0  0
  147.0585  136.2300  155.0870 H   0  0  0  0  0  0  0  0  0  0  0  0
  145.6506  135.2497  155.5082 H   0  0  0  0  0  0  0  0  0  0  0  0
  145.6969  137.2302  151.6267 H   0  0  0  0  0  0  0  0  0  0  0  0
  145.2102  138.1064  153.0565 H   0  0  0  0  0  0  0  0  0  0  0  0
  147.9513  137.6233  152.2977 H   0  0  0  0  0  0  0  0  0  0  0  0
  149.3946  138.6321  153.1683 H   0  0  0  0  0  0  0  0  0  0  0  0
  152.3896  141.1333  155.8625 H   0  0  0  0  0  0  0  0  0  0  0  0
  150.3816  142.1829  157.3190 H   0  0  0  0  0  0  0  0  0  0  0  0
  144.7144  133.8684  151.9306 H   0  0  0  0  0  0  0  0  0  0  0  0
  145.5026  134.9967  150.8395 H   0  0  0  0  0  0  0  0  0  0  0  0
  147.4335  133.5553  150.5421 H   0  0  0  0  0  0  0  0  0  0  0  0
  145.4984  133.1616  149.0320 H   0  0  0  0  0  0  0  0  0  0  0  0
  144.8313  131.9961  150.1737 H   0  0  0  0  0  0  0  0  0  0  0  0
  146.3592  131.6621  149.3633 H   0  0  0  0  0  0  0  0  0  0  0  0
  147.2511  135.2399  152.4260 H   0  0  0  0  0  0  0  0  0  0  0  0
  1  2  1  0  0  0  0
  1 21  1  0  0  0  0
  1 22  1  0  0  0  0
  1 23  1  0  0  0  0
  2 20  1  0  0  0  0
  2  3  1  0  0  0  0
  2 24  1  0  0  0  0
  3  4  1  0  0  0  0
  3 25  1  0  0  0  0
  3 26  1  0  0  0  0
  4  5  1  0  0  0  0
  4 17  1  0  0  0  0
  4 43  1  0  0  0  0
  5  6  1  0  0  0  0
  5  7  1  0  0  0  0
  5 27  1  0  0  0  0
  6 28  1  0  0  0  0
  6 29  1  0  0  0  0
  6 30  1  0  0  0  0
  7  8  1  0  0  0  0
  7 31  1  0  0  0  0
  7 32  1  0  0  0  0
  8  9  1  0  0  0  0
  8 33  1  0  0  0  0
  9 10  2  0  0  0  0
  9 11  1  0  0  0  0
 11 12  1  0  0  0  0
 11 34  1  0  0  0  0
 12 16  1  0  0  0  0
 12 13  2  0  0  0  0
 13 14  1  0  0  0  0
 14 15  2  0  0  0  0
 14 35  1  0  0  0  0
 15 16  1  0  0  0  0
 15 36  1  0  0  0  0
 17 18  1  0  0  0  0
 17 37  1  0  0  0  0
 17 38  1  0  0  0  0
 18 19  1  0  0  0  0
 18 20  1  0  0  0  0
 18 39  1  0  0  0  0
 19 40  1  0  0  0  0
 19 41  1  0  0  0  0
 19 42  1  0  0  0  0
M  CHG  1   4   1
M  END
> <s_m_source_file>
AV-unprocessed.smi

> <i_m_source_file_index>
2032

> <i_lp_mmshare_version>
43012

> <i_f3d_flags>
0

> <s_epik_input>
W0NIM11bQ0BASF0xW0NIMl1OKFtDSDJdW0NASF0oTzEpW0NIM10pW0NASF0oW0NIM10pW0NIMl1bTkhdQyg9TylbTkhdYzJuW2NIXVtjSF1zMg==

> <s_epik_cmdline>
J2VwaWtfcHl0aG9uJywgJy1waCcsICc3LjAnLCAnLXRuJywgJzgnLCAnLW1hJywgJzIwMCcsICctbWV0YWxfYmluZGluZycsICctaW1hZScsICc8aW5maWxlLm1hZT4nLCAnLW9tYWUnLCAnPG91dGZpbGUubWFlPic=

> <r_lp_tautomer_probability>
0.999

> <r_epik_Ionization_Penalty>
0.695838

> <r_epik_Ionization_Penalty_Charging>
0.695697

> <r_epik_Ionization_Penalty_Neutral>
0.000141198

> <r_epik_State_Penalty>
0.717972

> <r_epik_Charging_Adjusted_Penalty>
1.41367

> <i_epik_Tot_Q>
1

> <i_epik_Tot_abs_Q>
1

> <r_epik_Metal_State_Penalty>
0.756405

> <b_epik_Metal_Only>
0

> <s_lp_Force_Field>
OPLS_2005

> <r_lp_Energy>
22.0252

> <b_lp_Chiralities_Consistent>
1

> <s_lp_Variant>
AV-unprocessed.smi:2032-14

> <Gold.Version>
5.8.1

> <Gold.Id.Protein>
6NUR|6NUR_protein|mol2

> <Gold.PLP.Fitness>
42.9858

> <Gold.PLP.PLP>
-31.8877

> <Gold.PLP.part.hbond>
-4.7528

> <Gold.PLP.part.metal>
0.0000

> <Gold.PLP.part.buried>
-0.8045

> <Gold.PLP.part.nonpolar>
-26.5042

> <Gold.PLP.part.repulsive>
0.4993

> <Gold.PLP.ligand.clash>
0.2499

> <Gold.PLP.ligand.torsion>
0.9739

> <Gold.PLP.Chemscore.Hbond>
3.8640

> <Gold.PLP.Chemscore.CHOScore>
0.5469

> <Gold.PLP.Chemscore.Metal>
0.0000

> <Gold.Chemscore.Hbonds>
donor molecule, donor type, donor heavy atom, donor atom, acceptor molecule, acceptor atom, score
      L1  H     4    43       P1  7948  2.00
      L1  H     8    33       P1  7948  0.85
      P1  H  7989  7998       L1    13  0.70

> <Gold.PLP.Chemscore.Internal.Correction>
0.0633

> <Gold.Rescore>
     Score         DG    S(hbond)    S(metal)    S(lipo)     H(rot)  DE(clash)    DE(int)     intcor
     14.87     -17.85       2.59        0.00      67.18       1.61       0.05       2.93       ----

> <Gold.Chemscore.Fitness>
14.8666

> <Gold.Chemscore.DG>
-17.8520

> <Gold.Chemscore.ZeroCoef>
-5.4800

> <Gold.Chemscore.Hbond>
2.5856

> <Gold.Chemscore.Metal>
0.0000

> <Gold.Chemscore.Lipo>
67.1816

> <Gold.Chemscore.Internal_Hbond>
0.0000

> <Gold.Chemscore.DEClash>
0.0519

> <Gold.Chemscore.DEInternal>
2.9335

> <Gold.Chemscore.Rot>
1.6110

> <Gold.Chemscore.Internal.Correction>
   9.000000E+99

> <Gold.Chemscore.Hbonds>
donor molecule, donor type, donor heavy atom, donor atom, acceptor molecule, acceptor atom, score
      L1  H     4    43       P1  7948  0.93
      L1  H     8    33       P1  7948  0.85
      L1  H    11    34       P1  7957  0.01
      P1  H  7989  7998       L1    13  0.07

> <Gold.Chemscore.Hbond.Weighted>
-8.6359

> <Gold.Chemscore.Metal.Weighted>
-0.0000

> <Gold.Chemscore.Lipo.Weighted>
-7.8602

> <Gold.Chemscore.Internal_Hbond.Weighted>
0.0000

> <Gold.Chemscore.DEClash.Weighted>
0.0519

> <Gold.Chemscore.DEInternal.Weighted>
2.9335

> <Gold.Chemscore.Rot.Weighted>
4.1242

> <Gold.Chemscore.Internal.Correction.Weighted>
   9.000000E+99

> <Gold.Protein.RotatedTorsions>
[ 6907 6896 6895 6894 ] final   72.81 input  -60.11 | X-H torsion
[ 7974 7965 7964 7962 ] final -106.41 input  175.53 | X-H torsion
[ 8008 7997 7996 7995 ] final -157.48 input   59.86 | X-H torsion
[ 10167 10162 10161 10158 ] final  -84.89 input  -65.29 | X-H torsion
[ 10718 10713 10712 10709 ] final   81.60 input   66.30 | X-H torsion
[ 10763 10752 10751 10750 ] final  155.14 input  -60.55 | X-H torsion
[ 11005 11000 10999 10996 ] final  107.19 input  -57.11 | X-H torsion

> <Gold.Protein.ActiveResidues>
 VAL166  LYS551  ARG553  GLY616  TRP617  ASP618  TYR619  PRO620  LYS621  CYS622 
 ASP623  PHE694  ASN695  SER759  ASP760  ASP761  ALA762  ILE779  LEU786  VAL792 
 PHE793  MET794  SER795  GLU796  ALA797  LYS798  CYS799  TRP800  GLU811  SER814 

> <Gold.Protein.RotatedAtoms>
  152.4889  134.4516  159.9575 H   0  0  0  0  0  0  0  0  0  0  0  0  # atno 6907 bound_to 6896
  151.4506  133.3612  159.2802 H   0  0  0  0  0  0  0  0  0  0  0  0  # atno 6908 bound_to 6896
  150.9024  134.8461  159.7429 H   0  0  0  0  0  0  0  0  0  0  0  0  # atno 6909 bound_to 6896
  145.2182  140.9123  143.3275 H   0  0  0  0  0  0  0  0  0  0  0  0  # atno 7974 bound_to 7965
  155.7331  140.0804  157.2280 H   0  0  0  0  0  0  0  0  0  0  0  0  # atno 8008 bound_to 7997
  154.4030  140.1591  156.2586 H   0  0  0  0  0  0  0  0  0  0  0  0  # atno 8009 bound_to 7997
  155.9091  140.3405  155.6087 H   0  0  0  0  0  0  0  0  0  0  0  0  # atno 8010 bound_to 7997
  140.4090  143.2630  151.9043 H   0  0  0  0  0  0  0  0  0  0  0  0  # atno 10167 bound_to 10162
  157.6837  131.0011  150.2251 H   0  0  0  0  0  0  0  0  0  0  0  0  # atno 10718 bound_to 10713
  154.1636  135.2808  155.3101 H   0  0  0  0  0  0  0  0  0  0  0  0  # atno 10763 bound_to 10752
  154.6128  135.5493  153.7495 H   0  0  0  0  0  0  0  0  0  0  0  0  # atno 10764 bound_to 10752
  153.0185  135.6419  154.1778 H   0  0  0  0  0  0  0  0  0  0  0  0  # atno 10765 bound_to 10752
  139.8824  134.9393  156.5782 H   0  0  0  0  0  0  0  0  0  0  0  0  # atno 11005 bound_to 11000
  144.9791  139.3802  143.6271 LP  0  0  0  0  0  0  0  0  0  0  0  0  # atno 17320 bound_to 7965
  146.3382  139.8923  142.8807 LP  0  0  0  0  0  0  0  0  0  0  0  0  # atno 17321 bound_to 7965
  139.4783  144.5556  151.8318 LP  0  0  0  0  0  0  0  0  0  0  0  0  # atno 17342 bound_to 10162
  140.4658  144.1657  150.5911 LP  0  0  0  0  0  0  0  0  0  0  0  0  # atno 17343 bound_to 10162
  156.2895  130.3744  149.7856 LP  0  0  0  0  0  0  0  0  0  0  0  0  # atno 17370 bound_to 10713
  156.5519  130.8346  151.3302 LP  0  0  0  0  0  0  0  0  0  0  0  0  # atno 17371 bound_to 10713
  140.8047  133.8477  155.8757 LP  0  0  0  0  0  0  0  0  0  0  0  0  # atno 17394 bound_to 11000
  140.9561  134.1717  157.4691 LP  0  0  0  0  0  0  0  0  0  0  0  0  # atno 17395 bound_to 11000

$$$$
