AV-unprocessed.smi:480|AV-procd|sdf|2676|dock1
  -GOLD-   2262023 93D 1   1.00000     0.00000
 Structure written by MMmdl.
 46 48  0  0  0  0  0  0  0  0  1 V2000
  151.3712  138.2717  154.5027 C   0  0  0  0  0  0  0  0  0  0  0  0
  150.4405  139.3020  155.1546 C   0  0  0  0  0  0  0  0  0  0  0  0
  151.0439  139.9480  156.3695 C   0  0  0  0  0  0  0  0  0  0  0  0
  151.1681  141.2749  156.4385 N   0  0  0  0  0  0  0  0  0  0  0  0
  151.7536  141.4678  157.6727 C   0  0  0  0  0  0  0  0  0  0  0  0
  152.1429  142.6574  158.3292 C   0  0  0  0  0  0  0  0  0  0  0  0
  152.7310  142.6061  159.6100 C   0  0  0  0  0  0  0  0  0  0  0  0
  152.9367  141.3673  160.2512 C   0  0  0  0  0  0  0  0  0  0  0  0
  152.5543  140.1709  159.6145 C   0  0  0  0  0  0  0  0  0  0  0  0
  151.9683  140.2276  158.3352 C   0  0  0  0  0  0  0  0  0  0  0  0
  151.4882  139.2598  157.4569 N   0  0  0  0  0  0  0  0  0  0  0  0
  151.4828  137.8251  157.7243 C   0  0  0  0  0  0  0  0  0  0  0  0
  151.0883  137.4846  159.1750 C   0  0  2  0  0  0  0  0  0  0  0  0
  152.0295  136.5771  159.7105 O   0  0  0  0  0  0  0  0  0  0  0  0
  149.6940  136.8417  159.2476 C   0  0  0  0  0  0  0  0  0  0  0  0
  149.2529  136.8393  160.5992 O   0  0  0  0  0  0  0  0  0  0  0  0
  148.2789  135.9345  160.9652 C   0  0  0  0  0  0  0  0  0  0  0  0
  147.6753  135.0089  160.0763 C   0  0  0  0  0  0  0  0  0  0  0  0
  146.6833  134.1207  160.5355 C   0  0  0  0  0  0  0  0  0  0  0  0
  146.2801  134.1432  161.8849 C   0  0  0  0  0  0  0  0  0  0  0  0
  145.2154  133.1860  162.3782 C   0  0  0  0  0  0  0  0  0  0  0  0
  144.0014  133.8924  162.8144 C   0  0  0  0  0  0  0  0  0  0  0  0
  143.0463  134.4480  163.1578 N   0  0  0  0  0  0  0  0  0  0  0  0
  146.8765  135.0580  162.7741 C   0  0  0  0  0  0  0  0  0  0  0  0
  147.8686  135.9452  162.3142 C   0  0  0  0  0  0  0  0  0  0  0  0
  150.9045  137.8306  153.6219 H   0  0  0  0  0  0  0  0  0  0  0  0
  151.6140  137.4624  155.1898 H   0  0  0  0  0  0  0  0  0  0  0  0
  152.3074  138.7321  154.1859 H   0  0  0  0  0  0  0  0  0  0  0  0
  150.2145  140.0869  154.4321 H   0  0  0  0  0  0  0  0  0  0  0  0
  149.4866  138.8348  155.3843 H   0  0  0  0  0  0  0  0  0  0  0  0
  151.9881  143.6106  157.8461 H   0  0  0  0  0  0  0  0  0  0  0  0
  153.0249  143.5212  160.1029 H   0  0  0  0  0  0  0  0  0  0  0  0
  153.3876  141.3359  161.2324 H   0  0  0  0  0  0  0  0  0  0  0  0
  152.7099  139.2209  160.1037 H   0  0  0  0  0  0  0  0  0  0  0  0
  150.7650  137.3713  157.0400 H   0  0  0  0  0  0  0  0  0  0  0  0
  152.4413  137.3800  157.4673 H   0  0  0  0  0  0  0  0  0  0  0  0
  151.0997  138.3982  159.7710 H   0  0  0  0  0  0  0  0  0  0  0  0
  152.7924  137.0639  159.9832 H   0  0  0  0  0  0  0  0  0  0  0  0
  148.9944  137.4395  158.6614 H   0  0  0  0  0  0  0  0  0  0  0  0
  149.7067  135.8349  158.8259 H   0  0  0  0  0  0  0  0  0  0  0  0
  147.9557  134.9590  159.0352 H   0  0  0  0  0  0  0  0  0  0  0  0
  146.2324  133.4207  159.8474 H   0  0  0  0  0  0  0  0  0  0  0  0
  144.9438  132.4882  161.5857 H   0  0  0  0  0  0  0  0  0  0  0  0
  145.5941  132.6000  163.2159 H   0  0  0  0  0  0  0  0  0  0  0  0
  146.5755  135.0806  163.8112 H   0  0  0  0  0  0  0  0  0  0  0  0
  148.3188  136.6431  163.0050 H   0  0  0  0  0  0  0  0  0  0  0  0
  1  2  1  0  0  0  0
  1 26  1  0  0  0  0
  1 27  1  0  0  0  0
  1 28  1  0  0  0  0
  2  3  1  0  0  0  0
  2 29  1  0  0  0  0
  2 30  1  0  0  0  0
  3 11  1  0  0  0  0
  3  4  2  0  0  0  0
  4  5  1  0  0  0  0
  5 10  2  0  0  0  0
  5  6  1  0  0  0  0
  6  7  2  0  0  0  0
  6 31  1  0  0  0  0
  7  8  1  0  0  0  0
  7 32  1  0  0  0  0
  8  9  2  0  0  0  0
  8 33  1  0  0  0  0
  9 10  1  0  0  0  0
  9 34  1  0  0  0  0
 10 11  1  0  0  0  0
 11 12  1  0  0  0  0
 12 13  1  0  0  0  0
 12 35  1  0  0  0  0
 12 36  1  0  0  0  0
 13 14  1  0  0  0  0
 13 15  1  0  0  0  0
 13 37  1  0  0  0  0
 14 38  1  0  0  0  0
 15 16  1  0  0  0  0
 15 39  1  0  0  0  0
 15 40  1  0  0  0  0
 16 17  1  0  0  0  0
 17 25  1  0  0  0  0
 17 18  2  0  0  0  0
 18 19  1  0  0  0  0
 18 41  1  0  0  0  0
 19 20  2  0  0  0  0
 19 42  1  0  0  0  0
 20 21  1  0  0  0  0
 20 24  1  0  0  0  0
 21 22  1  0  0  0  0
 21 43  1  0  0  0  0
 21 44  1  0  0  0  0
 22 23  3  0  0  0  0
 24 25  2  0  0  0  0
 24 45  1  0  0  0  0
 25 46  1  0  0  0  0
M  END
> <s_m_source_file>
AV-unprocessed.smi

> <i_m_source_file_index>
480

> <i_lp_mmshare_version>
43012

> <i_f3d_flags>
0

> <s_epik_input>
W2NIXTFbY0hdW2NIXVtjSF1jKGMxMiluKGMobjIpW0NIMl1bQ0gzXSlbQ0gyXVtDQEhdKFtPSF0pW0NIMl1PYzNbY0hdW2NIXWMoW0NIMl1DI04pW2NIXVtjSF0z

> <s_epik_cmdline>
J2VwaWtfcHl0aG9uJywgJy1waCcsICc3LjAnLCAnLXRuJywgJzgnLCAnLW1hJywgJzIwMCcsICctbWV0YWxfYmluZGluZycsICctaW1hZScsICc8aW5maWxlLm1hZT4nLCAnLW9tYWUnLCAnPG91dGZpbGUubWFlPic=

> <r_lp_tautomer_probability>
1

> <r_epik_Ionization_Penalty>
0.114213

> <r_epik_Ionization_Penalty_Charging>
0

> <r_epik_Ionization_Penalty_Neutral>
0.114213

> <r_epik_State_Penalty>
0.103875

> <r_epik_Charging_Adjusted_Penalty>
0.103875

> <i_epik_Tot_Q>
0

> <i_epik_Tot_abs_Q>
0

> <r_epik_Metal_State_Penalty>
0.000113526

> <b_epik_Metal_Only>
0

> <s_lp_Force_Field>
OPLS_2005

> <r_lp_Energy>
17.1637

> <b_lp_Chiralities_Consistent>
1

> <s_lp_Variant>
AV-unprocessed.smi:480-1

> <Gold.Version>
5.8.1

> <Gold.Id.Protein>
6NUR|6NUR_protein|mol2

> <Gold.PLP.Fitness>
56.9158

> <Gold.PLP.PLP>
-53.5849

> <Gold.PLP.part.hbond>
-1.9931

> <Gold.PLP.part.metal>
0.0000

> <Gold.PLP.part.buried>
-7.4029

> <Gold.PLP.part.nonpolar>
-45.3676

> <Gold.PLP.part.repulsive>
0.1895

> <Gold.PLP.ligand.clash>
0.0000

> <Gold.PLP.ligand.torsion>
1.1845

> <Gold.PLP.Chemscore.Hbond>
1.5760

> <Gold.PLP.Chemscore.CHOScore>
0.0000

> <Gold.PLP.Chemscore.Metal>
0.0000

> <Gold.Chemscore.Hbonds>
donor molecule, donor type, donor heavy atom, donor atom, acceptor molecule, acceptor atom, score
      P1  H  6896  6908       L1    14  0.88
      P1  H  6931  6943       L1    16  0.70

> <Gold.PLP.Chemscore.Internal.Correction>
0.9719

> <Gold.Rescore>
     Score         DG    S(hbond)    S(metal)    S(lipo)     H(rot)  DE(clash)    DE(int)     intcor
     18.51     -19.52       1.66        0.00     128.96       2.58       0.00       1.00       ----

> <Gold.Chemscore.Fitness>
18.5145

> <Gold.Chemscore.DG>
-19.5193

> <Gold.Chemscore.ZeroCoef>
-5.4800

> <Gold.Chemscore.Hbond>
1.6603

> <Gold.Chemscore.Metal>
0.0000

> <Gold.Chemscore.Lipo>
128.9584

> <Gold.Chemscore.Internal_Hbond>
0.0000

> <Gold.Chemscore.DEClash>
0.0000

> <Gold.Chemscore.DEInternal>
1.0047

> <Gold.Chemscore.Rot>
2.5759

> <Gold.Chemscore.Internal.Correction>
   9.000000E+99

> <Gold.Chemscore.Hbonds>
donor molecule, donor type, donor heavy atom, donor atom, acceptor molecule, acceptor atom, score
      P1  H  6896  6908       L1    14  0.85
      P1  H  6931  6943       L1    16  0.31

> <Gold.Chemscore.Hbond.Weighted>
-5.5455

> <Gold.Chemscore.Metal.Weighted>
-0.0000

> <Gold.Chemscore.Lipo.Weighted>
-15.0881

> <Gold.Chemscore.Internal_Hbond.Weighted>
0.0000

> <Gold.Chemscore.DEClash.Weighted>
0.0000

> <Gold.Chemscore.DEInternal.Weighted>
1.0047

> <Gold.Chemscore.Rot.Weighted>
6.5943

> <Gold.Chemscore.Internal.Correction.Weighted>
   9.000000E+99

> <Gold.Protein.RotatedTorsions>
[ 6907 6896 6895 6894 ] final -108.73 input  -60.11 | X-H torsion
[ 7974 7965 7964 7962 ] final  -20.96 input  175.53 | X-H torsion
[ 8008 7997 7996 7995 ] final   53.16 input   59.86 | X-H torsion
[ 10167 10162 10161 10158 ] final   91.02 input  -65.29 | X-H torsion
[ 10718 10713 10712 10709 ] final  -13.13 input   66.30 | X-H torsion
[ 10763 10752 10751 10750 ] final  113.51 input  -60.55 | X-H torsion
[ 11005 11000 10999 10996 ] final -130.69 input  -57.11 | X-H torsion

> <Gold.Protein.ActiveResidues>
 VAL166  LYS551  ARG553  GLY616  TRP617  ASP618  TYR619  PRO620  LYS621  CYS622 
 ASP623  PHE694  ASN695  SER759  ASP760  ASP761  ALA762  ILE779  LEU786  VAL792 
 PHE793  MET794  SER795  GLU796  ALA797  LYS798  CYS799  TRP800  GLU811  SER814 

> <Gold.Protein.RotatedAtoms>
  150.7519  133.9635  159.3522 H   0  0  0  0  0  0  0  0  0  0  0  0  # atno 6907 bound_to 6896
  151.7562  135.0819  160.0348 H   0  0  0  0  0  0  0  0  0  0  0  0  # atno 6908 bound_to 6896
  152.3433  133.6055  159.5928 H   0  0  0  0  0  0  0  0  0  0  0  0  # atno 6909 bound_to 6896
  146.1759  140.4275  142.8513 H   0  0  0  0  0  0  0  0  0  0  0  0  # atno 7974 bound_to 7965
  155.4638  140.3462  155.4316 H   0  0  0  0  0  0  0  0  0  0  0  0  # atno 8008 bound_to 7997
  156.1144  140.1470  156.9322 H   0  0  0  0  0  0  0  0  0  0  0  0  # atno 8009 bound_to 7997
  154.4779  140.0879  156.7285 H   0  0  0  0  0  0  0  0  0  0  0  0  # atno 8010 bound_to 7997
  139.8415  144.6639  150.9277 H   0  0  0  0  0  0  0  0  0  0  0  0  # atno 10167 bound_to 10162
  156.6347  130.4911  149.6116 H   0  0  0  0  0  0  0  0  0  0  0  0  # atno 10718 bound_to 10713
  153.4936  135.3653  155.2504 H   0  0  0  0  0  0  0  0  0  0  0  0  # atno 10763 bound_to 10752
  154.8751  135.3983  154.3560 H   0  0  0  0  0  0  0  0  0  0  0  0  # atno 10764 bound_to 10752
  153.4184  135.7079  153.6377 H   0  0  0  0  0  0  0  0  0  0  0  0  # atno 10765 bound_to 10752
  140.9324  134.1302  157.4223 H   0  0  0  0  0  0  0  0  0  0  0  0  # atno 11005 bound_to 11000
  144.8236  140.6591  143.6337 LP  0  0  0  0  0  0  0  0  0  0  0  0  # atno 17320 bound_to 7965
  145.4212  139.1563  143.4073 LP  0  0  0  0  0  0  0  0  0  0  0  0  # atno 17321 bound_to 7965
  140.7797  143.3908  151.1313 LP  0  0  0  0  0  0  0  0  0  0  0  0  # atno 17342 bound_to 10162
  139.7554  143.8715  152.3087 LP  0  0  0  0  0  0  0  0  0  0  0  0  # atno 17343 bound_to 10162
  156.2206  130.6735  151.1364 LP  0  0  0  0  0  0  0  0  0  0  0  0  # atno 17370 bound_to 10713
  157.7189  131.0693  150.6216 LP  0  0  0  0  0  0  0  0  0  0  0  0  # atno 17371 bound_to 10713
  139.8799  135.0009  156.6039 LP  0  0  0  0  0  0  0  0  0  0  0  0  # atno 17394 bound_to 11000
  140.7845  133.8633  155.8594 LP  0  0  0  0  0  0  0  0  0  0  0  0  # atno 17395 bound_to 11000

$$$$
