AV-unprocessed.smi:221|AV-procd|sdf|1686|dock1
  -GOLD-   2262020123D 1   1.00000     0.00000
 Structure written by MMmdl.
 50 53  0  0  0  0  0  0  0  0  1 V2000
  142.1022  134.3418  154.6099 N   0  0  0  0  0  0  0  0  0  0  0  0
  142.4404  135.3036  153.7481 C   0  0  0  0  0  0  0  0  0  0  0  0
  141.9214  136.4181  153.7763 O   0  0  0  0  0  0  0  0  0  0  0  0
  143.5314  134.9613  152.7232 C   0  0  2  0  0  0  0  0  0  0  0  0
  143.2319  133.6496  151.9858 C   0  0  0  0  0  0  0  0  0  0  0  0
  144.6091  133.1978  151.5128 C   0  0  1  0  0  0  0  0  0  0  0  0
  144.9262  133.8386  150.3867 F   0  0  0  0  0  0  0  0  0  0  0  0
  145.5374  133.6548  152.6407 C   0  0  0  0  0  0  0  0  0  0  0  0
  144.8319  134.7182  153.3515 N   0  0  0  0  0  0  0  0  0  0  0  0
  145.5652  135.8167  153.6371 C   0  0  0  0  0  0  0  0  0  0  0  0
  145.1655  136.9888  153.0866 N   0  0  0  0  0  0  0  0  0  0  0  0
  145.8543  138.1085  153.3284 C   0  0  0  0  0  0  0  0  0  0  0  0
  146.9481  138.2723  154.0764 N   0  0  0  0  0  0  0  0  0  0  0  0
  147.3498  137.0924  154.6309 C   0  0  0  0  0  0  0  0  0  0  0  0
  146.7206  135.8269  154.4678 C   0  0  0  0  0  0  0  0  0  0  0  0
  147.4099  134.8569  155.1857 N   0  0  0  0  0  0  0  0  0  0  0  0
  148.3937  135.5117  155.7394 C   0  0  0  0  0  0  0  0  0  0  0  0
  148.4374  136.8576  155.4524 N   0  0  0  0  0  0  0  0  0  0  0  0
  149.4175  137.8190  155.9241 C   0  0  0  0  0  0  0  0  0  0  0  0
  150.2738  138.4441  154.7942 C   0  0  2  0  0  0  0  0  0  0  0  0
  151.6501  137.7489  154.6256 C   0  0  0  0  0  0  0  0  0  0  0  0
  151.5351  136.5157  153.9458 O   0  0  0  0  0  0  0  0  0  0  0  0
  150.3705  139.9776  155.0063 C   0  0  2  0  0  0  0  0  0  0  0  0
  151.1076  140.4405  156.2499 C   0  0  0  0  0  0  0  0  0  0  0  0
  150.6869  141.9049  156.3200 C   0  0  0  0  0  0  0  0  0  0  0  0
  149.3527  141.9465  155.8216 O   0  0  0  0  0  0  0  0  0  0  0  0
  149.0470  140.7408  155.1247 C   0  0  0  0  0  0  0  0  0  0  0  0
  143.6123  135.7705  151.9949 H   0  0  0  0  0  0  0  0  0  0  0  0
  144.6698  132.1283  151.3102 H   0  0  0  0  0  0  0  0  0  0  0  0
  141.3868  134.5177  155.3003 H   0  0  0  0  0  0  0  0  0  0  0  0
  142.5584  133.4421  154.5666 H   0  0  0  0  0  0  0  0  0  0  0  0
  142.8200  132.9039  152.6682 H   0  0  0  0  0  0  0  0  0  0  0  0
  142.5261  133.7770  151.1643 H   0  0  0  0  0  0  0  0  0  0  0  0
  145.6949  132.8389  153.3466 H   0  0  0  0  0  0  0  0  0  0  0  0
  146.5189  133.9485  152.2640 H   0  0  0  0  0  0  0  0  0  0  0  0
  145.4747  139.0015  152.8539 H   0  0  0  0  0  0  0  0  0  0  0  0
  149.1240  135.0256  156.3700 H   0  0  0  0  0  0  0  0  0  0  0  0
  148.8796  138.5979  156.4657 H   0  0  0  0  0  0  0  0  0  0  0  0
  150.0601  137.3249  156.6538 H   0  0  0  0  0  0  0  0  0  0  0  0
  149.7252  138.3113  153.8601 H   0  0  0  0  0  0  0  0  0  0  0  0
  152.3395  138.3593  154.0458 H   0  0  0  0  0  0  0  0  0  0  0  0
  152.1217  137.5808  155.5942 H   0  0  0  0  0  0  0  0  0  0  0  0
  151.3216  136.6900  153.0418 H   0  0  0  0  0  0  0  0  0  0  0  0
  150.9154  140.3990  154.1593 H   0  0  0  0  0  0  0  0  0  0  0  0
  150.7673  139.9197  157.1437 H   0  0  0  0  0  0  0  0  0  0  0  0
  152.1884  140.3163  156.1761 H   0  0  0  0  0  0  0  0  0  0  0  0
  150.7497  142.3109  157.3298 H   0  0  0  0  0  0  0  0  0  0  0  0
  151.3189  142.5128  155.6710 H   0  0  0  0  0  0  0  0  0  0  0  0
  148.6039  140.9512  154.1511 H   0  0  0  0  0  0  0  0  0  0  0  0
  148.3135  140.1935  155.7158 H   0  0  0  0  0  0  0  0  0  0  0  0
  1  2  1  0  0  0  0
  1 30  1  0  0  0  0
  1 31  1  0  0  0  0
  2  3  2  0  0  0  0
  2  4  1  0  0  0  0
  4 28  1  0  0  0  0
  4  9  1  0  0  0  0
  4  5  1  0  0  0  0
  5  6  1  0  0  0  0
  5 32  1  0  0  0  0
  5 33  1  0  0  0  0
  6 29  1  0  0  0  0
  6  7  1  0  0  0  0
  6  8  1  0  0  0  0
  8  9  1  0  0  0  0
  8 34  1  0  0  0  0
  8 35  1  0  0  0  0
  9 10  1  0  0  0  0
 10 15  1  0  0  0  0
 10 11  2  0  0  0  0
 11 12  1  0  0  0  0
 12 13  2  0  0  0  0
 12 36  1  0  0  0  0
 13 14  1  0  0  0  0
 14 18  1  0  0  0  0
 14 15  2  0  0  0  0
 15 16  1  0  0  0  0
 16 17  2  0  0  0  0
 17 18  1  0  0  0  0
 17 37  1  0  0  0  0
 18 19  1  0  0  0  0
 19 20  1  0  0  0  0
 19 38  1  0  0  0  0
 19 39  1  0  0  0  0
 20 21  1  0  0  0  0
 20 23  1  0  0  0  0
 20 40  1  0  0  0  0
 21 22  1  0  0  0  0
 21 41  1  0  0  0  0
 21 42  1  0  0  0  0
 22 43  1  0  0  0  0
 23 27  1  0  0  0  0
 23 24  1  0  0  0  0
 23 44  1  0  0  0  0
 24 25  1  0  0  0  0
 24 45  1  0  0  0  0
 24 46  1  0  0  0  0
 25 26  1  0  0  0  0
 25 47  1  0  0  0  0
 25 48  1  0  0  0  0
 26 27  1  0  0  0  0
 27 49  1  0  0  0  0
 27 50  1  0  0  0  0
M  END
> <s_m_source_file>
AV-unprocessed.smi

> <i_m_source_file_index>
221

> <i_lp_mmshare_version>
43012

> <i_f3d_flags>
0

> <s_epik_input>
W05IMl1DKD1PKVtDQEBIXTFbQ0gyXVtDQEBIXShGKVtDSDJdTjFjKG5bY0hdbjIpYyhjMjMpbltjSF1uM1tDSDJdW0NASF0oW0NIMl1bT0hdKVtDQEBIXTRbQ0gyXVtDSDJdT1tDSDJdNA==

> <s_epik_cmdline>
J2VwaWtfcHl0aG9uJywgJy1waCcsICc3LjAnLCAnLXRuJywgJzgnLCAnLW1hJywgJzIwMCcsICctbWV0YWxfYmluZGluZycsICctaW1hZScsICc8aW5maWxlLm1hZT4nLCAnLW9tYWUnLCAnPG91dGZpbGUubWFlPic=

> <r_lp_tautomer_probability>
1

> <r_epik_Ionization_Penalty>
0.000818822

> <r_epik_Ionization_Penalty_Charging>
0

> <r_epik_Ionization_Penalty_Neutral>
0.000818822

> <r_epik_State_Penalty>
0.000440551

> <r_epik_Charging_Adjusted_Penalty>
0.000440551

> <i_epik_Tot_Q>
0

> <i_epik_Tot_abs_Q>
0

> <r_epik_Metal_State_Penalty>
-0

> <b_epik_Metal_Only>
0

> <s_lp_Force_Field>
OPLS_2005

> <r_lp_Energy>
52.3399

> <b_lp_Chiralities_Consistent>
1

> <s_lp_Variant>
AV-unprocessed.smi:221-1

> <Gold.Version>
5.8.1

> <Gold.Id.Protein>
6NUR|6NUR_protein|mol2

> <Gold.PLP.Fitness>
45.3438

> <Gold.PLP.PLP>
-32.1792

> <Gold.PLP.part.hbond>
-4.0000

> <Gold.PLP.part.metal>
0.0000

> <Gold.PLP.part.buried>
-5.5307

> <Gold.PLP.part.nonpolar>
-26.6896

> <Gold.PLP.part.repulsive>
3.0436

> <Gold.PLP.ligand.clash>
0.0000

> <Gold.PLP.ligand.torsion>
1.0686

> <Gold.PLP.Chemscore.Hbond>
3.9840

> <Gold.PLP.Chemscore.CHOScore>
1.0000

> <Gold.PLP.Chemscore.Metal>
0.0000

> <Gold.Chemscore.Hbonds>
donor molecule, donor type, donor heavy atom, donor atom, acceptor molecule, acceptor atom, score
      L1  H     1    30       P1 11000  1.00
      L1  H     1    31       P1 10957  1.00
      L1  H    22    43       P1  7949  0.88
      P1  H 10752 10765       L1    22  1.00
      L1  C    12    36       P1 10175  1.00

> <Gold.PLP.Chemscore.Internal.Correction>
0.3498

> <Gold.Rescore>
     Score         DG    S(hbond)    S(metal)    S(lipo)     H(rot)  DE(clash)    DE(int)     intcor
     11.34     -14.23       3.17        0.00      65.87       3.72       1.54       1.36       ----

> <Gold.Chemscore.Fitness>
11.3411

> <Gold.Chemscore.DG>
-14.2344

> <Gold.Chemscore.ZeroCoef>
-5.4800

> <Gold.Chemscore.Hbond>
3.1652

> <Gold.Chemscore.Metal>
0.0000

> <Gold.Chemscore.Lipo>
65.8662

> <Gold.Chemscore.Internal_Hbond>
0.0000

> <Gold.Chemscore.DEClash>
1.5382

> <Gold.Chemscore.DEInternal>
1.3551

> <Gold.Chemscore.Rot>
3.7202

> <Gold.Chemscore.Internal.Correction>
   9.000000E+99

> <Gold.Chemscore.Hbonds>
donor molecule, donor type, donor heavy atom, donor atom, acceptor molecule, acceptor atom, score
      L1  H     1    30       P1 11000  0.73
      L1  H     1    31       P1 10957  0.98
      L1  H    22    43       P1  7949  0.64
      P1  H 10752 10765       L1    22  0.40

> <Gold.Chemscore.Hbond.Weighted>
-10.5718

> <Gold.Chemscore.Metal.Weighted>
-0.0000

> <Gold.Chemscore.Lipo.Weighted>
-7.7063

> <Gold.Chemscore.Internal_Hbond.Weighted>
0.0000

> <Gold.Chemscore.DEClash.Weighted>
1.5382

> <Gold.Chemscore.DEInternal.Weighted>
1.3551

> <Gold.Chemscore.Rot.Weighted>
9.5237

> <Gold.Chemscore.Internal.Correction.Weighted>
   9.000000E+99

> <Gold.Protein.RotatedTorsions>
[ 6907 6896 6895 6894 ] final -112.76 input  -60.11 | X-H torsion
[ 7974 7965 7964 7962 ] final  154.65 input  175.53 | X-H torsion
[ 8008 7997 7996 7995 ] final  -13.02 input   59.86 | X-H torsion
[ 10167 10162 10161 10158 ] final -109.48 input  -65.29 | X-H torsion
[ 10718 10713 10712 10709 ] final  -75.35 input   66.30 | X-H torsion
[ 10763 10752 10751 10750 ] final  137.73 input  -60.55 | X-H torsion
[ 11005 11000 10999 10996 ] final  152.78 input  -57.11 | X-H torsion

> <Gold.Protein.ActiveResidues>
 VAL166  LYS551  ARG553  GLY616  TRP617  ASP618  TYR619  PRO620  LYS621  CYS622 
 ASP623  PHE694  ASN695  SER759  ASP760  ASP761  ALA762  ILE779  LEU786  VAL792 
 PHE793  MET794  SER795  GLU796  ALA797  LYS798  CYS799  TRP800  GLU811  SER814 

> <Gold.Protein.RotatedAtoms>
  150.7781  133.9042  159.3350 H   0  0  0  0  0  0  0  0  0  0  0  0  # atno 6907 bound_to 6896
  151.6912  135.0944  160.0243 H   0  0  0  0  0  0  0  0  0  0  0  0  # atno 6908 bound_to 6896
  152.3824  133.6526  159.6207 H   0  0  0  0  0  0  0  0  0  0  0  0  # atno 6909 bound_to 6896
  144.8075  139.6962  143.6156 H   0  0  0  0  0  0  0  0  0  0  0  0  # atno 7974 bound_to 7965
  154.5328  140.2261  155.8775 H   0  0  0  0  0  0  0  0  0  0  0  0  # atno 8008 bound_to 7997
  156.1781  140.3106  155.9060 H   0  0  0  0  0  0  0  0  0  0  0  0  # atno 8009 bound_to 7997
  155.3416  140.0451  157.3035 H   0  0  0  0  0  0  0  0  0  0  0  0  # atno 8010 bound_to 7997
  140.1548  143.4169  152.1468 H   0  0  0  0  0  0  0  0  0  0  0  0  # atno 10167 bound_to 10162
  156.0211  130.4438  150.3029 H   0  0  0  0  0  0  0  0  0  0  0  0  # atno 10718 bound_to 10713
  153.8778  135.3048  155.3444 H   0  0  0  0  0  0  0  0  0  0  0  0  # atno 10763 bound_to 10752
  154.7775  135.4853  153.9778 H   0  0  0  0  0  0  0  0  0  0  0  0  # atno 10764 bound_to 10752
  153.1369  135.6816  153.9186 H   0  0  0  0  0  0  0  0  0  0  0  0  # atno 10765 bound_to 10752
  140.1338  134.8784  157.2239 H   0  0  0  0  0  0  0  0  0  0  0  0  # atno 11005 bound_to 11000
  146.2368  139.5922  142.9518 LP  0  0  0  0  0  0  0  0  0  0  0  0  # atno 17320 bound_to 7965
  145.5404  141.0421  143.2334 LP  0  0  0  0  0  0  0  0  0  0  0  0  # atno 17321 bound_to 7965
  139.5408  144.7255  151.4739 LP  0  0  0  0  0  0  0  0  0  0  0  0  # atno 17342 bound_to 10162
  140.6680  143.8356  150.6964 LP  0  0  0  0  0  0  0  0  0  0  0  0  # atno 17343 bound_to 10162
  157.1132  131.0227  151.3040 LP  0  0  0  0  0  0  0  0  0  0  0  0  # atno 17370 bound_to 10713
  157.4688  130.7696  149.7304 LP  0  0  0  0  0  0  0  0  0  0  0  0  # atno 17371 bound_to 10713
  140.2808  134.3352  155.7344 LP  0  0  0  0  0  0  0  0  0  0  0  0  # atno 17394 bound_to 11000
  141.2175  133.7477  156.9361 LP  0  0  0  0  0  0  0  0  0  0  0  0  # atno 17395 bound_to 11000

$$$$
