AV-unprocessed.smi:34|AV-procd|sdf|230|dock1
  -GOLD-   2262015563D 1   1.00000     0.00000
 Structure written by MMmdl.
 55 59  0  0  0  0  0  0  0  0  1 V2000
  152.9128  140.0427  158.1848 O   0  0  0  0  0  0  0  0  0  0  0  0
  152.1800  140.9600  157.8135 C   0  0  0  0  0  0  0  0  0  0  0  0
  151.1872  140.7829  156.7687 N   0  0  0  0  0  0  0  0  0  0  0  0
  150.9674  139.6905  156.0004 C   0  0  0  0  0  0  0  0  0  0  0  0
  150.6990  139.7749  154.6704 N   0  0  0  0  0  0  0  0  0  0  0  0
  150.4836  138.6667  153.9551 C   0  0  0  0  0  0  0  0  0  0  0  0
  150.4841  137.3959  154.3644 N   0  0  0  0  0  0  0  0  0  0  0  0
  150.7496  137.3056  155.6995 C   0  0  0  0  0  0  0  0  0  0  0  0
  151.0015  138.3947  156.5782 C   0  0  0  0  0  0  0  0  0  0  0  0
  151.2353  137.9172  157.8614 N   0  0  0  0  0  0  0  0  0  0  0  0
  151.1296  136.6205  157.7414 C   0  0  0  0  0  0  0  0  0  0  0  0
  150.8242  136.1689  156.4735 N   0  0  0  0  0  0  0  0  0  0  0  0
  150.6346  134.7684  155.9784 C   0  0  1  0  0  0  0  0  0  0  0  0
  150.5855  133.9204  157.0879 O   0  0  0  0  0  0  0  0  0  0  0  0
  149.2229  133.6777  157.4199 C   0  0  2  0  0  0  0  0  0  0  0  0
  149.0897  132.4617  158.3428 C   0  0  0  0  0  0  0  0  0  0  0  0
  148.6381  132.9089  159.6103 O   0  0  0  0  0  0  0  0  0  0  0  0
  147.7667  132.1678  160.3194 C   0  0  0  0  0  0  0  0  0  0  0  0
  147.7079  130.9380  160.2578 O   0  0  0  0  0  0  0  0  0  0  0  0
  146.8777  132.9936  161.1868 C   0  0  0  0  0  0  0  0  0  0  0  0
  147.3511  134.2283  161.6891 C   0  0  0  0  0  0  0  0  0  0  0  0
  146.5341  135.0294  162.5102 C   0  0  0  0  0  0  0  0  0  0  0  0
  145.2327  134.6065  162.8378 C   0  0  0  0  0  0  0  0  0  0  0  0
  144.7493  133.3809  162.3438 C   0  0  0  0  0  0  0  0  0  0  0  0
  145.5654  132.5776  161.5236 C   0  0  0  0  0  0  0  0  0  0  0  0
  148.6066  133.5064  156.0344 C   0  0  2  0  0  0  0  0  0  0  0  0
  148.9741  132.3184  155.5447 F   0  0  0  0  0  0  0  0  0  0  0  0
  149.2708  134.6449  155.2701 C   0  0  2  0  0  0  0  0  0  0  0  0
  149.3712  134.3581  153.8898 O   0  0  0  0  0  0  0  0  0  0  0  0
  152.1985  142.3047  158.4797 C   0  0  0  0  0  0  0  0  0  0  0  0
  151.6293  143.4234  157.8307 C   0  0  0  0  0  0  0  0  0  0  0  0
  151.6297  144.6860  158.4551 C   0  0  0  0  0  0  0  0  0  0  0  0
  152.1914  144.8389  159.7367 C   0  0  0  0  0  0  0  0  0  0  0  0
  152.7489  143.7272  160.3957 C   0  0  0  0  0  0  0  0  0  0  0  0
  152.7499  142.4641  159.7722 C   0  0  0  0  0  0  0  0  0  0  0  0
  150.5961  141.5795  156.5822 H   0  0  0  0  0  0  0  0  0  0  0  0
  150.2810  138.8207  152.9054 H   0  0  0  0  0  0  0  0  0  0  0  0
  151.2717  135.9604  158.5849 H   0  0  0  0  0  0  0  0  0  0  0  0
  151.5052  134.5659  155.3534 H   0  0  0  0  0  0  0  0  0  0  0  0
  148.7931  134.5595  157.8993 H   0  0  0  0  0  0  0  0  0  0  0  0
  148.3620  131.7604  157.9323 H   0  0  0  0  0  0  0  0  0  0  0  0
  150.0421  131.9378  158.4350 H   0  0  0  0  0  0  0  0  0  0  0  0
  148.3466  134.5745  161.4500 H   0  0  0  0  0  0  0  0  0  0  0  0
  146.9070  135.9697  162.8885 H   0  0  0  0  0  0  0  0  0  0  0  0
  144.6060  135.2214  163.4670 H   0  0  0  0  0  0  0  0  0  0  0  0
  143.7504  133.0555  162.5944 H   0  0  0  0  0  0  0  0  0  0  0  0
  145.1623  131.6434  161.1606 H   0  0  0  0  0  0  0  0  0  0  0  0
  147.5174  133.5538  156.0287 H   0  0  0  0  0  0  0  0  0  0  0  0
  148.6962  135.5624  155.4089 H   0  0  0  0  0  0  0  0  0  0  0  0
  149.4854  135.1726  153.4235 H   0  0  0  0  0  0  0  0  0  0  0  0
  151.1936  143.3222  156.8471 H   0  0  0  0  0  0  0  0  0  0  0  0
  151.1976  145.5375  157.9502 H   0  0  0  0  0  0  0  0  0  0  0  0
  152.1908  145.8071  160.2150 H   0  0  0  0  0  0  0  0  0  0  0  0
  153.1742  143.8425  161.3819 H   0  0  0  0  0  0  0  0  0  0  0  0
  153.1738  141.6221  160.2998 H   0  0  0  0  0  0  0  0  0  0  0  0
  1  2  2  0  0  0  0
  2  3  1  0  0  0  0
  2 30  1  0  0  0  0
  3  4  1  0  0  0  0
  3 36  1  0  0  0  0
  4  9  1  0  0  0  0
  4  5  2  0  0  0  0
  5  6  1  0  0  0  0
  6  7  2  0  0  0  0
  6 37  1  0  0  0  0
  7  8  1  0  0  0  0
  8 12  1  0  0  0  0
  8  9  2  0  0  0  0
  9 10  1  0  0  0  0
 10 11  2  0  0  0  0
 11 12  1  0  0  0  0
 11 38  1  0  0  0  0
 12 13  1  0  0  0  0
 13 28  1  0  0  0  0
 13 14  1  0  0  0  0
 13 39  1  0  0  0  0
 14 15  1  0  0  0  0
 15 16  1  0  0  0  0
 15 26  1  0  0  0  0
 15 40  1  0  0  0  0
 16 17  1  0  0  0  0
 16 41  1  0  0  0  0
 16 42  1  0  0  0  0
 17 18  1  0  0  0  0
 18 19  2  0  0  0  0
 18 20  1  0  0  0  0
 20 25  1  0  0  0  0
 20 21  2  0  0  0  0
 21 22  1  0  0  0  0
 21 43  1  0  0  0  0
 22 23  2  0  0  0  0
 22 44  1  0  0  0  0
 23 24  1  0  0  0  0
 23 45  1  0  0  0  0
 24 25  2  0  0  0  0
 24 46  1  0  0  0  0
 25 47  1  0  0  0  0
 26 27  1  0  0  0  0
 26 28  1  0  0  0  0
 26 48  1  0  0  0  0
 28 29  1  0  0  0  0
 28 49  1  0  0  0  0
 29 50  1  0  0  0  0
 30 35  1  0  0  0  0
 30 31  2  0  0  0  0
 31 32  1  0  0  0  0
 31 51  1  0  0  0  0
 32 33  2  0  0  0  0
 32 52  1  0  0  0  0
 33 34  1  0  0  0  0
 33 53  1  0  0  0  0
 34 35  2  0  0  0  0
 34 54  1  0  0  0  0
 35 55  1  0  0  0  0
M  END
> <s_m_source_file>
AV-unprocessed.smi

> <i_m_source_file_index>
34

> <i_lp_mmshare_version>
43012

> <i_f3d_flags>
0

> <s_epik_input>
W2NIXTFbY0hdW2NIXVtjSF1bY0hdYzFDKD1PKVtOSF1jKG5bY0hdbjIpYyhjMjMpbltjSF1uM1tDQEBIXTRPW0NASF0oW0NAQEhdKEYpW0NASF00W09IXSlbQ0gyXU9DKD1PKWM1W2NIXVtjSF1bY0hdW2NIXVtjSF01

> <s_epik_cmdline>
J2VwaWtfcHl0aG9uJywgJy1waCcsICc3LjAnLCAnLXRuJywgJzgnLCAnLW1hJywgJzIwMCcsICctbWV0YWxfYmluZGluZycsICctaW1hZScsICc8aW5maWxlLm1hZT4nLCAnLW9tYWUnLCAnPG91dGZpbGUubWFlPic=

> <r_lp_tautomer_probability>
1

> <r_epik_Ionization_Penalty>
0.00257489

> <r_epik_Ionization_Penalty_Charging>
0

> <r_epik_Ionization_Penalty_Neutral>
0.00257489

> <r_epik_State_Penalty>
0.00519398

> <r_epik_Charging_Adjusted_Penalty>
0.00519398

> <i_epik_Tot_Q>
0

> <i_epik_Tot_abs_Q>
0

> <r_epik_Metal_State_Penalty>
0.335891

> <b_epik_Metal_Only>
0

> <s_epik_Chemistry_Notes>
This compound has an ester and may undergo hydrolysis at high or low pH. This compound contains an acetal/aminal-like group ( X-CH(R)-Y where X, Y are N, S, or O) that may be acid/base labile, releasing an aldehyde.

> <s_lp_Force_Field>
OPLS_2005

> <r_lp_Energy>
45.4918

> <b_lp_Chiralities_Consistent>
1

> <s_lp_Variant>
AV-unprocessed.smi:34-16

> <Gold.Version>
5.8.1

> <Gold.Id.Protein>
6NUR|6NUR_protein|mol2

> <Gold.PLP.Fitness>
61.6207

> <Gold.PLP.PLP>
-54.5815

> <Gold.PLP.part.hbond>
-4.7763

> <Gold.PLP.part.metal>
0.0000

> <Gold.PLP.part.buried>
-6.0096

> <Gold.PLP.part.nonpolar>
-44.0341

> <Gold.PLP.part.repulsive>
0.4692

> <Gold.PLP.ligand.clash>
0.0000

> <Gold.PLP.ligand.torsion>
2.3093

> <Gold.PLP.Chemscore.Hbond>
2.6739

> <Gold.PLP.Chemscore.CHOScore>
1.0000

> <Gold.PLP.Chemscore.Metal>
0.0000

> <Gold.Chemscore.Hbonds>
donor molecule, donor type, donor heavy atom, donor atom, acceptor molecule, acceptor atom, score
      L1  H    29    50       P1  7948  0.55
      P1  H  6896  6909       L1    14  0.14
      P1  H  7989  7998       L1     5  1.00
      P1  H  7997  8008       L1     1  0.98
      L1  C     6    37       P1  7957  1.00

> <Gold.PLP.Chemscore.Internal.Correction>
0.6359

> <Gold.Rescore>
     Score         DG    S(hbond)    S(metal)    S(lipo)     H(rot)  DE(clash)    DE(int)     intcor
     13.64     -18.70       1.40        0.00     132.68       2.72       0.15       4.91       ----

> <Gold.Chemscore.Fitness>
13.6409

> <Gold.Chemscore.DG>
-18.7021

> <Gold.Chemscore.ZeroCoef>
-5.4800

> <Gold.Chemscore.Hbond>
1.3969

> <Gold.Chemscore.Metal>
0.0000

> <Gold.Chemscore.Lipo>
132.6794

> <Gold.Chemscore.Internal_Hbond>
0.0000

> <Gold.Chemscore.DEClash>
0.1512

> <Gold.Chemscore.DEInternal>
4.9101

> <Gold.Chemscore.Rot>
2.7215

> <Gold.Chemscore.Internal.Correction>
   9.000000E+99

> <Gold.Chemscore.Hbonds>
donor molecule, donor type, donor heavy atom, donor atom, acceptor molecule, acceptor atom, score
      L1  H    29    50       P1  7948  0.04
      P1  H  7989  7998       L1     5  0.39
      P1  H  7997  8008       L1     1  0.44

> <Gold.Chemscore.Hbond.Weighted>
-4.6657

> <Gold.Chemscore.Metal.Weighted>
-0.0000

> <Gold.Chemscore.Lipo.Weighted>
-15.5235

> <Gold.Chemscore.Internal_Hbond.Weighted>
0.0000

> <Gold.Chemscore.DEClash.Weighted>
0.1512

> <Gold.Chemscore.DEInternal.Weighted>
4.9101

> <Gold.Chemscore.Rot.Weighted>
6.9670

> <Gold.Chemscore.Internal.Correction.Weighted>
   9.000000E+99

> <Gold.Protein.RotatedTorsions>
[ 6907 6896 6895 6894 ] final  -28.40 input  -60.11 | X-H torsion
[ 7974 7965 7964 7962 ] final -101.96 input  175.53 | X-H torsion
[ 8008 7997 7996 7995 ] final  -74.43 input   59.86 | X-H torsion
[ 10167 10162 10161 10158 ] final -162.59 input  -65.29 | X-H torsion
[ 10718 10713 10712 10709 ] final  177.32 input   66.30 | X-H torsion
[ 10763 10752 10751 10750 ] final  156.50 input  -60.55 | X-H torsion
[ 11005 11000 10999 10996 ] final   10.66 input  -57.11 | X-H torsion

> <Gold.Protein.ActiveResidues>
 VAL166  LYS551  ARG553  GLY616  TRP617  ASP618  TYR619  PRO620  LYS621  CYS622 
 ASP623  PHE694  ASN695  SER759  ASP760  ASP761  ALA762  ILE779  LEU786  VAL792 
 PHE793  MET794  SER795  GLU796  ALA797  LYS798  CYS799  TRP800  GLU811  SER814 

> <Gold.Protein.RotatedAtoms>
  151.1335  135.0143  159.8593 H   0  0  0  0  0  0  0  0  0  0  0  0  # atno 6907 bound_to 6896
  152.5451  134.1582  159.8557 H   0  0  0  0  0  0  0  0  0  0  0  0  # atno 6908 bound_to 6896
  151.1651  133.4775  159.2627 H   0  0  0  0  0  0  0  0  0  0  0  0  # atno 6909 bound_to 6896
  145.2749  140.9309  143.2965 H   0  0  0  0  0  0  0  0  0  0  0  0  # atno 7974 bound_to 7965
  154.5330  140.0761  156.8379 H   0  0  0  0  0  0  0  0  0  0  0  0  # atno 8008 bound_to 7997
  155.3335  140.3403  155.4221 H   0  0  0  0  0  0  0  0  0  0  0  0  # atno 8009 bound_to 7997
  156.1801  140.1649  156.8277 H   0  0  0  0  0  0  0  0  0  0  0  0  # atno 8010 bound_to 7997
  139.6381  144.0311  152.2070 H   0  0  0  0  0  0  0  0  0  0  0  0  # atno 10167 bound_to 10162
  156.9071  130.9897  151.3026 H   0  0  0  0  0  0  0  0  0  0  0  0  # atno 10718 bound_to 10713
  154.1853  135.2797  155.3039 H   0  0  0  0  0  0  0  0  0  0  0  0  # atno 10763 bound_to 10752
  154.5971  135.5541  153.7340 H   0  0  0  0  0  0  0  0  0  0  0  0  # atno 10764 bound_to 10752
  153.0127  135.6382  154.1992 H   0  0  0  0  0  0  0  0  0  0  0  0  # atno 10765 bound_to 10752
  140.5120  134.0643  155.7821 H   0  0  0  0  0  0  0  0  0  0  0  0  # atno 11005 bound_to 11000
  144.9303  139.4306  143.6498 LP  0  0  0  0  0  0  0  0  0  0  0  0  # atno 17320 bound_to 7965
  146.3235  139.8211  142.8926 LP  0  0  0  0  0  0  0  0  0  0  0  0  # atno 17321 bound_to 7965
  139.9994  144.6304  150.7743 LP  0  0  0  0  0  0  0  0  0  0  0  0  # atno 17342 bound_to 10162
  140.7476  143.2909  151.3333 LP  0  0  0  0  0  0  0  0  0  0  0  0  # atno 17343 bound_to 10162
  157.5990  130.8499  149.8773 LP  0  0  0  0  0  0  0  0  0  0  0  0  # atno 17370 bound_to 10713
  156.0554  130.3709  150.1104 LP  0  0  0  0  0  0  0  0  0  0  0  0  # atno 17371 bound_to 10713
  141.1380  133.9187  157.2389 LP  0  0  0  0  0  0  0  0  0  0  0  0  # atno 17394 bound_to 11000
  139.9653  135.0143  156.9372 LP  0  0  0  0  0  0  0  0  0  0  0  0  # atno 17395 bound_to 11000

$$$$
