AV-unprocessed.smi:928|AV-procd|sdf|4193|dock7
  -GOLD-   22720 2103D 1   1.00000     0.00000
 Structure written by MMmdl.
 43 44  0  0  0  0  0  0  0  0  1 V2000
  151.2358  140.8166  157.5671 C   0  0  0  0  0  0  0  0  0  0  0  0
  151.0309  141.4743  156.1981 C   0  0  0  0  0  0  0  0  0  0  0  0
  150.1063  140.7077  155.3113 C   0  0  0  0  0  0  0  0  0  0  0  0
  150.2409  139.4103  154.8826 C   0  0  0  0  0  0  0  0  0  0  0  0
  149.1955  138.9738  154.0659 N   0  0  0  0  0  0  0  0  0  0  0  0
  148.2815  139.9236  153.8566 C   0  0  0  0  0  0  0  0  0  0  0  0
  147.0421  139.7113  153.0545 C   0  0  0  0  0  0  0  0  0  0  0  0
  146.2200  138.5155  153.5608 C   0  0  0  0  0  0  0  0  0  0  0  0
  146.5867  137.2806  152.8781 N   0  0  0  0  0  0  0  0  0  0  0  0
  145.7422  136.2788  152.5981 C   0  0  0  0  0  0  0  0  0  0  0  0
  144.5466  136.2810  152.8920 O   0  0  0  0  0  0  0  0  0  0  0  0
  146.3590  135.2741  151.9612 N   0  0  0  0  0  0  0  0  0  0  0  0
  145.7211  134.0356  151.5190 C   0  0  2  0  0  0  0  0  0  0  0  0
  146.5947  133.2779  150.4972 C   0  0  0  0  0  0  0  0  0  0  0  0
  145.9115  131.9780  150.0429 C   0  0  0  0  0  0  0  0  0  0  0  0
  144.5072  132.2478  149.4786 C   0  0  0  0  0  0  0  0  0  0  0  0
  143.6319  133.0173  150.4853 C   0  0  0  0  0  0  0  0  0  0  0  0
  144.3056  134.3176  150.9655 C   0  0  2  0  0  0  0  0  0  0  0  0
  144.3540  135.2342  149.8871 O   0  0  0  0  0  0  0  0  0  0  0  0
  148.6445  141.4302  154.6895 S   0  0  0  0  0  0  0  0  0  0  0  0
  151.9205  141.4020  158.1810 H   0  0  0  0  0  0  0  0  0  0  0  0
  151.6551  139.8154  157.4626 H   0  0  0  0  0  0  0  0  0  0  0  0
  150.2936  140.7305  158.1091 H   0  0  0  0  0  0  0  0  0  0  0  0
  150.6426  142.4838  156.3371 H   0  0  0  0  0  0  0  0  0  0  0  0
  151.9969  141.5885  155.7054 H   0  0  0  0  0  0  0  0  0  0  0  0
  151.0432  138.7255  155.1147 H   0  0  0  0  0  0  0  0  0  0  0  0
  146.4446  140.6230  153.0917 H   0  0  0  0  0  0  0  0  0  0  0  0
  147.3238  139.5652  152.0108 H   0  0  0  0  0  0  0  0  0  0  0  0
  146.3410  138.3975  154.6390 H   0  0  0  0  0  0  0  0  0  0  0  0
  145.1588  138.6944  153.3855 H   0  0  0  0  0  0  0  0  0  0  0  0
  147.5512  137.1846  152.5962 H   0  0  0  0  0  0  0  0  0  0  0  0
  147.3448  135.3699  151.7686 H   0  0  0  0  0  0  0  0  0  0  0  0
  145.5983  133.3930  152.3935 H   0  0  0  0  0  0  0  0  0  0  0  0
  146.7932  133.9102  149.6308 H   0  0  0  0  0  0  0  0  0  0  0  0
  147.5659  133.0414  150.9338 H   0  0  0  0  0  0  0  0  0  0  0  0
  146.5244  131.4796  149.2913 H   0  0  0  0  0  0  0  0  0  0  0  0
  145.8385  131.2912  150.8870 H   0  0  0  0  0  0  0  0  0  0  0  0
  144.5898  132.8168  148.5519 H   0  0  0  0  0  0  0  0  0  0  0  0
  144.0264  131.3051  149.2162 H   0  0  0  0  0  0  0  0  0  0  0  0
  142.6581  133.2352  150.0449 H   0  0  0  0  0  0  0  0  0  0  0  0
  143.4382  132.3775  151.3472 H   0  0  0  0  0  0  0  0  0  0  0  0
  143.6929  134.7671  151.7478 H   0  0  0  0  0  0  0  0  0  0  0  0
  144.8772  134.8581  149.1965 H   0  0  0  0  0  0  0  0  0  0  0  0
  1  2  1  0  0  0  0
  1 21  1  0  0  0  0
  1 22  1  0  0  0  0
  1 23  1  0  0  0  0
  2  3  1  0  0  0  0
  2 24  1  0  0  0  0
  2 25  1  0  0  0  0
  3 20  1  0  0  0  0
  3  4  2  0  0  0  0
  4  5  1  0  0  0  0
  4 26  1  0  0  0  0
  5  6  2  0  0  0  0
  6  7  1  0  0  0  0
  6 20  1  0  0  0  0
  7  8  1  0  0  0  0
  7 27  1  0  0  0  0
  7 28  1  0  0  0  0
  8  9  1  0  0  0  0
  8 29  1  0  0  0  0
  8 30  1  0  0  0  0
  9 10  1  0  0  0  0
  9 31  1  0  0  0  0
 10 11  2  0  0  0  0
 10 12  1  0  0  0  0
 12 13  1  0  0  0  0
 12 32  1  0  0  0  0
 13 18  1  0  0  0  0
 13 14  1  0  0  0  0
 13 33  1  0  0  0  0
 14 15  1  0  0  0  0
 14 34  1  0  0  0  0
 14 35  1  0  0  0  0
 15 16  1  0  0  0  0
 15 36  1  0  0  0  0
 15 37  1  0  0  0  0
 16 17  1  0  0  0  0
 16 38  1  0  0  0  0
 16 39  1  0  0  0  0
 17 18  1  0  0  0  0
 17 40  1  0  0  0  0
 17 41  1  0  0  0  0
 18 19  1  0  0  0  0
 18 42  1  0  0  0  0
 19 43  1  0  0  0  0
M  END
> <s_m_source_file>
AV-unprocessed.smi

> <i_m_source_file_index>
928

> <i_lp_mmshare_version>
43012

> <i_f3d_flags>
0

> <s_epik_input>
W0NIM11bQ0gyXWMxW2NIXW5jKHMxKVtDSDJdW0NIMl1bTkhdQyg9TylbTkhdW0NAQEhdMltDSDJdW0NIMl1bQ0gyXVtDSDJdW0NASF0yW09IXQ==

> <s_epik_cmdline>
J2VwaWtfcHl0aG9uJywgJy1waCcsICc3LjAnLCAnLXRuJywgJzgnLCAnLW1hJywgJzIwMCcsICctbWV0YWxfYmluZGluZycsICctaW1hZScsICc8aW5maWxlLm1hZT4nLCAnLW9tYWUnLCAnPG91dGZpbGUubWFlPic=

> <r_epik_Ionization_Penalty>
0.000957396

> <r_epik_Ionization_Penalty_Charging>
0

> <r_epik_Ionization_Penalty_Neutral>
0.000957396

> <r_epik_State_Penalty>
0.000586538

> <r_epik_Charging_Adjusted_Penalty>
0.000586538

> <i_epik_Tot_Q>
0

> <i_epik_Tot_abs_Q>
0

> <r_epik_Metal_State_Penalty>
-0

> <b_epik_Metal_Only>
0

> <s_lp_Force_Field>
OPLS_2005

> <r_lp_Energy>
-0.721606

> <b_lp_Chiralities_Consistent>
1

> <s_lp_Variant>
AV-unprocessed.smi:928-3

> <Gold.Version>
5.8.1

> <Gold.Id.Protein>
6NUR|6NUR_protein|mol2

> <Gold.PLP.Fitness>
45.8887

> <Gold.PLP.PLP>
-38.1680

> <Gold.PLP.part.hbond>
-3.0000

> <Gold.PLP.part.metal>
0.0000

> <Gold.PLP.part.buried>
-3.0722

> <Gold.PLP.part.nonpolar>
-32.3993

> <Gold.PLP.part.repulsive>
0.4449

> <Gold.PLP.ligand.clash>
0.0000

> <Gold.PLP.ligand.torsion>
0.6525

> <Gold.PLP.Chemscore.Hbond>
3.0000

> <Gold.PLP.Chemscore.CHOScore>
0.0000

> <Gold.PLP.Chemscore.Metal>
0.0000

> <Gold.Chemscore.Hbonds>
donor molecule, donor type, donor heavy atom, donor atom, acceptor molecule, acceptor atom, score
      L1  H     9    31       P1  7948  1.00
      L1  H    12    32       P1  7948  1.00
      L1  H    19    43       P1  7921  1.00

> <Gold.PLP.Chemscore.Internal.Correction>
0.0258

> <Gold.Rescore>
     Score         DG    S(hbond)    S(metal)    S(lipo)     H(rot)  DE(clash)    DE(int)     intcor
     19.47     -21.43       2.89        0.00     102.02       2.21       0.06       1.90       ----

> <Gold.Chemscore.Fitness>
19.4662

> <Gold.Chemscore.DG>
-21.4306

> <Gold.Chemscore.ZeroCoef>
-5.4800

> <Gold.Chemscore.Hbond>
2.8946

> <Gold.Chemscore.Metal>
0.0000

> <Gold.Chemscore.Lipo>
102.0195

> <Gold.Chemscore.Internal_Hbond>
0.0000

> <Gold.Chemscore.DEClash>
0.0611

> <Gold.Chemscore.DEInternal>
1.9033

> <Gold.Chemscore.Rot>
2.2084

> <Gold.Chemscore.Internal.Correction>
   9.000000E+99

> <Gold.Chemscore.Hbonds>
donor molecule, donor type, donor heavy atom, donor atom, acceptor molecule, acceptor atom, score
      L1  H     9    31       P1  7948  0.96
      L1  H    12    32       P1  7948  0.97
      L1  H    19    43       P1  7921  0.95

> <Gold.Chemscore.Hbond.Weighted>
-9.6679

> <Gold.Chemscore.Metal.Weighted>
-0.0000

> <Gold.Chemscore.Lipo.Weighted>
-11.9363

> <Gold.Chemscore.Internal_Hbond.Weighted>
0.0000

> <Gold.Chemscore.DEClash.Weighted>
0.0611

> <Gold.Chemscore.DEInternal.Weighted>
1.9033

> <Gold.Chemscore.Rot.Weighted>
5.6535

> <Gold.Chemscore.Internal.Correction.Weighted>
   9.000000E+99

> <Gold.Protein.RotatedTorsions>
[ 6907 6896 6895 6894 ] final   15.69 input  -60.11 | X-H torsion
[ 7974 7965 7964 7962 ] final   39.27 input  175.53 | X-H torsion
[ 8008 7997 7996 7995 ] final   10.96 input   59.86 | X-H torsion
[ 10167 10162 10161 10158 ] final  133.38 input  -65.29 | X-H torsion
[ 10718 10713 10712 10709 ] final -147.68 input   66.30 | X-H torsion
[ 10763 10752 10751 10750 ] final  154.61 input  -60.55 | X-H torsion
[ 11005 11000 10999 10996 ] final -158.84 input  -57.11 | X-H torsion

> <Gold.Protein.ActiveResidues>
 VAL166  LYS551  ARG553  GLY616  TRP617  ASP618  TYR619  PRO620  LYS621  CYS622 
 ASP623  PHE694  ASN695  SER759  ASP760  ASP761  ALA762  ILE779  LEU786  VAL792 
 PHE793  MET794  SER795  GLU796  ALA797  LYS798  CYS799  TRP800  GLU811  SER814 

> <Gold.Protein.RotatedAtoms>
  151.8221  135.0648  160.0426 H   0  0  0  0  0  0  0  0  0  0  0  0  # atno 6907 bound_to 6896
  152.2943  133.5588  159.5586 H   0  0  0  0  0  0  0  0  0  0  0  0  # atno 6908 bound_to 6896
  150.7244  134.0299  159.3772 H   0  0  0  0  0  0  0  0  0  0  0  0  # atno 6909 bound_to 6896
  146.0997  139.5672  142.9422 H   0  0  0  0  0  0  0  0  0  0  0  0  # atno 7974 bound_to 7965
  154.8004  140.2851  155.5926 H   0  0  0  0  0  0  0  0  0  0  0  0  # atno 8008 bound_to 7997
  156.2976  140.2587  156.2800 H   0  0  0  0  0  0  0  0  0  0  0  0  # atno 8009 bound_to 7997
  154.9565  140.0378  157.2159 H   0  0  0  0  0  0  0  0  0  0  0  0  # atno 8010 bound_to 7997
  139.5299  144.6618  151.4988 H   0  0  0  0  0  0  0  0  0  0  0  0  # atno 10167 bound_to 10162
  156.4105  130.7979  151.2196 H   0  0  0  0  0  0  0  0  0  0  0  0  # atno 10718 bound_to 10713
  154.1551  135.2813  155.3124 H   0  0  0  0  0  0  0  0  0  0  0  0  # atno 10763 bound_to 10752
  154.6188  135.5474  153.7556 H   0  0  0  0  0  0  0  0  0  0  0  0  # atno 10764 bound_to 10752
  153.0209  135.6434  154.1694 H   0  0  0  0  0  0  0  0  0  0  0  0  # atno 10765 bound_to 10752
  140.6492  134.4469  157.5235 H   0  0  0  0  0  0  0  0  0  0  0  0  # atno 11005 bound_to 11000
  145.5878  141.0374  143.2087 LP  0  0  0  0  0  0  0  0  0  0  0  0  # atno 17320 bound_to 7965
  144.7423  139.7414  143.7306 LP  0  0  0  0  0  0  0  0  0  0  0  0  # atno 17321 bound_to 7965
  140.6470  143.8774  150.6747 LP  0  0  0  0  0  0  0  0  0  0  0  0  # atno 17342 bound_to 10162
  140.2127  143.3871  152.1706 LP  0  0  0  0  0  0  0  0  0  0  0  0  # atno 17343 bound_to 10162
  157.7507  131.0259  150.3938 LP  0  0  0  0  0  0  0  0  0  0  0  0  # atno 17370 bound_to 10713
  156.4236  130.3958  149.6808 LP  0  0  0  0  0  0  0  0  0  0  0  0  # atno 17371 bound_to 10713
  139.9052  134.8465  156.1735 LP  0  0  0  0  0  0  0  0  0  0  0  0  # atno 17394 bound_to 11000
  141.0549  133.6870  156.1842 LP  0  0  0  0  0  0  0  0  0  0  0  0  # atno 17395 bound_to 11000

$$$$
