AV-unprocessed.smi:1785|AV-procd|sdf|7200|dock1
  -GOLD-   22720 8443D 1   1.00000     0.00000
 Structure written by MMmdl.
 28 29  0  0  0  0  0  0  0  0  1 V2000
  151.7693  144.3129  157.5656 C   0  0  0  0  0  0  0  0  0  0  0  0
  151.9750  143.9015  159.0147 C   0  0  0  0  0  0  0  0  0  0  0  0
  152.0083  144.8949  160.0162 C   0  0  0  0  0  0  0  0  0  0  0  0
  152.1986  144.5128  161.3552 C   0  0  0  0  0  0  0  0  0  0  0  0
  152.3480  143.1443  161.6374 C   0  0  0  0  0  0  0  0  0  0  0  0
  152.3170  142.1881  160.6869 N   0  0  0  0  0  0  0  0  0  0  0  0
  152.1348  142.5401  159.3891 C   0  0  0  0  0  0  0  0  0  0  0  0
  152.0918  141.5876  158.3325 N   0  0  0  0  0  0  0  0  0  0  0  0
  152.1443  140.2428  158.4008 C   0  0  0  0  0  0  0  0  0  0  0  0
  152.2427  139.6091  159.4531 O   0  0  0  0  0  0  0  0  0  0  0  0
  152.0714  139.6426  157.0741 C   0  0  0  0  0  0  0  0  0  0  0  0
  151.1377  140.0775  156.1964 C   0  0  0  0  0  0  0  0  0  0  0  0
  150.9650  139.5475  154.9421 O   0  0  0  0  0  0  0  0  0  0  0  0
  151.6652  138.3309  154.7110 C   0  0  0  0  0  0  0  0  0  0  0  0
  153.0705  138.3978  155.3265 C   0  0  0  0  0  0  0  0  0  0  0  0
  152.9847  138.6729  156.7207 O   0  0  0  0  0  0  0  0  0  0  0  0
  151.6805  145.3954  157.4686 H   0  0  0  0  0  0  0  0  0  0  0  0
  150.8583  143.8647  157.1679 H   0  0  0  0  0  0  0  0  0  0  0  0
  152.6115  143.9903  156.9528 H   0  0  0  0  0  0  0  0  0  0  0  0
  151.8899  145.9387  159.7646 H   0  0  0  0  0  0  0  0  0  0  0  0
  152.2297  145.2492  162.1445 H   0  0  0  0  0  0  0  0  0  0  0  0
  152.4965  142.8076  162.6528 H   0  0  0  0  0  0  0  0  0  0  0  0
  152.0120  141.9755  157.4039 H   0  0  0  0  0  0  0  0  0  0  0  0
  150.4105  140.8499  156.4027 H   0  0  0  0  0  0  0  0  0  0  0  0
  151.0998  137.5039  155.1428 H   0  0  0  0  0  0  0  0  0  0  0  0
  151.7262  138.1525  153.6373 H   0  0  0  0  0  0  0  0  0  0  0  0
  153.5964  137.4541  155.1808 H   0  0  0  0  0  0  0  0  0  0  0  0
  153.6637  139.1747  154.8422 H   0  0  0  0  0  0  0  0  0  0  0  0
  1  2  1  0  0  0  0
  1 17  1  0  0  0  0
  1 18  1  0  0  0  0
  1 19  1  0  0  0  0
  2  7  1  0  0  0  0
  2  3  2  0  0  0  0
  3  4  1  0  0  0  0
  3 20  1  0  0  0  0
  4  5  2  0  0  0  0
  4 21  1  0  0  0  0
  5  6  1  0  0  0  0
  5 22  1  0  0  0  0
  6  7  2  0  0  0  0
  7  8  1  0  0  0  0
  8  9  1  0  0  0  0
  8 23  1  0  0  0  0
  9 10  2  0  0  0  0
  9 11  1  0  0  0  0
 11 16  1  0  0  0  0
 11 12  2  0  0  0  0
 12 13  1  0  0  0  0
 12 24  1  0  0  0  0
 13 14  1  0  0  0  0
 14 15  1  0  0  0  0
 14 25  1  0  0  0  0
 14 26  1  0  0  0  0
 15 16  1  0  0  0  0
 15 27  1  0  0  0  0
 15 28  1  0  0  0  0
M  END
> <s_m_source_file>
AV-unprocessed.smi

> <i_m_source_file_index>
1785

> <i_lp_mmshare_version>
43012

> <i_f3d_flags>
0

> <s_epik_input>
W0NIM11jMVtjSF1bY0hdW2NIXW5jMVtOSF1DKD1PKUMyPVtDSF1PW0NIMl1bQ0gyXU8y

> <s_epik_cmdline>
J2VwaWtfcHl0aG9uJywgJy1waCcsICc3LjAnLCAnLXRuJywgJzgnLCAnLW1hJywgJzIwMCcsICctbWV0YWxfYmluZGluZycsICctaW1hZScsICc8aW5maWxlLm1hZT4nLCAnLW9tYWUnLCAnPG91dGZpbGUubWFlPic=

> <r_lp_tautomer_probability>
1

> <r_epik_Ionization_Penalty>
8.87723e-05

> <r_epik_Ionization_Penalty_Charging>
0

> <r_epik_Ionization_Penalty_Neutral>
8.87723e-05

> <r_epik_State_Penalty>
-0

> <r_epik_Charging_Adjusted_Penalty>
0

> <i_epik_Tot_Q>
0

> <i_epik_Tot_abs_Q>
0

> <r_epik_Metal_State_Penalty>
0.0224094

> <b_epik_Metal_Only>
0

> <s_lp_Force_Field>
OPLS_2005

> <r_lp_Energy>
4.55211

> <b_lp_Chiralities_Consistent>
1

> <s_lp_Variant>
AV-unprocessed.smi:1785-1

> <Gold.Version>
5.8.1

> <Gold.Id.Protein>
6NUR|6NUR_protein|mol2

> <Gold.PLP.Fitness>
41.9302

> <Gold.PLP.PLP>
-38.9458

> <Gold.PLP.part.hbond>
-2.0000

> <Gold.PLP.part.metal>
0.0000

> <Gold.PLP.part.buried>
-5.5645

> <Gold.PLP.part.nonpolar>
-31.7211

> <Gold.PLP.part.repulsive>
0.1722

> <Gold.PLP.ligand.clash>
0.0000

> <Gold.PLP.ligand.torsion>
0.8184

> <Gold.PLP.Chemscore.Hbond>
1.5400

> <Gold.PLP.Chemscore.CHOScore>
0.0000

> <Gold.PLP.Chemscore.Metal>
0.0000

> <Gold.Chemscore.Hbonds>
donor molecule, donor type, donor heavy atom, donor atom, acceptor molecule, acceptor atom, score
      P1  H  7989  7998       L1    13  0.91
      P1  H  7997  8010       L1    16  0.27

> <Gold.PLP.Chemscore.Internal.Correction>
0.0012

> <Gold.Rescore>
     Score         DG    S(hbond)    S(metal)    S(lipo)     H(rot)  DE(clash)    DE(int)     intcor
     17.61     -19.32       0.95        0.00      91.22       0.00       0.05       1.66       ----

> <Gold.Chemscore.Fitness>
17.6141

> <Gold.Chemscore.DG>
-19.3234

> <Gold.Chemscore.ZeroCoef>
-5.4800

> <Gold.Chemscore.Hbond>
0.9493

> <Gold.Chemscore.Metal>
0.0000

> <Gold.Chemscore.Lipo>
91.2195

> <Gold.Chemscore.Internal_Hbond>
0.0000

> <Gold.Chemscore.DEClash>
0.0485

> <Gold.Chemscore.DEInternal>
1.6608

> <Gold.Chemscore.Rot>
0.0000

> <Gold.Chemscore.Internal.Correction>
   9.000000E+99

> <Gold.Chemscore.Hbonds>
donor molecule, donor type, donor heavy atom, donor atom, acceptor molecule, acceptor atom, score
      P1  H  7989  7998       L1    13  0.38

> <Gold.Chemscore.Hbond.Weighted>
-3.1707

> <Gold.Chemscore.Metal.Weighted>
-0.0000

> <Gold.Chemscore.Lipo.Weighted>
-10.6727

> <Gold.Chemscore.Internal_Hbond.Weighted>
0.0000

> <Gold.Chemscore.DEClash.Weighted>
0.0485

> <Gold.Chemscore.DEInternal.Weighted>
1.6608

> <Gold.Chemscore.Rot.Weighted>
0.0000

> <Gold.Chemscore.Internal.Correction.Weighted>
   9.000000E+99

> <Gold.Protein.RotatedTorsions>
[ 6907 6896 6895 6894 ] final  -29.66 input  -60.11 | X-H torsion
[ 7974 7965 7964 7962 ] final   10.73 input  175.53 | X-H torsion
[ 8008 7997 7996 7995 ] final   64.38 input   59.86 | X-H torsion
[ 10167 10162 10161 10158 ] final  -77.95 input  -65.29 | X-H torsion
[ 10718 10713 10712 10709 ] final  -92.12 input   66.30 | X-H torsion
[ 10763 10752 10751 10750 ] final  120.29 input  -60.55 | X-H torsion
[ 11005 11000 10999 10996 ] final   55.62 input  -57.11 | X-H torsion

> <Gold.Protein.ActiveResidues>
 VAL166  LYS551  ARG553  GLY616  TRP617  ASP618  TYR619  PRO620  LYS621  CYS622 
 ASP623  PHE694  ASN695  SER759  ASP760  ASP761  ALA762  ILE779  LEU786  VAL792 
 PHE793  MET794  SER795  GLU796  ALA797  LYS798  CYS799  TRP800  GLU811  SER814 

> <Gold.Protein.RotatedAtoms>
  151.1162  135.0054  159.8516 H   0  0  0  0  0  0  0  0  0  0  0  0  # atno 6907 bound_to 6896
  152.5445  134.1777  159.8633 H   0  0  0  0  0  0  0  0  0  0  0  0  # atno 6908 bound_to 6896
  151.1832  133.4668  159.2627 H   0  0  0  0  0  0  0  0  0  0  0  0  # atno 6909 bound_to 6896
  146.2383  139.9590  142.8461 H   0  0  0  0  0  0  0  0  0  0  0  0  # atno 7974 bound_to 7965
  155.6451  140.3497  155.4728 H   0  0  0  0  0  0  0  0  0  0  0  0  # atno 8008 bound_to 7997
  155.9894  140.1190  157.0675 H   0  0  0  0  0  0  0  0  0  0  0  0  # atno 8009 bound_to 7997
  154.4214  140.1122  156.5531 H   0  0  0  0  0  0  0  0  0  0  0  0  # atno 8010 bound_to 7997
  140.4725  143.2423  151.8182 H   0  0  0  0  0  0  0  0  0  0  0  0  # atno 10167 bound_to 10162
  155.9999  130.4974  150.5578 H   0  0  0  0  0  0  0  0  0  0  0  0  # atno 10718 bound_to 10713
  153.5962  135.3456  155.2929 H   0  0  0  0  0  0  0  0  0  0  0  0  # atno 10763 bound_to 10752
  154.8644  135.4216  154.2462 H   0  0  0  0  0  0  0  0  0  0  0  0  # atno 10764 bound_to 10752
  153.3281  135.7042  153.7043 H   0  0  0  0  0  0  0  0  0  0  0  0  # atno 10765 bound_to 10752
  140.0593  134.5626  155.9171 H   0  0  0  0  0  0  0  0  0  0  0  0  # atno 11005 bound_to 11000
  145.1789  140.9757  143.4278 LP  0  0  0  0  0  0  0  0  0  0  0  0  # atno 17320 bound_to 7965
  144.9960  139.3643  143.6191 LP  0  0  0  0  0  0  0  0  0  0  0  0  # atno 17321 bound_to 7965
  139.4820  144.4873  151.9230 LP  0  0  0  0  0  0  0  0  0  0  0  0  # atno 17342 bound_to 10162
  140.3959  144.2556  150.5896 LP  0  0  0  0  0  0  0  0  0  0  0  0  # atno 17343 bound_to 10162
  157.3491  131.0730  151.1727 LP  0  0  0  0  0  0  0  0  0  0  0  0  # atno 17370 bound_to 10713
  157.2550  130.6632  149.5948 LP  0  0  0  0  0  0  0  0  0  0  0  0  # atno 17371 bound_to 10713
  141.1966  133.6592  156.5699 LP  0  0  0  0  0  0  0  0  0  0  0  0  # atno 17394 bound_to 11000
  140.3796  134.7535  157.4652 LP  0  0  0  0  0  0  0  0  0  0  0  0  # atno 17395 bound_to 11000

$$$$
