#       Name:                AV-unprocessed.smi:435
#       Creating user name   scv26
#       Creation time:       Thu Mar 26 22:52:23 2020


#       File generated by GOLD software.
#

@<TRIPOS>MOLECULE
AV-unprocessed.smi:435
    50    51     1
SMALL
NO_CHARGES


@<TRIPOS>ATOM
      1 ****        -4.7253   0.7934  -3.1993 C.3            1 S1                 0.0000
      2 ****        -3.7479  -0.2728  -2.7835 C.2            1 S1                 0.0000
      3 ****        -2.5341   0.1098  -2.5580 N.2            1 S1                 0.0000
      4 ****        -1.5569  -0.7870  -2.1717 N.am           1 S1                 0.0000
      5 ****        -0.2410  -0.1752  -1.9342 C.3            1 S1                 0.0000
      6 ****         0.0739   0.0374  -0.4459 C.2            1 S1                 0.0000
      7 ****        -0.8301   0.0968   0.3890 O.2            1 S1                 0.0000
      8 ****         1.3722   0.1692  -0.1345 N.am           1 S1                 0.0000
      9 ****         1.9026   0.3715   1.2103 C.3            1 S1                 0.0000
     10 ****         1.8018   1.8544   1.6211 C.3            1 S1                 0.0000
     11 ****         2.4285   2.0984   3.0035 C.3            1 S1                 0.0000
     12 ****         3.8925   1.6218   3.0561 C.3            1 S1                 0.0000
     13 ****         4.5129   1.8641   4.4392 C.3            1 S1                 0.0000
     14 ****         3.9877   0.1395   2.6475 C.3            1 S1                 0.0000
     15 ****         3.3645  -0.1075   1.2642 C.3            1 S1                 0.0000
     16 ****        -1.7529  -2.1278  -2.0115 C.2            1 S1                 0.0000
     17 ****        -0.8467  -2.8953  -1.6836 O.2            1 S1                 0.0000
     18 ****        -3.1314  -2.5533  -2.2633 C.2            1 S1                 0.0000
     19 ****        -3.3825  -3.9486  -2.0982 C.1            1 S1                 0.0000
     20 ****        -3.6047  -5.0778  -1.9733 N.1            1 S1                 0.0000
     21 ****        -4.1031  -1.6801  -2.6284 C.2            1 S1                 0.0000
     22 ****        -5.5481  -2.0743  -2.9026 C.3            1 S1                 0.0000
     23 ****        -5.2355   0.5150  -4.1214 H              1 S1                 0.0000
     24 ****        -4.2323   1.7507  -3.3745 H              1 S1                 0.0000
     25 ****        -5.4797   0.9469  -2.4278 H              1 S1                 0.0000
     26 ****         0.5400  -0.7878  -2.3886 H              1 S1                 0.0000
     27 ****        -0.1788   0.7938  -2.4325 H              1 S1                 0.0000
     28 ****         2.0460   0.1154  -0.8848 H              1 S1                 0.0000
     29 ****         1.3233  -0.2303   1.9133 H              1 S1                 0.0000
     30 ****         2.3047   2.4783   0.8810 H              1 S1                 0.0000
     31 ****         0.7588   2.1729   1.6348 H              1 S1                 0.0000
     32 ****         2.3727   3.1601   3.2465 H              1 S1                 0.0000
     33 ****         1.8433   1.5776   3.7627 H              1 S1                 0.0000
     34 ****         4.4630   2.2072   2.3335 H              1 S1                 0.0000
     35 ****         3.9881   1.3036   5.2134 H              1 S1                 0.0000
     36 ****         4.4733   2.9201   4.7082 H              1 S1                 0.0000
     37 ****         5.5593   1.5589   4.4586 H              1 S1                 0.0000
     38 ****         5.0307  -0.1788   2.6391 H              1 S1                 0.0000
     39 ****         3.4820  -0.4811   3.3886 H              1 S1                 0.0000
     40 ****         3.4186  -1.1698   1.0232 H              1 S1                 0.0000
     41 ****         3.9529   0.4115   0.5061 H              1 S1                 0.0000
     42 ****        -5.7567  -3.1018  -2.6060 H              1 S1                 0.0000
     43 ****        -5.7698  -1.9838  -3.9661 H              1 S1                 0.0000
     44 ****        -6.2378  -1.4347  -2.3513 H              1 S1                 0.0000
     45 ****        -2.2973   1.0754  -2.6654 LP             1 S1                 0.0000
     46 ****        -1.7834   0.0062   0.1010 LP             1 S1                 0.0000
     47 ****        -0.6105   0.2356   1.3547 LP             1 S1                 0.0000
     48 ****         0.0750  -2.5416  -1.5241 LP             1 S1                 0.0000
     49 ****        -1.0327  -3.8720  -1.5769 LP             1 S1                 0.0000
     50 ****        -3.7966  -6.0533  -1.8654 LP             1 S1                 0.0000
@<TRIPOS>BOND
    1    1    2 1     
    2    1   23 1     
    3    1   24 1     
    4    1   25 1     
    5    2   21 1     
    6    2    3 2     
    7    3    4 1     
    8    4    5 1     
    9    4   16 am    
   10    5    6 1     
   11    5   26 1     
   12    5   27 1     
   13    6    7 2     
   14    6    8 am    
   15    8    9 1     
   16    8   28 1     
   17    9   15 1     
   18    9   10 1     
   19    9   29 1     
   20   10   11 1     
   21   10   30 1     
   22   10   31 1     
   23   11   12 1     
   24   11   32 1     
   25   11   33 1     
   26   12   13 1     
   27   12   14 1     
   28   12   34 1     
   29   13   35 1     
   30   13   36 1     
   31   13   37 1     
   32   14   15 1     
   33   14   38 1     
   34   14   39 1     
   35   15   40 1     
   36   15   41 1     
   37   16   17 2     
   38   16   18 1     
   39   18   19 1     
   40   18   21 2     
   41   19   20 3     
   42   21   22 1     
   43   22   42 1     
   44   22   43 1     
   45   22   44 1     
   46    3   45 1     
   47    7   46 1     
   48    7   47 1     
   49   17   48 1     
   50   17   49 1     
   51   20   50 1     
@<TRIPOS>SUBSTRUCTURE
      1 S1             1
@<TRIPOS>SET
LONE_PAIRS      STATIC     ATOMS    <user>   **** ""
6 45 46 47 48 49 50
DONOR_HYDROGENS      STATIC     ATOMS    <user>   **** ""
1 28
ATOM$BLUE        STATIC     ATOMS    COLORGROUP SYSTEM
6 45 46 47 48 49 50
ATOM$RED        STATIC     ATOMS    COLORGROUP SYSTEM
1 28
