AV-unprocessed.smi:112|AV-procd|sdf|1088|dock5
  -GOLD-   2262018183D 1   1.00000     0.00000
 Structure written by MMmdl.
 54 57  0  0  0  0  0  0  0  0  3 V2000
  150.0027  138.0220  154.0310 C   0  0  0  0  0  0  0  0  0  0  0  0
  149.4814  139.0284  155.0452 C   0  0  0  0  0  0  0  0  0  0  0  0
  148.2529  138.9197  155.6014 C   0  0  0  0  0  0  0  0  0  0  0  0
  147.7437  139.8151  156.5288 N   0  0  0  0  0  0  0  0  0  0  0  0
  146.3887  139.6314  157.2014 C   0  0  1  0  0  0  0  0  0  0  0  0
  145.4398  140.8338  157.0896 C   0  0  0  0  0  0  0  0  0  0  0  0
  144.4600  140.4124  155.9942 C   0  0  1  0  0  0  0  0  0  0  0  0
  144.4139  141.3784  154.9632 O   0  0  0  0  0  0  0  0  0  0  0  0
  144.9980  139.0627  155.4847 C   0  0  2  0  0  0  0  0  0  0  0  0
  143.9169  138.0427  155.0955 C   0  0  0  0  0  0  0  0  0  0  0  0
  143.0965  138.5563  154.0676 O   0  0  0  0  0  0  0  0  0  0  0  0
  145.7394  138.5633  156.5904 O   0  0  0  0  0  0  0  0  0  0  0  0
  148.5733  140.8557  157.0008 C   0  0  0  0  0  0  0  0  0  0  0  0
  148.1806  141.6278  157.8788 O   0  0  0  0  0  0  0  0  0  0  0  0
  149.8623  140.9986  156.4393 N   0  0  0  0  0  0  0  0  0  0  0  0
  150.7213  142.1126  156.9026 C   0  0  0  0  0  0  0  0  0  0  0  0
  151.6558  141.7350  158.0731 C   0  0  0  0  0  0  0  0  0  0  0  0
  152.3498  140.7221  157.9775 O   0  0  0  0  0  0  0  0  0  0  0  0
  151.6698  142.5470  159.1597 N   0  0  0  0  0  0  0  0  0  0  0  0
  150.8490  143.7651  159.2745 C   0  0  0  0  0  0  0  0  0  0  0  0
  151.1707  144.3774  160.6553 C   0  0  0  0  0  0  0  0  0  0  0  0
  152.1789  143.4227  161.2229 C   0  0  0  0  0  0  0  0  0  0  0  0
  152.8074  143.5138  162.4764 C   0  0  0  0  0  0  0  0  0  0  0  0
  153.7393  142.5134  162.8492 C   0  0  0  0  0  0  0  0  0  0  0  0
  154.4198  142.5770  164.1580 N   0  3  0  0  0  0  0  0  0  0  0  0
  154.1085  143.4760  164.9324 O   0  0  0  0  0  0  0  0  0  0  0  0
  155.2669  141.7272  164.4142 O   0  5  0  0  0  0  0  0  0  0  0  0
  154.0090  141.4505  161.9465 C   0  0  0  0  0  0  0  0  0  0  0  0
  153.3682  141.3748  160.6904 C   0  0  0  0  0  0  0  0  0  0  0  0
  152.4437  142.3826  160.3395 C   0  0  0  0  0  0  0  0  0  0  0  0
  150.3609  140.1296  155.4393 C   0  0  0  0  0  0  0  0  0  0  0  0
  151.4769  140.3109  154.9481 O   0  0  0  0  0  0  0  0  0  0  0  0
  149.2608  137.2578  153.7972 H   0  0  0  0  0  0  0  0  0  0  0  0
  150.8895  137.5183  154.4172 H   0  0  0  0  0  0  0  0  0  0  0  0
  150.2701  138.5215  153.0991 H   0  0  0  0  0  0  0  0  0  0  0  0
  147.6598  138.0719  155.3012 H   0  0  0  0  0  0  0  0  0  0  0  0
  146.6095  139.4114  158.2469 H   0  0  0  0  0  0  0  0  0  0  0  0
  144.9053  140.9353  158.0350 H   0  0  0  0  0  0  0  0  0  0  0  0
  145.9697  141.7713  156.9196 H   0  0  0  0  0  0  0  0  0  0  0  0
  143.4643  140.2942  156.4236 H   0  0  0  0  0  0  0  0  0  0  0  0
  144.1300  140.9568  154.1668 H   0  0  0  0  0  0  0  0  0  0  0  0
  145.6899  139.2074  154.6528 H   0  0  0  0  0  0  0  0  0  0  0  0
  144.3837  137.1261  154.7338 H   0  0  0  0  0  0  0  0  0  0  0  0
  143.3025  137.7730  155.9550 H   0  0  0  0  0  0  0  0  0  0  0  0
  143.5695  139.2393  153.6174 H   0  0  0  0  0  0  0  0  0  0  0  0
  151.3261  142.4974  156.0805 H   0  0  0  0  0  0  0  0  0  0  0  0
  150.1052  142.9626  157.1987 H   0  0  0  0  0  0  0  0  0  0  0  0
  151.0933  144.4720  158.4805 H   0  0  0  0  0  0  0  0  0  0  0  0
  149.7871  143.5258  159.2064 H   0  0  0  0  0  0  0  0  0  0  0  0
  151.5974  145.3771  160.5676 H   0  0  0  0  0  0  0  0  0  0  0  0
  150.2885  144.4241  161.2944 H   0  0  0  0  0  0  0  0  0  0  0  0
  152.5734  144.3381  163.1341 H   0  0  0  0  0  0  0  0  0  0  0  0
  154.7152  140.6769  162.2101 H   0  0  0  0  0  0  0  0  0  0  0  0
  153.6017  140.5508  160.0351 H   0  0  0  0  0  0  0  0  0  0  0  0
  1  2  1  0  0  0  0
  1 33  1  0  0  0  0
  1 34  1  0  0  0  0
  1 35  1  0  0  0  0
  2 31  1  0  0  0  0
  2  3  2  0  0  0  0
  3  4  1  0  0  0  0
  3 36  1  0  0  0  0
  4  5  1  0  0  0  0
  4 13  1  0  0  0  0
  5 12  1  0  0  0  0
  5  6  1  0  0  0  0
  5 37  1  0  0  0  0
  6  7  1  0  0  0  0
  6 38  1  0  0  0  0
  6 39  1  0  0  0  0
  7  8  1  0  0  0  0
  7  9  1  0  0  0  0
  7 40  1  0  0  0  0
  8 41  1  0  0  0  0
  9 10  1  0  0  0  0
  9 12  1  0  0  0  0
  9 42  1  0  0  0  0
 10 11  1  0  0  0  0
 10 43  1  0  0  0  0
 10 44  1  0  0  0  0
 11 45  1  0  0  0  0
 13 14  2  0  0  0  0
 13 15  1  0  0  0  0
 15 16  1  0  0  0  0
 15 31  1  0  0  0  0
 16 17  1  0  0  0  0
 16 46  1  0  0  0  0
 16 47  1  0  0  0  0
 17 18  2  0  0  0  0
 17 19  1  0  0  0  0
 19 30  1  0  0  0  0
 19 20  1  0  0  0  0
 20 21  1  0  0  0  0
 20 48  1  0  0  0  0
 20 49  1  0  0  0  0
 21 22  1  0  0  0  0
 21 50  1  0  0  0  0
 21 51  1  0  0  0  0
 22 30  2  0  0  0  0
 22 23  1  0  0  0  0
 23 24  2  0  0  0  0
 23 52  1  0  0  0  0
 24 25  1  0  0  0  0
 24 28  1  0  0  0  0
 25 26  2  0  0  0  0
 25 27  1  0  0  0  0
 28 29  2  0  0  0  0
 28 53  1  0  0  0  0
 29 30  1  0  0  0  0
 29 54  1  0  0  0  0
 31 32  2  0  0  0  0
M  CHG  1  25   1
M  CHG  1  27  -1
M  END
> <s_m_source_file>
AV-unprocessed.smi

> <i_m_source_file_index>
112

> <i_lp_mmshare_version>
43012

> <i_f3d_flags>
0

> <s_epik_input>
W09IXVtDSDJdW0NAQEhdKE8xKVtDQEhdKFtPSF0pW0NIMl1bQ0BIXTFuKFtjSF1jMltDSDNdKWMoPU8pbihjMj1PKVtDSDJdQyg9TylOKFtDSDJdW0NIMl0zKWMoYzM0KVtjSF1bY0hdYyhbY0hdNClbTitdKD1PKVtPLV0=

> <s_epik_cmdline>
J2VwaWtfcHl0aG9uJywgJy1waCcsICc3LjAnLCAnLXRuJywgJzgnLCAnLW1hJywgJzIwMCcsICctbWV0YWxfYmluZGluZycsICctaW1hZScsICc8aW5maWxlLm1hZT4nLCAnLW9tYWUnLCAnPG91dGZpbGUubWFlPic=

> <r_lp_tautomer_probability>
1

> <r_epik_Ionization_Penalty>
2.5696e-07

> <r_epik_Ionization_Penalty_Charging>
1.04886e-08

> <r_epik_Ionization_Penalty_Neutral>
2.46472e-07

> <r_epik_State_Penalty>
-0

> <r_epik_Charging_Adjusted_Penalty>
1.04886e-08

> <i_epik_Tot_Q>
0

> <i_epik_Tot_abs_Q>
2

> <r_epik_Metal_State_Penalty>
-0

> <b_epik_Metal_Only>
0

> <s_epik_Chemistry_Notes>
This compound contains an acetal/aminal-like group ( X-CH(R)-Y where X, Y are N, S, or O) that may be acid/base labile, releasing an aldehyde.

> <s_lp_Force_Field>
OPLS_2005

> <r_lp_Energy>
55.094

> <b_lp_Chiralities_Consistent>
1

> <s_lp_Variant>
AV-unprocessed.smi:112-6

> <Gold.Version>
5.8.1

> <Gold.Id.Protein>
6NUR|6NUR_protein|mol2

> <Gold.PLP.Fitness>
57.9465

> <Gold.PLP.PLP>
-49.9171

> <Gold.PLP.part.hbond>
-4.7543

> <Gold.PLP.part.metal>
0.0000

> <Gold.PLP.part.buried>
-3.5091

> <Gold.PLP.part.nonpolar>
-42.2268

> <Gold.PLP.part.repulsive>
0.2020

> <Gold.PLP.ligand.clash>
0.0000

> <Gold.PLP.ligand.torsion>
0.5257

> <Gold.PLP.Chemscore.Hbond>
3.0000

> <Gold.PLP.Chemscore.CHOScore>
0.0000

> <Gold.PLP.Chemscore.Metal>
0.0000

> <Gold.Chemscore.Hbonds>
donor molecule, donor type, donor heavy atom, donor atom, acceptor molecule, acceptor atom, score
      L1  H     8    41       P1 10175  1.00
      L1  H    11    45       P1 10175  1.00
      P1  H  7989  7998       L1    32  1.00

> <Gold.PLP.Chemscore.Internal.Correction>
0.0808

> <Gold.Rescore>
     Score         DG    S(hbond)    S(metal)    S(lipo)     H(rot)  DE(clash)    DE(int)     intcor
     15.19     -19.93       3.13        0.00     106.15       3.29       2.11       2.63       ----

> <Gold.Chemscore.Fitness>
15.1888

> <Gold.Chemscore.DG>
-19.9280

> <Gold.Chemscore.ZeroCoef>
-5.4800

> <Gold.Chemscore.Hbond>
3.1302

> <Gold.Chemscore.Metal>
0.0000

> <Gold.Chemscore.Lipo>
106.1494

> <Gold.Chemscore.Internal_Hbond>
0.0000

> <Gold.Chemscore.DEClash>
2.1098

> <Gold.Chemscore.DEInternal>
2.6294

> <Gold.Chemscore.Rot>
3.2916

> <Gold.Chemscore.Internal.Correction>
   9.000000E+99

> <Gold.Chemscore.Hbonds>
donor molecule, donor type, donor heavy atom, donor atom, acceptor molecule, acceptor atom, score
      L1  H     8    41       P1 10175  0.88
      L1  H    11    45       P1 10175  0.94
      P1  H  7989  7998       L1    32  0.91
      P1  H  7997  8010       L1    18  0.02

> <Gold.Chemscore.Hbond.Weighted>
-10.4550

> <Gold.Chemscore.Metal.Weighted>
-0.0000

> <Gold.Chemscore.Lipo.Weighted>
-12.4195

> <Gold.Chemscore.Internal_Hbond.Weighted>
0.0000

> <Gold.Chemscore.DEClash.Weighted>
2.1098

> <Gold.Chemscore.DEInternal.Weighted>
2.6294

> <Gold.Chemscore.Rot.Weighted>
8.4265

> <Gold.Chemscore.Internal.Correction.Weighted>
   9.000000E+99

> <Gold.Protein.RotatedTorsions>
[ 6907 6896 6895 6894 ] final  -51.98 input  -60.11 | X-H torsion
[ 7974 7965 7964 7962 ] final -134.42 input  175.53 | X-H torsion
[ 8008 7997 7996 7995 ] final   49.82 input   59.86 | X-H torsion
[ 10167 10162 10161 10158 ] final  -59.52 input  -65.29 | X-H torsion
[ 10718 10713 10712 10709 ] final -153.62 input   66.30 | X-H torsion
[ 10763 10752 10751 10750 ] final   -7.61 input  -60.55 | X-H torsion
[ 11005 11000 10999 10996 ] final   15.53 input  -57.11 | X-H torsion

> <Gold.Protein.ActiveResidues>
 VAL166  LYS551  ARG553  GLY616  TRP617  ASP618  TYR619  PRO620  LYS621  CYS622 
 ASP623  PHE694  ASN695  SER759  ASP760  ASP761  ALA762  ILE779  LEU786  VAL792 
 PHE793  MET794  SER795  GLU796  ALA797  LYS798  CYS799  TRP800  GLU811  SER814 

> <Gold.Protein.RotatedAtoms>
  150.8561  134.7900  159.7046 H   0  0  0  0  0  0  0  0  0  0  0  0  # atno 6907 bound_to 6896
  152.4612  134.5177  159.9783 H   0  0  0  0  0  0  0  0  0  0  0  0  # atno 6908 bound_to 6896
  151.5289  133.3414  159.2950 H   0  0  0  0  0  0  0  0  0  0  0  0  # atno 6909 bound_to 6896
  144.9105  140.6888  143.5028 H   0  0  0  0  0  0  0  0  0  0  0  0  # atno 7974 bound_to 7965
  155.4085  140.3441  155.4262 H   0  0  0  0  0  0  0  0  0  0  0  0  # atno 8008 bound_to 7997
  156.1462  140.1557  156.8874 H   0  0  0  0  0  0  0  0  0  0  0  0  # atno 8009 bound_to 7997
  154.5013  140.0814  156.7784 H   0  0  0  0  0  0  0  0  0  0  0  0  # atno 8010 bound_to 7997
  140.6129  143.2393  151.5666 H   0  0  0  0  0  0  0  0  0  0  0  0  # atno 10167 bound_to 10162
  156.4883  130.8335  151.2559 H   0  0  0  0  0  0  0  0  0  0  0  0  # atno 10718 bound_to 10713
  153.4288  135.7011  153.6244 H   0  0  0  0  0  0  0  0  0  0  0  0  # atno 10763 bound_to 10752
  153.4668  135.3724  155.2369 H   0  0  0  0  0  0  0  0  0  0  0  0  # atno 10764 bound_to 10752
  154.8725  135.4033  154.3669 H   0  0  0  0  0  0  0  0  0  0  0  0  # atno 10765 bound_to 10752
  140.4572  134.1164  155.7711 H   0  0  0  0  0  0  0  0  0  0  0  0  # atno 11005 bound_to 11000
  145.3463  139.1718  143.4458 LP  0  0  0  0  0  0  0  0  0  0  0  0  # atno 17320 bound_to 7965
  146.3156  140.3510  142.8656 LP  0  0  0  0  0  0  0  0  0  0  0  0  # atno 17321 bound_to 7965
  139.5376  144.2738  152.1283 LP  0  0  0  0  0  0  0  0  0  0  0  0  # atno 17342 bound_to 10162
  140.1941  144.4722  150.6464 LP  0  0  0  0  0  0  0  0  0  0  0  0  # atno 17343 bound_to 10162
  157.7476  131.0022  150.2991 LP  0  0  0  0  0  0  0  0  0  0  0  0  # atno 17370 bound_to 10713
  156.3452  130.3822  149.7375 LP  0  0  0  0  0  0  0  0  0  0  0  0  # atno 17371 bound_to 10713
  141.1637  133.8743  157.1775 LP  0  0  0  0  0  0  0  0  0  0  0  0  # atno 17394 bound_to 11000
  139.9968  135.0043  157.0101 LP  0  0  0  0  0  0  0  0  0  0  0  0  # atno 17395 bound_to 11000

$$$$
