AV-unprocessed.smi:369|AV-procd|sdf|2435|dock2
  -GOLD-   2262022373D 1   1.00000     0.00000
 Structure written by MMmdl.
 50 51  0  0  0  0  0  0  0  0  1 V2000
  143.7304  134.7314  152.4807 C   0  0  0  0  0  0  0  0  0  0  0  0
  145.1605  135.3139  152.3840 C   0  0  0  0  0  0  0  0  0  0  0  0
  146.1701  134.2524  152.8660 C   0  0  0  0  0  0  0  0  0  0  0  0
  145.4569  135.6585  150.9095 C   0  0  0  0  0  0  0  0  0  0  0  0
  145.3406  136.5909  153.2406 C   0  0  0  0  0  0  0  0  0  0  0  0
  144.4000  137.0066  153.9196 O   0  0  0  0  0  0  0  0  0  0  0  0
  146.5311  137.2148  153.2119 N   0  0  0  0  0  0  0  0  0  0  0  0
  146.8750  138.4156  153.9680 C   0  0  0  0  0  0  0  0  0  0  0  0
  148.2640  138.3310  154.6105 C   0  0  0  0  0  0  0  0  0  0  0  0
  148.3877  138.0864  155.8115 O   0  0  0  0  0  0  0  0  0  0  0  0
  149.3057  138.5037  153.7828 N   0  0  0  0  0  0  0  0  0  0  0  0
  150.7120  138.4264  154.1681 C   0  0  0  0  0  0  0  0  0  0  0  0
  151.1363  139.3831  155.2769 C   0  0  0  0  0  0  0  0  0  0  0  0
  150.3990  140.5639  155.4920 C   0  0  0  0  0  0  0  0  0  0  0  0
  150.8031  141.4536  156.5056 C   0  0  0  0  0  0  0  0  0  0  0  0
  151.9414  141.1403  157.2850 C   0  0  0  0  0  0  0  0  0  0  0  0
  152.3718  142.0229  158.2994 N   0  0  0  0  0  0  0  0  0  0  0  0
  151.7991  143.3678  158.3229 C   0  0  0  0  0  0  0  0  0  0  0  0
  152.5705  144.2627  159.3077 C   0  0  0  0  0  0  0  0  0  0  0  0
  152.5931  143.6526  160.5936 O   0  0  0  0  0  0  0  0  0  0  0  0
  153.2545  142.3922  160.5698 C   0  0  0  0  0  0  0  0  0  0  0  0
  152.5106  141.4302  159.6275 C   0  0  0  0  0  0  0  0  0  0  0  0
  152.6444  139.9987  157.0841 N   0  0  0  0  0  0  0  0  0  0  0  0
  152.2544  139.1509  156.1093 C   0  0  0  0  0  0  0  0  0  0  0  0
  143.6267  133.8439  151.8555 H   0  0  0  0  0  0  0  0  0  0  0  0
  142.9787  135.4482  152.1465 H   0  0  0  0  0  0  0  0  0  0  0  0
  143.4810  134.4332  153.5001 H   0  0  0  0  0  0  0  0  0  0  0  0
  145.9981  133.9833  153.9091 H   0  0  0  0  0  0  0  0  0  0  0  0
  147.1999  134.6027  152.7820 H   0  0  0  0  0  0  0  0  0  0  0  0
  146.0919  133.3378  152.2773 H   0  0  0  0  0  0  0  0  0  0  0  0
  145.3373  134.7841  150.2688 H   0  0  0  0  0  0  0  0  0  0  0  0
  146.4773  136.0192  150.7722 H   0  0  0  0  0  0  0  0  0  0  0  0
  144.7818  136.4299  150.5366 H   0  0  0  0  0  0  0  0  0  0  0  0
  147.2595  136.8148  152.6383 H   0  0  0  0  0  0  0  0  0  0  0  0
  146.8649  139.2644  153.2841 H   0  0  0  0  0  0  0  0  0  0  0  0
  146.1165  138.6174  154.7268 H   0  0  0  0  0  0  0  0  0  0  0  0
  149.1104  138.6986  152.8113 H   0  0  0  0  0  0  0  0  0  0  0  0
  150.9059  137.4089  154.5080 H   0  0  0  0  0  0  0  0  0  0  0  0
  151.3519  138.5828  153.2979 H   0  0  0  0  0  0  0  0  0  0  0  0
  149.5333  140.7886  154.8864 H   0  0  0  0  0  0  0  0  0  0  0  0
  150.2334  142.3541  156.6794 H   0  0  0  0  0  0  0  0  0  0  0  0
  151.8366  143.8107  157.3269 H   0  0  0  0  0  0  0  0  0  0  0  0
  150.7499  143.3102  158.6159 H   0  0  0  0  0  0  0  0  0  0  0  0
  153.5892  144.4384  158.9579 H   0  0  0  0  0  0  0  0  0  0  0  0
  152.0880  145.2371  159.3853 H   0  0  0  0  0  0  0  0  0  0  0  0
  154.2919  142.5188  160.2559 H   0  0  0  0  0  0  0  0  0  0  0  0
  153.2760  141.9847  161.5805 H   0  0  0  0  0  0  0  0  0  0  0  0
  151.5165  141.2168  160.0224 H   0  0  0  0  0  0  0  0  0  0  0  0
  153.0475  140.4834  159.5925 H   0  0  0  0  0  0  0  0  0  0  0  0
  152.8665  138.2685  155.9986 H   0  0  0  0  0  0  0  0  0  0  0  0
  1  2  1  0  0  0  0
  1 25  1  0  0  0  0
  1 26  1  0  0  0  0
  1 27  1  0  0  0  0
  2  3  1  0  0  0  0
  2  4  1  0  0  0  0
  2  5  1  0  0  0  0
  3 28  1  0  0  0  0
  3 29  1  0  0  0  0
  3 30  1  0  0  0  0
  4 31  1  0  0  0  0
  4 32  1  0  0  0  0
  4 33  1  0  0  0  0
  5  6  2  0  0  0  0
  5  7  1  0  0  0  0
  7  8  1  0  0  0  0
  7 34  1  0  0  0  0
  8  9  1  0  0  0  0
  8 35  1  0  0  0  0
  8 36  1  0  0  0  0
  9 10  2  0  0  0  0
  9 11  1  0  0  0  0
 11 12  1  0  0  0  0
 11 37  1  0  0  0  0
 12 13  1  0  0  0  0
 12 38  1  0  0  0  0
 12 39  1  0  0  0  0
 13 24  1  0  0  0  0
 13 14  2  0  0  0  0
 14 15  1  0  0  0  0
 14 40  1  0  0  0  0
 15 16  2  0  0  0  0
 15 41  1  0  0  0  0
 16 17  1  0  0  0  0
 16 23  1  0  0  0  0
 17 22  1  0  0  0  0
 17 18  1  0  0  0  0
 18 19  1  0  0  0  0
 18 42  1  0  0  0  0
 18 43  1  0  0  0  0
 19 20  1  0  0  0  0
 19 44  1  0  0  0  0
 19 45  1  0  0  0  0
 20 21  1  0  0  0  0
 21 22  1  0  0  0  0
 21 46  1  0  0  0  0
 21 47  1  0  0  0  0
 22 48  1  0  0  0  0
 22 49  1  0  0  0  0
 23 24  2  0  0  0  0
 24 50  1  0  0  0  0
M  END
> <s_m_source_file>
AV-unprocessed.smi

> <i_m_source_file_index>
369

> <i_lp_mmshare_version>
43012

> <i_f3d_flags>
0

> <s_epik_input>
W0NIM11DKFtDSDNdKShbQ0gzXSlDKD1PKVtOSF1bQ0gyXUMoPU8pW05IXVtDSDJdYzFbY0hdW2NIXWMobltjSF0xKU4yW0NIMl1bQ0gyXU9bQ0gyXVtDSDJdMg==

> <s_epik_cmdline>
J2VwaWtfcHl0aG9uJywgJy1waCcsICc3LjAnLCAnLXRuJywgJzgnLCAnLW1hJywgJzIwMCcsICctbWV0YWxfYmluZGluZycsICctaW1hZScsICc8aW5maWxlLm1hZT4nLCAnLW9tYWUnLCAnPG91dGZpbGUubWFlPic=

> <r_lp_tautomer_probability>
1

> <r_epik_Ionization_Penalty>
0.00465227

> <r_epik_Ionization_Penalty_Charging>
0

> <r_epik_Ionization_Penalty_Neutral>
0.00465227

> <r_epik_State_Penalty>
0.0033653

> <r_epik_Charging_Adjusted_Penalty>
0.0033653

> <i_epik_Tot_Q>
0

> <i_epik_Tot_abs_Q>
0

> <r_epik_Metal_State_Penalty>
-0

> <b_epik_Metal_Only>
0

> <s_lp_Force_Field>
OPLS_2005

> <r_lp_Energy>
18.739

> <b_lp_Chiralities_Consistent>
1

> <s_lp_Variant>
AV-unprocessed.smi:369-1

> <Gold.Version>
5.8.1

> <Gold.Id.Protein>
6NUR|6NUR_protein|mol2

> <Gold.PLP.Fitness>
51.2849

> <Gold.PLP.PLP>
-43.7421

> <Gold.PLP.part.hbond>
-4.0000

> <Gold.PLP.part.metal>
0.0000

> <Gold.PLP.part.buried>
-4.8303

> <Gold.PLP.part.nonpolar>
-35.2080

> <Gold.PLP.part.repulsive>
0.3470

> <Gold.PLP.ligand.clash>
0.0000

> <Gold.PLP.ligand.torsion>
0.8645

> <Gold.PLP.Chemscore.Hbond>
2.9680

> <Gold.PLP.Chemscore.CHOScore>
0.0000

> <Gold.PLP.Chemscore.Metal>
0.0000

> <Gold.Chemscore.Hbonds>
donor molecule, donor type, donor heavy atom, donor atom, acceptor molecule, acceptor atom, score
      L1  H     7    34       P1  7948  1.00
      L1  H    11    37       P1  7957  0.57
      P1  H  7997  8010       L1    23  0.99

> <Gold.PLP.Chemscore.Internal.Correction>
0.3677

> <Gold.Rescore>
     Score         DG    S(hbond)    S(metal)    S(lipo)     H(rot)  DE(clash)    DE(int)     intcor
     19.01     -20.29       2.30        0.00     106.84       2.10       0.35       0.93       ----

> <Gold.Chemscore.Fitness>
19.0101

> <Gold.Chemscore.DG>
-20.2863

> <Gold.Chemscore.ZeroCoef>
-5.4800

> <Gold.Chemscore.Hbond>
2.3023

> <Gold.Chemscore.Metal>
0.0000

> <Gold.Chemscore.Lipo>
106.8368

> <Gold.Chemscore.Internal_Hbond>
0.0000

> <Gold.Chemscore.DEClash>
0.3464

> <Gold.Chemscore.DEInternal>
0.9298

> <Gold.Chemscore.Rot>
2.1028

> <Gold.Chemscore.Internal.Correction>
   9.000000E+99

> <Gold.Chemscore.Hbonds>
donor molecule, donor type, donor heavy atom, donor atom, acceptor molecule, acceptor atom, score
      L1  H     7    34       P1  7948  0.99
      L1  H    11    37       P1  7957  0.54
      P1  H  7997  8010       L1    23  0.32

> <Gold.Chemscore.Hbond.Weighted>
-7.6896

> <Gold.Chemscore.Metal.Weighted>
-0.0000

> <Gold.Chemscore.Lipo.Weighted>
-12.4999

> <Gold.Chemscore.Internal_Hbond.Weighted>
0.0000

> <Gold.Chemscore.DEClash.Weighted>
0.3464

> <Gold.Chemscore.DEInternal.Weighted>
0.9298

> <Gold.Chemscore.Rot.Weighted>
5.3832

> <Gold.Chemscore.Internal.Correction.Weighted>
   9.000000E+99

> <Gold.Protein.RotatedTorsions>
[ 6907 6896 6895 6894 ] final   29.74 input  -60.11 | X-H torsion
[ 7974 7965 7964 7962 ] final  158.51 input  175.53 | X-H torsion
[ 8008 7997 7996 7995 ] final   46.30 input   59.86 | X-H torsion
[ 10167 10162 10161 10158 ] final   34.14 input  -65.29 | X-H torsion
[ 10718 10713 10712 10709 ] final   80.34 input   66.30 | X-H torsion
[ 10763 10752 10751 10750 ] final  174.26 input  -60.55 | X-H torsion
[ 11005 11000 10999 10996 ] final  -92.93 input  -57.11 | X-H torsion

> <Gold.Protein.ActiveResidues>
 VAL166  LYS551  ARG553  GLY616  TRP617  ASP618  TYR619  PRO620  LYS621  CYS622 
 ASP623  PHE694  ASN695  SER759  ASP760  ASP761  ALA762  ILE779  LEU786  VAL792 
 PHE793  MET794  SER795  GLU796  ALA797  LYS798  CYS799  TRP800  GLU811  SER814 

> <Gold.Protein.RotatedAtoms>
  152.0360  134.9740  160.0573 H   0  0  0  0  0  0  0  0  0  0  0  0  # atno 6907 bound_to 6896
  152.1198  133.4342  159.4678 H   0  0  0  0  0  0  0  0  0  0  0  0  # atno 6908 bound_to 6896
  150.6848  134.2468  159.4538 H   0  0  0  0  0  0  0  0  0  0  0  0  # atno 6909 bound_to 6896
  144.7842  139.7488  143.6248 H   0  0  0  0  0  0  0  0  0  0  0  0  # atno 7974 bound_to 7965
  155.3502  140.3413  155.4239 H   0  0  0  0  0  0  0  0  0  0  0  0  # atno 8008 bound_to 7997
  156.1768  140.1650  156.8383 H   0  0  0  0  0  0  0  0  0  0  0  0  # atno 8009 bound_to 7997
  154.5290  140.0749  156.8294 H   0  0  0  0  0  0  0  0  0  0  0  0  # atno 8010 bound_to 7997
  140.4342  144.1281  150.6164 H   0  0  0  0  0  0  0  0  0  0  0  0  # atno 10167 bound_to 10162
  157.6803  130.9955  150.2065 H   0  0  0  0  0  0  0  0  0  0  0  0  # atno 10718 bound_to 10713
  154.4515  135.2765  155.1777 H   0  0  0  0  0  0  0  0  0  0  0  0  # atno 10763 bound_to 10752
  154.3602  135.6131  153.5690 H   0  0  0  0  0  0  0  0  0  0  0  0  # atno 10764 bound_to 10752
  152.9847  135.5832  154.4861 H   0  0  0  0  0  0  0  0  0  0  0  0  # atno 10765 bound_to 10752
  141.1510  133.7854  157.0089 H   0  0  0  0  0  0  0  0  0  0  0  0  # atno 11005 bound_to 11000
  146.2065  139.5393  142.9709 LP  0  0  0  0  0  0  0  0  0  0  0  0  # atno 17320 bound_to 7965
  145.5968  141.0361  143.2040 LP  0  0  0  0  0  0  0  0  0  0  0  0  # atno 17321 bound_to 7965
  140.4392  143.2534  151.9495 LP  0  0  0  0  0  0  0  0  0  0  0  0  # atno 17342 bound_to 10162
  139.4786  144.5670  151.8149 LP  0  0  0  0  0  0  0  0  0  0  0  0  # atno 17343 bound_to 10162
  156.2745  130.3726  149.7997 LP  0  0  0  0  0  0  0  0  0  0  0  0  # atno 17370 bound_to 10713
  156.5704  130.8422  151.3355 LP  0  0  0  0  0  0  0  0  0  0  0  0  # atno 17371 bound_to 10713
  140.0891  134.9603  157.1747 LP  0  0  0  0  0  0  0  0  0  0  0  0  # atno 17394 bound_to 11000
  140.3471  134.2640  155.7203 LP  0  0  0  0  0  0  0  0  0  0  0  0  # atno 17395 bound_to 11000

$$$$
