AV-unprocessed.smi:3275|AV-procd|sdf|12530|dock1
  -GOLD-   2272018443D 1   1.00000     0.00000
 Structure written by MMmdl.
 35 36  0  0  0  0  0  0  0  0  2 V2000
  148.3139  142.2775  154.0862 O   0  0  0  0  0  0  0  0  0  0  0  0
  148.7392  141.1316  154.7918 C   0  0  0  0  0  0  0  0  0  0  0  0
  150.1136  141.3886  155.4178 C   0  0  0  0  0  0  0  0  0  0  0  0
  150.3712  140.3623  156.3685 O   0  0  0  0  0  0  0  0  0  0  0  0
  151.4856  140.5392  157.2425 C   0  0  2  0  0  0  0  0  0  0  0  0
  152.0288  139.2132  157.8140 C   0  0  0  0  0  0  0  0  0  0  0  0
  153.2742  139.4872  158.6732 C   0  0  0  0  0  0  0  0  0  0  0  0
  152.9747  140.5326  159.7627 C   0  0  0  0  0  0  0  0  0  0  0  0
  152.4225  141.7512  159.1763 N   0  0  0  0  0  0  0  0  0  0  0  0
  152.3351  142.8148  160.0869 C   0  0  0  0  0  0  0  0  0  0  0  0
  152.4604  142.5988  161.4806 C   0  0  0  0  0  0  0  0  0  0  0  0
  152.3653  143.6937  162.3632 C   0  0  0  0  0  0  0  0  0  0  0  0
  152.1592  144.9353  161.8744 N   0  3  0  0  0  0  0  0  0  0  0  0
  152.0372  145.1896  160.5537 C   0  0  0  0  0  0  0  0  0  0  0  0
  152.1225  144.1352  159.6211 C   0  0  0  0  0  0  0  0  0  0  0  0
  151.9607  144.4788  157.9347 Cl  0  0  0  0  0  0  0  0  0  0  0  0
  151.2189  141.5570  158.3717 C   0  0  0  0  0  0  0  0  0  0  0  0
  148.5319  143.0427  154.5963 H   0  0  0  0  0  0  0  0  0  0  0  0
  148.0053  140.8917  155.5618 H   0  0  0  0  0  0  0  0  0  0  0  0
  148.7831  140.2859  154.1050 H   0  0  0  0  0  0  0  0  0  0  0  0
  150.8713  141.3898  154.6345 H   0  0  0  0  0  0  0  0  0  0  0  0
  150.1187  142.3704  155.8903 H   0  0  0  0  0  0  0  0  0  0  0  0
  152.2672  140.9598  156.6079 H   0  0  0  0  0  0  0  0  0  0  0  0
  151.2790  138.7212  158.4329 H   0  0  0  0  0  0  0  0  0  0  0  0
  152.2738  138.5242  157.0052 H   0  0  0  0  0  0  0  0  0  0  0  0
  153.6253  138.5617  159.1300 H   0  0  0  0  0  0  0  0  0  0  0  0
  154.0845  139.8457  158.0371 H   0  0  0  0  0  0  0  0  0  0  0  0
  152.2660  140.1232  160.4841 H   0  0  0  0  0  0  0  0  0  0  0  0
  153.8888  140.7665  160.3102 H   0  0  0  0  0  0  0  0  0  0  0  0
  152.6299  141.6067  161.8734 H   0  0  0  0  0  0  0  0  0  0  0  0
  152.4485  143.6140  163.4372 H   0  0  0  0  0  0  0  0  0  0  0  0
  151.8750  146.2227  160.2833 H   0  0  0  0  0  0  0  0  0  0  0  0
  150.9036  142.5108  157.9463 H   0  0  0  0  0  0  0  0  0  0  0  0
  150.4151  141.2083  159.0197 H   0  0  0  0  0  0  0  0  0  0  0  0
  152.0932  145.7144  162.5302 H   0  0  0  0  0  0  0  0  0  0  0  0
  1  2  1  0  0  0  0
  1 18  1  0  0  0  0
  2  3  1  0  0  0  0
  2 19  1  0  0  0  0
  2 20  1  0  0  0  0
  3  4  1  0  0  0  0
  3 21  1  0  0  0  0
  3 22  1  0  0  0  0
  4  5  1  0  0  0  0
  5 17  1  0  0  0  0
  5  6  1  0  0  0  0
  5 23  1  0  0  0  0
  6  7  1  0  0  0  0
  6 24  1  0  0  0  0
  6 25  1  0  0  0  0
  7  8  1  0  0  0  0
  7 26  1  0  0  0  0
  7 27  1  0  0  0  0
  8  9  1  0  0  0  0
  8 28  1  0  0  0  0
  8 29  1  0  0  0  0
  9 10  1  0  0  0  0
  9 17  1  0  0  0  0
 10 15  1  0  0  0  0
 10 11  2  0  0  0  0
 11 12  1  0  0  0  0
 11 30  1  0  0  0  0
 12 13  2  0  0  0  0
 12 31  1  0  0  0  0
 13 14  1  0  0  0  0
 13 35  1  0  0  0  0
 14 15  2  0  0  0  0
 14 32  1  0  0  0  0
 15 16  1  0  0  0  0
 17 33  1  0  0  0  0
 17 34  1  0  0  0  0
M  CHG  1  13   1
M  END
> <s_m_source_file>
AV-unprocessed.smi

> <i_m_source_file_index>
3275

> <i_lp_mmshare_version>
43012

> <i_f3d_flags>
0

> <s_epik_input>
W09IXVtDSDJdW0NIMl1PW0NAQEhdMVtDSDJdW0NIMl1bQ0gyXU4oW0NIMl0xKWMyW2NIXVtjSF1uW2NIXWMyQ2w=

> <s_epik_cmdline>
J2VwaWtfcHl0aG9uJywgJy1waCcsICc3LjAnLCAnLXRuJywgJzgnLCAnLW1hJywgJzIwMCcsICctbWV0YWxfYmluZGluZycsICctaW1hZScsICc8aW5maWxlLm1hZT4nLCAnLW9tYWUnLCAnPG91dGZpbGUubWFlPic=

> <r_lp_tautomer_probability>
1

> <r_epik_Ionization_Penalty>
0.0778579

> <r_epik_Ionization_Penalty_Charging>
0.0778578

> <r_epik_Ionization_Penalty_Neutral>
8.80348e-08

> <r_epik_State_Penalty>
0.0687871

> <r_epik_Charging_Adjusted_Penalty>
0.146645

> <i_epik_Tot_Q>
1

> <i_epik_Tot_abs_Q>
1

> <r_epik_Metal_State_Penalty>
2.85646

> <b_epik_Metal_Only>
0

> <s_lp_Force_Field>
OPLS_2005

> <r_lp_Energy>
28.015

> <b_lp_Chiralities_Consistent>
1

> <s_lp_Variant>
AV-unprocessed.smi:3275-1

> <Gold.Version>
5.8.1

> <Gold.Id.Protein>
6NUR|6NUR_protein|mol2

> <Gold.PLP.Fitness>
43.3267

> <Gold.PLP.PLP>
-41.2391

> <Gold.PLP.part.hbond>
-3.0000

> <Gold.PLP.part.metal>
0.0000

> <Gold.PLP.part.buried>
-1.6386

> <Gold.PLP.part.nonpolar>
-35.6942

> <Gold.PLP.part.repulsive>
0.0496

> <Gold.PLP.ligand.clash>
0.5136

> <Gold.PLP.ligand.torsion>
0.4424

> <Gold.PLP.Chemscore.Hbond>
1.0832

> <Gold.PLP.Chemscore.CHOScore>
0.0000

> <Gold.PLP.Chemscore.Metal>
0.0000

> <Gold.Chemscore.Hbonds>
donor molecule, donor type, donor heavy atom, donor atom, acceptor molecule, acceptor atom, score
      L1  H     1    18       P1  8028  1.00
      P1  H  8011  8017       L1     1  0.10

> <Gold.PLP.Chemscore.Internal.Correction>
0.2364

> <Gold.Rescore>
     Score         DG    S(hbond)    S(metal)    S(lipo)     H(rot)  DE(clash)    DE(int)     intcor
     14.99     -16.62       0.96        0.00     114.68       2.14       1.19       0.44       ----

> <Gold.Chemscore.Fitness>
14.9930

> <Gold.Chemscore.DG>
-16.6171

> <Gold.Chemscore.ZeroCoef>
-5.4800

> <Gold.Chemscore.Hbond>
0.9575

> <Gold.Chemscore.Metal>
0.0000

> <Gold.Chemscore.Lipo>
114.6780

> <Gold.Chemscore.Internal_Hbond>
0.0000

> <Gold.Chemscore.DEClash>
1.1855

> <Gold.Chemscore.DEInternal>
0.4386

> <Gold.Chemscore.Rot>
2.1400

> <Gold.Chemscore.Internal.Correction>
   9.000000E+99

> <Gold.Chemscore.Hbonds>
donor molecule, donor type, donor heavy atom, donor atom, acceptor molecule, acceptor atom, score
      L1  H     1    18       P1  8028  0.97
      P1  H  8011  8017       L1     1  0.02

> <Gold.Chemscore.Hbond.Weighted>
-3.1980

> <Gold.Chemscore.Metal.Weighted>
-0.0000

> <Gold.Chemscore.Lipo.Weighted>
-13.4173

> <Gold.Chemscore.Internal_Hbond.Weighted>
0.0000

> <Gold.Chemscore.DEClash.Weighted>
1.1855

> <Gold.Chemscore.DEInternal.Weighted>
0.4386

> <Gold.Chemscore.Rot.Weighted>
5.4783

> <Gold.Chemscore.Internal.Correction.Weighted>
   9.000000E+99

> <Gold.Protein.RotatedTorsions>
[ 6907 6896 6895 6894 ] final -163.89 input  -60.11 | X-H torsion
[ 7974 7965 7964 7962 ] final  -69.82 input  175.53 | X-H torsion
[ 8008 7997 7996 7995 ] final  -86.87 input   59.86 | X-H torsion
[ 10167 10162 10161 10158 ] final -146.61 input  -65.29 | X-H torsion
[ 10718 10713 10712 10709 ] final -143.38 input   66.30 | X-H torsion
[ 10763 10752 10751 10750 ] final  -20.87 input  -60.55 | X-H torsion
[ 11005 11000 10999 10996 ] final   67.12 input  -57.11 | X-H torsion

> <Gold.Protein.ActiveResidues>
 VAL166  LYS551  ARG553  GLY616  TRP617  ASP618  TYR619  PRO620  LYS621  CYS622 
 ASP623  PHE694  ASN695  SER759  ASP760  ASP761  ALA762  ILE779  LEU786  VAL792 
 PHE793  MET794  SER795  GLU796  ALA797  LYS798  CYS799  TRP800  GLU811  SER814 

> <Gold.Protein.RotatedAtoms>
  151.4031  133.3751  159.2734 H   0  0  0  0  0  0  0  0  0  0  0  0  # atno 6907 bound_to 6896
  150.9418  134.8828  159.7628 H   0  0  0  0  0  0  0  0  0  0  0  0  # atno 6908 bound_to 6896
  152.5075  134.3982  159.9459 H   0  0  0  0  0  0  0  0  0  0  0  0  # atno 6909 bound_to 6896
  145.6989  140.9124  143.0742 H   0  0  0  0  0  0  0  0  0  0  0  0  # atno 7974 bound_to 7965
  154.6568  140.0573  157.0017 H   0  0  0  0  0  0  0  0  0  0  0  0  # atno 8008 bound_to 7997
  155.1288  140.3254  155.4460 H   0  0  0  0  0  0  0  0  0  0  0  0  # atno 8009 bound_to 7997
  156.2600  140.1984  156.6408 H   0  0  0  0  0  0  0  0  0  0  0  0  # atno 8010 bound_to 7997
  139.7697  143.8256  152.2622 H   0  0  0  0  0  0  0  0  0  0  0  0  # atno 10167 bound_to 10162
  156.3572  130.7719  151.1881 H   0  0  0  0  0  0  0  0  0  0  0  0  # atno 10718 bound_to 10713
  153.6273  135.6990  153.5288 H   0  0  0  0  0  0  0  0  0  0  0  0  # atno 10763 bound_to 10752
  153.2888  135.4163  155.1147 H   0  0  0  0  0  0  0  0  0  0  0  0  # atno 10764 bound_to 10752
  154.8530  135.3620  154.5815 H   0  0  0  0  0  0  0  0  0  0  0  0  # atno 10765 bound_to 10752
  139.9790  134.6775  156.0298 H   0  0  0  0  0  0  0  0  0  0  0  0  # atno 11005 bound_to 11000
  144.6974  139.8921  143.7453 LP  0  0  0  0  0  0  0  0  0  0  0  0  # atno 17320 bound_to 7965
  146.0815  139.3803  143.0461 LP  0  0  0  0  0  0  0  0  0  0  0  0  # atno 17321 bound_to 7965
  139.8286  144.7264  150.9479 LP  0  0  0  0  0  0  0  0  0  0  0  0  # atno 17342 bound_to 10162
  140.7813  143.4091  151.1022 LP  0  0  0  0  0  0  0  0  0  0  0  0  # atno 17343 bound_to 10162
  157.7469  131.0410  150.4627 LP  0  0  0  0  0  0  0  0  0  0  0  0  # atno 17370 bound_to 10713
  156.4832  130.4078  149.6449 LP  0  0  0  0  0  0  0  0  0  0  0  0  # atno 17371 bound_to 10713
  141.1464  133.6555  156.3881 LP  0  0  0  0  0  0  0  0  0  0  0  0  # atno 17394 bound_to 11000
  140.5135  134.6372  157.5293 LP  0  0  0  0  0  0  0  0  0  0  0  0  # atno 17395 bound_to 11000

$$$$
