AV-unprocessed.smi:290|AV-procd|sdf|2239|dock2
  -GOLD-   2262022113D 1   1.00000     0.00000
 Structure written by MMmdl.
 59 62  0  0  0  0  0  0  0  0  2 V2000
  152.7210  144.7592  158.3415 C   0  0  0  0  0  0  0  0  0  0  0  0
  152.1207  143.6242  159.1791 C   0  0  2  0  0  0  0  0  0  0  0  0
  153.1851  142.8996  159.7826 O   0  0  0  0  0  0  0  0  0  0  0  0
  152.6750  141.6411  160.1770 C   0  0  0  0  0  0  0  0  0  0  0  0
  151.8609  141.2381  158.9574 C   0  0  0  0  0  0  0  0  0  0  0  0
  151.2429  142.5505  158.4654 C   0  0  1  0  0  0  0  0  0  0  0  0
  149.9393  142.6313  159.0136 O   0  0  0  0  0  0  0  0  0  0  0  0
  151.1688  142.5561  156.9088 C   0  0  0  0  0  0  0  0  0  0  0  0
  150.1346  141.7192  156.3107 N   0  0  0  0  0  0  0  0  0  0  0  0
  148.7800  141.9598  156.2993 C   0  0  0  0  0  0  0  0  0  0  0  0
  148.0596  141.0638  155.6842 N   0  0  0  0  0  0  0  0  0  0  0  0
  148.9854  140.1549  155.1840 C   0  0  0  0  0  0  0  0  0  0  0  0
  148.9026  138.9565  154.4110 C   0  0  0  0  0  0  0  0  0  0  0  0
  147.7547  138.3929  153.9475 N   0  0  0  0  0  0  0  0  0  0  0  0
  146.8170  139.1522  153.1388 C   0  0  0  0  0  0  0  0  0  0  0  0
  146.2175  138.1279  152.1852 C   0  0  0  0  0  0  0  0  0  0  0  0
  146.2297  136.8134  152.9828 C   0  0  1  0  0  0  0  0  0  0  0  0
  146.2000  135.6133  152.0875 N   0  3  2  0  0  0  0  0  0  0  0  0
  145.2233  135.7837  150.9797 C   0  0  0  0  0  0  0  0  0  0  0  0
  146.0276  134.3120  152.7961 C   0  0  0  0  0  0  0  0  0  0  0  0
  146.3028  133.0760  151.9186 C   0  0  0  0  0  0  0  0  0  0  0  0
  147.6905  132.8211  151.8568 O   0  0  0  0  0  0  0  0  0  0  0  0
  147.4918  136.9584  153.8758 C   0  0  2  0  0  0  0  0  0  0  0  0
  147.2857  136.3860  155.2960 C   0  0  0  0  0  0  0  0  0  0  0  0
  150.0716  138.3326  154.1094 N   0  0  0  0  0  0  0  0  0  0  0  0
  151.2386  138.8370  154.5173 C   0  0  0  0  0  0  0  0  0  0  0  0
  151.4642  139.9365  155.2358 N   0  0  0  0  0  0  0  0  0  0  0  0
  150.2983  140.5647  155.5611 C   0  0  0  0  0  0  0  0  0  0  0  0
  145.3467  136.7961  153.6248 H   0  0  0  0  0  0  0  0  0  0  0  0
  148.3370  136.4848  153.3780 H   0  0  0  0  0  0  0  0  0  0  0  0
  151.9432  145.4225  157.9675 H   0  0  0  0  0  0  0  0  0  0  0  0
  153.3037  144.3835  157.5011 H   0  0  0  0  0  0  0  0  0  0  0  0
  153.3879  145.3692  158.9511 H   0  0  0  0  0  0  0  0  0  0  0  0
  151.5591  144.0775  159.9989 H   0  0  0  0  0  0  0  0  0  0  0  0
  153.4731  140.9349  160.4054 H   0  0  0  0  0  0  0  0  0  0  0  0
  152.0418  141.7518  161.0589 H   0  0  0  0  0  0  0  0  0  0  0  0
  152.5453  140.8399  158.2067 H   0  0  0  0  0  0  0  0  0  0  0  0
  151.1297  140.4579  159.1746 H   0  0  0  0  0  0  0  0  0  0  0  0
  149.9361  143.2941  159.6874 H   0  0  0  0  0  0  0  0  0  0  0  0
  151.0588  143.5739  156.5338 H   0  0  0  0  0  0  0  0  0  0  0  0
  152.1208  142.2036  156.5089 H   0  0  0  0  0  0  0  0  0  0  0  0
  148.3344  142.8246  156.7685 H   0  0  0  0  0  0  0  0  0  0  0  0
  146.0511  139.5770  153.7885 H   0  0  0  0  0  0  0  0  0  0  0  0
  147.2936  139.9654  152.5898 H   0  0  0  0  0  0  0  0  0  0  0  0
  145.2233  138.4238  151.8497 H   0  0  0  0  0  0  0  0  0  0  0  0
  146.8578  138.0384  151.3063 H   0  0  0  0  0  0  0  0  0  0  0  0
  144.1999  135.7597  151.3563 H   0  0  0  0  0  0  0  0  0  0  0  0
  145.3291  135.0076  150.2238 H   0  0  0  0  0  0  0  0  0  0  0  0
  145.3645  136.7263  150.4529 H   0  0  0  0  0  0  0  0  0  0  0  0
  146.7177  134.2447  153.6345 H   0  0  0  0  0  0  0  0  0  0  0  0
  145.0196  134.2578  153.2098 H   0  0  0  0  0  0  0  0  0  0  0  0
  145.8194  132.2042  152.3604 H   0  0  0  0  0  0  0  0  0  0  0  0
  145.8926  133.1722  150.9144 H   0  0  0  0  0  0  0  0  0  0  0  0
  147.8504  132.1810  151.1793 H   0  0  0  0  0  0  0  0  0  0  0  0
  147.0510  135.3236  155.2895 H   0  0  0  0  0  0  0  0  0  0  0  0
  146.4651  136.8933  155.8044 H   0  0  0  0  0  0  0  0  0  0  0  0
  148.1723  136.5119  155.9163 H   0  0  0  0  0  0  0  0  0  0  0  0
  152.1170  138.2799  154.2259 H   0  0  0  0  0  0  0  0  0  0  0  0
  147.1144  135.5675  151.6603 H   0  0  0  0  0  0  0  0  0  0  0  0
  1  2  1  0  0  0  0
  1 31  1  0  0  0  0
  1 32  1  0  0  0  0
  1 33  1  0  0  0  0
  2  6  1  0  0  0  0
  2  3  1  0  0  0  0
  2 34  1  0  0  0  0
  3  4  1  0  0  0  0
  4  5  1  0  0  0  0
  4 35  1  0  0  0  0
  4 36  1  0  0  0  0
  5  6  1  0  0  0  0
  5 37  1  0  0  0  0
  5 38  1  0  0  0  0
  6  7  1  0  0  0  0
  6  8  1  0  0  0  0
  7 39  1  0  0  0  0
  8  9  1  0  0  0  0
  8 40  1  0  0  0  0
  8 41  1  0  0  0  0
  9 28  1  0  0  0  0
  9 10  1  0  0  0  0
 10 11  2  0  0  0  0
 10 42  1  0  0  0  0
 11 12  1  0  0  0  0
 12 28  2  0  0  0  0
 12 13  1  0  0  0  0
 13 14  1  0  0  0  0
 13 25  2  0  0  0  0
 14 23  1  0  0  0  0
 14 15  1  0  0  0  0
 15 16  1  0  0  0  0
 15 43  1  0  0  0  0
 15 44  1  0  0  0  0
 16 17  1  0  0  0  0
 16 45  1  0  0  0  0
 16 46  1  0  0  0  0
 17 29  1  0  0  0  0
 17 18  1  0  0  0  0
 17 23  1  0  0  0  0
 18 19  1  0  0  0  0
 18 20  1  0  0  0  0
 18 59  1  0  0  0  0
 19 47  1  0  0  0  0
 19 48  1  0  0  0  0
 19 49  1  0  0  0  0
 20 21  1  0  0  0  0
 20 50  1  0  0  0  0
 20 51  1  0  0  0  0
 21 22  1  0  0  0  0
 21 52  1  0  0  0  0
 21 53  1  0  0  0  0
 22 54  1  0  0  0  0
 23 30  1  0  0  0  0
 23 24  1  0  0  0  0
 24 55  1  0  0  0  0
 24 56  1  0  0  0  0
 24 57  1  0  0  0  0
 25 26  1  0  0  0  0
 26 27  2  0  0  0  0
 26 58  1  0  0  0  0
 27 28  1  0  0  0  0
M  CHG  1  18   1
M  END
> <s_m_source_file>
AV-unprocessed.smi

> <i_m_source_file_index>
290

> <i_lp_mmshare_version>
43012

> <i_f3d_flags>
0

> <s_epik_input>
W0NIMl0xW0NIMl1PW0NAQEhdKFtDSDNdKVtDQEBdMShbT0hdKVtDSDJdbihbY0hdbjIpYyhjMjMpbltjSF1uYzNONFtDSDJdW0NIMl1bQ0BIXShbQ0BIXTRbQ0gzXSlOKFtDSDNdKVtDSDJdW0NIMl1bT0hd

> <s_epik_cmdline>
J2VwaWtfcHl0aG9uJywgJy1waCcsICc3LjAnLCAnLXRuJywgJzgnLCAnLW1hJywgJzIwMCcsICctbWV0YWxfYmluZGluZycsICctaW1hZScsICc8aW5maWxlLm1hZT4nLCAnLW9tYWUnLCAnPG91dGZpbGUubWFlPic=

> <r_lp_tautomer_probability>
1

> <r_epik_Ionization_Penalty>
0.0036983

> <r_epik_Ionization_Penalty_Charging>
0.0032725

> <r_epik_Ionization_Penalty_Neutral>
0.000425798

> <r_epik_State_Penalty>
-0

> <r_epik_Charging_Adjusted_Penalty>
0.0032725

> <i_epik_Tot_Q>
1

> <i_epik_Tot_abs_Q>
1

> <r_epik_Metal_State_Penalty>
-0

> <b_epik_Metal_Only>
0

> <s_lp_Force_Field>
OPLS_2005

> <r_lp_Energy>
66.2506

> <b_lp_Chiralities_Consistent>
1

> <s_lp_Variant>
AV-unprocessed.smi:290-25

> <Gold.Version>
5.8.1

> <Gold.Id.Protein>
6NUR|6NUR_protein|mol2

> <Gold.PLP.Fitness>
52.3719

> <Gold.PLP.PLP>
-43.7878

> <Gold.PLP.part.hbond>
-4.0000

> <Gold.PLP.part.metal>
0.0000

> <Gold.PLP.part.buried>
-1.7534

> <Gold.PLP.part.nonpolar>
-40.0263

> <Gold.PLP.part.repulsive>
0.3552

> <Gold.PLP.ligand.clash>
0.0000

> <Gold.PLP.ligand.torsion>
1.3917

> <Gold.PLP.Chemscore.Hbond>
3.0720

> <Gold.PLP.Chemscore.CHOScore>
0.6506

> <Gold.PLP.Chemscore.Metal>
0.0000

> <Gold.Chemscore.Hbonds>
donor molecule, donor type, donor heavy atom, donor atom, acceptor molecule, acceptor atom, score
      L1  H    18    59       P1  7948  1.76
      L1  H    22    54       P1 10747  1.00
      P1  H  7989  7998       L1    27  0.21
      L1  C    10    42       P1  8028  0.64

> <Gold.PLP.Chemscore.Internal.Correction>
0.1999

> <Gold.Rescore>
     Score         DG    S(hbond)    S(metal)    S(lipo)     H(rot)  DE(clash)    DE(int)     intcor
     11.69     -14.53       1.91        0.00      96.11       3.35       1.66       1.18       ----

> <Gold.Chemscore.Fitness>
11.6900

> <Gold.Chemscore.DG>
-14.5328

> <Gold.Chemscore.ZeroCoef>
-5.4800

> <Gold.Chemscore.Hbond>
1.9126

> <Gold.Chemscore.Metal>
0.0000

> <Gold.Chemscore.Lipo>
96.1124

> <Gold.Chemscore.Internal_Hbond>
0.0000

> <Gold.Chemscore.DEClash>
1.6626

> <Gold.Chemscore.DEInternal>
1.1802

> <Gold.Chemscore.Rot>
3.3518

> <Gold.Chemscore.Internal.Correction>
   9.000000E+99

> <Gold.Chemscore.Hbonds>
donor molecule, donor type, donor heavy atom, donor atom, acceptor molecule, acceptor atom, score
      L1  H    18    59       P1  7948  0.86
      L1  H    22    54       P1 10747  0.95

> <Gold.Chemscore.Hbond.Weighted>
-6.3882

> <Gold.Chemscore.Metal.Weighted>
-0.0000

> <Gold.Chemscore.Lipo.Weighted>
-11.2452

> <Gold.Chemscore.Internal_Hbond.Weighted>
0.0000

> <Gold.Chemscore.DEClash.Weighted>
1.6626

> <Gold.Chemscore.DEInternal.Weighted>
1.1802

> <Gold.Chemscore.Rot.Weighted>
8.5806

> <Gold.Chemscore.Internal.Correction.Weighted>
   9.000000E+99

> <Gold.Protein.RotatedTorsions>
[ 6907 6896 6895 6894 ] final -113.28 input  -60.11 | X-H torsion
[ 7974 7965 7964 7962 ] final  -81.84 input  175.53 | X-H torsion
[ 8008 7997 7996 7995 ] final -163.58 input   59.86 | X-H torsion
[ 10167 10162 10161 10158 ] final   23.24 input  -65.29 | X-H torsion
[ 10718 10713 10712 10709 ] final  -98.65 input   66.30 | X-H torsion
[ 10763 10752 10751 10750 ] final  143.68 input  -60.55 | X-H torsion
[ 11005 11000 10999 10996 ] final   30.55 input  -57.11 | X-H torsion

> <Gold.Protein.ActiveResidues>
 VAL166  LYS551  ARG553  GLY616  TRP617  ASP618  TYR619  PRO620  LYS621  CYS622 
 ASP623  PHE694  ASN695  SER759  ASP760  ASP761  ALA762  ILE779  LEU786  VAL792 
 PHE793  MET794  SER795  GLU796  ALA797  LYS798  CYS799  TRP800  GLU811  SER814 

> <Gold.Protein.RotatedAtoms>
  150.7818  133.8967  159.3328 H   0  0  0  0  0  0  0  0  0  0  0  0  # atno 6907 bound_to 6896
  151.6828  135.0957  160.0228 H   0  0  0  0  0  0  0  0  0  0  0  0  # atno 6908 bound_to 6896
  152.3871  133.6588  159.6243 H   0  0  0  0  0  0  0  0  0  0  0  0  # atno 6909 bound_to 6896
  145.5413  140.9509  143.1549 H   0  0  0  0  0  0  0  0  0  0  0  0  # atno 7974 bound_to 7965
  155.8233  140.0923  157.1836 H   0  0  0  0  0  0  0  0  0  0  0  0  # atno 8008 bound_to 7997
  154.3979  140.1433  156.3586 H   0  0  0  0  0  0  0  0  0  0  0  0  # atno 8009 bound_to 7997
  155.8244  140.3445  155.5536 H   0  0  0  0  0  0  0  0  0  0  0  0  # atno 8010 bound_to 7997
  140.5284  143.9883  150.6453 H   0  0  0  0  0  0  0  0  0  0  0  0  # atno 10167 bound_to 10162
  156.0113  130.5247  150.6553 H   0  0  0  0  0  0  0  0  0  0  0  0  # atno 10718 bound_to 10713
  153.9763  135.2945  155.3423 H   0  0  0  0  0  0  0  0  0  0  0  0  # atno 10763 bound_to 10752
  154.7294  135.5074  153.8942 H   0  0  0  0  0  0  0  0  0  0  0  0  # atno 10764 bound_to 10752
  153.0876  135.6698  154.0032 H   0  0  0  0  0  0  0  0  0  0  0  0  # atno 10765 bound_to 10752
  140.2932  134.2841  155.7771 H   0  0  0  0  0  0  0  0  0  0  0  0  # atno 11005 bound_to 11000
  144.7575  139.7037  143.7248 LP  0  0  0  0  0  0  0  0  0  0  0  0  # atno 17320 bound_to 7965
  146.1979  139.5256  142.9762 LP  0  0  0  0  0  0  0  0  0  0  0  0  # atno 17321 bound_to 7965
  140.3251  143.3112  152.0744 LP  0  0  0  0  0  0  0  0  0  0  0  0  # atno 17342 bound_to 10162
  139.4946  144.6547  151.6598 LP  0  0  0  0  0  0  0  0  0  0  0  0  # atno 17343 bound_to 10162
  157.4306  131.0849  151.1042 LP  0  0  0  0  0  0  0  0  0  0  0  0  # atno 17370 bound_to 10713
  157.1616  130.6228  149.5612 LP  0  0  0  0  0  0  0  0  0  0  0  0  # atno 17371 bound_to 10713
  141.2142  133.7598  156.9656 LP  0  0  0  0  0  0  0  0  0  0  0  0  # atno 17394 bound_to 11000
  140.1176  134.9437  157.2157 LP  0  0  0  0  0  0  0  0  0  0  0  0  # atno 17395 bound_to 11000

$$$$
