AV-unprocessed.smi:2784|AV-procd|sdf|10741|dock2
  -GOLD-   2272015173D 1   1.00000     0.00000
 Structure written by MMmdl.
 31 32  0  0  0  0  0  0  0  0  1 V2000
  153.4232  141.8433  160.9866 C   0  0  0  0  0  0  0  0  0  0  0  0
  153.2154  142.4232  159.7091 O   0  0  0  0  0  0  0  0  0  0  0  0
  151.9641  143.0846  159.5791 C   0  0  1  0  0  0  0  0  0  0  0  0
  151.7783  144.1742  160.6438 C   0  0  0  0  0  0  0  0  0  0  0  0
  150.9217  145.2331  159.9590 C   0  0  0  0  0  0  0  0  0  0  0  0
  151.4455  145.2538  158.5238 C   0  0  0  0  0  0  0  0  0  0  0  0
  151.8872  143.8116  158.2165 C   0  0  2  0  0  0  0  0  0  0  0  0
  150.9306  143.1727  157.3161 N   0  0  0  0  0  0  0  0  0  0  0  0
  150.9061  141.8659  157.0136 C   0  0  0  0  0  0  0  0  0  0  0  0
  151.7300  141.0723  157.4790 O   0  0  0  0  0  0  0  0  0  0  0  0
  149.8919  141.5937  156.1114 N   0  0  0  0  0  0  0  0  0  0  0  0
  149.9680  140.4987  155.4212 C   0  0  0  0  0  0  0  0  0  0  0  0
  149.0646  140.0181  154.4868 N   0  0  0  0  0  0  0  0  0  0  0  0
  149.5487  138.8366  153.9970 C   0  0  0  0  0  0  0  0  0  0  0  0
  150.7094  138.5843  154.5952 C   0  0  0  0  0  0  0  0  0  0  0  0
  150.9962  139.5852  155.4737 O   0  0  0  0  0  0  0  0  0  0  0  0
  154.3928  141.3461  161.0069 H   0  0  0  0  0  0  0  0  0  0  0  0
  152.6599  141.0966  161.2083 H   0  0  0  0  0  0  0  0  0  0  0  0
  153.4174  142.5957  161.7756 H   0  0  0  0  0  0  0  0  0  0  0  0
  151.1462  142.3649  159.6580 H   0  0  0  0  0  0  0  0  0  0  0  0
  151.3250  143.7952  161.5601 H   0  0  0  0  0  0  0  0  0  0  0  0
  152.7448  144.6076  160.9051 H   0  0  0  0  0  0  0  0  0  0  0  0
  149.8757  144.9234  159.9670 H   0  0  0  0  0  0  0  0  0  0  0  0
  150.9875  146.2068  160.4450 H   0  0  0  0  0  0  0  0  0  0  0  0
  150.7072  145.6423  157.8208 H   0  0  0  0  0  0  0  0  0  0  0  0
  152.3134  145.9127  158.4715 H   0  0  0  0  0  0  0  0  0  0  0  0
  152.8667  143.8422  157.7350 H   0  0  0  0  0  0  0  0  0  0  0  0
  150.2355  143.7689  156.8910 H   0  0  0  0  0  0  0  0  0  0  0  0
  148.1930  140.4319  154.1886 H   0  0  0  0  0  0  0  0  0  0  0  0
  148.9942  138.2865  153.2509 H   0  0  0  0  0  0  0  0  0  0  0  0
  151.4183  137.7739  154.5101 H   0  0  0  0  0  0  0  0  0  0  0  0
  1  2  1  0  0  0  0
  1 17  1  0  0  0  0
  1 18  1  0  0  0  0
  1 19  1  0  0  0  0
  2  3  1  0  0  0  0
  3  7  1  0  0  0  0
  3  4  1  0  0  0  0
  3 20  1  0  0  0  0
  4  5  1  0  0  0  0
  4 21  1  0  0  0  0
  4 22  1  0  0  0  0
  5  6  1  0  0  0  0
  5 23  1  0  0  0  0
  5 24  1  0  0  0  0
  6  7  1  0  0  0  0
  6 25  1  0  0  0  0
  6 26  1  0  0  0  0
  7  8  1  0  0  0  0
  7 27  1  0  0  0  0
  8 28  1  0  0  0  0
  8  9  1  0  0  0  0
  9 11  1  0  0  0  0
  9 10  2  0  0  0  0
 11 12  2  0  0  0  0
 12 16  1  0  0  0  0
 12 13  1  0  0  0  0
 13 29  1  0  0  0  0
 13 14  1  0  0  0  0
 14 30  1  0  0  0  0
 14 15  2  0  0  0  0
 15 31  1  0  0  0  0
 15 16  1  0  0  0  0
M  END
> <s_m_source_file>
AV-unprocessed.smi

> <i_m_source_file_index>
2784

> <i_lp_mmshare_version>
43012

> <i_f3d_flags>
0

> <s_epik_input>
W0NIM11PW0NAQEhdMVtDSDJdW0NIMl1bQ0gyXVtDQEhdMVtOSF1DKD1PKVtOSF1jMm5bY0hdW2NIXW8y

> <s_epik_cmdline>
J2VwaWtfcHl0aG9uJywgJy1waCcsICc3LjAnLCAnLXRuJywgJzgnLCAnLW1hJywgJzIwMCcsICctbWV0YWxfYmluZGluZycsICctaW1hZScsICc8aW5maWxlLm1hZT4nLCAnLW9tYWUnLCAnPG91dGZpbGUubWFlPic=

> <r_lp_tautomer_probability>
0.107061

> <r_epik_Ionization_Penalty>
1.29244

> <r_epik_Ionization_Penalty_Charging>
1.29208

> <r_epik_Ionization_Penalty_Neutral>
0.000359742

> <r_epik_State_Penalty>
2.59896

> <r_epik_Charging_Adjusted_Penalty>
3.89105

> <i_epik_Tot_Q>
0

> <i_epik_Tot_abs_Q>
0

> <r_epik_Metal_State_Penalty>
3.62496

> <b_epik_Metal_Only>
0

> <s_lp_Force_Field>
OPLS_2005

> <r_lp_Energy>
42.0799

> <b_lp_Chiralities_Consistent>
1

> <s_lp_Variant>
AV-unprocessed.smi:2784-16

> <Gold.Version>
5.8.1

> <Gold.Id.Protein>
6NUR|6NUR_protein|mol2

> <Gold.PLP.Fitness>
42.0075

> <Gold.PLP.PLP>
-35.2275

> <Gold.PLP.part.hbond>
-1.8633

> <Gold.PLP.part.metal>
0.0000

> <Gold.PLP.part.buried>
-3.4060

> <Gold.PLP.part.nonpolar>
-29.8818

> <Gold.PLP.part.repulsive>
0.2627

> <Gold.PLP.ligand.clash>
0.0000

> <Gold.PLP.ligand.torsion>
0.1775

> <Gold.PLP.Chemscore.Hbond>
0.9913

> <Gold.PLP.Chemscore.CHOScore>
1.3854

> <Gold.PLP.Chemscore.Metal>
0.0000

> <Gold.Chemscore.Hbonds>
donor molecule, donor type, donor heavy atom, donor atom, acceptor molecule, acceptor atom, score
      L1  H     8    28       P1  8028  0.96
      L1  C    14    30       P1  7948  1.00
      L1  C    14    30       P1  7957  0.11

> <Gold.PLP.Chemscore.Internal.Correction>
0.0050

> <Gold.Rescore>
     Score         DG    S(hbond)    S(metal)    S(lipo)     H(rot)  DE(clash)    DE(int)     intcor
     10.95     -14.92       0.95        0.00      82.52       1.32       0.19       3.79       ----

> <Gold.Chemscore.Fitness>
10.9536

> <Gold.Chemscore.DG>
-14.9248

> <Gold.Chemscore.ZeroCoef>
-5.4800

> <Gold.Chemscore.Hbond>
0.9516

> <Gold.Chemscore.Metal>
0.0000

> <Gold.Chemscore.Lipo>
82.5198

> <Gold.Chemscore.Internal_Hbond>
0.0000

> <Gold.Chemscore.DEClash>
0.1859

> <Gold.Chemscore.DEInternal>
3.7853

> <Gold.Chemscore.Rot>
1.3235

> <Gold.Chemscore.Internal.Correction>
   9.000000E+99

> <Gold.Chemscore.Hbonds>
donor molecule, donor type, donor heavy atom, donor atom, acceptor molecule, acceptor atom, score
      L1  H     8    28       P1  8028  0.91

> <Gold.Chemscore.Hbond.Weighted>
-3.1782

> <Gold.Chemscore.Metal.Weighted>
-0.0000

> <Gold.Chemscore.Lipo.Weighted>
-9.6548

> <Gold.Chemscore.Internal_Hbond.Weighted>
0.0000

> <Gold.Chemscore.DEClash.Weighted>
0.1859

> <Gold.Chemscore.DEInternal.Weighted>
3.7853

> <Gold.Chemscore.Rot.Weighted>
3.3882

> <Gold.Chemscore.Internal.Correction.Weighted>
   9.000000E+99

> <Gold.Protein.RotatedTorsions>
[ 6907 6896 6895 6894 ] final   77.72 input  -60.11 | X-H torsion
[ 7974 7965 7964 7962 ] final   50.91 input  175.53 | X-H torsion
[ 8008 7997 7996 7995 ] final  108.38 input   59.86 | X-H torsion
[ 10167 10162 10161 10158 ] final  -21.49 input  -65.29 | X-H torsion
[ 10718 10713 10712 10709 ] final  -81.12 input   66.30 | X-H torsion
[ 10763 10752 10751 10750 ] final   59.48 input  -60.55 | X-H torsion
[ 11005 11000 10999 10996 ] final -114.78 input  -57.11 | X-H torsion

> <Gold.Protein.ActiveResidues>
 VAL166  LYS551  ARG553  GLY616  TRP617  ASP618  TYR619  PRO620  LYS621  CYS622 
 ASP623  PHE694  ASN695  SER759  ASP760  ASP761  ALA762  ILE779  LEU786  VAL792 
 PHE793  MET794  SER795  GLU796  ALA797  LYS798  CYS799  TRP800  GLU811  SER814 

> <Gold.Protein.RotatedAtoms>
  152.5129  134.3774  159.9339 H   0  0  0  0  0  0  0  0  0  0  0  0  # atno 6907 bound_to 6896
  151.3730  133.3842  159.2709 H   0  0  0  0  0  0  0  0  0  0  0  0  # atno 6908 bound_to 6896
  150.9563  134.8976  159.7761 H   0  0  0  0  0  0  0  0  0  0  0  0  # atno 6909 bound_to 6896
  145.9966  139.4394  143.0041 H   0  0  0  0  0  0  0  0  0  0  0  0  # atno 7974 bound_to 7965
  156.1899  140.3077  155.9311 H   0  0  0  0  0  0  0  0  0  0  0  0  # atno 8008 bound_to 7997
  155.3198  140.0455  157.3056 H   0  0  0  0  0  0  0  0  0  0  0  0  # atno 8009 bound_to 7997
  154.5439  140.2270  155.8604 H   0  0  0  0  0  0  0  0  0  0  0  0  # atno 8010 bound_to 7997
  140.7282  143.4623  151.0362 H   0  0  0  0  0  0  0  0  0  0  0  0  # atno 10167 bound_to 10162
  156.0056  130.4594  150.3903 H   0  0  0  0  0  0  0  0  0  0  0  0  # atno 10718 bound_to 10713
  152.9896  135.5570  154.5720 H   0  0  0  0  0  0  0  0  0  0  0  0  # atno 10763 bound_to 10752
  154.5119  135.2803  155.1338 H   0  0  0  0  0  0  0  0  0  0  0  0  # atno 10764 bound_to 10752
  154.2726  135.6360  153.5369 H   0  0  0  0  0  0  0  0  0  0  0  0  # atno 10765 bound_to 10752
  141.0530  133.9657  157.2803 H   0  0  0  0  0  0  0  0  0  0  0  0  # atno 11005 bound_to 11000
  145.7551  140.9957  143.1230 LP  0  0  0  0  0  0  0  0  0  0  0  0  # atno 17320 bound_to 7965
  144.6905  139.9261  143.7470 LP  0  0  0  0  0  0  0  0  0  0  0  0  # atno 17321 bound_to 7965
  139.8308  143.7693  152.3179 LP  0  0  0  0  0  0  0  0  0  0  0  0  # atno 17342 bound_to 10162
  139.7808  144.7445  151.0091 LP  0  0  0  0  0  0  0  0  0  0  0  0  # atno 17343 bound_to 10162
  157.1978  131.0431  151.2666 LP  0  0  0  0  0  0  0  0  0  0  0  0  # atno 17370 bound_to 10713
  157.4003  130.7329  149.6762 LP  0  0  0  0  0  0  0  0  0  0  0  0  # atno 17371 bound_to 10713
  139.9366  135.0196  156.8575 LP  0  0  0  0  0  0  0  0  0  0  0  0  # atno 17394 bound_to 11000
  140.6019  134.0164  155.7540 LP  0  0  0  0  0  0  0  0  0  0  0  0  # atno 17395 bound_to 11000

$$$$
