AV-unprocessed.smi:299|AV-procd|sdf|2268|dock7
  -GOLD-   2262022163D 1   1.00000     0.00000
 Structure written by MMmdl.
 42 43  0  0  0  0  0  0  0  0  2 V2000
  146.7366  131.5750  153.6394 C   0  0  0  0  0  0  0  0  0  0  0  0
  145.8714  132.4691  152.7264 C   0  0  1  0  0  0  0  0  0  0  0  0
  145.1166  131.5631  151.7278 C   0  0  0  0  0  0  0  0  0  0  0  0
  144.2363  132.3693  150.7706 C   0  0  0  0  0  0  0  0  0  0  0  0
  143.2763  133.2398  151.5803 C   0  0  0  0  0  0  0  0  0  0  0  0
  144.0511  134.1350  152.5574 C   0  0  0  0  0  0  0  0  0  0  0  0
  144.9137  133.3429  153.4829 N   0  3  2  0  0  0  0  0  0  0  0  0
  145.5632  134.2097  154.5092 C   0  0  0  0  0  0  0  0  0  0  0  0
  146.3636  135.3822  153.9045 C   0  0  0  0  0  0  0  0  0  0  0  0
  147.3736  136.0061  154.8871 C   0  0  0  0  0  0  0  0  0  0  0  0
  148.2049  137.0347  154.2691 N   0  0  0  0  0  0  0  0  0  0  0  0
  148.4430  138.2510  154.7856 C   0  0  0  0  0  0  0  0  0  0  0  0
  147.9523  138.6455  155.8428 O   0  0  0  0  0  0  0  0  0  0  0  0
  149.3699  139.1673  153.9854 C   0  0  0  0  0  0  0  0  0  0  0  0
  150.7607  138.9432  154.3326 N   0  0  0  0  0  0  0  0  0  0  0  0
  151.5100  137.8398  154.2844 C   0  0  0  0  0  0  0  0  0  0  0  0
  152.7444  138.0677  154.7062 N   0  0  0  0  0  0  0  0  0  0  0  0
  152.7227  139.4146  155.0287 N   0  0  0  0  0  0  0  0  0  0  0  0
  151.5487  139.9395  154.8087 N   0  0  0  0  0  0  0  0  0  0  0  0
  147.2833  130.8350  153.0538 H   0  0  0  0  0  0  0  0  0  0  0  0
  146.1260  131.0333  154.3625 H   0  0  0  0  0  0  0  0  0  0  0  0
  147.4926  132.1410  154.1823 H   0  0  0  0  0  0  0  0  0  0  0  0
  146.5400  133.1182  152.1583 H   0  0  0  0  0  0  0  0  0  0  0  0
  145.8260  130.9725  151.1469 H   0  0  0  0  0  0  0  0  0  0  0  0
  144.4980  130.8485  152.2735 H   0  0  0  0  0  0  0  0  0  0  0  0
  144.8577  132.9945  150.1283 H   0  0  0  0  0  0  0  0  0  0  0  0
  143.6788  131.7001  150.1145 H   0  0  0  0  0  0  0  0  0  0  0  0
  142.6761  133.8540  150.9083 H   0  0  0  0  0  0  0  0  0  0  0  0
  142.5775  132.6089  152.1316 H   0  0  0  0  0  0  0  0  0  0  0  0
  144.6682  134.8447  152.0041 H   0  0  0  0  0  0  0  0  0  0  0  0
  143.3212  134.7216  153.1118 H   0  0  0  0  0  0  0  0  0  0  0  0
  144.8148  134.6636  155.1536 H   0  0  0  0  0  0  0  0  0  0  0  0
  146.1955  133.5979  155.1542 H   0  0  0  0  0  0  0  0  0  0  0  0
  146.9019  135.0667  153.0122 H   0  0  0  0  0  0  0  0  0  0  0  0
  145.6709  136.1598  153.5805 H   0  0  0  0  0  0  0  0  0  0  0  0
  146.8495  136.4278  155.7462 H   0  0  0  0  0  0  0  0  0  0  0  0
  148.0321  135.2321  155.2819 H   0  0  0  0  0  0  0  0  0  0  0  0
  148.6535  136.7940  153.3970 H   0  0  0  0  0  0  0  0  0  0  0  0
  149.2377  138.9896  152.9173 H   0  0  0  0  0  0  0  0  0  0  0  0
  149.1196  140.2131  154.1713 H   0  0  0  0  0  0  0  0  0  0  0  0
  151.1534  136.8780  153.9465 H   0  0  0  0  0  0  0  0  0  0  0  0
  144.3015  132.7159  153.9854 H   0  0  0  0  0  0  0  0  0  0  0  0
  1  2  1  0  0  0  0
  1 20  1  0  0  0  0
  1 21  1  0  0  0  0
  1 22  1  0  0  0  0
  2  7  1  0  0  0  0
  2  3  1  0  0  0  0
  2 23  1  0  0  0  0
  3  4  1  0  0  0  0
  3 24  1  0  0  0  0
  3 25  1  0  0  0  0
  4  5  1  0  0  0  0
  4 26  1  0  0  0  0
  4 27  1  0  0  0  0
  5  6  1  0  0  0  0
  5 28  1  0  0  0  0
  5 29  1  0  0  0  0
  6  7  1  0  0  0  0
  6 30  1  0  0  0  0
  6 31  1  0  0  0  0
  7  8  1  0  0  0  0
  7 42  1  0  0  0  0
  8  9  1  0  0  0  0
  8 32  1  0  0  0  0
  8 33  1  0  0  0  0
  9 10  1  0  0  0  0
  9 34  1  0  0  0  0
  9 35  1  0  0  0  0
 10 11  1  0  0  0  0
 10 36  1  0  0  0  0
 10 37  1  0  0  0  0
 11 12  1  0  0  0  0
 11 38  1  0  0  0  0
 12 13  2  0  0  0  0
 12 14  1  0  0  0  0
 14 15  1  0  0  0  0
 14 39  1  0  0  0  0
 14 40  1  0  0  0  0
 15 19  1  0  0  0  0
 15 16  1  0  0  0  0
 16 17  2  0  0  0  0
 16 41  1  0  0  0  0
 17 18  1  0  0  0  0
 18 19  2  0  0  0  0
M  CHG  1   7   1
M  END
> <s_m_source_file>
AV-unprocessed.smi

> <i_m_source_file_index>
299

> <i_lp_mmshare_version>
43012

> <i_f3d_flags>
0

> <s_epik_input>
W0NIM11bQ0BASF0xW0NIMl1bQ0gyXVtDSDJdW0NIMl1OMVtDSDJdW0NIMl1bQ0gyXVtOSF1DKD1PKVtDSDJdbjJbY0hdbm5uMg==

> <s_epik_cmdline>
J2VwaWtfcHl0aG9uJywgJy1waCcsICc3LjAnLCAnLXRuJywgJzgnLCAnLW1hJywgJzIwMCcsICctbWV0YWxfYmluZGluZycsICctaW1hZScsICc8aW5maWxlLm1hZT4nLCAnLW9tYWUnLCAnPG91dGZpbGUubWFlPic=

> <r_lp_tautomer_probability>
1

> <r_epik_Ionization_Penalty>
0.000544863

> <r_epik_Ionization_Penalty_Charging>
0.000543475

> <r_epik_Ionization_Penalty_Neutral>
1.38784e-06

> <r_epik_State_Penalty>
0.000340025

> <r_epik_Charging_Adjusted_Penalty>
0.0008835

> <i_epik_Tot_Q>
1

> <i_epik_Tot_abs_Q>
1

> <r_epik_Metal_State_Penalty>
-0

> <b_epik_Metal_Only>
0

> <s_lp_Force_Field>
OPLS_2005

> <r_lp_Energy>
25.9803

> <b_lp_Chiralities_Consistent>
1

> <s_lp_Variant>
AV-unprocessed.smi:299-4

> <Gold.Version>
5.8.1

> <Gold.Id.Protein>
6NUR|6NUR_protein|mol2

> <Gold.PLP.Fitness>
45.8348

> <Gold.PLP.PLP>
-29.4665

> <Gold.PLP.part.hbond>
-5.4475

> <Gold.PLP.part.metal>
0.0000

> <Gold.PLP.part.buried>
-5.0247

> <Gold.PLP.part.nonpolar>
-19.9600

> <Gold.PLP.part.repulsive>
0.1122

> <Gold.PLP.ligand.clash>
0.0000

> <Gold.PLP.ligand.torsion>
0.5669

> <Gold.PLP.Chemscore.Hbond>
4.8519

> <Gold.PLP.Chemscore.CHOScore>
0.9648

> <Gold.PLP.Chemscore.Metal>
0.0000

> <Gold.Chemscore.Hbonds>
donor molecule, donor type, donor heavy atom, donor atom, acceptor molecule, acceptor atom, score
      L1  H     7    42       P1 10957  1.92
      L1  H    11    38       P1  7948  1.00
      P1  H  7989  7998       L1    19  1.00
      P1  H  7997  8009       L1    18  0.86
      L1  C    16    41       P1  7949  0.75

> <Gold.PLP.Chemscore.Internal.Correction>
0.0519

> <Gold.Rescore>
     Score         DG    S(hbond)    S(metal)    S(lipo)     H(rot)  DE(clash)    DE(int)     intcor
     14.88     -15.69       3.77        0.00      44.61       2.97       0.04       0.77       ----

> <Gold.Chemscore.Fitness>
14.8773

> <Gold.Chemscore.DG>
-15.6898

> <Gold.Chemscore.ZeroCoef>
-5.4800

> <Gold.Chemscore.Hbond>
3.7691

> <Gold.Chemscore.Metal>
0.0000

> <Gold.Chemscore.Lipo>
44.6068

> <Gold.Chemscore.Internal_Hbond>
0.0000

> <Gold.Chemscore.DEClash>
0.0392

> <Gold.Chemscore.DEInternal>
0.7733

> <Gold.Chemscore.Rot>
2.9680

> <Gold.Chemscore.Internal.Correction>
   9.000000E+99

> <Gold.Chemscore.Hbonds>
donor molecule, donor type, donor heavy atom, donor atom, acceptor molecule, acceptor atom, score
      L1  H     7    42       P1 10957  0.72
      L1  H    11    38       P1  7948  1.00
      P1  H  7989  7998       L1    19  0.16
      P1  H  7997  8009       L1    18  0.79

> <Gold.Chemscore.Hbond.Weighted>
-12.5887

> <Gold.Chemscore.Metal.Weighted>
-0.0000

> <Gold.Chemscore.Lipo.Weighted>
-5.2190

> <Gold.Chemscore.Internal_Hbond.Weighted>
0.0000

> <Gold.Chemscore.DEClash.Weighted>
0.0392

> <Gold.Chemscore.DEInternal.Weighted>
0.7733

> <Gold.Chemscore.Rot.Weighted>
7.5980

> <Gold.Chemscore.Internal.Correction.Weighted>
   9.000000E+99

> <Gold.Protein.RotatedTorsions>
[ 6907 6896 6895 6894 ] final  -19.18 input  -60.11 | X-H torsion
[ 7974 7965 7964 7962 ] final    7.01 input  175.53 | X-H torsion
[ 8008 7997 7996 7995 ] final -145.13 input   59.86 | X-H torsion
[ 10167 10162 10161 10158 ] final  -83.07 input  -65.29 | X-H torsion
[ 10718 10713 10712 10709 ] final  101.62 input   66.30 | X-H torsion
[ 10763 10752 10751 10750 ] final   62.88 input  -60.55 | X-H torsion
[ 11005 11000 10999 10996 ] final  155.57 input  -57.11 | X-H torsion

> <Gold.Protein.ActiveResidues>
 VAL166  LYS551  ARG553  GLY616  TRP617  ASP618  TYR619  PRO620  LYS621  CYS622 
 ASP623  PHE694  ASN695  SER759  ASP760  ASP761  ALA762  ILE779  LEU786  VAL792 
 PHE793  MET794  SER795  GLU796  ALA797  LYS798  CYS799  TRP800  GLU811  SER814 

> <Gold.Protein.RotatedAtoms>
  151.2670  135.0672  159.9119 H   0  0  0  0  0  0  0  0  0  0  0  0  # atno 6907 bound_to 6896
  152.5357  134.0171  159.7975 H   0  0  0  0  0  0  0  0  0  0  0  0  # atno 6908 bound_to 6896
  151.0403  133.5662  159.2683 H   0  0  0  0  0  0  0  0  0  0  0  0  # atno 6909 bound_to 6896
  146.2430  140.0148  142.8403 H   0  0  0  0  0  0  0  0  0  0  0  0  # atno 7974 bound_to 7965
  155.5381  140.0605  157.2875 H   0  0  0  0  0  0  0  0  0  0  0  0  # atno 8008 bound_to 7997
  154.4461  140.1924  156.0607 H   0  0  0  0  0  0  0  0  0  0  0  0  # atno 8009 bound_to 7997
  156.0604  140.3273  155.7459 H   0  0  0  0  0  0  0  0  0  0  0  0  # atno 8010 bound_to 7997
  140.4261  143.2566  151.8823 H   0  0  0  0  0  0  0  0  0  0  0  0  # atno 10167 bound_to 10162
  157.6824  131.0731  150.5280 H   0  0  0  0  0  0  0  0  0  0  0  0  # atno 10718 bound_to 10713
  152.9998  135.5449  154.6264 H   0  0  0  0  0  0  0  0  0  0  0  0  # atno 10763 bound_to 10752
  154.5551  135.2829  155.0974 H   0  0  0  0  0  0  0  0  0  0  0  0  # atno 10764 bound_to 10752
  154.2198  135.6452  153.5194 H   0  0  0  0  0  0  0  0  0  0  0  0  # atno 10765 bound_to 10752
  140.1593  134.8620  157.2554 H   0  0  0  0  0  0  0  0  0  0  0  0  # atno 11005 bound_to 11000
  145.1295  140.9509  143.4553 LP  0  0  0  0  0  0  0  0  0  0  0  0  # atno 17320 bound_to 7965
  145.0402  139.3267  143.5980 LP  0  0  0  0  0  0  0  0  0  0  0  0  # atno 17321 bound_to 7965
  139.4783  144.5385  151.8563 LP  0  0  0  0  0  0  0  0  0  0  0  0  # atno 17342 bound_to 10162
  140.4479  144.1895  150.5895 LP  0  0  0  0  0  0  0  0  0  0  0  0  # atno 17343 bound_to 10162
  156.5590  130.4251  149.6071 LP  0  0  0  0  0  0  0  0  0  0  0  0  # atno 17370 bound_to 10713
  156.2837  130.7085  151.1916 LP  0  0  0  0  0  0  0  0  0  0  0  0  # atno 17371 bound_to 10713
  140.2509  134.3684  155.7443 LP  0  0  0  0  0  0  0  0  0  0  0  0  # atno 17394 bound_to 11000
  141.2208  133.7316  156.8933 LP  0  0  0  0  0  0  0  0  0  0  0  0  # atno 17395 bound_to 11000

$$$$
