#       Name:                AV-unprocessed.smi:1
#       Creating user name   scv26
#       Creation time:       Thu Mar 26 15:10:52 2020


#       File generated by GOLD software.
#

@<TRIPOS>MOLECULE
AV-unprocessed.smi:1
    66    71     1
SMALL
NO_CHARGES


@<TRIPOS>ATOM
      1 ****        -5.5821   2.2067   0.2433 O.2            1 S1                 0.0000
      2 ****        -5.7096   1.2861  -0.5686 C.2            1 S1                 0.0000
      3 ****        -4.7389   0.4327  -1.0767 N.2            1 S1                 0.0000
      4 ****        -3.4907   0.6044  -0.7616 C.2            1 S1                 0.0000
      5 ****        -2.8391   1.5480   0.0428 N.pl3          1 S1                 0.0000
      6 ****        -1.4570   1.6194   0.2719 C.2            1 S1                 0.0000
      7 ****        -0.5738   0.8012  -0.2337 N.2            1 S1                 0.0000
      8 ****        -1.1677  -0.1670  -1.0331 C.2            1 S1                 0.0000
      9 ****        -2.5029  -0.3361  -1.3332 C.2            1 S1                 0.0000
     10 ****        -2.6889  -1.4296  -2.1721 N.2            1 S1                 0.0000
     11 ****        -1.4491  -1.8795  -2.3419 C.2            1 S1                 0.0000
     12 ****        -0.4896  -1.1892  -1.6985 N.pl3          1 S1                 0.0000
     13 ****         0.9753  -1.5005  -1.7203 C.3            1 S1                 0.0000
     14 ****         1.6836  -0.3109  -1.5597 O.3            1 S1                 0.0000
     15 ****         2.8669  -0.5645  -0.8197 C.3            1 S1                 0.0000
     16 ****         3.4046   0.7290  -0.1947 C.3            1 S1                 0.0000
     17 ****         4.6272   0.4560   0.4713 O.3            1 S1                 0.0000
     18 ****         5.1432   1.3540   1.3337 C.2            1 S1                 0.0000
     19 ****         4.6133   2.4370   1.5905 O.2            1 S1                 0.0000
     20 ****         6.4221   0.8971   1.9500 C.ar           1 S1                 0.0000
     21 ****         7.0532   1.7107   2.9199 C.ar           1 S1                 0.0000
     22 ****         8.2605   1.3051   3.5212 C.ar           1 S1                 0.0000
     23 ****         8.8531   0.0818   3.1578 C.ar           1 S1                 0.0000
     24 ****         8.2364  -0.7356   2.1926 C.ar           1 S1                 0.0000
     25 ****         7.0277  -0.3326   1.5920 C.ar           1 S1                 0.0000
     26 ****         2.4536  -1.6483   0.1774 C.3            1 S1                 0.0000
     27 ****         1.8515  -1.0989   1.3367 O.3            1 S1                 0.0000
     28 ****         0.5786  -2.0855   1.7704 S.o2           1 S1                 0.0000
     29 ****         1.0913  -3.1142   2.6884 O.2            1 S1                 0.0000
     30 ****        -0.5827  -1.2450   2.0979 O.2            1 S1                 0.0000
     31 ****         0.3211  -2.8027   0.2837 O.3            1 S1                 0.0000
     32 ****         1.3933  -2.4585  -0.5851 C.3            1 S1                 0.0000
     33 ****        -7.0772   1.0091  -1.1021 C.ar           1 S1                 0.0000
     34 ****        -7.4919   1.5892  -2.3198 C.ar           1 S1                 0.0000
     35 ****        -8.7793   1.3242  -2.8261 C.ar           1 S1                 0.0000
     36 ****        -9.6543   0.4771  -2.1186 C.ar           1 S1                 0.0000
     37 ****        -9.2418  -0.1062  -0.9048 C.ar           1 S1                 0.0000
     38 ****        -7.9548   0.1583  -0.3968 C.ar           1 S1                 0.0000
     39 ****        -1.1572   2.4383   0.9274 H              1 S1                 0.0000
     40 ****        -1.2307  -2.7444  -2.9509 H              1 S1                 0.0000
     41 ****         1.1590  -1.9161  -2.7120 H              1 S1                 0.0000
     42 ****         3.6030  -0.9756  -1.5128 H              1 S1                 0.0000
     43 ****         3.5807   1.4752  -0.9702 H              1 S1                 0.0000
     44 ****         2.6695   1.1460   0.4954 H              1 S1                 0.0000
     45 ****         6.6169   2.6542   3.2152 H              1 S1                 0.0000
     46 ****         8.7320   1.9339   4.2621 H              1 S1                 0.0000
     47 ****         9.7793  -0.2287   3.6187 H              1 S1                 0.0000
     48 ****         8.6911  -1.6741   1.9119 H              1 S1                 0.0000
     49 ****         6.5814  -0.9836   0.8545 H              1 S1                 0.0000
     50 ****         3.3001  -2.2637   0.4843 H              1 S1                 0.0000
     51 ****         1.8253  -3.3559  -1.0290 H              1 S1                 0.0000
     52 ****        -6.8250   2.2379  -2.8695 H              1 S1                 0.0000
     53 ****        -9.0950   1.7693  -3.7582 H              1 S1                 0.0000
     54 ****       -10.6410   0.2741  -2.5082 H              1 S1                 0.0000
     55 ****        -9.9123  -0.7572  -0.3633 H              1 S1                 0.0000
     56 ****        -7.6450  -0.2943   0.5341 H              1 S1                 0.0000
     57 ****        -3.4170   2.2427   0.4935 H              1 S1                 0.0000
     58 ****        -4.6815   2.4165   0.6241 LP             1 S1                 0.0000
     59 ****        -6.3794   2.7429   0.5205 LP             1 S1                 0.0000
     60 ****        -5.0015  -0.3153  -1.6862 LP             1 S1                 0.0000
     61 ****         0.4100   0.8640  -0.0658 LP             1 S1                 0.0000
     62 ****        -3.5415  -1.7879  -2.5524 LP             1 S1                 0.0000
     63 ****         1.1177   0.3508  -1.0678 LP             1 S1                 0.0000
     64 ****         1.9240   0.0583  -2.4574 LP             1 S1                 0.0000
     65 ****         3.7523   2.6895   1.1491 LP             1 S1                 0.0000
     66 ****         5.0445   3.0630   2.2403 LP             1 S1                 0.0000
@<TRIPOS>BOND
    1    1    2 2     
    2    2    3 1     
    3    2   33 1     
    4    3    4 2     
    5    4    9 1     
    6    4    5 1     
    7    5    6 1     
    8    5   57 1     
    9    6    7 2     
   10    6   39 1     
   11    7    8 1     
   12    8   12 1     
   13    8    9 2     
   14    9   10 1     
   15   10   11 2     
   16   11   12 1     
   17   11   40 1     
   18   12   13 1     
   19   13   32 1     
   20   13   14 1     
   21   13   41 1     
   22   14   15 1     
   23   15   16 1     
   24   15   26 1     
   25   15   42 1     
   26   16   17 1     
   27   16   43 1     
   28   16   44 1     
   29   17   18 1     
   30   18   19 2     
   31   18   20 1     
   32   20   25 ar    
   33   20   21 ar    
   34   21   22 ar    
   35   21   45 1     
   36   22   23 ar    
   37   22   46 1     
   38   23   24 ar    
   39   23   47 1     
   40   24   25 ar    
   41   24   48 1     
   42   25   49 1     
   43   26   32 1     
   44   26   27 1     
   45   26   50 1     
   46   27   28 1     
   47   28   29 2     
   48   28   30 2     
   49   28   31 1     
   50   31   32 1     
   51   32   51 1     
   52   33   38 ar    
   53   33   34 ar    
   54   34   35 ar    
   55   34   52 1     
   56   35   36 ar    
   57   35   53 1     
   58   36   37 ar    
   59   36   54 1     
   60   37   38 ar    
   61   37   55 1     
   62   38   56 1     
   63    1   58 1     
   64    1   59 1     
   65    3   60 1     
   66    7   61 1     
   67   10   62 1     
   68   14   63 1     
   69   14   64 1     
   70   19   65 1     
   71   19   66 1     
@<TRIPOS>SUBSTRUCTURE
      1 S1             1
@<TRIPOS>SET
LONE_PAIRS      STATIC     ATOMS    <user>   **** ""
11 58 59 60 61 62 63 64 65 66 29 30
DONOR_HYDROGENS      STATIC     ATOMS    <user>   **** ""
1 57
ATOM$BLUE        STATIC     ATOMS    COLORGROUP SYSTEM
11 58 59 60 61 62 63 64 65 66 29 30
ATOM$RED        STATIC     ATOMS    COLORGROUP SYSTEM
1 57
