AV-unprocessed.smi:2691|AV-procd|sdf|10392|dock6
  -GOLD-   2272014423D 1   1.00000     0.00000
 Structure written by MMmdl.
 50 52  0  0  0  0  0  0  0  0  2 V2000
  152.6271  143.8129  160.3993 C   0  0  0  0  0  0  0  0  0  0  0  0
  152.2785  142.7415  159.3801 C   0  0  0  0  0  0  0  0  0  0  0  0
  151.4163  143.0810  158.3127 C   0  0  0  0  0  0  0  0  0  0  0  0
  151.1175  142.0800  157.3956 C   0  0  0  0  0  0  0  0  0  0  0  0
  150.3160  142.0943  156.2514 N   0  3  0  0  0  0  0  0  0  0  0  0
  150.3323  140.8626  155.6699 C   0  0  0  0  0  0  0  0  0  0  0  0
  151.1311  140.0629  156.4273 N   0  0  0  0  0  0  0  0  0  0  0  0
  151.4981  138.6519  156.2497 C   0  0  0  0  0  0  0  0  0  0  0  0
  151.0716  137.7719  157.4414 C   0  0  2  0  0  0  0  0  0  0  0  0
  152.1239  136.8657  157.7110 O   0  0  0  0  0  0  0  0  0  0  0  0
  149.7853  136.9732  157.1360 C   0  0  0  0  0  0  0  0  0  0  0  0
  149.0784  136.5844  158.3672 N   0  0  0  0  0  0  0  0  0  0  0  0
  148.5864  137.6332  159.1690 C   0  0  0  0  0  0  0  0  0  0  0  0
  147.9650  137.4069  160.2822 N   0  0  0  0  0  0  0  0  0  0  0  0
  147.7696  136.0903  160.7143 C   0  0  0  0  0  0  0  0  0  0  0  0
  147.0340  135.8963  162.0340 C   0  0  0  0  0  0  0  0  0  0  0  0
  147.7026  136.6796  163.1750 C   0  0  0  0  0  0  0  0  0  0  0  0
  146.8825  134.4072  162.3815 C   0  0  0  0  0  0  0  0  0  0  0  0
  148.2287  135.0483  159.9796 C   0  0  0  0  0  0  0  0  0  0  0  0
  148.9390  135.2740  158.7210 C   0  0  0  0  0  0  0  0  0  0  0  0
  149.3834  134.3525  158.0363 O   0  0  0  0  0  0  0  0  0  0  0  0
  151.6430  140.7790  157.5137 C   0  0  0  0  0  0  0  0  0  0  0  0
  152.4931  140.4269  158.5589 C   0  0  0  0  0  0  0  0  0  0  0  0
  152.8094  141.4309  159.5018 C   0  0  0  0  0  0  0  0  0  0  0  0
  153.7338  141.0764  160.6540 C   0  0  0  0  0  0  0  0  0  0  0  0
  152.1554  144.7652  160.1550 H   0  0  0  0  0  0  0  0  0  0  0  0
  153.7049  143.9751  160.4329 H   0  0  0  0  0  0  0  0  0  0  0  0
  152.2891  143.5193  161.3934 H   0  0  0  0  0  0  0  0  0  0  0  0
  151.0079  144.0762  158.2140 H   0  0  0  0  0  0  0  0  0  0  0  0
  149.8109  140.5733  154.7687 H   0  0  0  0  0  0  0  0  0  0  0  0
  151.0502  138.2975  155.3205 H   0  0  0  0  0  0  0  0  0  0  0  0
  152.5791  138.6065  156.1093 H   0  0  0  0  0  0  0  0  0  0  0  0
  150.9235  138.4056  158.3166 H   0  0  0  0  0  0  0  0  0  0  0  0
  152.7360  137.2815  158.2998 H   0  0  0  0  0  0  0  0  0  0  0  0
  149.1171  137.5817  156.5231 H   0  0  0  0  0  0  0  0  0  0  0  0
  150.0031  136.1084  156.5060 H   0  0  0  0  0  0  0  0  0  0  0  0
  148.7718  138.6398  158.7899 H   0  0  0  0  0  0  0  0  0  0  0  0
  146.0282  136.3020  161.9125 H   0  0  0  0  0  0  0  0  0  0  0  0
  147.7841  137.7387  162.9284 H   0  0  0  0  0  0  0  0  0  0  0  0
  148.7060  136.3080  163.3858 H   0  0  0  0  0  0  0  0  0  0  0  0
  147.1228  136.6007  164.0951 H   0  0  0  0  0  0  0  0  0  0  0  0
  146.3790  133.8668  161.5790 H   0  0  0  0  0  0  0  0  0  0  0  0
  146.2903  134.2763  163.2873 H   0  0  0  0  0  0  0  0  0  0  0  0
  147.8498  133.9326  162.5480 H   0  0  0  0  0  0  0  0  0  0  0  0
  148.0750  134.0348  160.3206 H   0  0  0  0  0  0  0  0  0  0  0  0
  152.8973  139.4295  158.6492 H   0  0  0  0  0  0  0  0  0  0  0  0
  154.0299  140.0275  160.6195 H   0  0  0  0  0  0  0  0  0  0  0  0
  153.2405  141.2505  161.6105 H   0  0  0  0  0  0  0  0  0  0  0  0
  154.6408  141.6801  160.6159 H   0  0  0  0  0  0  0  0  0  0  0  0
  149.7979  142.8850  155.8898 H   0  0  0  0  0  0  0  0  0  0  0  0
  1  2  1  0  0  0  0
  1 26  1  0  0  0  0
  1 27  1  0  0  0  0
  1 28  1  0  0  0  0
  2 24  1  0  0  0  0
  2  3  2  0  0  0  0
  3  4  1  0  0  0  0
  3 29  1  0  0  0  0
  4 22  2  0  0  0  0
  4  5  1  0  0  0  0
  5  6  2  0  0  0  0
  5 50  1  0  0  0  0
  6  7  1  0  0  0  0
  6 30  1  0  0  0  0
  7  8  1  0  0  0  0
  7 22  1  0  0  0  0
  8  9  1  0  0  0  0
  8 31  1  0  0  0  0
  8 32  1  0  0  0  0
  9 10  1  0  0  0  0
  9 11  1  0  0  0  0
  9 33  1  0  0  0  0
 10 34  1  0  0  0  0
 11 12  1  0  0  0  0
 11 35  1  0  0  0  0
 11 36  1  0  0  0  0
 12 20  1  0  0  0  0
 12 13  1  0  0  0  0
 13 14  2  0  0  0  0
 13 37  1  0  0  0  0
 14 15  1  0  0  0  0
 15 16  1  0  0  0  0
 15 19  2  0  0  0  0
 16 17  1  0  0  0  0
 16 18  1  0  0  0  0
 16 38  1  0  0  0  0
 17 39  1  0  0  0  0
 17 40  1  0  0  0  0
 17 41  1  0  0  0  0
 18 42  1  0  0  0  0
 18 43  1  0  0  0  0
 18 44  1  0  0  0  0
 19 20  1  0  0  0  0
 19 45  1  0  0  0  0
 20 21  2  0  0  0  0
 22 23  1  0  0  0  0
 23 24  2  0  0  0  0
 23 46  1  0  0  0  0
 24 25  1  0  0  0  0
 25 47  1  0  0  0  0
 25 48  1  0  0  0  0
 25 49  1  0  0  0  0
M  CHG  1   5   1
M  END
> <s_m_source_file>
AV-unprocessed.smi

> <i_m_source_file_index>
2691

> <i_lp_mmshare_version>
43012

> <i_f3d_flags>
0

> <s_epik_input>
W0NIM11jKFtjSF0xKWMoW0NIM10pW2NIXWMoYzEyKW4oW2NIXW4yKVtDSDJdW0NASF0oW09IXSlbQ0gyXW4zW2NIXW5jKFtDSF0oW0NIM10pW0NIM10pW2NIXWMzPU8=

> <s_epik_cmdline>
J2VwaWtfcHl0aG9uJywgJy1waCcsICc3LjAnLCAnLXRuJywgJzgnLCAnLW1hJywgJzIwMCcsICctbWV0YWxfYmluZGluZycsICctaW1hZScsICc8aW5maWxlLm1hZT4nLCAnLW9tYWUnLCAnPG91dGZpbGUubWFlPic=

> <r_lp_tautomer_probability>
1

> <r_epik_Ionization_Penalty>
1.0357

> <r_epik_Ionization_Penalty_Charging>
1.03568

> <r_epik_Ionization_Penalty_Neutral>
1.29543e-05

> <r_epik_State_Penalty>
1.08724

> <r_epik_Charging_Adjusted_Penalty>
2.12292

> <i_epik_Tot_Q>
1

> <i_epik_Tot_abs_Q>
1

> <r_epik_Metal_State_Penalty>
1.18376

> <b_epik_Metal_Only>
0

> <s_lp_Force_Field>
OPLS_2005

> <r_lp_Energy>
24.5824

> <b_lp_Chiralities_Consistent>
1

> <s_lp_Variant>
AV-unprocessed.smi:2691-3

> <Gold.Version>
5.8.1

> <Gold.Id.Protein>
6NUR|6NUR_protein|mol2

> <Gold.PLP.Fitness>
57.2165

> <Gold.PLP.PLP>
-47.3570

> <Gold.PLP.part.hbond>
-4.0000

> <Gold.PLP.part.metal>
0.0000

> <Gold.PLP.part.buried>
-3.2511

> <Gold.PLP.part.nonpolar>
-41.4413

> <Gold.PLP.part.repulsive>
0.0983

> <Gold.PLP.ligand.clash>
0.0000

> <Gold.PLP.ligand.torsion>
0.8802

> <Gold.PLP.Chemscore.Hbond>
3.8464

> <Gold.PLP.Chemscore.CHOScore>
0.0000

> <Gold.PLP.Chemscore.Metal>
0.0000

> <Gold.Chemscore.Hbonds>
donor molecule, donor type, donor heavy atom, donor atom, acceptor molecule, acceptor atom, score
      L1  H     5    50       P1  8028  1.85
      P1  H  6896  6907       L1    21  0.78
      P1  H  6931  6943       L1    14  0.48
      P1  H  6934  6947       L1    14  0.72

> <Gold.PLP.Chemscore.Internal.Correction>
0.0805

> <Gold.Rescore>
     Score         DG    S(hbond)    S(metal)    S(lipo)     H(rot)  DE(clash)    DE(int)     intcor
     19.32     -20.54       2.25        0.00     119.71       2.52       0.18       1.04       ----

> <Gold.Chemscore.Fitness>
19.3234

> <Gold.Chemscore.DG>
-20.5427

> <Gold.Chemscore.ZeroCoef>
-5.4800

> <Gold.Chemscore.Hbond>
2.2480

> <Gold.Chemscore.Metal>
0.0000

> <Gold.Chemscore.Lipo>
119.7088

> <Gold.Chemscore.Internal_Hbond>
0.0000

> <Gold.Chemscore.DEClash>
0.1776

> <Gold.Chemscore.DEInternal>
1.0417

> <Gold.Chemscore.Rot>
2.5202

> <Gold.Chemscore.Internal.Correction>
   9.000000E+99

> <Gold.Chemscore.Hbonds>
donor molecule, donor type, donor heavy atom, donor atom, acceptor molecule, acceptor atom, score
      L1  H     5    50       P1  8028  0.88
      P1  H  6896  6907       L1    21  0.11
      P1  H  6931  6943       L1    14  0.13
      P1  H  6934  6947       L1    14  0.50

> <Gold.Chemscore.Hbond.Weighted>
-7.5085

> <Gold.Chemscore.Metal.Weighted>
-0.0000

> <Gold.Chemscore.Lipo.Weighted>
-14.0059

> <Gold.Chemscore.Internal_Hbond.Weighted>
0.0000

> <Gold.Chemscore.DEClash.Weighted>
0.1776

> <Gold.Chemscore.DEInternal.Weighted>
1.0417

> <Gold.Chemscore.Rot.Weighted>
6.4517

> <Gold.Chemscore.Internal.Correction.Weighted>
   9.000000E+99

> <Gold.Protein.RotatedTorsions>
[ 6907 6896 6895 6894 ] final -118.66 input  -60.11 | X-H torsion
[ 7974 7965 7964 7962 ] final   -3.75 input  175.53 | X-H torsion
[ 8008 7997 7996 7995 ] final  128.28 input   59.86 | X-H torsion
[ 10167 10162 10161 10158 ] final -176.06 input  -65.29 | X-H torsion
[ 10718 10713 10712 10709 ] final  -98.41 input   66.30 | X-H torsion
[ 10763 10752 10751 10750 ] final    6.67 input  -60.55 | X-H torsion
[ 11005 11000 10999 10996 ] final  -53.31 input  -57.11 | X-H torsion

> <Gold.Protein.ActiveResidues>
 VAL166  LYS551  ARG553  GLY616  TRP617  ASP618  TYR619  PRO620  LYS621  CYS622 
 ASP623  PHE694  ASN695  SER759  ASP760  ASP761  ALA762  ILE779  LEU786  VAL792 
 PHE793  MET794  SER795  GLU796  ALA797  LYS798  CYS799  TRP800  GLU811  SER814 

> <Gold.Protein.RotatedAtoms>
  150.8238  133.8206  159.3127 H   0  0  0  0  0  0  0  0  0  0  0  0  # atno 6907 bound_to 6896
  151.5956  135.1049  160.0058 H   0  0  0  0  0  0  0  0  0  0  0  0  # atno 6908 bound_to 6896
  152.4325  133.7262  159.6618 H   0  0  0  0  0  0  0  0  0  0  0  0  # atno 6909 bound_to 6896
  146.2384  140.1769  142.8332 H   0  0  0  0  0  0  0  0  0  0  0  0  # atno 7974 bound_to 7965
  156.2911  140.2648  156.2411 H   0  0  0  0  0  0  0  0  0  0  0  0  # atno 8008 bound_to 7997
  154.9976  140.0388  157.2365 H   0  0  0  0  0  0  0  0  0  0  0  0  # atno 8009 bound_to 7997
  154.7630  140.2764  155.6204 H   0  0  0  0  0  0  0  0  0  0  0  0  # atno 8010 bound_to 7997
  139.5549  144.2015  152.1142 H   0  0  0  0  0  0  0  0  0  0  0  0  # atno 10167 bound_to 10162
  156.0107  130.5237  150.6519 H   0  0  0  0  0  0  0  0  0  0  0  0  # atno 10718 bound_to 10713
  153.2451  135.6907  153.7740 H   0  0  0  0  0  0  0  0  0  0  0  0  # atno 10763 bound_to 10752
  153.6855  135.3321  155.3190 H   0  0  0  0  0  0  0  0  0  0  0  0  # atno 10764 bound_to 10752
  154.8371  135.4533  154.1387 H   0  0  0  0  0  0  0  0  0  0  0  0  # atno 10765 bound_to 10752
  141.0969  133.6623  156.4153 H   0  0  0  0  0  0  0  0  0  0  0  0  # atno 11005 bound_to 11000
  144.9966  140.8595  143.5307 LP  0  0  0  0  0  0  0  0  0  0  0  0  # atno 17320 bound_to 7965
  145.1782  139.2366  143.5306 LP  0  0  0  0  0  0  0  0  0  0  0  0  # atno 17321 bound_to 7965
  140.1517  144.5108  150.6683 LP  0  0  0  0  0  0  0  0  0  0  0  0  # atno 17342 bound_to 10162
  140.6820  143.2331  151.5360 LP  0  0  0  0  0  0  0  0  0  0  0  0  # atno 17343 bound_to 10162
  157.4278  131.0845  151.1068 LP  0  0  0  0  0  0  0  0  0  0  0  0  # atno 17370 bound_to 10713
  157.1650  130.6242  149.5622 LP  0  0  0  0  0  0  0  0  0  0  0  0  # atno 17371 bound_to 10713
  140.5117  134.6388  157.5287 LP  0  0  0  0  0  0  0  0  0  0  0  0  # atno 17394 bound_to 11000
  139.9809  134.7139  155.9862 LP  0  0  0  0  0  0  0  0  0  0  0  0  # atno 17395 bound_to 11000

$$$$
