AV-unprocessed.smi:1195|AV-procd|sdf|4994|dock9
  -GOLD-   22720 3593D 1   1.00000     0.00000
 Structure written by MMmdl.
 39 40  0  0  0  0  0  0  0  0  1 V2000
  151.2448  141.1086  157.1120 N   0  0  0  0  0  0  0  0  0  0  0  0
  150.7949  140.8828  155.8753 C   0  0  0  0  0  0  0  0  0  0  0  0
  151.4003  140.1604  155.0845 O   0  0  0  0  0  0  0  0  0  0  0  0
  149.4789  141.5729  155.4931 C   0  0  0  0  0  0  0  0  0  0  0  0
  148.5878  140.7123  154.7318 N   0  0  0  0  0  0  0  0  0  0  0  0
  148.8384  139.4457  154.2406 C   0  0  0  0  0  0  0  0  0  0  0  0
  147.6931  139.0635  153.6014 C   0  0  0  0  0  0  0  0  0  0  0  0
  147.4025  137.8532  152.9232 N   0  0  0  0  0  0  0  0  0  0  0  0
  146.1940  137.3069  152.7125 C   0  0  0  0  0  0  0  0  0  0  0  0
  145.1248  137.7854  153.0918 O   0  0  0  0  0  0  0  0  0  0  0  0
  146.2922  136.1581  152.0281 N   0  0  0  0  0  0  0  0  0  0  0  0
  145.1694  135.3120  151.6355 C   0  0  2  0  0  0  0  0  0  0  0  0
  145.4585  133.8542  152.0417 C   0  0  0  0  0  0  0  0  0  0  0  0
  144.3337  132.9084  151.5903 C   0  0  0  0  0  0  0  0  0  0  0  0
  144.0926  133.0188  150.0751 C   0  0  1  0  0  0  0  0  0  0  0  0
  143.0109  132.1888  149.7084 O   0  0  0  0  0  0  0  0  0  0  0  0
  143.7876  134.4709  149.6696 C   0  0  0  0  0  0  0  0  0  0  0  0
  144.9128  135.4178  150.1173 C   0  0  0  0  0  0  0  0  0  0  0  0
  146.7886  140.1473  153.7462 C   0  0  0  0  0  0  0  0  0  0  0  0
  147.3369  141.1413  154.4280 N   0  0  0  0  0  0  0  0  0  0  0  0
  152.1060  140.6781  157.4169 H   0  0  0  0  0  0  0  0  0  0  0  0
  150.7246  141.7059  157.7381 H   0  0  0  0  0  0  0  0  0  0  0  0
  148.9691  141.9097  156.3972 H   0  0  0  0  0  0  0  0  0  0  0  0
  149.6933  142.4596  154.8954 H   0  0  0  0  0  0  0  0  0  0  0  0
  149.7852  138.9488  154.3929 H   0  0  0  0  0  0  0  0  0  0  0  0
  148.1996  137.3486  152.5638 H   0  0  0  0  0  0  0  0  0  0  0  0
  147.2126  135.8438  151.7576 H   0  0  0  0  0  0  0  0  0  0  0  0
  144.2749  135.6408  152.1686 H   0  0  0  0  0  0  0  0  0  0  0  0
  146.4014  133.5275  151.6004 H   0  0  0  0  0  0  0  0  0  0  0  0
  145.5833  133.7850  153.1230 H   0  0  0  0  0  0  0  0  0  0  0  0
  144.5868  131.8814  151.8562 H   0  0  0  0  0  0  0  0  0  0  0  0
  143.4181  133.1517  152.1312 H   0  0  0  0  0  0  0  0  0  0  0  0
  144.9782  132.6716  149.5414 H   0  0  0  0  0  0  0  0  0  0  0  0
  142.2431  132.7284  149.5959 H   0  0  0  0  0  0  0  0  0  0  0  0
  143.6560  134.5408  148.5892 H   0  0  0  0  0  0  0  0  0  0  0  0
  142.8463  134.7919  150.1182 H   0  0  0  0  0  0  0  0  0  0  0  0
  144.6535  136.4424  149.8479 H   0  0  0  0  0  0  0  0  0  0  0  0
  145.8258  135.1773  149.5707 H   0  0  0  0  0  0  0  0  0  0  0  0
  145.7754  140.2455  153.3855 H   0  0  0  0  0  0  0  0  0  0  0  0
  1  2  1  0  0  0  0
  1 21  1  0  0  0  0
  1 22  1  0  0  0  0
  2  3  2  0  0  0  0
  2  4  1  0  0  0  0
  4  5  1  0  0  0  0
  4 23  1  0  0  0  0
  4 24  1  0  0  0  0
  5 20  1  0  0  0  0
  5  6  1  0  0  0  0
  6  7  2  0  0  0  0
  6 25  1  0  0  0  0
  7  8  1  0  0  0  0
  7 19  1  0  0  0  0
  8  9  1  0  0  0  0
  8 26  1  0  0  0  0
  9 10  2  0  0  0  0
  9 11  1  0  0  0  0
 11 12  1  0  0  0  0
 11 27  1  0  0  0  0
 12 18  1  0  0  0  0
 12 13  1  0  0  0  0
 12 28  1  0  0  0  0
 13 14  1  0  0  0  0
 13 29  1  0  0  0  0
 13 30  1  0  0  0  0
 14 15  1  0  0  0  0
 14 31  1  0  0  0  0
 14 32  1  0  0  0  0
 15 16  1  0  0  0  0
 15 17  1  0  0  0  0
 15 33  1  0  0  0  0
 16 34  1  0  0  0  0
 17 18  1  0  0  0  0
 17 35  1  0  0  0  0
 17 36  1  0  0  0  0
 18 37  1  0  0  0  0
 18 38  1  0  0  0  0
 19 20  2  0  0  0  0
 19 39  1  0  0  0  0
M  END
> <s_m_source_file>
AV-unprocessed.smi

> <i_m_source_file_index>
1195

> <i_lp_mmshare_version>
43012

> <i_f3d_flags>
0

> <s_epik_input>
W05IMl1DKD1PKVtDSDJdbjFbY0hdYyhbY0hdbjEpW05IXUMoPU8pW05IXVtDQEBIXTJbQ0gyXVtDSDJdW0NAQEhdKFtPSF0pW0NIMl1bQ0gyXTI=

> <s_epik_cmdline>
J2VwaWtfcHl0aG9uJywgJy1waCcsICc3LjAnLCAnLXRuJywgJzgnLCAnLW1hJywgJzIwMCcsICctbWV0YWxfYmluZGluZycsICctaW1hZScsICc8aW5maWxlLm1hZT4nLCAnLW9tYWUnLCAnPG91dGZpbGUubWFlPic=

> <r_lp_tautomer_probability>
1

> <r_epik_Ionization_Penalty>
4.75851e-05

> <r_epik_Ionization_Penalty_Charging>
0

> <r_epik_Ionization_Penalty_Neutral>
4.75851e-05

> <r_epik_State_Penalty>
-0

> <r_epik_Charging_Adjusted_Penalty>
0

> <i_epik_Tot_Q>
0

> <i_epik_Tot_abs_Q>
0

> <r_epik_Metal_State_Penalty>
-0

> <b_epik_Metal_Only>
0

> <s_lp_Force_Field>
OPLS_2005

> <r_lp_Energy>
13.1232

> <b_lp_Chiralities_Consistent>
1

> <s_lp_Variant>
AV-unprocessed.smi:1195-1

> <Gold.Version>
5.8.1

> <Gold.Id.Protein>
6NUR|6NUR_protein|mol2

> <Gold.PLP.Fitness>
43.8441

> <Gold.PLP.PLP>
-29.6550

> <Gold.PLP.part.hbond>
-5.0453

> <Gold.PLP.part.metal>
0.0000

> <Gold.PLP.part.buried>
1.7554

> <Gold.PLP.part.nonpolar>
-27.3796

> <Gold.PLP.part.repulsive>
0.8155

> <Gold.PLP.ligand.clash>
0.0000

> <Gold.PLP.ligand.torsion>
0.5434

> <Gold.PLP.Chemscore.Hbond>
4.0895

> <Gold.PLP.Chemscore.CHOScore>
1.0000

> <Gold.PLP.Chemscore.Metal>
0.0000

> <Gold.Chemscore.Hbonds>
donor molecule, donor type, donor heavy atom, donor atom, acceptor molecule, acceptor atom, score
      L1  H     8    26       P1  7948  0.94
      L1  H    11    27       P1  7948  0.90
      L1  H    16    34       P1 10186  0.86
      P1  H  7989  7998       L1     3  1.00
      P1  H 10785 10796       L1    16  0.39
      L1  C    19    39       P1 10175  1.00

> <Gold.PLP.Chemscore.Internal.Correction>
0.0074

> <Gold.Rescore>
     Score         DG    S(hbond)    S(metal)    S(lipo)     H(rot)  DE(clash)    DE(int)     intcor
     14.50     -19.82       4.00        0.00      65.78       2.62       2.30       3.02       ----

> <Gold.Chemscore.Fitness>
14.5021

> <Gold.Chemscore.DG>
-19.8227

> <Gold.Chemscore.ZeroCoef>
-5.4800

> <Gold.Chemscore.Hbond>
3.9989

> <Gold.Chemscore.Metal>
0.0000

> <Gold.Chemscore.Lipo>
65.7829

> <Gold.Chemscore.Internal_Hbond>
0.0000

> <Gold.Chemscore.DEClash>
2.3020

> <Gold.Chemscore.DEInternal>
3.0186

> <Gold.Chemscore.Rot>
2.6212

> <Gold.Chemscore.Internal.Correction>
   9.000000E+99

> <Gold.Chemscore.Hbonds>
donor molecule, donor type, donor heavy atom, donor atom, acceptor molecule, acceptor atom, score
      L1  H     8    26       P1  7948  0.89
      L1  H    11    27       P1  7948  0.88
      L1  H    16    34       P1 10186  0.84
      P1  H  7989  7998       L1     3  0.86
      P1  H 10785 10796       L1    16  0.39

> <Gold.Chemscore.Hbond.Weighted>
-13.3564

> <Gold.Chemscore.Metal.Weighted>
-0.0000

> <Gold.Chemscore.Lipo.Weighted>
-7.6966

> <Gold.Chemscore.Internal_Hbond.Weighted>
0.0000

> <Gold.Chemscore.DEClash.Weighted>
2.3020

> <Gold.Chemscore.DEInternal.Weighted>
3.0186

> <Gold.Chemscore.Rot.Weighted>
6.7103

> <Gold.Chemscore.Internal.Correction.Weighted>
   9.000000E+99

> <Gold.Protein.RotatedTorsions>
[ 6907 6896 6895 6894 ] final -111.21 input  -60.11 | X-H torsion
[ 7974 7965 7964 7962 ] final  141.54 input  175.53 | X-H torsion
[ 8008 7997 7996 7995 ] final  -13.26 input   59.86 | X-H torsion
[ 10167 10162 10161 10158 ] final -109.75 input  -65.29 | X-H torsion
[ 10718 10713 10712 10709 ] final   14.21 input   66.30 | X-H torsion
[ 10763 10752 10751 10750 ] final  123.92 input  -60.55 | X-H torsion
[ 11005 11000 10999 10996 ] final  127.35 input  -57.11 | X-H torsion

> <Gold.Protein.ActiveResidues>
 VAL166  LYS551  ARG553  GLY616  TRP617  ASP618  TYR619  PRO620  LYS621  CYS622 
 ASP623  PHE694  ASN695  SER759  ASP760  ASP761  ALA762  ILE779  LEU786  VAL792 
 PHE793  MET794  SER795  GLU796  ALA797  LYS798  CYS799  TRP800  GLU811  SER814 

> <Gold.Protein.RotatedAtoms>
  150.7675  133.9268  159.3414 H   0  0  0  0  0  0  0  0  0  0  0  0  # atno 6907 bound_to 6896
  151.7162  135.0901  160.0286 H   0  0  0  0  0  0  0  0  0  0  0  0  # atno 6908 bound_to 6896
  152.3678  133.6342  159.6100 H   0  0  0  0  0  0  0  0  0  0  0  0  # atno 6909 bound_to 6896
  144.9087  139.5322  143.5719 H   0  0  0  0  0  0  0  0  0  0  0  0  # atno 7974 bound_to 7965
  154.5307  140.2254  155.8809 H   0  0  0  0  0  0  0  0  0  0  0  0  # atno 8008 bound_to 7997
  156.1761  140.3111  155.9025 H   0  0  0  0  0  0  0  0  0  0  0  0  # atno 8009 bound_to 7997
  155.3457  140.0453  157.3036 H   0  0  0  0  0  0  0  0  0  0  0  0  # atno 8010 bound_to 7997
  140.1519  143.4192  152.1488 H   0  0  0  0  0  0  0  0  0  0  0  0  # atno 10167 bound_to 10162
  157.0358  130.6211  149.5742 H   0  0  0  0  0  0  0  0  0  0  0  0  # atno 10718 bound_to 10713
  153.6532  135.3359  155.3106 H   0  0  0  0  0  0  0  0  0  0  0  0  # atno 10763 bound_to 10752
  154.8532  135.4346  154.1882 H   0  0  0  0  0  0  0  0  0  0  0  0  # atno 10764 bound_to 10752
  153.2830  135.7010  153.7442 H   0  0  0  0  0  0  0  0  0  0  0  0  # atno 10765 bound_to 10752
  139.9503  134.9623  156.8841 H   0  0  0  0  0  0  0  0  0  0  0  0  # atno 11005 bound_to 11000
  146.3147  139.7876  142.8992 LP  0  0  0  0  0  0  0  0  0  0  0  0  # atno 17320 bound_to 7965
  145.3491  141.0304  143.3349 LP  0  0  0  0  0  0  0  0  0  0  0  0  # atno 17321 bound_to 7965
  139.5422  144.7266  151.4698 LP  0  0  0  0  0  0  0  0  0  0  0  0  # atno 17342 bound_to 10162
  140.6697  143.8321  150.6984 LP  0  0  0  0  0  0  0  0  0  0  0  0  # atno 17343 bound_to 10162
  156.0054  130.5140  150.7812 LP  0  0  0  0  0  0  0  0  0  0  0  0  # atno 17370 bound_to 10713
  157.5143  131.0927  151.0159 LP  0  0  0  0  0  0  0  0  0  0  0  0  # atno 17371 bound_to 10713
  140.5736  134.0420  155.7439 LP  0  0  0  0  0  0  0  0  0  0  0  0  # atno 17394 bound_to 11000
  141.1164  133.9534  157.2815 LP  0  0  0  0  0  0  0  0  0  0  0  0  # atno 17395 bound_to 11000

$$$$
