#       Name:                AV-unprocessed.smi:2256
#       Creating user name   scv26
#       Creation time:       Fri Mar 27 12:33:06 2020


#       File generated by GOLD software.
#

@<TRIPOS>MOLECULE
AV-unprocessed.smi:2256
    49    51     1
SMALL
NO_CHARGES


@<TRIPOS>ATOM
      1 ****        -2.5463   5.9729   0.7838 C.3            1 S1                 0.0000
      2 ****        -1.9624   4.5753   0.6780 C.2            1 S1                 0.0000
      3 ****        -1.5882   4.1730  -0.6075 N.2            1 S1                 0.0000
      4 ****        -1.0908   2.9945  -0.7952 C.2            1 S1                 0.0000
      5 ****        -0.9109   2.0922   0.2659 N.am           1 S1                 0.0000
      6 ****        -0.3408   0.7802  -0.0826 C.3            1 S1                 0.0000
      7 ****         1.1762   0.7065   0.2032 C.3            1 S1                 0.0000
      8 ****         1.9090   1.2710  -0.8658 O.3            1 S1                 0.0000
      9 ****         1.6799  -0.7320   0.4108 C.3            1 S1                 0.0000
     10 ****         1.1467  -1.5817  -0.5976 O.3            1 S1                 0.0000
     11 ****         1.4662  -2.9225  -0.5681 C.ar           1 S1                 0.0000
     12 ****         2.2924  -3.5166   0.4218 C.ar           1 S1                 0.0000
     13 ****         2.5776  -4.8950   0.3904 C.ar           1 S1                 0.0000
     14 ****         2.0426  -5.7003  -0.6289 C.ar           1 S1                 0.0000
     15 ****         1.2245  -5.1133  -1.6084 C.ar           1 S1                 0.0000
     16 ****         0.5706  -5.6356  -2.7070 N.pl3          1 S1                 0.0000
     17 ****        -0.1230  -4.6451  -3.3796 C.2            1 S1                 0.0000
     18 ****         0.0659  -3.4528  -2.7306 C.2            1 S1                 0.0000
     19 ****         0.9175  -3.7206  -1.6029 C.ar           1 S1                 0.0000
     20 ****        -1.2345   2.4097   1.5529 C.2            1 S1                 0.0000
     21 ****        -1.0536   1.6172   2.4795 O.2            1 S1                 0.0000
     22 ****        -1.8064   3.7515   1.7501 C.2            1 S1                 0.0000
     23 ****        -2.1968   4.1341   3.1723 C.3            1 S1                 0.0000
     24 ****         0.5804  -6.6012  -3.0026 H              1 S1                 0.0000
     25 ****        -3.5693   5.9307   1.1586 H              1 S1                 0.0000
     26 ****        -2.5663   6.4695  -0.1869 H              1 S1                 0.0000
     27 ****        -1.9510   6.5868   1.4600 H              1 S1                 0.0000
     28 ****        -0.7798   2.6337  -1.7772 H              1 S1                 0.0000
     29 ****        -0.8548   0.0169   0.5048 H              1 S1                 0.0000
     30 ****        -0.5483   0.5030  -1.1185 H              1 S1                 0.0000
     31 ****         1.4221   1.2754   1.1005 H              1 S1                 0.0000
     32 ****         1.6729   2.1824  -0.9452 H              1 S1                 0.0000
     33 ****         2.7711  -0.7584   0.4129 H              1 S1                 0.0000
     34 ****         1.3379  -1.0817   1.3862 H              1 S1                 0.0000
     35 ****         2.7226  -2.9333   1.2214 H              1 S1                 0.0000
     36 ****         3.2079  -5.3331   1.1502 H              1 S1                 0.0000
     37 ****         2.2581  -6.7581  -0.6581 H              1 S1                 0.0000
     38 ****        -0.6955  -4.8700  -4.2674 H              1 S1                 0.0000
     39 ****        -0.3404  -2.4901  -3.0031 H              1 S1                 0.0000
     40 ****        -1.3267   4.0842   3.8278 H              1 S1                 0.0000
     41 ****        -2.9480   3.4417   3.5540 H              1 S1                 0.0000
     42 ****        -2.6086   5.1387   3.2497 H              1 S1                 0.0000
     43 ****        -1.7051   4.7961  -1.3810 LP             1 S1                 0.0000
     44 ****         1.6896   0.7909  -1.7152 LP             1 S1                 0.0000
     45 ****         2.8887   1.1916  -0.6816 LP             1 S1                 0.0000
     46 ****         1.4568  -1.2242  -1.4786 LP             1 S1                 0.0000
     47 ****         0.1504  -1.5149  -0.5428 LP             1 S1                 0.0000
     48 ****        -0.6606   0.7160   2.2971 LP             1 S1                 0.0000
     49 ****        -1.2998   1.8756   3.4136 LP             1 S1                 0.0000
@<TRIPOS>BOND
    1    1    2 1     
    2    1   25 1     
    3    1   26 1     
    4    1   27 1     
    5    2   22 2     
    6    2    3 1     
    7    3    4 2     
    8    4    5 1     
    9    4   28 1     
   10    5    6 1     
   11    5   20 am    
   12    6    7 1     
   13    6   29 1     
   14    6   30 1     
   15    7    8 1     
   16    7    9 1     
   17    7   31 1     
   18    8   32 1     
   19    9   10 1     
   20    9   33 1     
   21    9   34 1     
   22   10   11 1     
   23   11   19 ar    
   24   11   12 ar    
   25   12   13 ar    
   26   12   35 1     
   27   13   14 ar    
   28   13   36 1     
   29   14   15 ar    
   30   14   37 1     
   31   15   19 ar    
   32   15   16 1     
   33   16   24 1     
   34   16   17 1     
   35   17   18 2     
   36   17   38 1     
   37   18   19 1     
   38   18   39 1     
   39   20   21 2     
   40   20   22 1     
   41   22   23 1     
   42   23   40 1     
   43   23   41 1     
   44   23   42 1     
   45    3   43 1     
   46    8   44 1     
   47    8   45 1     
   48   10   46 1     
   49   10   47 1     
   50   21   48 1     
   51   21   49 1     
@<TRIPOS>SUBSTRUCTURE
      1 S1             1
@<TRIPOS>SET
LONE_PAIRS      STATIC     ATOMS    <user>   **** ""
7 43 44 45 46 47 48 49
DONOR_HYDROGENS      STATIC     ATOMS    <user>   **** ""
2 32 24
ATOM$BLUE        STATIC     ATOMS    COLORGROUP SYSTEM
7 43 44 45 46 47 48 49
ATOM$RED        STATIC     ATOMS    COLORGROUP SYSTEM
2 32 24
