AV-unprocessed.smi:1368|AV-procd|sdf|5577|dock6
  -GOLD-   22720 5173D 1   1.00000     0.00000
 Structure written by MMmdl.
 47 49  0  0  0  0  0  0  0  0  2 V2000
  151.0127  128.7354  154.6584 C   0  0  0  0  0  0  0  0  0  0  0  0
  151.4662  130.1443  155.0283 C   0  0  0  0  0  0  0  0  0  0  0  0
  152.6033  130.3141  155.4660 O   0  0  0  0  0  0  0  0  0  0  0  0
  150.5477  131.1149  154.8651 N   0  0  0  0  0  0  0  0  0  0  0  0
  150.6702  132.5112  155.1046 C   0  0  0  0  0  0  0  0  0  0  0  0
  149.7305  133.3565  154.4818 C   0  0  0  0  0  0  0  0  0  0  0  0
  149.7985  134.7519  154.6543 C   0  0  0  0  0  0  0  0  0  0  0  0
  150.8101  135.3336  155.4439 C   0  0  0  0  0  0  0  0  0  0  0  0
  150.8044  136.7075  155.5588 O   0  0  0  0  0  0  0  0  0  0  0  0
  151.9574  137.3417  156.0971 C   0  0  0  0  0  0  0  0  0  0  0  0
  151.8204  138.8624  155.9223 C   0  0  2  0  0  0  0  0  0  0  0  0
  153.1086  139.4072  155.7132 O   0  0  0  0  0  0  0  0  0  0  0  0
  151.1818  139.5233  157.1606 C   0  0  0  0  0  0  0  0  0  0  0  0
  150.8087  140.9296  156.9352 N   0  0  0  0  0  0  0  0  0  0  0  0
  150.0026  141.4772  155.9816 C   0  0  0  0  0  0  0  0  0  0  0  0
  149.2829  140.7470  154.8980 C   0  0  0  0  0  0  0  0  0  0  0  0
  149.9703  142.8216  156.2020 N   0  3  0  0  0  0  0  0  0  0  0  0
  150.7639  143.1381  157.3056 C   0  0  0  0  0  0  0  0  0  0  0  0
  151.0399  144.3622  157.9071 C   0  0  0  0  0  0  0  0  0  0  0  0
  151.8997  144.3386  159.0248 C   0  0  0  0  0  0  0  0  0  0  0  0
  152.4493  143.1313  159.5026 C   0  0  0  0  0  0  0  0  0  0  0  0
  152.1610  141.8964  158.8850 C   0  0  0  0  0  0  0  0  0  0  0  0
  151.3081  141.9274  157.7816 C   0  0  0  0  0  0  0  0  0  0  0  0
  151.7635  134.4853  156.0597 C   0  0  0  0  0  0  0  0  0  0  0  0
  151.6975  133.0890  155.8879 C   0  0  0  0  0  0  0  0  0  0  0  0
  150.2484  128.7575  153.8804 H   0  0  0  0  0  0  0  0  0  0  0  0
  150.6004  128.2313  155.5326 H   0  0  0  0  0  0  0  0  0  0  0  0
  151.8538  128.1479  154.2889 H   0  0  0  0  0  0  0  0  0  0  0  0
  149.6293  130.8059  154.5811 H   0  0  0  0  0  0  0  0  0  0  0  0
  148.9463  132.9366  153.8688 H   0  0  0  0  0  0  0  0  0  0  0  0
  149.0658  135.3833  154.1733 H   0  0  0  0  0  0  0  0  0  0  0  0
  152.0116  137.1058  157.1612 H   0  0  0  0  0  0  0  0  0  0  0  0
  152.8741  136.9792  155.6281 H   0  0  0  0  0  0  0  0  0  0  0  0
  151.2022  139.0758  155.0495 H   0  0  0  0  0  0  0  0  0  0  0  0
  153.4417  139.0795  154.8913 H   0  0  0  0  0  0  0  0  0  0  0  0
  150.2695  138.9917  157.4338 H   0  0  0  0  0  0  0  0  0  0  0  0
  151.8380  139.4570  158.0287 H   0  0  0  0  0  0  0  0  0  0  0  0
  148.7636  141.4462  154.2424 H   0  0  0  0  0  0  0  0  0  0  0  0
  148.5496  140.0651  155.3289 H   0  0  0  0  0  0  0  0  0  0  0  0
  149.9873  140.1694  154.2995 H   0  0  0  0  0  0  0  0  0  0  0  0
  150.6217  145.2886  157.5414 H   0  0  0  0  0  0  0  0  0  0  0  0
  152.1441  145.2650  159.5244 H   0  0  0  0  0  0  0  0  0  0  0  0
  153.1072  143.1521  160.3592 H   0  0  0  0  0  0  0  0  0  0  0  0
  152.5939  140.9793  159.2559 H   0  0  0  0  0  0  0  0  0  0  0  0
  152.5630  134.8807  156.6673 H   0  0  0  0  0  0  0  0  0  0  0  0
  152.4579  132.4847  156.3571 H   0  0  0  0  0  0  0  0  0  0  0  0
  149.4433  143.4742  155.6362 H   0  0  0  0  0  0  0  0  0  0  0  0
  1  2  1  0  0  0  0
  1 26  1  0  0  0  0
  1 27  1  0  0  0  0
  1 28  1  0  0  0  0
  2  3  2  0  0  0  0
  2  4  1  0  0  0  0
  4  5  1  0  0  0  0
  4 29  1  0  0  0  0
  5 25  1  0  0  0  0
  5  6  2  0  0  0  0
  6  7  1  0  0  0  0
  6 30  1  0  0  0  0
  7  8  2  0  0  0  0
  7 31  1  0  0  0  0
  8  9  1  0  0  0  0
  8 24  1  0  0  0  0
  9 10  1  0  0  0  0
 10 11  1  0  0  0  0
 10 32  1  0  0  0  0
 10 33  1  0  0  0  0
 11 12  1  0  0  0  0
 11 13  1  0  0  0  0
 11 34  1  0  0  0  0
 12 35  1  0  0  0  0
 13 14  1  0  0  0  0
 13 36  1  0  0  0  0
 13 37  1  0  0  0  0
 14 23  1  0  0  0  0
 14 15  1  0  0  0  0
 15 16  1  0  0  0  0
 15 17  2  0  0  0  0
 16 38  1  0  0  0  0
 16 39  1  0  0  0  0
 16 40  1  0  0  0  0
 17 18  1  0  0  0  0
 17 47  1  0  0  0  0
 18 23  2  0  0  0  0
 18 19  1  0  0  0  0
 19 20  2  0  0  0  0
 19 41  1  0  0  0  0
 20 21  1  0  0  0  0
 20 42  1  0  0  0  0
 21 22  2  0  0  0  0
 21 43  1  0  0  0  0
 22 23  1  0  0  0  0
 22 44  1  0  0  0  0
 24 25  2  0  0  0  0
 24 45  1  0  0  0  0
 25 46  1  0  0  0  0
M  CHG  1  17   1
M  END
> <s_m_source_file>
AV-unprocessed.smi

> <i_m_source_file_index>
1368

> <i_lp_mmshare_version>
43012

> <i_f3d_flags>
0

> <s_epik_input>
W0NIM11DKD1PKVtOSF1jMVtjSF1bY0hdYyhbY0hdW2NIXTEpT1tDSDJdW0NASF0oW09IXSlbQ0gyXW4oYyhuMilbQ0gzXSljKGMyMylbY0hdW2NIXVtjSF1bY0hdMw==

> <s_epik_cmdline>
J2VwaWtfcHl0aG9uJywgJy1waCcsICc3LjAnLCAnLXRuJywgJzgnLCAnLW1hJywgJzIwMCcsICctbWV0YWxfYmluZGluZycsICctaW1hZScsICc8aW5maWxlLm1hZT4nLCAnLW9tYWUnLCAnPG91dGZpbGUubWFlPic=

> <r_lp_tautomer_probability>
1

> <r_epik_Ionization_Penalty>
1.00673

> <r_epik_Ionization_Penalty_Charging>
1.00673

> <r_epik_Ionization_Penalty_Neutral>
2.60899e-06

> <r_epik_State_Penalty>
1.05579

> <r_epik_Charging_Adjusted_Penalty>
2.06252

> <i_epik_Tot_Q>
1

> <i_epik_Tot_abs_Q>
1

> <r_epik_Metal_State_Penalty>
1.15682

> <b_epik_Metal_Only>
0

> <s_lp_Force_Field>
OPLS_2005

> <r_lp_Energy>
25.0727

> <b_lp_Chiralities_Consistent>
1

> <s_lp_Variant>
AV-unprocessed.smi:1368-3

> <Gold.Version>
5.8.1

> <Gold.Id.Protein>
6NUR|6NUR_protein|mol2

> <Gold.PLP.Fitness>
55.7570

> <Gold.PLP.PLP>
-48.3260

> <Gold.PLP.part.hbond>
-1.7625

> <Gold.PLP.part.metal>
0.0000

> <Gold.PLP.part.buried>
-4.3218

> <Gold.PLP.part.nonpolar>
-42.8345

> <Gold.PLP.part.repulsive>
0.2285

> <Gold.PLP.ligand.clash>
0.0000

> <Gold.PLP.ligand.torsion>
0.7492

> <Gold.PLP.Chemscore.Hbond>
2.9520

> <Gold.PLP.Chemscore.CHOScore>
0.0000

> <Gold.PLP.Chemscore.Metal>
0.0000

> <Gold.Chemscore.Hbonds>
donor molecule, donor type, donor heavy atom, donor atom, acceptor molecule, acceptor atom, score
      L1  H    17    47       P1  8028  1.01
      P1  H  7997  8009       L1    12  1.00

> <Gold.PLP.Chemscore.Internal.Correction>
0.0733

> <Gold.Rescore>
     Score         DG    S(hbond)    S(metal)    S(lipo)     H(rot)  DE(clash)    DE(int)     intcor
     18.08     -20.17       1.88        0.00     125.96       2.47       0.11       1.97       ----

> <Gold.Chemscore.Fitness>
18.0840

> <Gold.Chemscore.DG>
-20.1717

> <Gold.Chemscore.ZeroCoef>
-5.4800

> <Gold.Chemscore.Hbond>
1.8806

> <Gold.Chemscore.Metal>
0.0000

> <Gold.Chemscore.Lipo>
125.9622

> <Gold.Chemscore.Internal_Hbond>
0.0000

> <Gold.Chemscore.DEClash>
0.1131

> <Gold.Chemscore.DEInternal>
1.9746

> <Gold.Chemscore.Rot>
2.4715

> <Gold.Chemscore.Internal.Correction>
   9.000000E+99

> <Gold.Chemscore.Hbonds>
donor molecule, donor type, donor heavy atom, donor atom, acceptor molecule, acceptor atom, score
      L1  H    17    47       P1  8028  0.50
      P1  H  7997  8009       L1    12  0.47

> <Gold.Chemscore.Hbond.Weighted>
-6.2812

> <Gold.Chemscore.Metal.Weighted>
-0.0000

> <Gold.Chemscore.Lipo.Weighted>
-14.7376

> <Gold.Chemscore.Internal_Hbond.Weighted>
0.0000

> <Gold.Chemscore.DEClash.Weighted>
0.1131

> <Gold.Chemscore.DEInternal.Weighted>
1.9746

> <Gold.Chemscore.Rot.Weighted>
6.3271

> <Gold.Chemscore.Internal.Correction.Weighted>
   9.000000E+99

> <Gold.Protein.RotatedTorsions>
[ 6907 6896 6895 6894 ] final  171.73 input  -60.11 | X-H torsion
[ 7974 7965 7964 7962 ] final   18.22 input  175.53 | X-H torsion
[ 8008 7997 7996 7995 ] final -168.12 input   59.86 | X-H torsion
[ 10167 10162 10161 10158 ] final  124.54 input  -65.29 | X-H torsion
[ 10718 10713 10712 10709 ] final  158.64 input   66.30 | X-H torsion
[ 10763 10752 10751 10750 ] final  113.83 input  -60.55 | X-H torsion
[ 11005 11000 10999 10996 ] final  -43.64 input  -57.11 | X-H torsion

> <Gold.Protein.ActiveResidues>
 VAL166  LYS551  ARG553  GLY616  TRP617  ASP618  TYR619  PRO620  LYS621  CYS622 
 ASP623  PHE694  ASN695  SER759  ASP760  ASP761  ALA762  ILE779  LEU786  VAL792 
 PHE793  MET794  SER795  GLU796  ALA797  LYS798  CYS799  TRP800  GLU811  SER814 

> <Gold.Protein.RotatedAtoms>
  151.7955  133.3364  159.3511 H   0  0  0  0  0  0  0  0  0  0  0  0  # atno 6907 bound_to 6896
  150.7377  134.5802  159.5944 H   0  0  0  0  0  0  0  0  0  0  0  0  # atno 6908 bound_to 6896
  152.3180  134.7417  160.0372 H   0  0  0  0  0  0  0  0  0  0  0  0  # atno 6909 bound_to 6896
  146.2192  139.8489  142.8626 H   0  0  0  0  0  0  0  0  0  0  0  0  # atno 7974 bound_to 7965
  155.8870  140.1018  157.1445 H   0  0  0  0  0  0  0  0  0  0  0  0  # atno 8008 bound_to 7997
  154.4011  140.1318  156.4332 H   0  0  0  0  0  0  0  0  0  0  0  0  # atno 8009 bound_to 7997
  155.7577  140.3464  155.5184 H   0  0  0  0  0  0  0  0  0  0  0  0  # atno 8010 bound_to 7997
  139.5736  144.6952  151.3713 H   0  0  0  0  0  0  0  0  0  0  0  0  # atno 10167 bound_to 10162
  157.1751  131.0619  151.2162 H   0  0  0  0  0  0  0  0  0  0  0  0  # atno 10718 bound_to 10713
  153.4983  135.3643  155.2527 H   0  0  0  0  0  0  0  0  0  0  0  0  # atno 10763 bound_to 10752
  154.8749  135.3994  154.3508 H   0  0  0  0  0  0  0  0  0  0  0  0  # atno 10764 bound_to 10752
  153.4140  135.7078  153.6406 H   0  0  0  0  0  0  0  0  0  0  0  0  # atno 10765 bound_to 10752
  141.0397  133.6785  156.2761 H   0  0  0  0  0  0  0  0  0  0  0  0  # atno 11005 bound_to 11000
  145.2822  141.0142  143.3711 LP  0  0  0  0  0  0  0  0  0  0  0  0  # atno 17320 bound_to 7965
  144.9141  139.4491  143.6572 LP  0  0  0  0  0  0  0  0  0  0  0  0  # atno 17321 bound_to 7965
  140.7019  143.7609  150.7418 LP  0  0  0  0  0  0  0  0  0  0  0  0  # atno 17342 bound_to 10162
  140.1122  143.4688  152.2363 LP  0  0  0  0  0  0  0  0  0  0  0  0  # atno 17343 bound_to 10162
  157.4006  130.7331  149.6764 LP  0  0  0  0  0  0  0  0  0  0  0  0  # atno 17370 bound_to 10713
  155.9732  130.4122  150.4019 LP  0  0  0  0  0  0  0  0  0  0  0  0  # atno 17371 bound_to 10713
  140.6256  134.5316  157.5553 LP  0  0  0  0  0  0  0  0  0  0  0  0  # atno 17394 bound_to 11000
  139.9267  134.8043  156.1049 LP  0  0  0  0  0  0  0  0  0  0  0  0  # atno 17395 bound_to 11000

$$$$
