#       Name:                AV-unprocessed.smi:2885
#       Creating user name   scv26
#       Creation time:       Fri Mar 27 15:55:55 2020


#       File generated by GOLD software.
#

@<TRIPOS>MOLECULE
AV-unprocessed.smi:2885
    45    47     1
SMALL
NO_CHARGES


@<TRIPOS>ATOM
      1 ****        -3.2610   3.6480   1.7109 N.am           1 S1                 0.0000
      2 ****        -3.3609   2.3639   1.3561 C.2            1 S1                 0.0000
      3 ****        -4.4224   1.8643   0.9895 O.2            1 S1                 0.0000
      4 ****        -2.1056   1.5759   1.4900 C.2            1 S1                 0.0000
      5 ****        -0.8188   2.0646   1.5296 C.2            1 S1                 0.0000
      6 ****         0.0265   0.9654   1.6222 N.pl3          1 S1                 0.0000
      7 ****         1.4819   1.0185   1.6764 C.3            1 S1                 0.0000
      8 ****         2.1246   0.4515   0.4076 C.2            1 S1                 0.0000
      9 ****         2.9713  -0.4372   0.4950 O.2            1 S1                 0.0000
     10 ****         1.7011   0.9567  -0.7617 N.am           1 S1                 0.0000
     11 ****         2.0839   0.4591  -2.0762 C.3            1 S1                 0.0000
     12 ****         1.2978  -0.8014  -2.4296 C.3            1 S1                 0.0000
     13 ****         1.3486  -1.3567  -3.8599 C.3            1 S1                 0.0000
     14 ****        -0.1134  -1.7825  -3.6967 C.3            1 S1                 0.0000
     15 ****        -0.2285  -0.7302  -2.5908 C.3            1 S1                 0.0000
     16 ****        -0.7770  -0.1182   1.6450 C.2            1 S1                 0.0000
     17 ****        -0.2614  -1.5213   1.7056 C.3            1 S1                 0.0000
     18 ****        -0.9012  -2.5497   2.6115 C.3            1 S1                 0.0000
     19 ****         0.4789  -2.0317   2.9219 C.3            1 S1                 0.0000
     20 ****        -2.0665   0.1859   1.5422 N.2            1 S1                 0.0000
     21 ****        -4.0716   4.2470   1.6551 H              1 S1                 0.0000
     22 ****        -2.3786   4.0114   2.0394 H              1 S1                 0.0000
     23 ****        -0.4411   3.0759   1.4912 H              1 S1                 0.0000
     24 ****         1.7984   2.0542   1.8060 H              1 S1                 0.0000
     25 ****         1.8247   0.4692   2.5536 H              1 S1                 0.0000
     26 ****         1.0060   1.6886  -0.7366 H              1 S1                 0.0000
     27 ****         1.8893   1.2464  -2.8047 H              1 S1                 0.0000
     28 ****         3.1577   0.2689  -2.1094 H              1 S1                 0.0000
     29 ****         1.5350  -1.6129  -1.7378 H              1 S1                 0.0000
     30 ****         1.4787  -0.5788  -4.6142 H              1 S1                 0.0000
     31 ****         2.0504  -2.1786  -4.0050 H              1 S1                 0.0000
     32 ****        -0.7425  -1.6013  -4.5686 H              1 S1                 0.0000
     33 ****        -0.2187  -2.8024  -3.3233 H              1 S1                 0.0000
     34 ****        -0.7940  -1.0453  -1.7131 H              1 S1                 0.0000
     35 ****        -0.5709   0.2370  -2.9628 H              1 S1                 0.0000
     36 ****         0.0753  -1.8507   0.7244 H              1 S1                 0.0000
     37 ****        -1.7146  -2.2236   3.2571 H              1 S1                 0.0000
     38 ****        -0.9836  -3.5674   2.2357 H              1 S1                 0.0000
     39 ****         1.3205  -2.6996   2.7507 H              1 S1                 0.0000
     40 ****         0.5799  -1.3622   3.7738 H              1 S1                 0.0000
     41 ****        -5.2505   2.4233   0.9491 LP             1 S1                 0.0000
     42 ****        -4.4578   0.8988   0.7316 LP             1 S1                 0.0000
     43 ****         3.2380  -0.7872   1.3930 LP             1 S1                 0.0000
     44 ****         3.3928  -0.8094  -0.3320 LP             1 S1                 0.0000
     45 ****        -2.8404  -0.4466   1.5095 LP             1 S1                 0.0000
@<TRIPOS>BOND
    1    1    2 am    
    2    1   21 1     
    3    1   22 1     
    4    2    3 2     
    5    2    4 1     
    6    4   20 1     
    7    4    5 2     
    8    5    6 1     
    9    5   23 1     
   10    6    7 1     
   11    6   16 1     
   12    7    8 1     
   13    7   24 1     
   14    7   25 1     
   15    8    9 2     
   16    8   10 am    
   17   10   11 1     
   18   10   26 1     
   19   11   12 1     
   20   11   27 1     
   21   11   28 1     
   22   12   15 1     
   23   12   13 1     
   24   12   29 1     
   25   13   14 1     
   26   13   30 1     
   27   13   31 1     
   28   14   15 1     
   29   14   32 1     
   30   14   33 1     
   31   15   34 1     
   32   15   35 1     
   33   16   17 1     
   34   16   20 2     
   35   17   19 1     
   36   17   18 1     
   37   17   36 1     
   38   18   19 1     
   39   18   37 1     
   40   18   38 1     
   41   19   39 1     
   42   19   40 1     
   43    3   41 1     
   44    3   42 1     
   45    9   43 1     
   46    9   44 1     
   47   20   45 1     
@<TRIPOS>SUBSTRUCTURE
      1 S1             1
@<TRIPOS>SET
LONE_PAIRS      STATIC     ATOMS    <user>   **** ""
5 41 42 43 44 45
DONOR_HYDROGENS      STATIC     ATOMS    <user>   **** ""
3 21 22 26
ATOM$BLUE        STATIC     ATOMS    COLORGROUP SYSTEM
5 41 42 43 44 45
ATOM$RED        STATIC     ATOMS    COLORGROUP SYSTEM
3 21 22 26
