#       Name:                AV-unprocessed.smi:442
#       Creating user name   scv26
#       Creation time:       Thu Mar 26 22:57:10 2020


#       File generated by GOLD software.
#

@<TRIPOS>MOLECULE
AV-unprocessed.smi:442
    45    45     1
SMALL
NO_CHARGES


@<TRIPOS>ATOM
      1 ****        -3.8976  -2.1272  -0.8103 C.3            1 S1                 0.0000
      2 ****        -3.8789  -1.2024  -2.0361 C.3            1 S1                 0.0000
      3 ****        -2.9582   0.0243  -1.8818 C.3            1 S1                 0.0000
      4 ****        -3.0651   0.9670  -3.0886 C.3            1 S1                 0.0000
      5 ****        -1.5654  -0.3915  -1.7229 N.am           1 S1                 0.0000
      6 ****        -0.8333  -0.2881  -0.6025 C.2            1 S1                 0.0000
      7 ****        -1.2713   0.1652   0.4558 O.2            1 S1                 0.0000
      8 ****         0.6102  -0.8024  -0.6979 C.3            1 S1                 0.0000
      9 ****         1.4940  -0.2519   0.3461 N.am           1 S1                 0.0000
     10 ****         1.6944  -1.0528   1.4845 C.2            1 S1                 0.0000
     11 ****         2.4700  -0.6603   2.5101 C.2            1 S1                 0.0000
     12 ****         2.6548  -1.5002   3.6741 N.pl3          1 S1                 1.0000
     13 ****         3.3309  -1.0764   4.6059 O.2            1 S1                 0.0000
     14 ****         2.1324  -2.6107   3.6964 O.2            1 S1                -1.0000
     15 ****         3.1127   0.6342   2.4158 C.2            1 S1                 0.0000
     16 ****         2.9298   1.4267   1.3287 C.2            1 S1                 0.0000
     17 ****         3.5673   2.7554   1.1893 C.2            1 S1                 0.0000
     18 ****         4.3042   3.1268   2.2438 N.am           1 S1                 0.0000
     19 ****         3.4827   3.5191   0.2279 O.2            1 S1                 0.0000
     20 ****         2.0645   0.9851   0.2011 C.2            1 S1                 0.0000
     21 ****         1.8407   1.6468  -0.8162 O.2            1 S1                 0.0000
     22 ****        -4.6078  -2.9419  -0.9522 H              1 S1                 0.0000
     23 ****        -4.1909  -1.5836   0.0882 H              1 S1                 0.0000
     24 ****        -2.9195  -2.5729  -0.6285 H              1 S1                 0.0000
     25 ****        -3.5846  -1.7774  -2.9152 H              1 S1                 0.0000
     26 ****        -4.8972  -0.8609  -2.2258 H              1 S1                 0.0000
     27 ****        -3.2862   0.5854  -1.0049 H              1 S1                 0.0000
     28 ****        -4.0884   1.3193  -3.2218 H              1 S1                 0.0000
     29 ****        -2.7620   0.4702  -4.0110 H              1 S1                 0.0000
     30 ****        -2.4310   1.8447  -2.9587 H              1 S1                 0.0000
     31 ****        -1.1188  -0.7847  -2.5385 H              1 S1                 0.0000
     32 ****         0.5840  -1.8916  -0.6447 H              1 S1                 0.0000
     33 ****         1.0105  -0.5807  -1.6892 H              1 S1                 0.0000
     34 ****         1.1676  -1.9960   1.4675 H              1 S1                 0.0000
     35 ****         3.7421   0.9468   3.2354 H              1 S1                 0.0000
     36 ****         4.7802   4.0169   2.2421 H              1 S1                 0.0000
     37 ****         4.3820   2.5101   3.0396 H              1 S1                 0.0000
     38 ****        -2.2188   0.4799   0.5107 LP             1 S1                 0.0000
     39 ****        -0.6793   0.2184   1.2599 LP             1 S1                 0.0000
     40 ****         3.7421  -0.1665   4.5519 LP             1 S1                 0.0000
     41 ****         3.4709  -1.6410   5.4193 LP             1 S1                 0.0000
     42 ****         2.9370   3.2608  -0.5693 LP             1 S1                 0.0000
     43 ****         3.9597   4.3978   0.2439 LP             1 S1                 0.0000
     44 ****         1.2450   1.2795  -1.5306 LP             1 S1                 0.0000
     45 ****         2.2551   2.5502  -0.9263 LP             1 S1                 0.0000
@<TRIPOS>BOND
    1    1    2 1     
    2    1   22 1     
    3    1   23 1     
    4    1   24 1     
    5    2    3 1     
    6    2   25 1     
    7    2   26 1     
    8    3    4 1     
    9    3    5 1     
   10    3   27 1     
   11    4   28 1     
   12    4   29 1     
   13    4   30 1     
   14    5    6 am    
   15    5   31 1     
   16    6    7 2     
   17    6    8 1     
   18    8    9 1     
   19    8   32 1     
   20    8   33 1     
   21    9   20 am    
   22    9   10 1     
   23   10   11 2     
   24   10   34 1     
   25   11   12 1     
   26   11   15 1     
   27   12   13 2     
   28   12   14 1     
   29   15   16 2     
   30   15   35 1     
   31   16   17 1     
   32   16   20 1     
   33   17   18 am    
   34   17   19 2     
   35   18   36 1     
   36   18   37 1     
   37   20   21 2     
   38    7   38 1     
   39    7   39 1     
   40   13   40 1     
   41   13   41 1     
   42   19   42 1     
   43   19   43 1     
   44   21   44 1     
   45   21   45 1     
@<TRIPOS>SUBSTRUCTURE
      1 S1             1
@<TRIPOS>SET
LONE_PAIRS      STATIC     ATOMS    <user>   **** ""
9 38 39 40 41 14 42 43 44 45
DONOR_HYDROGENS      STATIC     ATOMS    <user>   **** ""
3 31 36 37
ATOM$BLUE        STATIC     ATOMS    COLORGROUP SYSTEM
9 38 39 40 41 14 42 43 44 45
ATOM$RED        STATIC     ATOMS    COLORGROUP SYSTEM
3 31 36 37
