#       Name:                AV-unprocessed.smi:1669
#       Creating user name   scv26
#       Creation time:       Fri Mar 27 07:40:27 2020


#       File generated by GOLD software.
#

@<TRIPOS>MOLECULE
AV-unprocessed.smi:1669
    53    55     1
SMALL
NO_CHARGES


@<TRIPOS>ATOM
      1 ****        -0.3479   1.7774   0.3628 C.3            1 S1                 0.0000
      2 ****        -1.0890   0.8335  -0.5111 N.4            1 S1                 1.0000
      3 ****        -2.5465   0.8061  -0.2245 C.3            1 S1                 0.0000
      4 ****        -3.2214   2.1379  -0.5055 C.ar           1 S1                 0.0000
      5 ****        -3.5806   2.9933   0.5580 C.ar           1 S1                 0.0000
      6 ****        -4.2016   4.2294   0.2931 C.ar           1 S1                 0.0000
      7 ****        -4.4681   4.6139  -1.0351 C.ar           1 S1                 0.0000
      8 ****        -4.1146   3.7613  -2.0988 C.ar           1 S1                 0.0000
      9 ****        -3.4937   2.5248  -1.8348 C.ar           1 S1                 0.0000
     10 ****        -0.4929  -0.5273  -0.5108 C.3            1 S1                 0.0000
     11 ****         0.7439  -0.6272  -1.4311 C.3            1 S1                 0.0000
     12 ****         0.3219  -0.4762  -2.7709 O.3            1 S1                 0.0000
     13 ****         1.4946  -1.9699  -1.3188 C.3            1 S1                 0.0000
     14 ****         1.9615  -2.2352   0.0355 N.pl3          1 S1                 0.0000
     15 ****         1.4829  -3.1328   0.9353 C.2            1 S1                 0.0000
     16 ****         0.3267  -4.0361   0.6094 C.3            1 S1                 0.0000
     17 ****        -0.2074  -4.7117   1.7296 O.3            1 S1                 0.0000
     18 ****         2.1086  -3.1537   2.1144 N.2            1 S1                 0.0000
     19 ****         3.0840  -2.1886   1.9638 C.ar           1 S1                 0.0000
     20 ****         4.0743  -1.7345   2.8637 C.ar           1 S1                 0.0000
     21 ****         4.9763  -0.7206   2.4800 C.ar           1 S1                 0.0000
     22 ****         4.9013  -0.1480   1.1938 C.ar           1 S1                 0.0000
     23 ****         3.9214  -0.5856   0.2821 C.ar           1 S1                 0.0000
     24 ****         3.0223  -1.5967   0.6711 C.ar           1 S1                 0.0000
     25 ****        -0.4595   1.5037   1.4126 H              1 S1                 0.0000
     26 ****        -0.7083   2.7981   0.2378 H              1 S1                 0.0000
     27 ****         0.7161   1.7896   0.1308 H              1 S1                 0.0000
     28 ****        -3.0338   0.0559  -0.8490 H              1 S1                 0.0000
     29 ****        -2.7154   0.5066   0.8112 H              1 S1                 0.0000
     30 ****        -3.3781   2.7067   1.5798 H              1 S1                 0.0000
     31 ****        -4.4736   4.8831   1.1088 H              1 S1                 0.0000
     32 ****        -4.9440   5.5623  -1.2378 H              1 S1                 0.0000
     33 ****        -4.3201   4.0564  -3.1173 H              1 S1                 0.0000
     34 ****        -3.2251   1.8761  -2.6557 H              1 S1                 0.0000
     35 ****        -0.2468  -0.7946   0.5175 H              1 S1                 0.0000
     36 ****        -1.2251  -1.2641  -0.8443 H              1 S1                 0.0000
     37 ****         1.4454   0.1767  -1.2128 H              1 S1                 0.0000
     38 ****         1.0795  -0.5255  -3.3346 H              1 S1                 0.0000
     39 ****         0.8638  -2.7908  -1.6591 H              1 S1                 0.0000
     40 ****         2.3645  -1.9675  -1.9774 H              1 S1                 0.0000
     41 ****        -0.4753  -3.4530   0.1572 H              1 S1                 0.0000
     42 ****         0.6511  -4.7740  -0.1247 H              1 S1                 0.0000
     43 ****        -0.9025  -5.2805   1.4363 H              1 S1                 0.0000
     44 ****         4.1408  -2.1677   3.8508 H              1 S1                 0.0000
     45 ****         5.7303  -0.3822   3.1757 H              1 S1                 0.0000
     46 ****         5.5975   0.6269   0.9076 H              1 S1                 0.0000
     47 ****         3.8643  -0.1492  -0.7039 H              1 S1                 0.0000
     48 ****        -1.0005   1.1730  -1.4585 H              1 S1                 0.0000
     49 ****        -0.1253   0.4110  -2.8850 LP             1 S1                 0.0000
     50 ****        -0.3204  -1.2058  -3.0058 LP             1 S1                 0.0000
     51 ****        -0.5695  -4.0466   2.3827 LP             1 S1                 0.0000
     52 ****         0.5088  -5.2541   2.1686 LP             1 S1                 0.0000
     53 ****         1.9176  -3.7274   2.9108 LP             1 S1                 0.0000
@<TRIPOS>BOND
    1    1    2 1     
    2    1   25 1     
    3    1   26 1     
    4    1   27 1     
    5    2    3 1     
    6    2   10 1     
    7    2   48 1     
    8    3    4 1     
    9    3   28 1     
   10    3   29 1     
   11    4    9 ar    
   12    4    5 ar    
   13    5    6 ar    
   14    5   30 1     
   15    6    7 ar    
   16    6   31 1     
   17    7    8 ar    
   18    7   32 1     
   19    8    9 ar    
   20    8   33 1     
   21    9   34 1     
   22   10   11 1     
   23   10   35 1     
   24   10   36 1     
   25   11   12 1     
   26   11   13 1     
   27   11   37 1     
   28   12   38 1     
   29   13   14 1     
   30   13   39 1     
   31   13   40 1     
   32   14   24 1     
   33   14   15 1     
   34   15   16 1     
   35   15   18 2     
   36   16   17 1     
   37   16   41 1     
   38   16   42 1     
   39   17   43 1     
   40   18   19 1     
   41   19   24 ar    
   42   19   20 ar    
   43   20   21 ar    
   44   20   44 1     
   45   21   22 ar    
   46   21   45 1     
   47   22   23 ar    
   48   22   46 1     
   49   23   24 ar    
   50   23   47 1     
   51   12   49 1     
   52   12   50 1     
   53   17   51 1     
   54   17   52 1     
   55   18   53 1     
@<TRIPOS>SUBSTRUCTURE
      1 S1             1
@<TRIPOS>SET
LONE_PAIRS      STATIC     ATOMS    <user>   **** ""
5 49 50 51 52 53
DONOR_HYDROGENS      STATIC     ATOMS    <user>   **** ""
3 48 38 43
ATOM$BLUE        STATIC     ATOMS    COLORGROUP SYSTEM
5 49 50 51 52 53
ATOM$RED        STATIC     ATOMS    COLORGROUP SYSTEM
3 48 38 43
