AV-unprocessed.smi:2328|AV-procd|sdf|9300|dock7
  -GOLD-   2272012523D 1   1.00000     0.00000
 Structure written by MMmdl.
 40 40  0  0  0  0  0  0  0  0  1 V2000
  144.5916  134.8901  150.5554 C   0  0  0  0  0  0  0  0  0  0  0  0
  145.8033  135.4139  151.3482 C   0  0  0  0  0  0  0  0  0  0  0  0
  145.5503  135.7486  152.8581 C   0  0  1  0  0  0  0  0  0  0  0  0
  146.8111  136.1920  153.4943 N   0  0  0  0  0  0  0  0  0  0  0  0
  147.0877  136.8923  154.6150 C   0  0  0  0  0  0  0  0  0  0  0  0
  146.1643  137.2865  155.3255 O   0  0  0  0  0  0  0  0  0  0  0  0
  148.5381  137.2050  155.0258 C   0  0  0  0  0  0  0  0  0  0  0  0
  148.7975  138.7018  155.0593 C   0  0  0  0  0  0  0  0  0  0  0  0
  147.8835  139.5854  155.6700 C   0  0  0  0  0  0  0  0  0  0  0  0
  148.1698  140.9641  155.6692 C   0  0  0  0  0  0  0  0  0  0  0  0
  149.3615  141.4014  155.0572 C   0  0  0  0  0  0  0  0  0  0  0  0
  150.2450  140.5646  154.4714 N   0  0  0  0  0  0  0  0  0  0  0  0
  149.9627  139.2443  154.4761 C   0  0  0  0  0  0  0  0  0  0  0  0
  144.4401  136.8359  152.9725 C   0  0  0  0  0  0  0  0  0  0  0  0
  144.6534  138.0349  152.4171 N   0  0  0  0  0  0  0  0  0  0  0  0
  143.3855  136.5945  153.5576 O   0  0  0  0  0  0  0  0  0  0  0  0
  145.0977  134.4560  153.6379 C   0  0  0  0  0  0  0  0  0  0  0  0
  144.7678  134.6649  155.1332 C   0  0  0  0  0  0  0  0  0  0  0  0
  146.0695  133.2593  153.5061 C   0  0  0  0  0  0  0  0  0  0  0  0
  144.8826  134.6552  149.5314 H   0  0  0  0  0  0  0  0  0  0  0  0
  143.7936  135.6292  150.4985 H   0  0  0  0  0  0  0  0  0  0  0  0
  144.1802  133.9797  150.9905 H   0  0  0  0  0  0  0  0  0  0  0  0
  146.6031  134.6824  151.2495 H   0  0  0  0  0  0  0  0  0  0  0  0
  146.1943  136.2856  150.8250 H   0  0  0  0  0  0  0  0  0  0  0  0
  147.6314  135.9279  152.9686 H   0  0  0  0  0  0  0  0  0  0  0  0
  148.7272  136.7785  156.0112 H   0  0  0  0  0  0  0  0  0  0  0  0
  149.2614  136.7652  154.3434 H   0  0  0  0  0  0  0  0  0  0  0  0
  146.9776  139.2160  156.1277 H   0  0  0  0  0  0  0  0  0  0  0  0
  147.4915  141.6701  156.1254 H   0  0  0  0  0  0  0  0  0  0  0  0
  149.6119  142.4517  155.0384 H   0  0  0  0  0  0  0  0  0  0  0  0
  150.6871  138.6014  153.9979 H   0  0  0  0  0  0  0  0  0  0  0  0
  143.9443  138.7511  152.4801 H   0  0  0  0  0  0  0  0  0  0  0  0
  145.5220  138.2183  151.9359 H   0  0  0  0  0  0  0  0  0  0  0  0
  144.1727  134.1126  153.1748 H   0  0  0  0  0  0  0  0  0  0  0  0
  145.6276  135.0228  155.6991 H   0  0  0  0  0  0  0  0  0  0  0  0
  144.4524  133.7273  155.5918 H   0  0  0  0  0  0  0  0  0  0  0  0
  143.9486  135.3667  155.2819 H   0  0  0  0  0  0  0  0  0  0  0  0
  147.0185  133.4491  154.0072 H   0  0  0  0  0  0  0  0  0  0  0  0
  146.2838  133.0100  152.4671 H   0  0  0  0  0  0  0  0  0  0  0  0
  145.6427  132.3644  153.9600 H   0  0  0  0  0  0  0  0  0  0  0  0
  1  2  1  0  0  0  0
  1 20  1  0  0  0  0
  1 21  1  0  0  0  0
  1 22  1  0  0  0  0
  2  3  1  0  0  0  0
  2 23  1  0  0  0  0
  2 24  1  0  0  0  0
  3  4  1  0  0  0  0
  3 14  1  0  0  0  0
  3 17  1  0  0  0  0
  4  5  1  0  0  0  0
  4 25  1  0  0  0  0
  5  6  2  0  0  0  0
  5  7  1  0  0  0  0
  7  8  1  0  0  0  0
  7 26  1  0  0  0  0
  7 27  1  0  0  0  0
  8 13  1  0  0  0  0
  8  9  2  0  0  0  0
  9 10  1  0  0  0  0
  9 28  1  0  0  0  0
 10 11  2  0  0  0  0
 10 29  1  0  0  0  0
 11 12  1  0  0  0  0
 11 30  1  0  0  0  0
 12 13  2  0  0  0  0
 13 31  1  0  0  0  0
 14 15  1  0  0  0  0
 14 16  2  0  0  0  0
 15 32  1  0  0  0  0
 15 33  1  0  0  0  0
 17 18  1  0  0  0  0
 17 19  1  0  0  0  0
 17 34  1  0  0  0  0
 18 35  1  0  0  0  0
 18 36  1  0  0  0  0
 18 37  1  0  0  0  0
 19 38  1  0  0  0  0
 19 39  1  0  0  0  0
 19 40  1  0  0  0  0
M  END
> <s_m_source_file>
AV-unprocessed.smi

> <i_m_source_file_index>
2328

> <i_lp_mmshare_version>
43012

> <i_f3d_flags>
0

> <s_epik_input>
W0NIM11bQ0gyXVtDQEBdKEMoPU8pW05IMl0pKFtDSF0oW0NIM10pW0NIM10pW05IXUMoPU8pW0NIMl1jMVtjSF1bY0hdW2NIXW5bY0hdMQ==

> <s_epik_cmdline>
J2VwaWtfcHl0aG9uJywgJy1waCcsICc3LjAnLCAnLXRuJywgJzgnLCAnLW1hJywgJzIwMCcsICctbWV0YWxfYmluZGluZycsICctaW1hZScsICc8aW5maWxlLm1hZT4nLCAnLW9tYWUnLCAnPG91dGZpbGUubWFlPic=

> <r_epik_Ionization_Penalty>
0.00378489

> <r_epik_Ionization_Penalty_Charging>
0

> <r_epik_Ionization_Penalty_Neutral>
0.00378489

> <r_epik_State_Penalty>
0.00269972

> <r_epik_Charging_Adjusted_Penalty>
0.00269972

> <i_epik_Tot_Q>
0

> <i_epik_Tot_abs_Q>
0

> <r_epik_Metal_State_Penalty>
-0

> <b_epik_Metal_Only>
0

> <s_lp_Force_Field>
OPLS_2005

> <r_lp_Energy>
14.3821

> <b_lp_Chiralities_Consistent>
1

> <s_lp_Variant>
AV-unprocessed.smi:2328-1

> <Gold.Version>
5.8.1

> <Gold.Id.Protein>
6NUR|6NUR_protein|mol2

> <Gold.PLP.Fitness>
34.2442

> <Gold.PLP.PLP>
-23.5994

> <Gold.PLP.part.hbond>
-3.9641

> <Gold.PLP.part.metal>
0.0000

> <Gold.PLP.part.buried>
-3.9627

> <Gold.PLP.part.nonpolar>
-15.9394

> <Gold.PLP.part.repulsive>
0.2822

> <Gold.PLP.ligand.clash>
0.0000

> <Gold.PLP.ligand.torsion>
0.6468

> <Gold.PLP.Chemscore.Hbond>
2.9280

> <Gold.PLP.Chemscore.CHOScore>
0.9872

> <Gold.PLP.Chemscore.Metal>
0.0000

> <Gold.Chemscore.Hbonds>
donor molecule, donor type, donor heavy atom, donor atom, acceptor molecule, acceptor atom, score
      L1  H     4    25       P1  7948  1.00
      L1  H    15    32       P1 10175  0.91
      P1  H  7989  7998       L1    12  0.90
      L1  C    11    30       P1  8028  1.00

> <Gold.PLP.Chemscore.Internal.Correction>
0.1928

> <Gold.Rescore>
     Score         DG    S(hbond)    S(metal)    S(lipo)     H(rot)  DE(clash)    DE(int)     intcor
     11.22     -14.92       2.87        0.00      48.81       2.29       0.02       3.69       ----

> <Gold.Chemscore.Fitness>
11.2200

> <Gold.Chemscore.DG>
-14.9241

> <Gold.Chemscore.ZeroCoef>
-5.4800

> <Gold.Chemscore.Hbond>
2.8745

> <Gold.Chemscore.Metal>
0.0000

> <Gold.Chemscore.Lipo>
48.8113

> <Gold.Chemscore.Internal_Hbond>
0.0000

> <Gold.Chemscore.DEClash>
0.0186

> <Gold.Chemscore.DEInternal>
3.6856

> <Gold.Chemscore.Rot>
2.2921

> <Gold.Chemscore.Internal.Correction>
   9.000000E+99

> <Gold.Chemscore.Hbonds>
donor molecule, donor type, donor heavy atom, donor atom, acceptor molecule, acceptor atom, score
      L1  H     4    25       P1  7948  0.98
      L1  H    15    32       P1 10175  0.88
      P1  H  7989  7998       L1    12  0.68

> <Gold.Chemscore.Hbond.Weighted>
-9.6009

> <Gold.Chemscore.Metal.Weighted>
-0.0000

> <Gold.Chemscore.Lipo.Weighted>
-5.7109

> <Gold.Chemscore.Internal_Hbond.Weighted>
0.0000

> <Gold.Chemscore.DEClash.Weighted>
0.0186

> <Gold.Chemscore.DEInternal.Weighted>
3.6856

> <Gold.Chemscore.Rot.Weighted>
5.8677

> <Gold.Chemscore.Internal.Correction.Weighted>
   9.000000E+99

> <Gold.Protein.RotatedTorsions>
[ 6907 6896 6895 6894 ] final   -5.21 input  -60.11 | X-H torsion
[ 7974 7965 7964 7962 ] final -153.06 input  175.53 | X-H torsion
[ 8008 7997 7996 7995 ] final  -49.81 input   59.86 | X-H torsion
[ 10167 10162 10161 10158 ] final  161.27 input  -65.29 | X-H torsion
[ 10718 10713 10712 10709 ] final   -7.52 input   66.30 | X-H torsion
[ 10763 10752 10751 10750 ] final -153.08 input  -60.55 | X-H torsion
[ 11005 11000 10999 10996 ] final   92.80 input  -57.11 | X-H torsion

> <Gold.Protein.ActiveResidues>
 VAL166  LYS551  ARG553  GLY616  TRP617  ASP618  TYR619  PRO620  LYS621  CYS622 
 ASP623  PHE694  ASN695  SER759  ASP760  ASP761  ALA762  ILE779  LEU786  VAL792 
 PHE793  MET794  SER795  GLU796  ALA797  LYS798  CYS799  TRP800  GLU811  SER814 

> <Gold.Protein.RotatedAtoms>
  151.4853  135.1054  159.9788 H   0  0  0  0  0  0  0  0  0  0  0  0  # atno 6907 bound_to 6896
  152.4763  133.8142  159.7030 H   0  0  0  0  0  0  0  0  0  0  0  0  # atno 6908 bound_to 6896
  150.8803  133.7319  159.2960 H   0  0  0  0  0  0  0  0  0  0  0  0  # atno 6909 bound_to 6896
  144.7761  140.4577  143.5873 H   0  0  0  0  0  0  0  0  0  0  0  0  # atno 7974 bound_to 7965
  154.4050  140.1287  156.4564 H   0  0  0  0  0  0  0  0  0  0  0  0  # atno 8008 bound_to 7997
  155.7316  140.3491  155.5042 H   0  0  0  0  0  0  0  0  0  0  0  0  # atno 8009 bound_to 7997
  155.9122  140.1038  157.1261 H   0  0  0  0  0  0  0  0  0  0  0  0  # atno 8010 bound_to 7997
  139.4847  144.4553  151.8776 H   0  0  0  0  0  0  0  0  0  0  0  0  # atno 10167 bound_to 10162
  156.7160  130.5136  149.5880 H   0  0  0  0  0  0  0  0  0  0  0  0  # atno 10718 bound_to 10713
  154.7951  135.3221  154.7685 H   0  0  0  0  0  0  0  0  0  0  0  0  # atno 10763 bound_to 10752
  153.8365  135.6874  153.4812 H   0  0  0  0  0  0  0  0  0  0  0  0  # atno 10764 bound_to 10752
  153.1639  135.4650  154.9752 H   0  0  0  0  0  0  0  0  0  0  0  0  # atno 10765 bound_to 10752
  139.8818  134.8753  156.3625 H   0  0  0  0  0  0  0  0  0  0  0  0  # atno 11005 bound_to 11000
  145.6183  139.1521  143.3037 LP  0  0  0  0  0  0  0  0  0  0  0  0  # atno 17320 bound_to 7965
  146.1940  140.6295  142.9132 LP  0  0  0  0  0  0  0  0  0  0  0  0  # atno 17321 bound_to 7965
  140.4012  144.2490  150.5893 LP  0  0  0  0  0  0  0  0  0  0  0  0  # atno 17342 bound_to 10162
  140.5055  143.2305  151.8614 LP  0  0  0  0  0  0  0  0  0  0  0  0  # atno 17343 bound_to 10162
  156.1627  130.6385  151.0740 LP  0  0  0  0  0  0  0  0  0  0  0  0  # atno 17370 bound_to 10713
  157.6917  131.0808  150.7088 LP  0  0  0  0  0  0  0  0  0  0  0  0  # atno 17371 bound_to 10713
  140.9520  133.7445  156.0284 LP  0  0  0  0  0  0  0  0  0  0  0  0  # atno 17394 bound_to 11000
  140.8094  134.3416  157.5416 LP  0  0  0  0  0  0  0  0  0  0  0  0  # atno 17395 bound_to 11000

$$$$
