AV-unprocessed.smi:1371|AV-procd|sdf|5581|dock8
  -GOLD-   22720 5183D 1   1.00000     0.00000
 Structure written by MMmdl.
 31 31  0  0  0  0  0  0  0  0  1 V2000
  152.2045  144.8225  159.3272 C   0  0  0  0  0  0  0  0  0  0  0  0
  151.4915  144.0779  160.4619 C   0  0  0  0  0  0  0  0  0  0  0  0
  152.4300  143.8507  161.6585 C   0  0  0  0  0  0  0  0  0  0  0  0
  151.0463  142.8378  159.9284 O   0  0  0  0  0  0  0  0  0  0  0  0
  152.0824  141.9800  159.4712 C   0  0  0  0  0  0  0  0  0  0  0  0
  151.4802  140.9342  158.5283 C   0  0  0  0  0  0  0  0  0  0  0  0
  151.0707  141.6521  156.9078 S   0  0  0  0  0  0  0  0  0  0  0  0
  151.4180  140.3122  155.7798 C   0  0  0  0  0  0  0  0  0  0  0  0
  152.6728  139.8550  155.7200 N   0  0  0  0  0  0  0  0  0  0  0  0
  152.9055  138.8402  154.8609 C   0  0  0  0  0  0  0  0  0  0  0  0
  154.2067  138.3495  154.7866 N   0  0  0  0  0  0  0  0  0  0  0  0
  151.8788  138.2904  154.0649 C   0  0  0  0  0  0  0  0  0  0  0  0
  150.5980  138.8617  154.2171 C   0  0  0  0  0  0  0  0  0  0  0  0
  149.5154  138.3919  153.4778 N   0  0  0  0  0  0  0  0  0  0  0  0
  150.3692  139.8766  155.0776 N   0  0  0  0  0  0  0  0  0  0  0  0
  152.5533  145.8015  159.6566 H   0  0  0  0  0  0  0  0  0  0  0  0
  151.5344  144.9772  158.4812 H   0  0  0  0  0  0  0  0  0  0  0  0
  153.0690  144.2625  158.9691 H   0  0  0  0  0  0  0  0  0  0  0  0
  150.6354  144.6778  160.7749 H   0  0  0  0  0  0  0  0  0  0  0  0
  152.8364  144.7959  162.0191 H   0  0  0  0  0  0  0  0  0  0  0  0
  153.2694  143.2115  161.3835 H   0  0  0  0  0  0  0  0  0  0  0  0
  151.9144  143.3829  162.4965 H   0  0  0  0  0  0  0  0  0  0  0  0
  152.8604  142.5408  158.9536 H   0  0  0  0  0  0  0  0  0  0  0  0
  152.5492  141.4794  160.3203 H   0  0  0  0  0  0  0  0  0  0  0  0
  152.1903  140.1196  158.3834 H   0  0  0  0  0  0  0  0  0  0  0  0
  150.5816  140.5087  158.9760 H   0  0  0  0  0  0  0  0  0  0  0  0
  154.9506  138.7339  155.3508 H   0  0  0  0  0  0  0  0  0  0  0  0
  154.4461  137.5885  154.1677 H   0  0  0  0  0  0  0  0  0  0  0  0
  152.0632  137.4780  153.3770 H   0  0  0  0  0  0  0  0  0  0  0  0
  149.6142  137.6352  152.8167 H   0  0  0  0  0  0  0  0  0  0  0  0
  148.5896  138.7761  153.6019 H   0  0  0  0  0  0  0  0  0  0  0  0
  1  2  1  0  0  0  0
  1 16  1  0  0  0  0
  1 17  1  0  0  0  0
  1 18  1  0  0  0  0
  2  3  1  0  0  0  0
  2  4  1  0  0  0  0
  2 19  1  0  0  0  0
  3 20  1  0  0  0  0
  3 21  1  0  0  0  0
  3 22  1  0  0  0  0
  4  5  1  0  0  0  0
  5  6  1  0  0  0  0
  5 23  1  0  0  0  0
  5 24  1  0  0  0  0
  6  7  1  0  0  0  0
  6 25  1  0  0  0  0
  6 26  1  0  0  0  0
  7  8  1  0  0  0  0
  8 15  1  0  0  0  0
  8  9  2  0  0  0  0
  9 10  1  0  0  0  0
 10 11  1  0  0  0  0
 10 12  2  0  0  0  0
 11 27  1  0  0  0  0
 11 28  1  0  0  0  0
 12 13  1  0  0  0  0
 12 29  1  0  0  0  0
 13 14  1  0  0  0  0
 13 15  2  0  0  0  0
 14 30  1  0  0  0  0
 14 31  1  0  0  0  0
M  END
> <s_m_source_file>
AV-unprocessed.smi

> <i_m_source_file_index>
1371

> <i_lp_mmshare_version>
43012

> <i_f3d_flags>
0

> <s_epik_input>
W0NIM11bQ0hdKFtDSDNdKU9bQ0gyXVtDSDJdU2MxbmMoW05IMl0pW2NIXWMobjEpW05IMl0=

> <s_epik_cmdline>
J2VwaWtfcHl0aG9uJywgJy1waCcsICc3LjAnLCAnLXRuJywgJzgnLCAnLW1hJywgJzIwMCcsICctbWV0YWxfYmluZGluZycsICctaW1hZScsICc8aW5maWxlLm1hZT4nLCAnLW9tYWUnLCAnPG91dGZpbGUubWFlPic=

> <r_lp_tautomer_probability>
1

> <r_epik_Ionization_Penalty>
0.00548925

> <r_epik_Ionization_Penalty_Charging>
0

> <r_epik_Ionization_Penalty_Neutral>
0.00548925

> <r_epik_State_Penalty>
0.0040157

> <r_epik_Charging_Adjusted_Penalty>
0.0040157

> <i_epik_Tot_Q>
0

> <i_epik_Tot_abs_Q>
0

> <r_epik_Metal_State_Penalty>
-0

> <b_epik_Metal_Only>
0

> <s_lp_Force_Field>
OPLS_2005

> <r_lp_Energy>
-2.92027

> <b_lp_Chiralities_Consistent>
1

> <s_lp_Variant>
AV-unprocessed.smi:1371-1

> <Gold.Version>
5.8.1

> <Gold.Id.Protein>
6NUR|6NUR_protein|mol2

> <Gold.PLP.Fitness>
40.7914

> <Gold.PLP.PLP>
-35.5020

> <Gold.PLP.part.hbond>
-4.0984

> <Gold.PLP.part.metal>
0.0000

> <Gold.PLP.part.buried>
-5.7869

> <Gold.PLP.part.nonpolar>
-25.8240

> <Gold.PLP.part.repulsive>
1.1135

> <Gold.PLP.ligand.clash>
0.0000

> <Gold.PLP.ligand.torsion>
0.3747

> <Gold.PLP.Chemscore.Hbond>
2.0000

> <Gold.PLP.Chemscore.CHOScore>
0.0000

> <Gold.PLP.Chemscore.Metal>
0.0000

> <Gold.Chemscore.Hbonds>
donor molecule, donor type, donor heavy atom, donor atom, acceptor molecule, acceptor atom, score
      L1  H    14    30       P1  7948  1.00
      P1  H  7997  8008       L1     9  0.95

> <Gold.PLP.Chemscore.Internal.Correction>
0.0388

> <Gold.Rescore>
     Score         DG    S(hbond)    S(metal)    S(lipo)     H(rot)  DE(clash)    DE(int)     intcor
     11.18     -13.14       1.75        0.00      69.61       2.47       1.58       0.37       ----

> <Gold.Chemscore.Fitness>
11.1844

> <Gold.Chemscore.DG>
-13.1384

> <Gold.Chemscore.ZeroCoef>
-5.4800

> <Gold.Chemscore.Hbond>
1.7482

> <Gold.Chemscore.Metal>
0.0000

> <Gold.Chemscore.Lipo>
69.6114

> <Gold.Chemscore.Internal_Hbond>
0.0000

> <Gold.Chemscore.DEClash>
1.5839

> <Gold.Chemscore.DEInternal>
0.3700

> <Gold.Chemscore.Rot>
2.4708

> <Gold.Chemscore.Internal.Correction>
   9.000000E+99

> <Gold.Chemscore.Hbonds>
donor molecule, donor type, donor heavy atom, donor atom, acceptor molecule, acceptor atom, score
      L1  H    14    30       P1  7948  0.64
      P1  H  7997  8008       L1     9  0.22

> <Gold.Chemscore.Hbond.Weighted>
-5.8391

> <Gold.Chemscore.Metal.Weighted>
-0.0000

> <Gold.Chemscore.Lipo.Weighted>
-8.1445

> <Gold.Chemscore.Internal_Hbond.Weighted>
0.0000

> <Gold.Chemscore.DEClash.Weighted>
1.5839

> <Gold.Chemscore.DEInternal.Weighted>
0.3700

> <Gold.Chemscore.Rot.Weighted>
6.3253

> <Gold.Chemscore.Internal.Correction.Weighted>
   9.000000E+99

> <Gold.Protein.RotatedTorsions>
[ 6907 6896 6895 6894 ] final  -57.36 input  -60.11 | X-H torsion
[ 7974 7965 7964 7962 ] final  -18.58 input  175.53 | X-H torsion
[ 8008 7997 7996 7995 ] final  -41.10 input   59.86 | X-H torsion
[ 10167 10162 10161 10158 ] final -178.12 input  -65.29 | X-H torsion
[ 10718 10713 10712 10709 ] final   -9.99 input   66.30 | X-H torsion
[ 10763 10752 10751 10750 ] final   95.38 input  -60.55 | X-H torsion
[ 11005 11000 10999 10996 ] final   19.42 input  -57.11 | X-H torsion

> <Gold.Protein.ActiveResidues>
 VAL166  LYS551  ARG553  GLY616  TRP617  ASP618  TYR619  PRO620  LYS621  CYS622 
 ASP623  PHE694  ASN695  SER759  ASP760  ASP761  ALA762  ILE779  LEU786  VAL792 
 PHE793  MET794  SER795  GLU796  ALA797  LYS798  CYS799  TRP800  GLU811  SER814 

> <Gold.Protein.RotatedAtoms>
  150.8092  134.7236  159.6671 H   0  0  0  0  0  0  0  0  0  0  0  0  # atno 6907 bound_to 6896
  152.4212  134.5948  159.9994 H   0  0  0  0  0  0  0  0  0  0  0  0  # atno 6908 bound_to 6896
  151.6163  133.3305  159.3114 H   0  0  0  0  0  0  0  0  0  0  0  0  # atno 6909 bound_to 6896
  146.1885  140.3941  142.8467 H   0  0  0  0  0  0  0  0  0  0  0  0  # atno 7974 bound_to 7965
  154.4006  140.1508  156.3136 H   0  0  0  0  0  0  0  0  0  0  0  0  # atno 8008 bound_to 7997
  155.8593  140.3454  155.5724 H   0  0  0  0  0  0  0  0  0  0  0  0  # atno 8009 bound_to 7997
  155.7898  140.0855  157.2005 H   0  0  0  0  0  0  0  0  0  0  0  0  # atno 8010 bound_to 7997
  139.5447  144.2267  152.0965 H   0  0  0  0  0  0  0  0  0  0  0  0  # atno 10167 bound_to 10162
  156.6800  130.5034  149.5974 H   0  0  0  0  0  0  0  0  0  0  0  0  # atno 10718 bound_to 10713
  153.2526  135.4256  155.0813 H   0  0  0  0  0  0  0  0  0  0  0  0  # atno 10763 bound_to 10752
  154.8388  135.3429  154.6491 H   0  0  0  0  0  0  0  0  0  0  0  0  # atno 10764 bound_to 10752
  153.6913  135.7033  153.5146 H   0  0  0  0  0  0  0  0  0  0  0  0  # atno 10765 bound_to 10752
  140.4139  134.1589  155.7669 H   0  0  0  0  0  0  0  0  0  0  0  0  # atno 11005 bound_to 11000
  144.8442  140.6903  143.6210 LP  0  0  0  0  0  0  0  0  0  0  0  0  # atno 17320 bound_to 7965
  145.3865  139.1625  143.4252 LP  0  0  0  0  0  0  0  0  0  0  0  0  # atno 17321 bound_to 7965
  140.1752  144.4898  150.6558 LP  0  0  0  0  0  0  0  0  0  0  0  0  # atno 17342 bound_to 10162
  140.6691  143.2279  151.5670 LP  0  0  0  0  0  0  0  0  0  0  0  0  # atno 17343 bound_to 10162
  156.1875  130.6538  151.1023 LP  0  0  0  0  0  0  0  0  0  0  0  0  # atno 17370 bound_to 10713
  157.7047  131.0761  150.6706 LP  0  0  0  0  0  0  0  0  0  0  0  0  # atno 17371 bound_to 10713
  141.1810  133.8413  157.1256 LP  0  0  0  0  0  0  0  0  0  0  0  0  # atno 17394 bound_to 11000
  140.0248  134.9929  157.0663 LP  0  0  0  0  0  0  0  0  0  0  0  0  # atno 17395 bound_to 11000

$$$$
