AV-unprocessed.smi:54|AV-procd|sdf|542|dock7
  -GOLD-   2262016433D 1   1.00000     0.00000
 Structure written by MMmdl.
 44 46  0  0  0  0  0  0  0  0  1 V2000
  152.9263  141.9993  161.7270 C   0  0  0  0  0  0  0  0  0  0  0  0
  153.0393  142.7995  160.4194 C   0  0  0  0  0  0  0  0  0  0  0  0
  152.3147  144.1510  160.5276 C   0  0  0  0  0  0  0  0  0  0  0  0
  152.4940  141.9833  159.2420 C   0  0  0  0  0  0  0  0  0  0  0  0
  151.6461  142.4351  158.4711 O   0  0  0  0  0  0  0  0  0  0  0  0
  153.0370  140.6428  159.1094 N   0  0  0  0  0  0  0  0  0  0  0  0
  152.7143  139.7155  158.1781 C   0  0  0  0  0  0  0  0  0  0  0  0
  152.0753  140.0104  157.0549 N   0  0  0  0  0  0  0  0  0  0  0  0
  151.8301  138.9395  156.2418 C   0  0  0  0  0  0  0  0  0  0  0  0
  152.1906  137.6294  156.4759 C   0  0  0  0  0  0  0  0  0  0  0  0
  151.7747  136.8241  155.4218 N   0  0  0  0  0  0  0  0  0  0  0  0
  151.1899  137.6520  154.6011 C   0  0  0  0  0  0  0  0  0  0  0  0
  151.1669  138.9584  155.0338 N   0  0  0  0  0  0  0  0  0  0  0  0
  150.6097  140.1794  154.3673 C   0  0  1  0  0  0  0  0  0  0  0  0
  149.5729  139.7800  153.5218 O   0  0  0  0  0  0  0  0  0  0  0  0
  148.3303  139.9126  154.2034 C   0  0  2  0  0  0  0  0  0  0  0  0
  147.1471  139.8835  153.2207 C   0  0  0  0  0  0  0  0  0  0  0  0
  145.9343  140.0437  153.9248 O   0  0  0  0  0  0  0  0  0  0  0  0
  148.5331  141.2279  154.9650 C   0  0  2  0  0  0  0  0  0  0  0  0
  148.3092  142.3371  154.1090 O   0  0  0  0  0  0  0  0  0  0  0  0
  149.9885  141.1188  155.4203 C   0  0  2  0  0  0  0  0  0  0  0  0
  150.6345  142.3755  155.5045 O   0  0  0  0  0  0  0  0  0  0  0  0
  152.8961  137.2956  157.6797 C   0  0  0  0  0  0  0  0  0  0  0  0
  153.2959  136.1933  158.0481 O   0  0  0  0  0  0  0  0  0  0  0  0
  153.1204  138.4175  158.4889 N   0  0  0  0  0  0  0  0  0  0  0  0
  151.4460  140.6000  153.8071 H   0  0  0  0  0  0  0  0  0  0  0  0
  148.2299  139.1059  154.9327 H   0  0  0  0  0  0  0  0  0  0  0  0
  147.8533  141.3121  155.8135 H   0  0  0  0  0  0  0  0  0  0  0  0
  150.0221  140.6408  156.4008 H   0  0  0  0  0  0  0  0  0  0  0  0
  153.4400  141.0401  161.6505 H   0  0  0  0  0  0  0  0  0  0  0  0
  151.8858  141.8001  161.9877 H   0  0  0  0  0  0  0  0  0  0  0  0
  153.3758  142.5447  162.5571 H   0  0  0  0  0  0  0  0  0  0  0  0
  154.0961  142.9986  160.2354 H   0  0  0  0  0  0  0  0  0  0  0  0
  152.3846  144.7151  159.5967 H   0  0  0  0  0  0  0  0  0  0  0  0
  152.7531  144.7649  161.3146 H   0  0  0  0  0  0  0  0  0  0  0  0
  151.2569  144.0226  160.7612 H   0  0  0  0  0  0  0  0  0  0  0  0
  153.7048  140.3652  159.8133 H   0  0  0  0  0  0  0  0  0  0  0  0
  150.7622  137.3264  153.6640 H   0  0  0  0  0  0  0  0  0  0  0  0
  147.2264  140.7097  152.5136 H   0  0  0  0  0  0  0  0  0  0  0  0
  147.1283  138.9592  152.6425 H   0  0  0  0  0  0  0  0  0  0  0  0
  145.2235  140.0247  153.3023 H   0  0  0  0  0  0  0  0  0  0  0  0
  148.4622  143.1283  154.6034 H   0  0  0  0  0  0  0  0  0  0  0  0
  149.9736  143.0522  155.5047 H   0  0  0  0  0  0  0  0  0  0  0  0
  153.6083  138.2557  159.3576 H   0  0  0  0  0  0  0  0  0  0  0  0
  1  2  1  0  0  0  0
  1 30  1  0  0  0  0
  1 31  1  0  0  0  0
  1 32  1  0  0  0  0
  2  3  1  0  0  0  0
  2  4  1  0  0  0  0
  2 33  1  0  0  0  0
  3 34  1  0  0  0  0
  3 35  1  0  0  0  0
  3 36  1  0  0  0  0
  4  5  2  0  0  0  0
  4  6  1  0  0  0  0
  6 37  1  0  0  0  0
  6  7  1  0  0  0  0
  7 25  1  0  0  0  0
  7  8  2  0  0  0  0
  8  9  1  0  0  0  0
  9 13  1  0  0  0  0
  9 10  2  0  0  0  0
 10 11  1  0  0  0  0
 10 23  1  0  0  0  0
 11 12  2  0  0  0  0
 12 13  1  0  0  0  0
 12 38  1  0  0  0  0
 13 14  1  0  0  0  0
 14 26  1  0  0  0  0
 14 21  1  0  0  0  0
 14 15  1  0  0  0  0
 15 16  1  0  0  0  0
 16 27  1  0  0  0  0
 16 17  1  0  0  0  0
 16 19  1  0  0  0  0
 17 18  1  0  0  0  0
 17 39  1  0  0  0  0
 17 40  1  0  0  0  0
 18 41  1  0  0  0  0
 19 28  1  0  0  0  0
 19 20  1  0  0  0  0
 19 21  1  0  0  0  0
 20 42  1  0  0  0  0
 21 29  1  0  0  0  0
 21 22  1  0  0  0  0
 22 43  1  0  0  0  0
 23 24  2  0  0  0  0
 23 25  1  0  0  0  0
 25 44  1  0  0  0  0
M  END
> <s_m_source_file>
AV-unprocessed.smi

> <i_m_source_file_index>
54

> <i_lp_mmshare_version>
43012

> <i_f3d_flags>
0

> <s_epik_input>
W0NIM11bQ0hdKFtDSDNdKUMoPU8pW05IXWMobjEpW25IXWMoPU8pYyhjMTIpbltjSF1uMltDQEBIXTNPW0NASF0oW0NIMl1bT0hdKVtDQEBIXShbT0hdKVtDQEhdM1tPSF0=

> <s_epik_cmdline>
J2VwaWtfcHl0aG9uJywgJy1waCcsICc3LjAnLCAnLXRuJywgJzgnLCAnLW1hJywgJzIwMCcsICctbWV0YWxfYmluZGluZycsICctaW1hZScsICc8aW5maWxlLm1hZT4nLCAnLW9tYWUnLCAnPG91dGZpbGUubWFlPic=

> <r_lp_tautomer_probability>
0.85571

> <r_epik_Ionization_Penalty>
0.0316551

> <r_epik_Ionization_Penalty_Charging>
0.0316043

> <r_epik_Ionization_Penalty_Neutral>
5.07097e-05

> <r_epik_State_Penalty>
3.15494e-07

> <r_epik_Charging_Adjusted_Penalty>
0.0316047

> <i_epik_Tot_Q>
0

> <i_epik_Tot_abs_Q>
0

> <r_epik_Metal_State_Penalty>
0.421206

> <b_epik_Metal_Only>
0

> <s_epik_Chemistry_Notes>
This compound contains an acetal/aminal-like group ( X-CH(R)-Y where X, Y are N, S, or O) that may be acid/base labile, releasing an aldehyde.

> <s_lp_Force_Field>
OPLS_2005

> <r_lp_Energy>
43.5631

> <b_lp_Chiralities_Consistent>
1

> <s_lp_Variant>
AV-unprocessed.smi:54-14

> <Gold.Version>
5.8.1

> <Gold.Id.Protein>
6NUR|6NUR_protein|mol2

> <Gold.PLP.Fitness>
48.6650

> <Gold.PLP.PLP>
-35.1603

> <Gold.PLP.part.hbond>
-6.9493

> <Gold.PLP.part.metal>
0.0000

> <Gold.PLP.part.buried>
0.6861

> <Gold.PLP.part.nonpolar>
-32.9272

> <Gold.PLP.part.repulsive>
5.0074

> <Gold.PLP.ligand.clash>
0.0000

> <Gold.PLP.ligand.torsion>
0.8162

> <Gold.PLP.Chemscore.Hbond>
4.0832

> <Gold.PLP.Chemscore.CHOScore>
0.9475

> <Gold.PLP.Chemscore.Metal>
0.0000

> <Gold.Chemscore.Hbonds>
donor molecule, donor type, donor heavy atom, donor atom, acceptor molecule, acceptor atom, score
      L1  H    18    41       P1 10175  1.00
      L1  H    20    42       P1  8028  1.00
      L1  H    22    43       P1  8028  1.00
      P1  H  8011  8017       L1    20  0.07
      P1  H 10752 10764       L1    11  1.00
      L1  C    12    38       P1  7948  0.26
      L1  C    12    38       P1  7949  0.72

> <Gold.PLP.Chemscore.Internal.Correction>
0.0449

> <Gold.Rescore>
     Score         DG    S(hbond)    S(metal)    S(lipo)     H(rot)  DE(clash)    DE(int)     intcor
      8.94     -15.32       3.84        0.00      63.04       4.05       2.88       3.50       ----

> <Gold.Chemscore.Fitness>
8.9362

> <Gold.Chemscore.DG>
-15.3186

> <Gold.Chemscore.ZeroCoef>
-5.4800

> <Gold.Chemscore.Hbond>
3.8410

> <Gold.Chemscore.Metal>
0.0000

> <Gold.Chemscore.Lipo>
63.0416

> <Gold.Chemscore.Internal_Hbond>
0.0000

> <Gold.Chemscore.DEClash>
2.8782

> <Gold.Chemscore.DEInternal>
3.5042

> <Gold.Chemscore.Rot>
4.0493

> <Gold.Chemscore.Internal.Correction>
   9.000000E+99

> <Gold.Chemscore.Hbonds>
donor molecule, donor type, donor heavy atom, donor atom, acceptor molecule, acceptor atom, score
      L1  H    18    41       P1 10175  1.00
      L1  H    20    42       P1  8028  1.00
      L1  H    22    43       P1  8028  0.97
      P1  H  8011  8017       L1    20  0.03
      P1  H 10752 10764       L1    11  0.91

> <Gold.Chemscore.Hbond.Weighted>
-12.8290

> <Gold.Chemscore.Metal.Weighted>
-0.0000

> <Gold.Chemscore.Lipo.Weighted>
-7.3759

> <Gold.Chemscore.Internal_Hbond.Weighted>
0.0000

> <Gold.Chemscore.DEClash.Weighted>
2.8782

> <Gold.Chemscore.DEInternal.Weighted>
3.5042

> <Gold.Chemscore.Rot.Weighted>
10.3662

> <Gold.Chemscore.Internal.Correction.Weighted>
   9.000000E+99

> <Gold.Protein.RotatedTorsions>
[ 6907 6896 6895 6894 ] final -130.96 input  -60.11 | X-H torsion
[ 7974 7965 7964 7962 ] final  109.40 input  175.53 | X-H torsion
[ 8008 7997 7996 7995 ] final  -19.42 input   59.86 | X-H torsion
[ 10167 10162 10161 10158 ] final  -88.84 input  -65.29 | X-H torsion
[ 10718 10713 10712 10709 ] final   77.93 input   66.30 | X-H torsion
[ 10763 10752 10751 10750 ] final  -48.56 input  -60.55 | X-H torsion
[ 11005 11000 10999 10996 ] final   29.23 input  -57.11 | X-H torsion

> <Gold.Protein.ActiveResidues>
 VAL166  LYS551  ARG553  GLY616  TRP617  ASP618  TYR619  PRO620  LYS621  CYS622 
 ASP623  PHE694  ASN695  SER759  ASP760  ASP761  ALA762  ILE779  LEU786  VAL792 
 PHE793  MET794  SER795  GLU796  ALA797  LYS798  CYS799  TRP800  GLU811  SER814 

> <Gold.Protein.RotatedAtoms>
  150.9455  133.6608  159.2781 H   0  0  0  0  0  0  0  0  0  0  0  0  # atno 6907 bound_to 6896
  151.3982  135.0965  159.9557 H   0  0  0  0  0  0  0  0  0  0  0  0  # atno 6908 bound_to 6896
  152.5088  133.8955  159.7470 H   0  0  0  0  0  0  0  0  0  0  0  0  # atno 6909 bound_to 6896
  145.2683  139.2676  143.3980 H   0  0  0  0  0  0  0  0  0  0  0  0  # atno 7974 bound_to 7965
  154.4838  140.2089  155.9703 H   0  0  0  0  0  0  0  0  0  0  0  0  # atno 8008 bound_to 7997
  156.1205  140.3214  155.8170 H   0  0  0  0  0  0  0  0  0  0  0  0  # atno 8009 bound_to 7997
  155.4476  140.0514  157.2995 H   0  0  0  0  0  0  0  0  0  0  0  0  # atno 8010 bound_to 7997
  140.3707  143.2795  151.9503 H   0  0  0  0  0  0  0  0  0  0  0  0  # atno 10167 bound_to 10162
  157.6727  130.9844  150.1713 H   0  0  0  0  0  0  0  0  0  0  0  0  # atno 10718 bound_to 10713
  154.0797  135.6593  153.4836 H   0  0  0  0  0  0  0  0  0  0  0  0  # atno 10763 bound_to 10752
  153.0360  135.5177  154.7486 H   0  0  0  0  0  0  0  0  0  0  0  0  # atno 10764 bound_to 10752
  154.6577  135.3010  154.9875 H   0  0  0  0  0  0  0  0  0  0  0  0  # atno 10765 bound_to 10752
  140.3072  134.2691  155.7741 H   0  0  0  0  0  0  0  0  0  0  0  0  # atno 11005 bound_to 11000
  146.3254  140.3119  142.8627 LP  0  0  0  0  0  0  0  0  0  0  0  0  # atno 17320 bound_to 7965
  144.9357  140.8024  143.5661 LP  0  0  0  0  0  0  0  0  0  0  0  0  # atno 17321 bound_to 7965
  139.4804  144.5909  151.7773 LP  0  0  0  0  0  0  0  0  0  0  0  0  # atno 17342 bound_to 10162
  140.5036  144.1132  150.5977 LP  0  0  0  0  0  0  0  0  0  0  0  0  # atno 17343 bound_to 10162
  156.2466  130.3696  149.8278 LP  0  0  0  0  0  0  0  0  0  0  0  0  # atno 17370 bound_to 10713
  156.6062  130.8567  151.3444 LP  0  0  0  0  0  0  0  0  0  0  0  0  # atno 17371 bound_to 10713
  141.2116  133.7684  156.9853 LP  0  0  0  0  0  0  0  0  0  0  0  0  # atno 17394 bound_to 11000
  140.1057  134.9508  157.1990 LP  0  0  0  0  0  0  0  0  0  0  0  0  # atno 17395 bound_to 11000

$$$$
