#       Name:                AV-unprocessed.smi:2010
#       Creating user name   scv26
#       Creation time:       Fri Mar 27 10:39:09 2020


#       File generated by GOLD software.
#

@<TRIPOS>MOLECULE
AV-unprocessed.smi:2010
    43    44     1
SMALL
NO_CHARGES


@<TRIPOS>ATOM
      1 ****        -5.0777   0.4195   0.1872 C.3            1 S1                 0.0000
      2 ****        -3.5430   0.4092   0.2190 C.3            1 S1                 0.0000
      3 ****        -2.9942   1.1076   1.4707 C.3            1 S1                 0.0000
      4 ****        -1.4569   1.0894   1.5015 C.3            1 S1                 0.0000
      5 ****        -0.8815   1.6559   0.2652 N.pl3          1 S1                 0.0000
      6 ****         0.7859   2.1286   0.2902 S.o2           1 S1                 0.0000
      7 ****         1.1161   2.7902  -0.9815 O.2            1 S1                 0.0000
      8 ****         1.0923   2.7664   1.5797 O.2            1 S1                 0.0000
      9 ****         1.5013   0.5623   0.2807 N.3            1 S1                 0.0000
     10 ****         2.9569   0.4309   0.1918 C.3            1 S1                 0.0000
     11 ****         3.4931  -0.2100   1.4809 C.3            1 S1                 0.0000
     12 ****         3.3357  -0.3226  -1.1006 C.3            1 S1                 0.0000
     13 ****         2.9076  -1.7122  -1.1104 N.pl3          1 S1                 0.0000
     14 ****         1.6791  -2.2251  -1.4711 C.2            1 S1                 0.0000
     15 ****         1.7423  -3.5802  -1.3171 C.2            1 S1                 0.0000
     16 ****         3.0699  -3.8059  -0.8575 C.2            1 S1                 0.0000
     17 ****         3.7655  -2.6867  -0.7364 N.2            1 S1                 0.0000
     18 ****        -1.4072   1.0703  -0.9843 C.3            1 S1                 0.0000
     19 ****        -2.9438   1.0921  -1.0177 C.3            1 S1                 0.0000
     20 ****        -5.4672   1.4380   0.1729 H              1 S1                 0.0000
     21 ****        -5.4912  -0.0837   1.0615 H              1 S1                 0.0000
     22 ****        -5.4549  -0.0939  -0.6976 H              1 S1                 0.0000
     23 ****        -3.2149  -0.6311   0.2321 H              1 S1                 0.0000
     24 ****        -3.3451   2.1402   1.5018 H              1 S1                 0.0000
     25 ****        -3.3813   0.6247   2.3684 H              1 S1                 0.0000
     26 ****        -1.1075   1.6572   2.3637 H              1 S1                 0.0000
     27 ****        -1.0936   0.0687   1.6262 H              1 S1                 0.0000
     28 ****         1.0820  -0.0656   0.9658 H              1 S1                 0.0000
     29 ****         3.3832   1.4323   0.1186 H              1 S1                 0.0000
     30 ****         4.5765  -0.3238   1.4375 H              1 S1                 0.0000
     31 ****         3.0612  -1.1961   1.6534 H              1 S1                 0.0000
     32 ****         3.2613   0.4080   2.3487 H              1 S1                 0.0000
     33 ****         2.9016   0.1763  -1.9682 H              1 S1                 0.0000
     34 ****         4.4171  -0.2912  -1.2421 H              1 S1                 0.0000
     35 ****         0.8710  -1.5884  -1.7998 H              1 S1                 0.0000
     36 ****         0.9602  -4.3005  -1.5054 H              1 S1                 0.0000
     37 ****         3.5461  -4.7433  -0.6105 H              1 S1                 0.0000
     38 ****        -1.0203   1.6217  -1.8412 H              1 S1                 0.0000
     39 ****        -1.0422   0.0466  -1.0767 H              1 S1                 0.0000
     40 ****        -3.2945   0.5988  -1.9248 H              1 S1                 0.0000
     41 ****        -3.2909   2.1249  -1.0755 H              1 S1                 0.0000
     42 ****         1.2518   0.2582  -0.6387 LP             1 S1                 0.0000
     43 ****         4.7138  -2.5850  -0.4355 LP             1 S1                 0.0000
@<TRIPOS>BOND
    1    1    2 1     
    2    1   20 1     
    3    1   21 1     
    4    1   22 1     
    5    2   19 1     
    6    2    3 1     
    7    2   23 1     
    8    3    4 1     
    9    3   24 1     
   10    3   25 1     
   11    4    5 1     
   12    4   26 1     
   13    4   27 1     
   14    5    6 1     
   15    5   18 1     
   16    6    7 2     
   17    6    8 2     
   18    6    9 1     
   19    9   10 1     
   20    9   28 1     
   21   10   11 1     
   22   10   12 1     
   23   10   29 1     
   24   11   30 1     
   25   11   31 1     
   26   11   32 1     
   27   12   13 1     
   28   12   33 1     
   29   12   34 1     
   30   13   17 1     
   31   13   14 1     
   32   14   15 2     
   33   14   35 1     
   34   15   16 1     
   35   15   36 1     
   36   16   17 2     
   37   16   37 1     
   38   18   19 1     
   39   18   38 1     
   40   18   39 1     
   41   19   40 1     
   42   19   41 1     
   43    9   42 1     
   44   17   43 1     
@<TRIPOS>SUBSTRUCTURE
      1 S1             1
@<TRIPOS>SET
LONE_PAIRS      STATIC     ATOMS    <user>   **** ""
4 7 8 42 43
DONOR_HYDROGENS      STATIC     ATOMS    <user>   **** ""
1 28
ATOM$BLUE        STATIC     ATOMS    COLORGROUP SYSTEM
4 7 8 42 43
ATOM$RED        STATIC     ATOMS    COLORGROUP SYSTEM
1 28
