#       Name:                AV-unprocessed.smi:2050
#       Creating user name   scv26
#       Creation time:       Fri Mar 27 10:59:05 2020


#       File generated by GOLD software.
#

@<TRIPOS>MOLECULE
AV-unprocessed.smi:2050
    38    39     1
SMALL
NO_CHARGES


@<TRIPOS>ATOM
      1 ****        -6.2050  -1.8260   1.5510 C.3            1 S1                 0.0000
      2 ****        -4.8875  -1.1621   1.3379 C.2            1 S1                 0.0000
      3 ****        -3.6040  -1.5275   1.6321 C.2            1 S1                 0.0000
      4 ****        -2.8412  -0.4285   1.1548 C.2            1 S1                 0.0000
      5 ****        -1.4277  -0.4179   1.2716 N.am           1 S1                 0.0000
      6 ****        -0.5803   0.5451   0.8701 C.2            1 S1                 0.0000
      7 ****        -0.9101   1.6005   0.3285 O.2            1 S1                 0.0000
      8 ****         0.6926   0.2152   1.1317 N.am           1 S1                 0.0000
      9 ****         1.8523   1.0451   0.8223 C.3            1 S1                 0.0000
     10 ****         2.2415   0.9841  -0.6688 C.3            1 S1                 0.0000
     11 ****         2.5718  -0.4401  -1.1638 C.3            1 S1                 0.0000
     12 ****         3.2164  -0.3382  -2.5495 C.3            1 S1                 0.0000
     13 ****         4.1954   1.2087  -2.5239 S.o2           1 S1                 0.0000
     14 ****         5.6069   0.8907  -2.2602 O.2            1 S1                 0.0000
     15 ****         3.8084   2.0402  -3.6736 O.2            1 S1                 0.0000
     16 ****         3.4434   1.8846  -0.9943 C.3            1 S1                 0.0000
     17 ****        -3.5911   0.5220   0.6184 N.2            1 S1                 0.0000
     18 ****        -4.9065   0.0574   0.7342 O.3            1 S1                 0.0000
     19 ****        -6.0859  -2.9055   1.6449 H              1 S1                 0.0000
     20 ****        -6.8779  -1.6331   0.7151 H              1 S1                 0.0000
     21 ****        -6.6798  -1.4571   2.4602 H              1 S1                 0.0000
     22 ****        -3.2689  -2.4352   2.1112 H              1 S1                 0.0000
     23 ****        -1.0185  -1.2316   1.7060 H              1 S1                 0.0000
     24 ****         0.8742  -0.6714   1.5791 H              1 S1                 0.0000
     25 ****         1.6551   2.0768   1.1190 H              1 S1                 0.0000
     26 ****         2.6838   0.7029   1.4391 H              1 S1                 0.0000
     27 ****         1.4021   1.3457  -1.2648 H              1 S1                 0.0000
     28 ****         3.2822  -0.9028  -0.4773 H              1 S1                 0.0000
     29 ****         1.6884  -1.0789  -1.1880 H              1 S1                 0.0000
     30 ****         3.8555  -1.1878  -2.7897 H              1 S1                 0.0000
     31 ****         2.4550  -0.2425  -3.3240 H              1 S1                 0.0000
     32 ****         3.1623   2.9274  -1.1426 H              1 S1                 0.0000
     33 ****         4.1963   1.8383  -0.2070 H              1 S1                 0.0000
     34 ****        -1.8760   1.7936   0.1563 LP             1 S1                 0.0000
     35 ****        -0.2120   2.2646   0.0608 LP             1 S1                 0.0000
     36 ****        -3.2841   1.3851   0.2173 LP             1 S1                 0.0000
     37 ****        -5.4420   0.6974   1.2854 LP             1 S1                 0.0000
     38 ****        -5.3159  -0.0234  -0.1745 LP             1 S1                 0.0000
@<TRIPOS>BOND
    1    1    2 1     
    2    1   19 1     
    3    1   20 1     
    4    1   21 1     
    5    2   18 1     
    6    2    3 2     
    7    3    4 1     
    8    3   22 1     
    9    4    5 1     
   10    4   17 2     
   11    5    6 am    
   12    5   23 1     
   13    6    7 2     
   14    6    8 am    
   15    8    9 1     
   16    8   24 1     
   17    9   10 1     
   18    9   25 1     
   19    9   26 1     
   20   10   16 1     
   21   10   11 1     
   22   10   27 1     
   23   11   12 1     
   24   11   28 1     
   25   11   29 1     
   26   12   13 1     
   27   12   30 1     
   28   12   31 1     
   29   13   14 2     
   30   13   15 2     
   31   13   16 1     
   32   16   32 1     
   33   16   33 1     
   34   17   18 1     
   35    7   34 1     
   36    7   35 1     
   37   17   36 1     
   38   18   37 1     
   39   18   38 1     
@<TRIPOS>SUBSTRUCTURE
      1 S1             1
@<TRIPOS>SET
LONE_PAIRS      STATIC     ATOMS    <user>   **** ""
7 34 35 14 15 36 37 38
DONOR_HYDROGENS      STATIC     ATOMS    <user>   **** ""
2 23 24
ATOM$BLUE        STATIC     ATOMS    COLORGROUP SYSTEM
7 34 35 14 15 36 37 38
ATOM$RED        STATIC     ATOMS    COLORGROUP SYSTEM
2 23 24
