AV-unprocessed.smi:2159|AV-procd|sdf|8791|dock10
  -GOLD-   2272011573D 1   1.00000     0.00000
 Structure written by MMmdl.
 47 49  0  0  0  0  0  0  0  0  1 V2000
  152.4694  136.5797  155.9199 O   0  0  0  0  0  0  0  0  0  0  0  0
  151.2877  136.9209  155.9724 C   0  0  0  0  0  0  0  0  0  0  0  0
  150.8973  138.2272  156.6651 C   0  0  0  0  0  0  0  0  0  0  0  0
  151.5341  139.4516  155.9789 C   0  0  0  0  0  0  0  0  0  0  0  0
  151.6743  140.5739  156.9087 N   0  0  0  0  0  0  0  0  0  0  0  0
  150.9954  141.7322  156.8080 C   0  0  0  0  0  0  0  0  0  0  0  0
  150.1044  142.0065  156.0049 O   0  0  0  0  0  0  0  0  0  0  0  0
  151.5602  142.7211  157.8169 C   0  0  1  0  0  0  0  0  0  0  0  0
  150.6916  143.7602  158.5275 C   0  0  0  0  0  0  0  0  0  0  0  0
  151.6352  144.5745  159.4521 C   0  0  0  0  0  0  0  0  0  0  0  0
  152.5326  143.6958  160.3730 C   0  0  0  0  0  0  0  0  0  0  0  0
  153.2429  142.5285  159.6372 C   0  0  0  0  0  0  0  0  0  0  0  0
  152.1678  141.7851  158.8433 C   0  0  2  0  0  0  0  0  0  0  0  0
  152.4772  140.5638  157.9901 C   0  0  0  0  0  0  0  0  0  0  0  0
  153.2834  139.6910  158.3110 O   0  0  0  0  0  0  0  0  0  0  0  0
  150.2814  136.1861  155.4719 N   0  0  0  0  0  0  0  0  0  0  0  0
  150.4145  134.8492  154.8974 C   0  0  0  0  0  0  0  0  0  0  0  0
  149.8540  133.7505  155.8239 C   0  0  0  0  0  0  0  0  0  0  0  0
  149.8728  132.3582  155.2133 C   0  0  0  0  0  0  0  0  0  0  0  0
  150.5918  131.3139  155.8324 C   0  0  0  0  0  0  0  0  0  0  0  0
  150.5381  130.0297  155.2570 C   0  0  0  0  0  0  0  0  0  0  0  0
  149.7727  129.8400  154.0902 C   0  0  0  0  0  0  0  0  0  0  0  0
  149.0928  130.9482  153.5472 C   0  0  0  0  0  0  0  0  0  0  0  0
  149.1364  132.1829  154.0917 N   0  0  0  0  0  0  0  0  0  0  0  0
  149.8106  138.3176  156.6668 H   0  0  0  0  0  0  0  0  0  0  0  0
  151.2091  138.1843  157.7100 H   0  0  0  0  0  0  0  0  0  0  0  0
  152.5146  139.1922  155.5749 H   0  0  0  0  0  0  0  0  0  0  0  0
  150.9343  139.7536  155.1182 H   0  0  0  0  0  0  0  0  0  0  0  0
  152.3501  143.2531  157.2815 H   0  0  0  0  0  0  0  0  0  0  0  0
  150.2037  144.4176  157.8072 H   0  0  0  0  0  0  0  0  0  0  0  0
  149.9038  143.2778  159.1076 H   0  0  0  0  0  0  0  0  0  0  0  0
  152.2814  145.1949  158.8299 H   0  0  0  0  0  0  0  0  0  0  0  0
  151.0510  145.2674  160.0582 H   0  0  0  0  0  0  0  0  0  0  0  0
  153.2727  144.3212  160.8733 H   0  0  0  0  0  0  0  0  0  0  0  0
  151.9090  143.2797  161.1653 H   0  0  0  0  0  0  0  0  0  0  0  0
  154.0231  142.9063  158.9754 H   0  0  0  0  0  0  0  0  0  0  0  0
  153.7245  141.8636  160.3550 H   0  0  0  0  0  0  0  0  0  0  0  0
  151.4010  141.4528  159.5468 H   0  0  0  0  0  0  0  0  0  0  0  0
  149.3435  136.5494  155.5615 H   0  0  0  0  0  0  0  0  0  0  0  0
  149.8847  134.8295  153.9449 H   0  0  0  0  0  0  0  0  0  0  0  0
  151.4591  134.6349  154.6651 H   0  0  0  0  0  0  0  0  0  0  0  0
  150.4260  133.7342  156.7530 H   0  0  0  0  0  0  0  0  0  0  0  0
  148.8306  133.9981  156.1076 H   0  0  0  0  0  0  0  0  0  0  0  0
  151.1589  131.4891  156.7347 H   0  0  0  0  0  0  0  0  0  0  0  0
  151.0705  129.2042  155.7058 H   0  0  0  0  0  0  0  0  0  0  0  0
  149.7069  128.8684  153.6236 H   0  0  0  0  0  0  0  0  0  0  0  0
  148.4939  130.8391  152.6550 H   0  0  0  0  0  0  0  0  0  0  0  0
  1  2  2  0  0  0  0
  2  3  1  0  0  0  0
  2 16  1  0  0  0  0
  3  4  1  0  0  0  0
  3 25  1  0  0  0  0
  3 26  1  0  0  0  0
  4  5  1  0  0  0  0
  4 27  1  0  0  0  0
  4 28  1  0  0  0  0
  5 14  1  0  0  0  0
  5  6  1  0  0  0  0
  6  7  2  0  0  0  0
  6  8  1  0  0  0  0
  8 13  1  0  0  0  0
  8  9  1  0  0  0  0
  8 29  1  0  0  0  0
  9 10  1  0  0  0  0
  9 30  1  0  0  0  0
  9 31  1  0  0  0  0
 10 11  1  0  0  0  0
 10 32  1  0  0  0  0
 10 33  1  0  0  0  0
 11 12  1  0  0  0  0
 11 34  1  0  0  0  0
 11 35  1  0  0  0  0
 12 13  1  0  0  0  0
 12 36  1  0  0  0  0
 12 37  1  0  0  0  0
 13 14  1  0  0  0  0
 13 38  1  0  0  0  0
 14 15  2  0  0  0  0
 16 17  1  0  0  0  0
 16 39  1  0  0  0  0
 17 18  1  0  0  0  0
 17 40  1  0  0  0  0
 17 41  1  0  0  0  0
 18 19  1  0  0  0  0
 18 42  1  0  0  0  0
 18 43  1  0  0  0  0
 19 24  1  0  0  0  0
 19 20  2  0  0  0  0
 20 21  1  0  0  0  0
 20 44  1  0  0  0  0
 21 22  2  0  0  0  0
 21 45  1  0  0  0  0
 22 23  1  0  0  0  0
 22 46  1  0  0  0  0
 23 24  2  0  0  0  0
 23 47  1  0  0  0  0
M  END
> <s_m_source_file>
AV-unprocessed.smi

> <i_m_source_file_index>
2159

> <i_lp_mmshare_version>
43012

> <i_f3d_flags>
0

> <s_epik_input>
bjFbY0hdW2NIXVtjSF1bY0hdYzFbQ0gyXVtDSDJdW05IXUMoPU8pW0NIMl1bQ0gyXU4oQzI9TylDKD1PKVtDQEhdKFtDQEBIXTIzKVtDSDJdW0NIMl1bQ0gyXVtDSDJdMw==

> <s_epik_cmdline>
J2VwaWtfcHl0aG9uJywgJy1waCcsICc3LjAnLCAnLXRuJywgJzgnLCAnLW1hJywgJzIwMCcsICctbWV0YWxfYmluZGluZycsICctaW1hZScsICc8aW5maWxlLm1hZT4nLCAnLW9tYWUnLCAnPG91dGZpbGUubWFlPic=

> <r_lp_tautomer_probability>
1

> <r_epik_Ionization_Penalty>
0.026624

> <r_epik_Ionization_Penalty_Charging>
0

> <r_epik_Ionization_Penalty_Neutral>
0.026624

> <r_epik_State_Penalty>
0.0217444

> <r_epik_Charging_Adjusted_Penalty>
0.0217444

> <i_epik_Tot_Q>
0

> <i_epik_Tot_abs_Q>
0

> <r_epik_Metal_State_Penalty>
0.0208054

> <b_epik_Metal_Only>
0

> <s_lp_Force_Field>
OPLS_2005

> <r_lp_Energy>
31.6251

> <b_lp_Chiralities_Consistent>
1

> <s_lp_Variant>
AV-unprocessed.smi:2159-1

> <Gold.Version>
5.8.1

> <Gold.Id.Protein>
6NUR|6NUR_protein|mol2

> <Gold.PLP.Fitness>
51.5288

> <Gold.PLP.PLP>
-42.9673

> <Gold.PLP.part.hbond>
-1.8565

> <Gold.PLP.part.metal>
0.0000

> <Gold.PLP.part.buried>
-5.7922

> <Gold.PLP.part.nonpolar>
-35.1906

> <Gold.PLP.part.repulsive>
1.1700

> <Gold.PLP.ligand.clash>
0.0000

> <Gold.PLP.ligand.torsion>
0.2631

> <Gold.PLP.Chemscore.Hbond>
2.0000

> <Gold.PLP.Chemscore.CHOScore>
1.0000

> <Gold.PLP.Chemscore.Metal>
0.0000

> <Gold.Chemscore.Hbonds>
donor molecule, donor type, donor heavy atom, donor atom, acceptor molecule, acceptor atom, score
      P1  H  7997  8010       L1    15  1.00
      P1  H 10752 10764       L1     1  1.00
      L1  C    23    47       P1 10747  1.00

> <Gold.PLP.Chemscore.Internal.Correction>
0.0877

> <Gold.Rescore>
     Score         DG    S(hbond)    S(metal)    S(lipo)     H(rot)  DE(clash)    DE(int)     intcor
     18.86     -19.21       1.84        0.00     108.10       1.97       0.06       0.30       ----

> <Gold.Chemscore.Fitness>
18.8569

> <Gold.Chemscore.DG>
-19.2136

> <Gold.Chemscore.ZeroCoef>
-5.4800

> <Gold.Chemscore.Hbond>
1.8353

> <Gold.Chemscore.Metal>
0.0000

> <Gold.Chemscore.Lipo>
108.1036

> <Gold.Chemscore.Internal_Hbond>
0.0000

> <Gold.Chemscore.DEClash>
0.0562

> <Gold.Chemscore.DEInternal>
0.3005

> <Gold.Chemscore.Rot>
1.9704

> <Gold.Chemscore.Internal.Correction>
   9.000000E+99

> <Gold.Chemscore.Hbonds>
donor molecule, donor type, donor heavy atom, donor atom, acceptor molecule, acceptor atom, score
      P1  H  7997  8010       L1    15  0.43
      P1  H 10752 10764       L1     1  0.91

> <Gold.Chemscore.Hbond.Weighted>
-6.1298

> <Gold.Chemscore.Metal.Weighted>
-0.0000

> <Gold.Chemscore.Lipo.Weighted>
-12.6481

> <Gold.Chemscore.Internal_Hbond.Weighted>
0.0000

> <Gold.Chemscore.DEClash.Weighted>
0.0562

> <Gold.Chemscore.DEInternal.Weighted>
0.3005

> <Gold.Chemscore.Rot.Weighted>
5.0443

> <Gold.Chemscore.Internal.Correction.Weighted>
   9.000000E+99

> <Gold.Protein.RotatedTorsions>
[ 6907 6896 6895 6894 ] final -117.74 input  -60.11 | X-H torsion
[ 7974 7965 7964 7962 ] final   65.83 input  175.53 | X-H torsion
[ 8008 7997 7996 7995 ] final   16.85 input   59.86 | X-H torsion
[ 10167 10162 10161 10158 ] final   43.02 input  -65.29 | X-H torsion
[ 10718 10713 10712 10709 ] final  -78.11 input   66.30 | X-H torsion
[ 10763 10752 10751 10750 ] final  -33.01 input  -60.55 | X-H torsion
[ 11005 11000 10999 10996 ] final   59.73 input  -57.11 | X-H torsion

> <Gold.Protein.ActiveResidues>
 VAL166  LYS551  ARG553  GLY616  TRP617  ASP618  TYR619  PRO620  LYS621  CYS622 
 ASP623  PHE694  ASN695  SER759  ASP760  ASP761  ALA762  ILE779  LEU786  VAL792 
 PHE793  MET794  SER795  GLU796  ALA797  LYS798  CYS799  TRP800  GLU811  SER814 

> <Gold.Protein.RotatedAtoms>
  150.8162  133.8334  159.3159 H   0  0  0  0  0  0  0  0  0  0  0  0  # atno 6907 bound_to 6896
  151.6105  135.1039  160.0089 H   0  0  0  0  0  0  0  0  0  0  0  0  # atno 6908 bound_to 6896
  152.4253  133.7144  159.6554 H   0  0  0  0  0  0  0  0  0  0  0  0  # atno 6909 bound_to 6896
  145.8338  139.3154  143.0972 H   0  0  0  0  0  0  0  0  0  0  0  0  # atno 7974 bound_to 7965
  154.8829  140.2975  155.5415 H   0  0  0  0  0  0  0  0  0  0  0  0  # atno 8008 bound_to 7997
  156.3022  140.2439  156.3767 H   0  0  0  0  0  0  0  0  0  0  0  0  # atno 8009 bound_to 7997
  154.8699  140.0402  157.1707 H   0  0  0  0  0  0  0  0  0  0  0  0  # atno 8010 bound_to 7997
  140.3486  144.2379  150.6148 H   0  0  0  0  0  0  0  0  0  0  0  0  # atno 10167 bound_to 10162
  156.0126  130.4509  150.3447 H   0  0  0  0  0  0  0  0  0  0  0  0  # atno 10718 bound_to 10713
  153.8232  135.6872  153.4824 H   0  0  0  0  0  0  0  0  0  0  0  0  # atno 10763 bound_to 10752
  153.1556  135.4600  154.9697 H   0  0  0  0  0  0  0  0  0  0  0  0  # atno 10764 bound_to 10752
  154.7918  135.3304  154.7703 H   0  0  0  0  0  0  0  0  0  0  0  0  # atno 10765 bound_to 10752
  140.0283  134.6050  155.9542 H   0  0  0  0  0  0  0  0  0  0  0  0  # atno 11005 bound_to 11000
  145.9542  140.8886  143.0244 LP  0  0  0  0  0  0  0  0  0  0  0  0  # atno 17320 bound_to 7965
  144.6738  140.1722  143.7413 LP  0  0  0  0  0  0  0  0  0  0  0  0  # atno 17321 bound_to 7965
  140.5241  143.2258  151.8343 LP  0  0  0  0  0  0  0  0  0  0  0  0  # atno 17342 bound_to 10162
  139.4829  144.4801  151.9317 LP  0  0  0  0  0  0  0  0  0  0  0  0  # atno 17343 bound_to 10162
  157.1541  131.0328  151.2871 LP  0  0  0  0  0  0  0  0  0  0  0  0  # atno 17370 bound_to 10713
  157.4367  130.7521  149.7035 LP  0  0  0  0  0  0  0  0  0  0  0  0  # atno 17371 bound_to 10713
  141.1816  133.6547  156.5043 LP  0  0  0  0  0  0  0  0  0  0  0  0  # atno 17394 bound_to 11000
  140.4269  134.7137  157.4921 LP  0  0  0  0  0  0  0  0  0  0  0  0  # atno 17395 bound_to 11000

$$$$
