AV-unprocessed.smi:500|AV-procd|sdf|2738|dock4
  -GOLD-   2262023193D 1   1.00000     0.00000
 Structure written by MMmdl.
 44 46  0  0  0  0  0  0  0  0  2 V2000
  152.2137  138.3286  155.1952 C   0  0  0  0  0  0  0  0  0  0  0  0
  152.3463  139.3668  156.3116 C   0  0  0  0  0  0  0  0  0  0  0  0
  153.0880  138.7962  157.3800 O   0  0  0  0  0  0  0  0  0  0  0  0
  152.3541  137.8542  158.1490 C   0  0  0  0  0  0  0  0  0  0  0  0
  151.6234  138.5331  159.3206 C   0  0  0  0  0  0  0  0  0  0  0  0
  150.9166  139.7406  158.8898 N   0  0  0  0  0  0  0  0  0  0  0  0
  149.6890  139.8889  158.3006 C   0  0  0  0  0  0  0  0  0  0  0  0
  148.7570  138.7366  157.9576 C   0  0  2  0  0  0  0  0  0  0  0  0
  147.7134  139.1636  156.9159 C   0  0  0  0  0  0  0  0  0  0  0  0
  148.0656  138.1951  159.1308 N   0  5  0  0  0  0  0  0  0  0  0  0
  148.1610  136.9011  159.5489 C   0  0  0  0  0  0  0  0  0  0  0  0
  148.8045  135.9628  159.0669 O   0  0  0  0  0  0  0  0  0  0  0  0
  147.3570  136.6411  160.7664 C   0  0  0  0  0  0  0  0  0  0  0  0
  146.9559  135.4532  161.3184 C   0  0  0  0  0  0  0  0  0  0  0  0
  146.2075  135.7726  162.4851 C   0  0  0  0  0  0  0  0  0  0  0  0
  146.2016  137.1352  162.5653 C   0  0  0  0  0  0  0  0  0  0  0  0
  146.8951  137.6794  161.5294 O   0  0  0  0  0  0  0  0  0  0  0  0
  149.3486  141.1518  158.0189 N   0  0  0  0  0  0  0  0  0  0  0  0
  150.4221  141.8829  158.4805 C   0  0  0  0  0  0  0  0  0  0  0  0
  150.6507  143.2775  158.4774 C   0  0  0  0  0  0  0  0  0  0  0  0
  151.8426  143.8065  159.0136 C   0  0  0  0  0  0  0  0  0  0  0  0
  152.8202  142.9495  159.5586 C   0  0  0  0  0  0  0  0  0  0  0  0
  152.6114  141.5569  159.5696 C   0  0  0  0  0  0  0  0  0  0  0  0
  151.4192  141.0329  159.0324 C   0  0  0  0  0  0  0  0  0  0  0  0
  151.6456  138.7295  154.3556 H   0  0  0  0  0  0  0  0  0  0  0  0
  151.7003  137.4352  155.5511 H   0  0  0  0  0  0  0  0  0  0  0  0
  153.1935  138.0273  154.8236 H   0  0  0  0  0  0  0  0  0  0  0  0
  152.8396  140.2587  155.9254 H   0  0  0  0  0  0  0  0  0  0  0  0
  151.3560  139.6644  156.6595 H   0  0  0  0  0  0  0  0  0  0  0  0
  151.6658  137.2929  157.5168 H   0  0  0  0  0  0  0  0  0  0  0  0
  153.0643  137.1290  158.5469 H   0  0  0  0  0  0  0  0  0  0  0  0
  150.8988  137.8394  159.7475 H   0  0  0  0  0  0  0  0  0  0  0  0
  152.3005  138.7772  160.1379 H   0  0  0  0  0  0  0  0  0  0  0  0
  149.3557  137.9541  157.4907 H   0  0  0  0  0  0  0  0  0  0  0  0
  148.1970  139.5279  156.0092 H   0  0  0  0  0  0  0  0  0  0  0  0
  147.0749  139.9627  157.2948 H   0  0  0  0  0  0  0  0  0  0  0  0
  147.0714  138.3287  156.6329 H   0  0  0  0  0  0  0  0  0  0  0  0
  147.1770  134.4709  160.9276 H   0  0  0  0  0  0  0  0  0  0  0  0
  145.7343  135.0919  163.1771 H   0  0  0  0  0  0  0  0  0  0  0  0
  145.7745  137.8455  163.2575 H   0  0  0  0  0  0  0  0  0  0  0  0
  149.9055  143.9397  158.0628 H   0  0  0  0  0  0  0  0  0  0  0  0
  152.0061  144.8741  159.0077 H   0  0  0  0  0  0  0  0  0  0  0  0
  153.7304  143.3618  159.9690 H   0  0  0  0  0  0  0  0  0  0  0  0
  153.3592  140.8998  159.9877 H   0  0  0  0  0  0  0  0  0  0  0  0
  1  2  1  0  0  0  0
  1 25  1  0  0  0  0
  1 26  1  0  0  0  0
  1 27  1  0  0  0  0
  2  3  1  0  0  0  0
  2 28  1  0  0  0  0
  2 29  1  0  0  0  0
  3  4  1  0  0  0  0
  4  5  1  0  0  0  0
  4 30  1  0  0  0  0
  4 31  1  0  0  0  0
  5  6  1  0  0  0  0
  5 32  1  0  0  0  0
  5 33  1  0  0  0  0
  6 24  1  0  0  0  0
  6  7  1  0  0  0  0
  7  8  1  0  0  0  0
  7 18  2  0  0  0  0
  8  9  1  0  0  0  0
  8 10  1  0  0  0  0
  8 34  1  0  0  0  0
  9 35  1  0  0  0  0
  9 36  1  0  0  0  0
  9 37  1  0  0  0  0
 10 11  1  0  0  0  0
 11 12  2  0  0  0  0
 11 13  1  0  0  0  0
 13 17  1  0  0  0  0
 13 14  2  0  0  0  0
 14 15  1  0  0  0  0
 14 38  1  0  0  0  0
 15 16  2  0  0  0  0
 15 39  1  0  0  0  0
 16 17  1  0  0  0  0
 16 40  1  0  0  0  0
 18 19  1  0  0  0  0
 19 24  2  0  0  0  0
 19 20  1  0  0  0  0
 20 21  2  0  0  0  0
 20 41  1  0  0  0  0
 21 22  1  0  0  0  0
 21 42  1  0  0  0  0
 22 23  2  0  0  0  0
 22 43  1  0  0  0  0
 23 24  1  0  0  0  0
 23 44  1  0  0  0  0
M  CHG  1  10  -1
M  END
> <s_m_source_file>
AV-unprocessed.smi

> <i_m_source_file_index>
500

> <i_lp_mmshare_version>
43012

> <i_f3d_flags>
0

> <s_epik_input>
W0NIM11bQ0gyXU9bQ0gyXVtDSDJdbihjKGMxMilbY0hdW2NIXVtjSF1bY0hdMiljKG4xKVtDQEhdKFtDSDNdKVtOSF1DKD1PKWMzW2NIXVtjSF1bY0hdbzM=

> <s_epik_cmdline>
J2VwaWtfcHl0aG9uJywgJy1waCcsICc3LjAnLCAnLXRuJywgJzgnLCAnLW1hJywgJzIwMCcsICctbWV0YWxfYmluZGluZycsICctaW1hZScsICc8aW5maWxlLm1hZT4nLCAnLW9tYWUnLCAnPG91dGZpbGUubWFlPic=

> <r_epik_Ionization_Penalty>
7.31223

> <r_epik_Ionization_Penalty_Charging>
6.43826

> <r_epik_Ionization_Penalty_Neutral>
0.873973

> <r_epik_State_Penalty>
6.5378

> <r_epik_Charging_Adjusted_Penalty>
12.9761

> <i_epik_Tot_Q>
-1

> <i_epik_Tot_abs_Q>
1

> <r_epik_Metal_State_Penalty>
2.55818

> <b_epik_Metal_Only>
1

> <s_lp_Force_Field>
OPLS_2005

> <r_lp_Energy>
15.486

> <b_lp_Chiralities_Consistent>
1

> <s_lp_Variant>
AV-unprocessed.smi:500-5

> <Gold.Version>
5.8.1

> <Gold.Id.Protein>
6NUR|6NUR_protein|mol2

> <Gold.PLP.Fitness>
56.8394

> <Gold.PLP.PLP>
-47.7547

> <Gold.PLP.part.hbond>
-5.3583

> <Gold.PLP.part.metal>
0.0000

> <Gold.PLP.part.buried>
-6.5822

> <Gold.PLP.part.nonpolar>
-36.9368

> <Gold.PLP.part.repulsive>
0.0265

> <Gold.PLP.ligand.clash>
0.0000

> <Gold.PLP.ligand.torsion>
1.1805

> <Gold.PLP.Chemscore.Hbond>
3.7200

> <Gold.PLP.Chemscore.CHOScore>
0.0000

> <Gold.PLP.Chemscore.Metal>
0.0000

> <Gold.Chemscore.Hbonds>
donor molecule, donor type, donor heavy atom, donor atom, acceptor molecule, acceptor atom, score
      P1  H  6896  6907       L1    12  0.16
      P1  H  6931  6943       L1    17  0.13
      P1  H  6934  6947       L1    17  0.87

> <Gold.PLP.Chemscore.Internal.Correction>
0.2856

> <Gold.Rescore>
     Score         DG    S(hbond)    S(metal)    S(lipo)     H(rot)  DE(clash)    DE(int)     intcor
     20.94     -22.92       2.95        0.00     105.03       1.84       0.13       1.85       ----

> <Gold.Chemscore.Fitness>
20.9439

> <Gold.Chemscore.DG>
-22.9249

> <Gold.Chemscore.ZeroCoef>
-5.4800

> <Gold.Chemscore.Hbond>
2.9529

> <Gold.Chemscore.Metal>
0.0000

> <Gold.Chemscore.Lipo>
105.0270

> <Gold.Chemscore.Internal_Hbond>
0.0000

> <Gold.Chemscore.DEClash>
0.1338

> <Gold.Chemscore.DEInternal>
1.8472

> <Gold.Chemscore.Rot>
1.8382

> <Gold.Chemscore.Internal.Correction>
   9.000000E+99

> <Gold.Chemscore.Hbonds>
donor molecule, donor type, donor heavy atom, donor atom, acceptor molecule, acceptor atom, score
      P1  H  6896  6907       L1    12  0.18
      P1  H  6934  6947       L1    17  0.72

> <Gold.Chemscore.Hbond.Weighted>
-9.8626

> <Gold.Chemscore.Metal.Weighted>
-0.0000

> <Gold.Chemscore.Lipo.Weighted>
-12.2882

> <Gold.Chemscore.Internal_Hbond.Weighted>
0.0000

> <Gold.Chemscore.DEClash.Weighted>
0.1338

> <Gold.Chemscore.DEInternal.Weighted>
1.8472

> <Gold.Chemscore.Rot.Weighted>
4.7059

> <Gold.Chemscore.Internal.Correction.Weighted>
   9.000000E+99

> <Gold.Protein.RotatedTorsions>
[ 6907 6896 6895 6894 ] final  -57.00 input  -60.11 | X-H torsion
[ 7974 7965 7964 7962 ] final   70.00 input  175.53 | X-H torsion
[ 8008 7997 7996 7995 ] final  -59.40 input   59.86 | X-H torsion
[ 10167 10162 10161 10158 ] final  -61.27 input  -65.29 | X-H torsion
[ 10718 10713 10712 10709 ] final  -50.95 input   66.30 | X-H torsion
[ 10763 10752 10751 10750 ] final  124.69 input  -60.55 | X-H torsion
[ 11005 11000 10999 10996 ] final    5.08 input  -57.11 | X-H torsion

> <Gold.Protein.ActiveResidues>
 VAL166  LYS551  ARG553  GLY616  TRP617  ASP618  TYR619  PRO620  LYS621  CYS622 
 ASP623  PHE694  ASN695  SER759  ASP760  ASP761  ALA762  ILE779  LEU786  VAL792 
 PHE793  MET794  SER795  GLU796  ALA797  LYS798  CYS799  TRP800  GLU811  SER814 

> <Gold.Protein.RotatedAtoms>
  150.8121  134.7282  159.6697 H   0  0  0  0  0  0  0  0  0  0  0  0  # atno 6907 bound_to 6896
  152.4241  134.5897  159.9980 H   0  0  0  0  0  0  0  0  0  0  0  0  # atno 6908 bound_to 6896
  151.6104  133.3310  159.3102 H   0  0  0  0  0  0  0  0  0  0  0  0  # atno 6909 bound_to 6896
  145.7835  139.2899  143.1252 H   0  0  0  0  0  0  0  0  0  0  0  0  # atno 7974 bound_to 7965
  154.4351  140.1062  156.6109 H   0  0  0  0  0  0  0  0  0  0  0  0  # atno 8008 bound_to 7997
  155.5810  140.3490  155.4521 H   0  0  0  0  0  0  0  0  0  0  0  0  # atno 8009 bound_to 7997
  156.0318  140.1262  157.0239 H   0  0  0  0  0  0  0  0  0  0  0  0  # atno 8010 bound_to 7997
  140.6017  143.2363  151.5914 H   0  0  0  0  0  0  0  0  0  0  0  0  # atno 10167 bound_to 10162
  156.1754  130.4150  149.9585 H   0  0  0  0  0  0  0  0  0  0  0  0  # atno 10718 bound_to 10713
  153.6654  135.3339  155.3139 H   0  0  0  0  0  0  0  0  0  0  0  0  # atno 10763 bound_to 10752
  154.8504  135.4373  154.1761 H   0  0  0  0  0  0  0  0  0  0  0  0  # atno 10764 bound_to 10752
  153.2738  135.7003  153.7529 H   0  0  0  0  0  0  0  0  0  0  0  0  # atno 10765 bound_to 10752
  140.5747  134.0069  155.8023 H   0  0  0  0  0  0  0  0  0  0  0  0  # atno 11005 bound_to 11000
  146.0050  140.8487  142.9999 LP  0  0  0  0  0  0  0  0  0  0  0  0  # atno 17320 bound_to 7965
  144.6792  140.2407  143.7344 LP  0  0  0  0  0  0  0  0  0  0  0  0  # atno 17321 bound_to 7965
  139.5296  144.2957  152.1115 LP  0  0  0  0  0  0  0  0  0  0  0  0  # atno 17342 bound_to 10162
  140.2139  144.4535  150.6373 LP  0  0  0  0  0  0  0  0  0  0  0  0  # atno 17343 bound_to 10162
  156.7373  130.9066  151.3630 LP  0  0  0  0  0  0  0  0  0  0  0  0  # atno 17370 bound_to 10713
  157.6832  130.9160  150.0319 LP  0  0  0  0  0  0  0  0  0  0  0  0  # atno 17371 bound_to 10713
  141.1034  133.9732  157.3039 LP  0  0  0  0  0  0  0  0  0  0  0  0  # atno 17394 bound_to 11000
  139.9345  135.0197  156.8510 LP  0  0  0  0  0  0  0  0  0  0  0  0  # atno 17395 bound_to 11000

$$$$
