AV-unprocessed.smi:1254|AV-procd|sdf|5270|dock9
  -GOLD-   22720 4383D 1   1.00000     0.00000
 Structure written by MMmdl.
 46 47  0  0  0  0  0  0  0  0  2 V2000
  150.1463  141.7902  156.1801 C   0  0  0  0  0  0  0  0  0  0  0  0
  150.3496  140.4469  155.5680 C   0  0  0  0  0  0  0  0  0  0  0  0
  149.5210  139.3774  155.3734 C   0  0  0  0  0  0  0  0  0  0  0  0
  150.3666  138.4289  154.7392 C   0  0  0  0  0  0  0  0  0  0  0  0
  149.8771  137.1507  154.3670 N   0  0  0  0  0  0  0  0  0  0  0  0
  149.8511  136.0353  155.1161 C   0  0  0  0  0  0  0  0  0  0  0  0
  150.2887  135.9404  156.2630 O   0  0  0  0  0  0  0  0  0  0  0  0
  149.2756  135.0185  154.4580 N   0  0  0  0  0  0  0  0  0  0  0  0
  149.0678  133.6792  155.0003 C   0  0  0  0  0  0  0  0  0  0  0  0
  147.9559  132.9256  154.2485 C   0  0  1  0  0  0  0  0  0  0  0  0
  148.3228  132.6928  152.7675 C   0  0  0  0  0  0  0  0  0  0  0  0
  147.2728  131.9140  152.0653 N   0  3  2  0  0  0  0  0  0  0  0  0
  146.0717  132.7171  151.7085 C   0  0  0  0  0  0  0  0  0  0  0  0
  145.1598  132.0108  150.6822 C   0  0  0  0  0  0  0  0  0  0  0  0
  145.8214  131.9153  149.2972 C   0  0  0  0  0  0  0  0  0  0  0  0
  143.8054  132.7278  150.5793 C   0  0  0  0  0  0  0  0  0  0  0  0
  146.9838  130.6547  152.7981 C   0  0  0  0  0  0  0  0  0  0  0  0
  146.6922  130.9213  154.2870 C   0  0  0  0  0  0  0  0  0  0  0  0
  147.7660  131.6540  154.8612 O   0  0  0  0  0  0  0  0  0  0  0  0
  151.5990  138.8792  154.5605 N   0  0  0  0  0  0  0  0  0  0  0  0
  151.5943  140.1749  155.0904 O   0  0  0  0  0  0  0  0  0  0  0  0
  149.1146  141.9166  156.5092 H   0  0  0  0  0  0  0  0  0  0  0  0
  150.3724  142.5800  155.4636 H   0  0  0  0  0  0  0  0  0  0  0  0
  150.7956  141.9220  157.0457 H   0  0  0  0  0  0  0  0  0  0  0  0
  148.4795  139.2904  155.6450 H   0  0  0  0  0  0  0  0  0  0  0  0
  149.4883  137.0845  153.4382 H   0  0  0  0  0  0  0  0  0  0  0  0
  148.9496  135.1842  153.5170 H   0  0  0  0  0  0  0  0  0  0  0  0
  150.0094  133.1393  154.8978 H   0  0  0  0  0  0  0  0  0  0  0  0
  148.8529  133.7205  156.0698 H   0  0  0  0  0  0  0  0  0  0  0  0
  147.0337  133.5057  154.3149 H   0  0  0  0  0  0  0  0  0  0  0  0
  148.5007  133.6390  152.2551 H   0  0  0  0  0  0  0  0  0  0  0  0
  149.2583  132.1347  152.7081 H   0  0  0  0  0  0  0  0  0  0  0  0
  145.5097  132.9652  152.6090 H   0  0  0  0  0  0  0  0  0  0  0  0
  146.3857  133.6706  151.2811 H   0  0  0  0  0  0  0  0  0  0  0  0
  144.9530  130.9972  151.0245 H   0  0  0  0  0  0  0  0  0  0  0  0
  146.0428  132.9041  148.8938 H   0  0  0  0  0  0  0  0  0  0  0  0
  145.1694  131.4061  148.5867 H   0  0  0  0  0  0  0  0  0  0  0  0
  146.7555  131.3548  149.3367 H   0  0  0  0  0  0  0  0  0  0  0  0
  143.9241  133.7560  150.2360 H   0  0  0  0  0  0  0  0  0  0  0  0
  143.3000  132.7559  151.5453 H   0  0  0  0  0  0  0  0  0  0  0  0
  143.1429  132.2181  149.8788 H   0  0  0  0  0  0  0  0  0  0  0  0
  146.1621  130.1064  152.3393 H   0  0  0  0  0  0  0  0  0  0  0  0
  147.8595  130.0094  152.7183 H   0  0  0  0  0  0  0  0  0  0  0  0
  145.7536  131.4596  154.4230 H   0  0  0  0  0  0  0  0  0  0  0  0
  146.5905  129.9765  154.8209 H   0  0  0  0  0  0  0  0  0  0  0  0
  147.6774  131.6460  151.1793 H   0  0  0  0  0  0  0  0  0  0  0  0
  1  2  1  0  0  0  0
  1 22  1  0  0  0  0
  1 23  1  0  0  0  0
  1 24  1  0  0  0  0
  2 21  1  0  0  0  0
  2  3  2  0  0  0  0
  3  4  1  0  0  0  0
  3 25  1  0  0  0  0
  4  5  1  0  0  0  0
  4 20  2  0  0  0  0
  5  6  1  0  0  0  0
  5 26  1  0  0  0  0
  6  7  2  0  0  0  0
  6  8  1  0  0  0  0
  8  9  1  0  0  0  0
  8 27  1  0  0  0  0
  9 10  1  0  0  0  0
  9 28  1  0  0  0  0
  9 29  1  0  0  0  0
 10 19  1  0  0  0  0
 10 11  1  0  0  0  0
 10 30  1  0  0  0  0
 11 12  1  0  0  0  0
 11 31  1  0  0  0  0
 11 32  1  0  0  0  0
 12 13  1  0  0  0  0
 12 17  1  0  0  0  0
 12 46  1  0  0  0  0
 13 14  1  0  0  0  0
 13 33  1  0  0  0  0
 13 34  1  0  0  0  0
 14 15  1  0  0  0  0
 14 16  1  0  0  0  0
 14 35  1  0  0  0  0
 15 36  1  0  0  0  0
 15 37  1  0  0  0  0
 15 38  1  0  0  0  0
 16 39  1  0  0  0  0
 16 40  1  0  0  0  0
 16 41  1  0  0  0  0
 17 18  1  0  0  0  0
 17 42  1  0  0  0  0
 17 43  1  0  0  0  0
 18 19  1  0  0  0  0
 18 44  1  0  0  0  0
 18 45  1  0  0  0  0
 20 21  1  0  0  0  0
M  CHG  1  12   1
M  END
> <s_m_source_file>
AV-unprocessed.smi

> <i_m_source_file_index>
1254

> <i_lp_mmshare_version>
43012

> <i_f3d_flags>
0

> <s_epik_input>
W0NIM11jMVtjSF1jKG5vMSlbTkhdQyg9TylbTkhdW0NIMl1bQ0BASF0yW0NIMl1OKFtDSDJdW0NIMl1PMilbQ0gyXVtDSF0oW0NIM10pW0NIM10=

> <s_epik_cmdline>
J2VwaWtfcHl0aG9uJywgJy1waCcsICc3LjAnLCAnLXRuJywgJzgnLCAnLW1hJywgJzIwMCcsICctbWV0YWxfYmluZGluZycsICctaW1hZScsICc8aW5maWxlLm1hZT4nLCAnLW9tYWUnLCAnPG91dGZpbGUubWFlPic=

> <r_epik_Ionization_Penalty>
0.0986825

> <r_epik_Ionization_Penalty_Charging>
0.0986478

> <r_epik_Ionization_Penalty_Neutral>
3.46838e-05

> <r_epik_State_Penalty>
0.0887259

> <r_epik_Charging_Adjusted_Penalty>
0.187374

> <i_epik_Tot_Q>
1

> <i_epik_Tot_abs_Q>
1

> <r_epik_Metal_State_Penalty>
0.103424

> <b_epik_Metal_Only>
0

> <s_lp_Force_Field>
OPLS_2005

> <r_lp_Energy>
18.2179

> <b_lp_Chiralities_Consistent>
1

> <s_lp_Variant>
AV-unprocessed.smi:1254-2

> <Gold.Version>
5.8.1

> <Gold.Id.Protein>
6NUR|6NUR_protein|mol2

> <Gold.PLP.Fitness>
45.7153

> <Gold.PLP.PLP>
-36.6176

> <Gold.PLP.part.hbond>
-4.9451

> <Gold.PLP.part.metal>
0.0000

> <Gold.PLP.part.buried>
-3.5061

> <Gold.PLP.part.nonpolar>
-29.0795

> <Gold.PLP.part.repulsive>
0.2733

> <Gold.PLP.ligand.clash>
0.0000

> <Gold.PLP.ligand.torsion>
1.0250

> <Gold.PLP.Chemscore.Hbond>
3.7053

> <Gold.PLP.Chemscore.CHOScore>
0.0000

> <Gold.PLP.Chemscore.Metal>
0.0000

> <Gold.Chemscore.Hbonds>
donor molecule, donor type, donor heavy atom, donor atom, acceptor molecule, acceptor atom, score
      L1  H     5    26       P1  7948  1.00
      L1  H     8    27       P1  7948  1.00
      L1  H    12    46       P1 10747  0.99
      P1  H  7989  7998       L1    21  0.60

> <Gold.PLP.Chemscore.Internal.Correction>
0.0317

> <Gold.Rescore>
     Score         DG    S(hbond)    S(metal)    S(lipo)     H(rot)  DE(clash)    DE(int)     intcor
     18.29     -19.26       2.67        0.00      79.36       1.73       0.03       0.94       ----

> <Gold.Chemscore.Fitness>
18.2931

> <Gold.Chemscore.DG>
-19.2649

> <Gold.Chemscore.ZeroCoef>
-5.4800

> <Gold.Chemscore.Hbond>
2.6726

> <Gold.Chemscore.Metal>
0.0000

> <Gold.Chemscore.Lipo>
79.3565

> <Gold.Chemscore.Internal_Hbond>
0.0000

> <Gold.Chemscore.DEClash>
0.0271

> <Gold.Chemscore.DEInternal>
0.9447

> <Gold.Chemscore.Rot>
1.7291

> <Gold.Chemscore.Internal.Correction>
   9.000000E+99

> <Gold.Chemscore.Hbonds>
donor molecule, donor type, donor heavy atom, donor atom, acceptor molecule, acceptor atom, score
      L1  H     5    26       P1  7948  0.87
      L1  H     8    27       P1  7948  0.52
      L1  H    12    46       P1 10747  0.93
      P1  H  7989  7998       L1    21  0.02

> <Gold.Chemscore.Hbond.Weighted>
-8.9266

> <Gold.Chemscore.Metal.Weighted>
-0.0000

> <Gold.Chemscore.Lipo.Weighted>
-9.2847

> <Gold.Chemscore.Internal_Hbond.Weighted>
0.0000

> <Gold.Chemscore.DEClash.Weighted>
0.0271

> <Gold.Chemscore.DEInternal.Weighted>
0.9447

> <Gold.Chemscore.Rot.Weighted>
4.4265

> <Gold.Chemscore.Internal.Correction.Weighted>
   9.000000E+99

> <Gold.Protein.RotatedTorsions>
[ 6907 6896 6895 6894 ] final -106.17 input  -60.11 | X-H torsion
[ 7974 7965 7964 7962 ] final  147.01 input  175.53 | X-H torsion
[ 8008 7997 7996 7995 ] final   85.63 input   59.86 | X-H torsion
[ 10167 10162 10161 10158 ] final  136.46 input  -65.29 | X-H torsion
[ 10718 10713 10712 10709 ] final   66.93 input   66.30 | X-H torsion
[ 10763 10752 10751 10750 ] final  177.40 input  -60.55 | X-H torsion
[ 11005 11000 10999 10996 ] final -171.66 input  -57.11 | X-H torsion

> <Gold.Protein.ActiveResidues>
 VAL166  LYS551  ARG553  GLY616  TRP617  ASP618  TYR619  PRO620  LYS621  CYS622 
 ASP623  PHE694  ASN695  SER759  ASP760  ASP761  ALA762  ILE779  LEU786  VAL792 
 PHE793  MET794  SER795  GLU796  ALA797  LYS798  CYS799  TRP800  GLU811  SER814 

> <Gold.Protein.RotatedAtoms>
  150.7375  134.0016  159.3639 H   0  0  0  0  0  0  0  0  0  0  0  0  # atno 6907 bound_to 6896
  151.7971  135.0717  160.0404 H   0  0  0  0  0  0  0  0  0  0  0  0  # atno 6908 bound_to 6896
  152.3167  133.5773  159.5753 H   0  0  0  0  0  0  0  0  0  0  0  0  # atno 6909 bound_to 6896
  144.8625  139.5976  143.5924 H   0  0  0  0  0  0  0  0  0  0  0  0  # atno 7974 bound_to 7965
  155.9525  140.3400  155.6420 H   0  0  0  0  0  0  0  0  0  0  0  0  # atno 8008 bound_to 7997
  155.6902  140.0748  157.2469 H   0  0  0  0  0  0  0  0  0  0  0  0  # atno 8009 bound_to 7997
  154.4125  140.1658  156.2065 H   0  0  0  0  0  0  0  0  0  0  0  0  # atno 8010 bound_to 7997
  139.5179  144.6463  151.5429 H   0  0  0  0  0  0  0  0  0  0  0  0  # atno 10167 bound_to 10162
  157.6199  130.9294  150.0174 H   0  0  0  0  0  0  0  0  0  0  0  0  # atno 10718 bound_to 10713
  154.4939  135.2780  155.1475 H   0  0  0  0  0  0  0  0  0  0  0  0  # atno 10763 bound_to 10752
  154.3135  135.6224  153.5480 H   0  0  0  0  0  0  0  0  0  0  0  0  # atno 10764 bound_to 10752
  152.9892  135.5725  154.5367 H   0  0  0  0  0  0  0  0  0  0  0  0  # atno 10765 bound_to 10752
  140.5057  134.5850  157.5002 H   0  0  0  0  0  0  0  0  0  0  0  0  # atno 11005 bound_to 11000
  146.2871  139.7034  142.9187 LP  0  0  0  0  0  0  0  0  0  0  0  0  # atno 17320 bound_to 7965
  145.4285  141.0413  143.2924 LP  0  0  0  0  0  0  0  0  0  0  0  0  # atno 17321 bound_to 7965
  140.6250  143.9186  150.6557 LP  0  0  0  0  0  0  0  0  0  0  0  0  # atno 17342 bound_to 10162
  140.2472  143.3620  152.1436 LP  0  0  0  0  0  0  0  0  0  0  0  0  # atno 17343 bound_to 10162
  156.1339  130.3643  149.9687 LP  0  0  0  0  0  0  0  0  0  0  0  0  # atno 17370 bound_to 10713
  156.7742  130.9197  151.3645 LP  0  0  0  0  0  0  0  0  0  0  0  0  # atno 17371 bound_to 10713
  139.9687  134.7328  156.0084 LP  0  0  0  0  0  0  0  0  0  0  0  0  # atno 17394 bound_to 11000
  141.1412  133.6564  156.3735 LP  0  0  0  0  0  0  0  0  0  0  0  0  # atno 17395 bound_to 11000

$$$$
