#       Name:                AV-unprocessed.smi:1433
#       Creating user name   scv26
#       Creation time:       Fri Mar 27 05:51:33 2020


#       File generated by GOLD software.
#

@<TRIPOS>MOLECULE
AV-unprocessed.smi:1433
    50    51     1
SMALL
NO_CHARGES


@<TRIPOS>ATOM
      1 ****        -2.4837  -0.7850   3.6667 C.3            1 S1                 0.0000
      2 ****        -2.6453  -1.4981   2.3123 C.3            1 S1                 0.0000
      3 ****        -2.0285  -0.7268   1.1309 C.3            1 S1                 0.0000
      4 ****        -0.5411  -0.7767   1.1523 N.4            1 S1                 1.0000
      5 ****         0.0747   0.0596   0.0699 C.3            1 S1                 0.0000
      6 ****        -0.0331   1.5599   0.4307 C.3            1 S1                 0.0000
      7 ****         1.5505  -0.3118  -0.2517 C.3            1 S1                 0.0000
      8 ****         2.1244   0.5236  -1.3012 N.am           1 S1                 0.0000
      9 ****         1.8597   0.4033  -2.6114 C.2            1 S1                 0.0000
     10 ****         1.1464  -0.4830  -3.0807 O.2            1 S1                 0.0000
     11 ****         2.4732   1.4609  -3.5283 C.3            1 S1                 0.0000
     12 ****         1.7170   2.6988  -3.4609 N.pl3          1 S1                 0.0000
     13 ****         0.5981   3.0594  -4.1828 C.2            1 S1                 0.0000
     14 ****         0.2304   4.3068  -3.7666 C.2            1 S1                 0.0000
     15 ****         1.1972   4.6311  -2.7742 C.2            1 S1                 0.0000
     16 ****         2.0839   3.6659  -2.5909 N.2            1 S1                 0.0000
     17 ****        -0.0975  -2.1959   1.2043 C.3            1 S1                 0.0000
     18 ****        -0.7313  -2.9348   2.3975 C.3            1 S1                 0.0000
     19 ****        -0.3679  -4.4239   2.4054 C.3            1 S1                 0.0000
     20 ****        -2.1490  -2.8337   2.3336 O.3            1 S1                 0.0000
     21 ****        -2.9955   0.1776   3.6591 H              1 S1                 0.0000
     22 ****        -1.4400  -0.5927   3.9139 H              1 S1                 0.0000
     23 ****        -2.9152  -1.3795   4.4723 H              1 S1                 0.0000
     24 ****        -3.7170  -1.5813   2.1286 H              1 S1                 0.0000
     25 ****        -2.3823  -1.1614   0.1945 H              1 S1                 0.0000
     26 ****        -2.3961   0.2975   1.1527 H              1 S1                 0.0000
     27 ****        -0.5032  -0.1141  -0.8393 H              1 S1                 0.0000
     28 ****         0.3696   2.1976  -0.3562 H              1 S1                 0.0000
     29 ****         0.5150   1.7833   1.3466 H              1 S1                 0.0000
     30 ****        -1.0616   1.8852   0.5754 H              1 S1                 0.0000
     31 ****         2.1688  -0.2040   0.6401 H              1 S1                 0.0000
     32 ****         1.6414  -1.3490  -0.5771 H              1 S1                 0.0000
     33 ****         2.7236   1.2825  -1.0079 H              1 S1                 0.0000
     34 ****         3.5111   1.6497  -3.2491 H              1 S1                 0.0000
     35 ****         2.4764   1.1054  -4.5597 H              1 S1                 0.0000
     36 ****         0.1608   2.4046  -4.9222 H              1 S1                 0.0000
     37 ****        -0.6023   4.8981  -4.1178 H              1 S1                 0.0000
     38 ****         1.2796   5.5321  -2.1845 H              1 S1                 0.0000
     39 ****        -0.3522  -2.6922   0.2663 H              1 S1                 0.0000
     40 ****         0.9830  -2.2600   1.3283 H              1 S1                 0.0000
     41 ****        -0.3732  -2.4975   3.3298 H              1 S1                 0.0000
     42 ****         0.7118  -4.5651   2.4620 H              1 S1                 0.0000
     43 ****        -0.7235  -4.9222   1.5030 H              1 S1                 0.0000
     44 ****        -0.8138  -4.9295   3.2623 H              1 S1                 0.0000
     45 ****        -0.2449  -0.3657   2.0261 H              1 S1                 0.0000
     46 ****         0.7298  -1.1620  -2.4763 LP             1 S1                 0.0000
     47 ****         0.9835  -0.5241  -4.0665 LP             1 S1                 0.0000
     48 ****         2.8531   3.6547  -1.9519 LP             1 S1                 0.0000
     49 ****        -2.4579  -3.2951   1.5019 LP             1 S1                 0.0000
     50 ****        -2.5316  -3.2964   3.1332 LP             1 S1                 0.0000
@<TRIPOS>BOND
    1    1    2 1     
    2    1   21 1     
    3    1   22 1     
    4    1   23 1     
    5    2   20 1     
    6    2    3 1     
    7    2   24 1     
    8    3    4 1     
    9    3   25 1     
   10    3   26 1     
   11    4    5 1     
   12    4   17 1     
   13    4   45 1     
   14    5    6 1     
   15    5    7 1     
   16    5   27 1     
   17    6   28 1     
   18    6   29 1     
   19    6   30 1     
   20    7    8 1     
   21    7   31 1     
   22    7   32 1     
   23    8    9 am    
   24    8   33 1     
   25    9   10 2     
   26    9   11 1     
   27   11   12 1     
   28   11   34 1     
   29   11   35 1     
   30   12   16 1     
   31   12   13 1     
   32   13   14 2     
   33   13   36 1     
   34   14   15 1     
   35   14   37 1     
   36   15   16 2     
   37   15   38 1     
   38   17   18 1     
   39   17   39 1     
   40   17   40 1     
   41   18   19 1     
   42   18   20 1     
   43   18   41 1     
   44   19   42 1     
   45   19   43 1     
   46   19   44 1     
   47   10   46 1     
   48   10   47 1     
   49   16   48 1     
   50   20   49 1     
   51   20   50 1     
@<TRIPOS>SUBSTRUCTURE
      1 S1             1
@<TRIPOS>SET
LONE_PAIRS      STATIC     ATOMS    <user>   **** ""
5 46 47 48 49 50
DONOR_HYDROGENS      STATIC     ATOMS    <user>   **** ""
2 45 33
ATOM$BLUE        STATIC     ATOMS    COLORGROUP SYSTEM
5 46 47 48 49 50
ATOM$RED        STATIC     ATOMS    COLORGROUP SYSTEM
2 45 33
