AV-unprocessed.smi:203|AV-procd|sdf|1592|dock3
  -GOLD-   2262019493D 1   1.00000     0.00000
 Structure written by MMmdl.
 57 61  0  0  0  0  0  0  0  0  1 V2000
  147.3717  141.5449  153.8275 O   0  0  0  0  0  0  0  0  0  0  0  0
  147.9096  141.5563  154.9322 C   0  0  0  0  0  0  0  0  0  0  0  0
  149.4081  141.4018  155.1368 C   0  0  0  0  0  0  0  0  0  0  0  0
  149.5183  141.1826  156.6570 C   0  0  1  0  0  0  0  0  0  0  0  0
  150.8215  141.6971  157.3447 C   0  0  1  0  0  0  0  0  0  0  0  0
  150.5612  142.8210  158.3831 C   0  0  0  0  0  0  0  0  0  0  0  0
  151.8618  143.3013  159.0407 C   0  0  0  0  0  0  0  0  0  0  0  0
  152.5955  142.1146  159.6726 C   0  0  0  0  0  0  0  0  0  0  0  0
  152.8495  141.0281  158.6205 C   0  0  0  0  0  0  0  0  0  0  0  0
  151.6064  140.6154  157.9691 N   0  0  0  0  0  0  0  0  0  0  0  0
  151.8257  139.5085  157.2237 C   0  0  0  0  0  0  0  0  0  0  0  0
  152.6823  139.6268  156.1796 N   0  0  0  0  0  0  0  0  0  0  0  0
  152.9397  138.5688  155.4048 C   0  0  0  0  0  0  0  0  0  0  0  0
  152.4527  137.3292  155.4946 N   0  0  0  0  0  0  0  0  0  0  0  0
  151.5830  137.2122  156.5389 C   0  0  0  0  0  0  0  0  0  0  0  0
  151.2121  138.2434  157.4463 C   0  0  0  0  0  0  0  0  0  0  0  0
  150.2973  137.7551  158.3717 N   0  0  0  0  0  0  0  0  0  0  0  0
  150.1325  136.5070  158.0278 C   0  0  0  0  0  0  0  0  0  0  0  0
  150.8624  136.0993  156.9348 N   0  0  0  0  0  0  0  0  0  0  0  0
  150.8526  134.7803  156.3299 C   0  0  0  0  0  0  0  0  0  0  0  0
  149.6195  133.9442  156.7326 C   0  0  2  0  0  0  0  0  0  0  0  0
  149.9652  133.2212  157.8970 O   0  0  0  0  0  0  0  0  0  0  0  0
  149.1393  132.9563  155.6459 C   0  0  1  0  0  0  0  0  0  0  0  0
  148.9462  133.5720  154.2592 C   0  0  0  0  0  0  0  0  0  0  0  0
  149.0461  132.3764  153.3255 C   0  0  0  0  0  0  0  0  0  0  0  0
  149.7608  131.3138  154.1643 C   0  0  0  0  0  0  0  0  0  0  0  0
  150.1293  131.9777  155.3645 O   0  0  0  0  0  0  0  0  0  0  0  0
  148.1878  141.7066  157.2344 C   0  0  0  0  0  0  0  0  0  0  0  0
  147.2849  141.7023  156.1004 N   0  0  0  0  0  0  0  0  0  0  0  0
  149.8049  140.5588  154.5703 H   0  0  0  0  0  0  0  0  0  0  0  0
  149.8974  142.3089  154.7890 H   0  0  0  0  0  0  0  0  0  0  0  0
  149.4897  140.0974  156.7656 H   0  0  0  0  0  0  0  0  0  0  0  0
  151.4454  142.1338  156.5642 H   0  0  0  0  0  0  0  0  0  0  0  0
  150.0764  143.6790  157.9214 H   0  0  0  0  0  0  0  0  0  0  0  0
  149.8879  142.4724  159.1653 H   0  0  0  0  0  0  0  0  0  0  0  0
  152.4993  143.7781  158.2951 H   0  0  0  0  0  0  0  0  0  0  0  0
  151.6448  144.0560  159.7974 H   0  0  0  0  0  0  0  0  0  0  0  0
  153.5397  142.4433  160.1072 H   0  0  0  0  0  0  0  0  0  0  0  0
  152.0010  141.7041  160.4900 H   0  0  0  0  0  0  0  0  0  0  0  0
  153.5448  141.4014  157.8670 H   0  0  0  0  0  0  0  0  0  0  0  0
  153.3276  140.1693  159.0948 H   0  0  0  0  0  0  0  0  0  0  0  0
  153.6346  138.7403  154.5961 H   0  0  0  0  0  0  0  0  0  0  0  0
  149.4627  135.8471  158.5596 H   0  0  0  0  0  0  0  0  0  0  0  0
  150.8964  134.8950  155.2459 H   0  0  0  0  0  0  0  0  0  0  0  0
  151.7692  134.2674  156.6244 H   0  0  0  0  0  0  0  0  0  0  0  0
  148.7987  134.6129  156.9952 H   0  0  0  0  0  0  0  0  0  0  0  0
  150.2914  132.3730  157.6379 H   0  0  0  0  0  0  0  0  0  0  0  0
  148.2199  132.4593  155.9617 H   0  0  0  0  0  0  0  0  0  0  0  0
  148.0017  134.1077  154.1606 H   0  0  0  0  0  0  0  0  0  0  0  0
  149.7550  134.2723  154.0447 H   0  0  0  0  0  0  0  0  0  0  0  0
  148.0570  132.0240  153.0305 H   0  0  0  0  0  0  0  0  0  0  0  0
  149.5999  132.6260  152.4200 H   0  0  0  0  0  0  0  0  0  0  0  0
  149.0859  130.4899  154.4004 H   0  0  0  0  0  0  0  0  0  0  0  0
  150.6383  130.9042  153.6636 H   0  0  0  0  0  0  0  0  0  0  0  0
  147.8133  141.0704  158.0369 H   0  0  0  0  0  0  0  0  0  0  0  0
  148.2609  142.7236  157.6165 H   0  0  0  0  0  0  0  0  0  0  0  0
  146.2871  141.8232  156.1985 H   0  0  0  0  0  0  0  0  0  0  0  0
  1  2  2  0  0  0  0
  2 29  1  0  0  0  0
  2  3  1  0  0  0  0
  3  4  1  0  0  0  0
  3 30  1  0  0  0  0
  3 31  1  0  0  0  0
  4  5  1  0  0  0  0
  4 28  1  0  0  0  0
  4 32  1  0  0  0  0
  5 10  1  0  0  0  0
  5  6  1  0  0  0  0
  5 33  1  0  0  0  0
  6  7  1  0  0  0  0
  6 34  1  0  0  0  0
  6 35  1  0  0  0  0
  7  8  1  0  0  0  0
  7 36  1  0  0  0  0
  7 37  1  0  0  0  0
  8  9  1  0  0  0  0
  8 38  1  0  0  0  0
  8 39  1  0  0  0  0
  9 10  1  0  0  0  0
  9 40  1  0  0  0  0
  9 41  1  0  0  0  0
 10 11  1  0  0  0  0
 11 16  1  0  0  0  0
 11 12  2  0  0  0  0
 12 13  1  0  0  0  0
 13 14  2  0  0  0  0
 13 42  1  0  0  0  0
 14 15  1  0  0  0  0
 15 19  1  0  0  0  0
 15 16  2  0  0  0  0
 16 17  1  0  0  0  0
 17 18  2  0  0  0  0
 18 19  1  0  0  0  0
 18 43  1  0  0  0  0
 19 20  1  0  0  0  0
 20 21  1  0  0  0  0
 20 44  1  0  0  0  0
 20 45  1  0  0  0  0
 21 22  1  0  0  0  0
 21 23  1  0  0  0  0
 21 46  1  0  0  0  0
 22 47  1  0  0  0  0
 23 27  1  0  0  0  0
 23 24  1  0  0  0  0
 23 48  1  0  0  0  0
 24 25  1  0  0  0  0
 24 49  1  0  0  0  0
 24 50  1  0  0  0  0
 25 26  1  0  0  0  0
 25 51  1  0  0  0  0
 25 52  1  0  0  0  0
 26 27  1  0  0  0  0
 26 53  1  0  0  0  0
 26 54  1  0  0  0  0
 28 29  1  0  0  0  0
 28 55  1  0  0  0  0
 28 56  1  0  0  0  0
 29 57  1  0  0  0  0
M  END
> <s_m_source_file>
AV-unprocessed.smi

> <i_m_source_file_index>
203

> <i_lp_mmshare_version>
43012

> <i_f3d_flags>
0

> <s_epik_input>
Tz1DMVtDSDJdW0NASF0oW0NIMl1bTkhdMSlbQ0BASF0yW0NIMl1bQ0gyXVtDSDJdW0NIMl1OMmMobltjSF1uMyljKGMzNCluW2NIXW40W0NIMl1bQ0BIXShbT0hdKVtDQEBIXTVbQ0gyXVtDSDJdW0NIMl1PNQ==

> <s_epik_cmdline>
J2VwaWtfcHl0aG9uJywgJy1waCcsICc3LjAnLCAnLXRuJywgJzgnLCAnLW1hJywgJzIwMCcsICctbWV0YWxfYmluZGluZycsICctaW1hZScsICc8aW5maWxlLm1hZT4nLCAnLW9tYWUnLCAnPG91dGZpbGUubWFlPic=

> <r_lp_tautomer_probability>
1

> <r_epik_Ionization_Penalty>
0.00175146

> <r_epik_Ionization_Penalty_Charging>
0

> <r_epik_Ionization_Penalty_Neutral>
0.00175146

> <r_epik_State_Penalty>
0.00109045

> <r_epik_Charging_Adjusted_Penalty>
0.00109045

> <i_epik_Tot_Q>
0

> <i_epik_Tot_abs_Q>
0

> <r_epik_Metal_State_Penalty>
-0

> <b_epik_Metal_Only>
0

> <s_lp_Force_Field>
OPLS_2005

> <r_lp_Energy>
55.4973

> <b_lp_Chiralities_Consistent>
1

> <s_lp_Variant>
AV-unprocessed.smi:203-11

> <Gold.Version>
5.8.1

> <Gold.Id.Protein>
6NUR|6NUR_protein|mol2

> <Gold.PLP.Fitness>
46.0135

> <Gold.PLP.PLP>
-42.0786

> <Gold.PLP.part.hbond>
-3.3598

> <Gold.PLP.part.metal>
0.0000

> <Gold.PLP.part.buried>
-5.7017

> <Gold.PLP.part.nonpolar>
-33.3471

> <Gold.PLP.part.repulsive>
0.2054

> <Gold.PLP.ligand.clash>
0.0000

> <Gold.PLP.ligand.torsion>
2.3011

> <Gold.PLP.Chemscore.Hbond>
2.7440

> <Gold.PLP.Chemscore.CHOScore>
0.0000

> <Gold.PLP.Chemscore.Metal>
0.0000

> <Gold.Chemscore.Hbonds>
donor molecule, donor type, donor heavy atom, donor atom, acceptor molecule, acceptor atom, score
      P1  H  6896  6909       L1    22  1.00
      P1  H  7997  8009       L1    12  0.94
      P1  H 10752 10765       L1    14  0.69

> <Gold.PLP.Chemscore.Internal.Correction>
0.3051

> <Gold.Rescore>
     Score         DG    S(hbond)    S(metal)    S(lipo)     H(rot)  DE(clash)    DE(int)     intcor
     15.02     -17.46       2.47        0.00      91.26       2.72       0.09       2.35       ----

> <Gold.Chemscore.Fitness>
15.0240

> <Gold.Chemscore.DG>
-17.4597

> <Gold.Chemscore.ZeroCoef>
-5.4800

> <Gold.Chemscore.Hbond>
2.4724

> <Gold.Chemscore.Metal>
0.0000

> <Gold.Chemscore.Lipo>
91.2623

> <Gold.Chemscore.Internal_Hbond>
0.0000

> <Gold.Chemscore.DEClash>
0.0881

> <Gold.Chemscore.DEInternal>
2.3476

> <Gold.Chemscore.Rot>
2.7171

> <Gold.Chemscore.Internal.Correction>
   9.000000E+99

> <Gold.Chemscore.Hbonds>
donor molecule, donor type, donor heavy atom, donor atom, acceptor molecule, acceptor atom, score
      P1  H  6896  6909       L1    22  0.60
      P1  H  7997  8009       L1    12  0.21
      P1  H 10752 10765       L1    14  0.54

> <Gold.Chemscore.Hbond.Weighted>
-8.2577

> <Gold.Chemscore.Metal.Weighted>
-0.0000

> <Gold.Chemscore.Lipo.Weighted>
-10.6777

> <Gold.Chemscore.Internal_Hbond.Weighted>
0.0000

> <Gold.Chemscore.DEClash.Weighted>
0.0881

> <Gold.Chemscore.DEInternal.Weighted>
2.3476

> <Gold.Chemscore.Rot.Weighted>
6.9557

> <Gold.Chemscore.Internal.Correction.Weighted>
   9.000000E+99

> <Gold.Protein.RotatedTorsions>
[ 6907 6896 6895 6894 ] final   -6.76 input  -60.11 | X-H torsion
[ 7974 7965 7964 7962 ] final  124.49 input  175.53 | X-H torsion
[ 8008 7997 7996 7995 ] final  176.46 input   59.86 | X-H torsion
[ 10167 10162 10161 10158 ] final  103.72 input  -65.29 | X-H torsion
[ 10718 10713 10712 10709 ] final   74.71 input   66.30 | X-H torsion
[ 10763 10752 10751 10750 ] final -161.93 input  -60.55 | X-H torsion
[ 11005 11000 10999 10996 ] final  160.31 input  -57.11 | X-H torsion

> <Gold.Protein.ActiveResidues>
 VAL166  LYS551  ARG553  GLY616  TRP617  ASP618  TYR619  PRO620  LYS621  CYS622 
 ASP623  PHE694  ASN695  SER759  ASP760  ASP761  ALA762  ILE779  LEU786  VAL792 
 PHE793  MET794  SER795  GLU796  ALA797  LYS798  CYS799  TRP800  GLU811  SER814 

> <Gold.Protein.RotatedAtoms>
  151.4604  135.1038  159.9722 H   0  0  0  0  0  0  0  0  0  0  0  0  # atno 6907 bound_to 6896
  152.4855  133.8358  159.7137 H   0  0  0  0  0  0  0  0  0  0  0  0  # atno 6908 bound_to 6896
  150.8961  133.7119  159.2918 H   0  0  0  0  0  0  0  0  0  0  0  0  # atno 6909 bound_to 6896
  145.0838  139.3637  143.4895 H   0  0  0  0  0  0  0  0  0  0  0  0  # atno 7974 bound_to 7965
  156.0763  140.1383  156.9768 H   0  0  0  0  0  0  0  0  0  0  0  0  # atno 8008 bound_to 7997
  154.4559  140.0961  156.6806 H   0  0  0  0  0  0  0  0  0  0  0  0  # atno 8009 bound_to 7997
  155.5148  140.3454  155.4397 H   0  0  0  0  0  0  0  0  0  0  0  0  # atno 8010 bound_to 7997
  139.7238  144.7052  151.0830 H   0  0  0  0  0  0  0  0  0  0  0  0  # atno 10167 bound_to 10162
  157.6604  130.9691  150.1249 H   0  0  0  0  0  0  0  0  0  0  0  0  # atno 10718 bound_to 10713
  154.7259  135.3036  154.8971 H   0  0  0  0  0  0  0  0  0  0  0  0  # atno 10763 bound_to 10752
  153.9829  135.6728  153.4755 H   0  0  0  0  0  0  0  0  0  0  0  0  # atno 10764 bound_to 10752
  153.0875  135.4976  154.8544 H   0  0  0  0  0  0  0  0  0  0  0  0  # atno 10765 bound_to 10752
  140.2047  134.8312  157.3056 H   0  0  0  0  0  0  0  0  0  0  0  0  # atno 11005 bound_to 11000
  146.3531  140.0641  142.8627 LP  0  0  0  0  0  0  0  0  0  0  0  0  # atno 17320 bound_to 7965
  145.1146  140.9426  143.4636 LP  0  0  0  0  0  0  0  0  0  0  0  0  # atno 17321 bound_to 7965
  140.7759  143.5131  150.9628 LP  0  0  0  0  0  0  0  0  0  0  0  0  # atno 17342 bound_to 10162
  139.8818  143.7062  152.3156 LP  0  0  0  0  0  0  0  0  0  0  0  0  # atno 17343 bound_to 10162
  156.2111  130.3667  149.8669 LP  0  0  0  0  0  0  0  0  0  0  0  0  # atno 17370 bound_to 10713
  156.6547  130.8758  151.3537 LP  0  0  0  0  0  0  0  0  0  0  0  0  # atno 17371 bound_to 10713
  140.2016  134.4248  155.7660 LP  0  0  0  0  0  0  0  0  0  0  0  0  # atno 17394 bound_to 11000
  141.2227  133.7074  156.8192 LP  0  0  0  0  0  0  0  0  0  0  0  0  # atno 17395 bound_to 11000

$$$$
