#       Name:                AV-unprocessed.smi:2188
#       Creating user name   scv26
#       Creation time:       Fri Mar 27 12:08:10 2020


#       File generated by GOLD software.
#

@<TRIPOS>MOLECULE
AV-unprocessed.smi:2188
    43    45     1
SMALL
NO_CHARGES


@<TRIPOS>ATOM
      1 ****         1.2006   0.9486  -0.2522 O.2            1 S1                 0.0000
      2 ****         0.7238  -0.0728  -0.7510 C.2            1 S1                 0.0000
      3 ****         1.5256  -1.0558  -1.2070 N.am           1 S1                 0.0000
      4 ****         2.9871  -1.0618  -1.1684 C.3            1 S1                 0.0000
      5 ****         3.5448  -1.7423   0.0981 C.3            1 S1                 0.0000
      6 ****         3.0954  -1.0865   1.3928 C.ar           1 S1                 0.0000
      7 ****         2.1083  -1.6899   2.2039 C.ar           1 S1                 0.0000
      8 ****         1.6832  -1.0354   3.3785 C.ar           1 S1                 0.0000
      9 ****         2.2558   0.2076   3.7173 C.ar           1 S1                 0.0000
     10 ****         3.2013   0.7518   2.9203 N.pl3          1 S1                 1.0000
     11 ****         3.6370   0.1558   1.7888 C.ar           1 S1                 0.0000
     12 ****        -0.7202  -0.3543  -0.8947 C.2            1 S1                 0.0000
     13 ****        -1.1469  -1.6457  -0.9392 C.2            1 S1                 0.0000
     14 ****        -2.5392  -1.9845  -1.0968 C.2            1 S1                 0.0000
     15 ****        -3.4263  -0.9866  -1.1589 C.2            1 S1                 0.0000
     16 ****        -3.0687   0.3572  -1.0754 N.pl3          1 S1                 0.0000
     17 ****        -4.1579   1.3276  -1.0350 C.3            1 S1                 0.0000
     18 ****        -3.8133   2.5469  -1.8699 C.3            1 S1                 0.0000
     19 ****        -2.3561   3.3038  -1.0670 S.o2           1 S1                 0.0000
     20 ****        -1.8234   4.3386  -1.9659 O.2            1 S1                 0.0000
     21 ****        -2.7280   3.6645   0.3101 O.2            1 S1                 0.0000
     22 ****        -1.3155   1.9922  -1.0287 N.2            1 S1                 0.0000
     23 ****        -1.7021   0.7481  -0.9925 C.2            1 S1                 0.0000
     24 ****         1.0831  -1.8674  -1.6134 H              1 S1                 0.0000
     25 ****         3.3416  -1.5955  -2.0505 H              1 S1                 0.0000
     26 ****         3.3765  -0.0462  -1.2556 H              1 S1                 0.0000
     27 ****         3.2533  -2.7934   0.1077 H              1 S1                 0.0000
     28 ****         4.6349  -1.7320   0.0663 H              1 S1                 0.0000
     29 ****         1.6700  -2.6367   1.9237 H              1 S1                 0.0000
     30 ****         0.9246  -1.4778   4.0070 H              1 S1                 0.0000
     31 ****         1.9869   0.7794   4.5936 H              1 S1                 0.0000
     32 ****         4.3860   0.6964   1.2285 H              1 S1                 0.0000
     33 ****        -0.4591  -2.4741  -0.8517 H              1 S1                 0.0000
     34 ****        -2.8560  -3.0147  -1.1671 H              1 S1                 0.0000
     35 ****        -4.4830  -1.1773  -1.2790 H              1 S1                 0.0000
     36 ****        -5.0799   0.8891  -1.4182 H              1 S1                 0.0000
     37 ****        -4.3530   1.6076   0.0006 H              1 S1                 0.0000
     38 ****        -3.5667   2.2856  -2.8995 H              1 S1                 0.0000
     39 ****        -4.6249   3.2742  -1.8797 H              1 S1                 0.0000
     40 ****         3.5995   1.6543   3.1809 H              1 S1                 0.0000
     41 ****         2.1925   1.0549  -0.1824 LP             1 S1                 0.0000
     42 ****         0.5956   1.6710   0.0826 LP             1 S1                 0.0000
     43 ****        -0.3325   2.1758  -1.0340 LP             1 S1                 0.0000
@<TRIPOS>BOND
    1    1    2 2     
    2    2    3 am    
    3    2   12 1     
    4    3    4 1     
    5    3   24 1     
    6    4    5 1     
    7    4   25 1     
    8    4   26 1     
    9    5    6 1     
   10    5   27 1     
   11    5   28 1     
   12    6   11 ar    
   13    6    7 ar    
   14    7    8 ar    
   15    7   29 1     
   16    8    9 ar    
   17    8   30 1     
   18    9   10 ar    
   19    9   31 1     
   20   10   11 ar    
   21   10   40 1     
   22   11   32 1     
   23   12   23 1     
   24   12   13 2     
   25   13   14 1     
   26   13   33 1     
   27   14   15 2     
   28   14   34 1     
   29   15   16 1     
   30   15   35 1     
   31   16   23 1     
   32   16   17 1     
   33   17   18 1     
   34   17   36 1     
   35   17   37 1     
   36   18   19 1     
   37   18   38 1     
   38   18   39 1     
   39   19   20 2     
   40   19   21 2     
   41   19   22 1     
   42   22   23 2     
   43    1   41 1     
   44    1   42 1     
   45   22   43 1     
@<TRIPOS>SUBSTRUCTURE
      1 S1             1
@<TRIPOS>SET
LONE_PAIRS      STATIC     ATOMS    <user>   **** ""
5 41 42 20 21 43
DONOR_HYDROGENS      STATIC     ATOMS    <user>   **** ""
2 24 40
ATOM$BLUE        STATIC     ATOMS    COLORGROUP SYSTEM
5 41 42 20 21 43
ATOM$RED        STATIC     ATOMS    COLORGROUP SYSTEM
2 24 40
