AV-unprocessed.smi:1299|AV-procd|sdf|5418|dock10
  -GOLD-   22720 4573D 1   1.00000     0.00000
 Structure written by MMmdl.
 39 40  0  0  0  0  0  0  0  0  1 V2000
  155.1660  143.0344  164.9333 C   0  0  0  0  0  0  0  0  0  0  0  0
  155.4896  141.9278  165.9223 C   0  0  0  0  0  0  0  0  0  0  0  0
  155.1088  141.8956  167.2035 C   0  0  0  0  0  0  0  0  0  0  0  0
  155.6313  140.4475  168.0280 S   0  0  0  0  0  0  0  0  0  0  0  0
  156.4122  139.8587  166.5168 C   0  0  0  0  0  0  0  0  0  0  0  0
  157.0056  138.7836  166.4481 O   0  0  0  0  0  0  0  0  0  0  0  0
  156.2232  140.8060  165.5106 N   0  0  0  0  0  0  0  0  0  0  0  0
  156.7516  140.6340  164.1507 C   0  0  0  0  0  0  0  0  0  0  0  0
  155.7245  140.0517  163.1700 C   0  0  0  0  0  0  0  0  0  0  0  0
  155.4182  138.8588  163.2038 O   0  0  0  0  0  0  0  0  0  0  0  0
  155.1871  140.9212  162.3011 N   0  0  0  0  0  0  0  0  0  0  0  0
  154.1951  140.5860  161.2855 C   0  0  0  0  0  0  0  0  0  0  0  0
  154.4896  141.2965  159.9486 C   0  0  0  0  0  0  0  0  0  0  0  0
  153.2935  141.3176  158.9821 C   0  0  0  0  0  0  0  0  0  0  0  0
  153.0196  140.3144  158.3218 O   0  0  0  0  0  0  0  0  0  0  0  0
  152.5732  142.4547  158.8873 N   0  0  0  0  0  0  0  0  0  0  0  0
  152.8203  143.6876  159.6348 C   0  0  0  0  0  0  0  0  0  0  0  0
  151.6109  144.5836  159.3659 C   0  0  0  0  0  0  0  0  0  0  0  0
  151.0787  144.1004  158.0241 C   0  0  0  0  0  0  0  0  0  0  0  0
  151.4223  142.6108  157.9999 C   0  0  0  0  0  0  0  0  0  0  0  0
  154.3282  143.6310  165.2950 H   0  0  0  0  0  0  0  0  0  0  0  0
  154.8848  142.6372  163.9581 H   0  0  0  0  0  0  0  0  0  0  0  0
  156.0242  143.6953  164.8110 H   0  0  0  0  0  0  0  0  0  0  0  0
  154.5308  142.6485  167.7187 H   0  0  0  0  0  0  0  0  0  0  0  0
  157.1340  141.5761  163.7582 H   0  0  0  0  0  0  0  0  0  0  0  0
  157.6140  139.9658  164.1822 H   0  0  0  0  0  0  0  0  0  0  0  0
  155.4909  141.8833  162.3415 H   0  0  0  0  0  0  0  0  0  0  0  0
  154.2128  139.5042  161.1483 H   0  0  0  0  0  0  0  0  0  0  0  0
  153.1966  140.8387  161.6476 H   0  0  0  0  0  0  0  0  0  0  0  0
  154.7922  142.3258  160.1438 H   0  0  0  0  0  0  0  0  0  0  0  0
  155.3294  140.8050  159.4559 H   0  0  0  0  0  0  0  0  0  0  0  0
  152.9416  143.5103  160.7041 H   0  0  0  0  0  0  0  0  0  0  0  0
  153.7316  144.1553  159.2594 H   0  0  0  0  0  0  0  0  0  0  0  0
  150.8569  144.4191  160.1369 H   0  0  0  0  0  0  0  0  0  0  0  0
  151.8616  145.6446  159.3654 H   0  0  0  0  0  0  0  0  0  0  0  0
  150.0125  144.2908  157.8977 H   0  0  0  0  0  0  0  0  0  0  0  0
  151.6070  144.6106  157.2177 H   0  0  0  0  0  0  0  0  0  0  0  0
  151.6356  142.2703  156.9853 H   0  0  0  0  0  0  0  0  0  0  0  0
  150.5918  142.0194  158.3887 H   0  0  0  0  0  0  0  0  0  0  0  0
  1  2  1  0  0  0  0
  1 21  1  0  0  0  0
  1 22  1  0  0  0  0
  1 23  1  0  0  0  0
  2  7  1  0  0  0  0
  2  3  2  0  0  0  0
  3  4  1  0  0  0  0
  3 24  1  0  0  0  0
  4  5  1  0  0  0  0
  5  6  2  0  0  0  0
  5  7  1  0  0  0  0
  7  8  1  0  0  0  0
  8  9  1  0  0  0  0
  8 25  1  0  0  0  0
  8 26  1  0  0  0  0
  9 10  2  0  0  0  0
  9 11  1  0  0  0  0
 11 12  1  0  0  0  0
 11 27  1  0  0  0  0
 12 13  1  0  0  0  0
 12 28  1  0  0  0  0
 12 29  1  0  0  0  0
 13 14  1  0  0  0  0
 13 30  1  0  0  0  0
 13 31  1  0  0  0  0
 14 15  2  0  0  0  0
 14 16  1  0  0  0  0
 16 20  1  0  0  0  0
 16 17  1  0  0  0  0
 17 18  1  0  0  0  0
 17 32  1  0  0  0  0
 17 33  1  0  0  0  0
 18 19  1  0  0  0  0
 18 34  1  0  0  0  0
 18 35  1  0  0  0  0
 19 20  1  0  0  0  0
 19 36  1  0  0  0  0
 19 37  1  0  0  0  0
 20 38  1  0  0  0  0
 20 39  1  0  0  0  0
M  END
> <s_m_source_file>
AV-unprocessed.smi

> <i_m_source_file_index>
1299

> <i_lp_mmshare_version>
43012

> <i_f3d_flags>
0

> <s_epik_input>
W0NIM11jMVtjSF1zYyg9TyluMVtDSDJdQyg9TylbTkhdW0NIMl1bQ0gyXUMoPU8pTjJbQ0gyXVtDSDJdW0NIMl1bQ0gyXTI=

> <s_epik_cmdline>
J2VwaWtfcHl0aG9uJywgJy1waCcsICc3LjAnLCAnLXRuJywgJzgnLCAnLW1hJywgJzIwMCcsICctbWV0YWxfYmluZGluZycsICctaW1hZScsICc8aW5maWxlLm1hZT4nLCAnLW9tYWUnLCAnPG91dGZpbGUubWFlPic=

> <r_lp_tautomer_probability>
1

> <r_epik_Ionization_Penalty>
1.42672e-06

> <r_epik_Ionization_Penalty_Charging>
1.08064e-06

> <r_epik_Ionization_Penalty_Neutral>
3.46085e-07

> <r_epik_State_Penalty>
-0

> <r_epik_Charging_Adjusted_Penalty>
1.08064e-06

> <i_epik_Tot_Q>
0

> <i_epik_Tot_abs_Q>
0

> <r_epik_Metal_State_Penalty>
-0

> <b_epik_Metal_Only>
0

> <s_lp_Force_Field>
OPLS_2005

> <r_lp_Energy>
30.8751

> <b_lp_Chiralities_Consistent>
1

> <s_lp_Variant>
AV-unprocessed.smi:1299-1

> <Gold.Version>
5.8.1

> <Gold.Id.Protein>
6NUR|6NUR_protein|mol2

> <Gold.PLP.Fitness>
44.7880

> <Gold.PLP.PLP>
-44.6253

> <Gold.PLP.part.hbond>
-2.3721

> <Gold.PLP.part.metal>
0.0000

> <Gold.PLP.part.buried>
-3.7894

> <Gold.PLP.part.nonpolar>
-36.5797

> <Gold.PLP.part.repulsive>
0.0480

> <Gold.PLP.ligand.clash>
0.0000

> <Gold.PLP.ligand.torsion>
0.9851

> <Gold.PLP.Chemscore.Hbond>
0.7007

> <Gold.PLP.Chemscore.CHOScore>
0.0000

> <Gold.PLP.Chemscore.Metal>
0.0000

> <Gold.Chemscore.Hbonds>
donor molecule, donor type, donor heavy atom, donor atom, acceptor molecule, acceptor atom, score
      P1  H  7997  8010       L1    15  0.87

> <Gold.PLP.Chemscore.Internal.Correction>
0.0308

> <Gold.Rescore>
     Score         DG    S(hbond)    S(metal)    S(lipo)     H(rot)  DE(clash)    DE(int)     intcor
     11.61     -14.34       0.74        0.00      98.66       2.02       1.64       1.09       ----

> <Gold.Chemscore.Fitness>
11.6125

> <Gold.Chemscore.DG>
-14.3401

> <Gold.Chemscore.ZeroCoef>
-5.4800

> <Gold.Chemscore.Hbond>
0.7420

> <Gold.Chemscore.Metal>
0.0000

> <Gold.Chemscore.Lipo>
98.6611

> <Gold.Chemscore.Internal_Hbond>
0.0000

> <Gold.Chemscore.DEClash>
1.6408

> <Gold.Chemscore.DEInternal>
1.0869

> <Gold.Chemscore.Rot>
2.0162

> <Gold.Chemscore.Internal.Correction>
   9.000000E+99

> <Gold.Chemscore.Hbonds>
donor molecule, donor type, donor heavy atom, donor atom, acceptor molecule, acceptor atom, score
      P1  H  7997  8010       L1    15  0.40

> <Gold.Chemscore.Hbond.Weighted>
-2.4782

> <Gold.Chemscore.Metal.Weighted>
-0.0000

> <Gold.Chemscore.Lipo.Weighted>
-11.5434

> <Gold.Chemscore.Internal_Hbond.Weighted>
0.0000

> <Gold.Chemscore.DEClash.Weighted>
1.6408

> <Gold.Chemscore.DEInternal.Weighted>
1.0869

> <Gold.Chemscore.Rot.Weighted>
5.1614

> <Gold.Chemscore.Internal.Correction.Weighted>
   9.000000E+99

> <Gold.Protein.RotatedTorsions>
[ 6907 6896 6895 6894 ] final -158.01 input  -60.11 | X-H torsion
[ 7974 7965 7964 7962 ] final  -63.56 input  175.53 | X-H torsion
[ 8008 7997 7996 7995 ] final   34.58 input   59.86 | X-H torsion
[ 10167 10162 10161 10158 ] final   33.67 input  -65.29 | X-H torsion
[ 10718 10713 10712 10709 ] final  113.60 input   66.30 | X-H torsion
[ 10763 10752 10751 10750 ] final  -66.47 input  -60.55 | X-H torsion
[ 11005 11000 10999 10996 ] final   -4.55 input  -57.11 | X-H torsion

> <Gold.Protein.ActiveResidues>
 VAL166  LYS551  ARG553  GLY616  TRP617  ASP618  TYR619  PRO620  LYS621  CYS622 
 ASP623  PHE694  ASN695  SER759  ASP760  ASP761  ALA762  ILE779  LEU786  VAL792 
 PHE793  MET794  SER795  GLU796  ALA797  LYS798  CYS799  TRP800  GLU811  SER814 

> <Gold.Protein.RotatedAtoms>
  151.3116  133.4078  159.2647 H   0  0  0  0  0  0  0  0  0  0  0  0  # atno 6907 bound_to 6896
  151.0109  134.9397  159.8017 H   0  0  0  0  0  0  0  0  0  0  0  0  # atno 6908 bound_to 6896
  152.5300  134.3081  159.9155 H   0  0  0  0  0  0  0  0  0  0  0  0  # atno 6909 bound_to 6896
  145.7775  140.8780  143.0348 H   0  0  0  0  0  0  0  0  0  0  0  0  # atno 7974 bound_to 7965
  155.1571  140.3280  155.4419 H   0  0  0  0  0  0  0  0  0  0  0  0  # atno 8008 bound_to 7997
  156.2555  140.1967  156.6630 H   0  0  0  0  0  0  0  0  0  0  0  0  # atno 8009 bound_to 7997
  154.6432  140.0567  156.9856 H   0  0  0  0  0  0  0  0  0  0  0  0  # atno 8010 bound_to 7997
  140.4386  144.1221  150.6170 H   0  0  0  0  0  0  0  0  0  0  0  0  # atno 10167 bound_to 10162
  157.6329  131.0986  150.7064 H   0  0  0  0  0  0  0  0  0  0  0  0  # atno 10718 bound_to 10713
  154.3602  135.6117  153.5687 H   0  0  0  0  0  0  0  0  0  0  0  0  # atno 10763 bound_to 10752
  152.9794  135.5813  154.4641 H   0  0  0  0  0  0  0  0  0  0  0  0  # atno 10764 bound_to 10752
  154.4378  135.2849  155.1846 H   0  0  0  0  0  0  0  0  0  0  0  0  # atno 10765 bound_to 10752
  140.6815  133.9149  155.8558 H   0  0  0  0  0  0  0  0  0  0  0  0  # atno 11005 bound_to 11000
  144.6802  139.9942  143.7484 LP  0  0  0  0  0  0  0  0  0  0  0  0  # atno 17320 bound_to 7965
  146.0107  139.3168  143.0872 LP  0  0  0  0  0  0  0  0  0  0  0  0  # atno 17321 bound_to 7965
  140.4345  143.2553  151.9553 LP  0  0  0  0  0  0  0  0  0  0  0  0  # atno 17342 bound_to 10162
  139.4788  144.5713  151.8084 LP  0  0  0  0  0  0  0  0  0  0  0  0  # atno 17343 bound_to 10162
  156.7401  130.4736  149.5479 LP  0  0  0  0  0  0  0  0  0  0  0  0  # atno 17370 bound_to 10713
  156.1545  130.6333  151.0639 LP  0  0  0  0  0  0  0  0  0  0  0  0  # atno 17371 bound_to 10713
  141.0314  134.0751  157.4010 LP  0  0  0  0  0  0  0  0  0  0  0  0  # atno 17394 bound_to 11000
  139.8950  135.0139  156.6981 LP  0  0  0  0  0  0  0  0  0  0  0  0  # atno 17395 bound_to 11000

$$$$
