AV-unprocessed.smi:1464|AV-procd|sdf|5936|dock1
  -GOLD-   22720 6 13D 1   1.00000     0.00000
 Structure written by MMmdl.
 40 41  0  0  0  0  0  0  0  0  2 V2000
  151.9097  145.2477  158.2861 C   0  0  0  0  0  0  0  0  0  0  0  0
  152.4895  144.3697  159.4078 C   0  0  1  0  0  0  0  0  0  0  0  0
  151.8303  144.6720  160.7689 C   0  0  0  0  0  0  0  0  0  0  0  0
  152.4827  143.8652  161.9026 C   0  0  0  0  0  0  0  0  0  0  0  0
  152.4791  142.3599  161.5976 C   0  0  0  0  0  0  0  0  0  0  0  0
  153.1446  142.0638  160.2398 C   0  0  1  0  0  0  0  0  0  0  0  0
  153.1568  140.6230  159.9977 N   0  0  0  0  0  0  0  0  0  0  0  0
  154.2362  139.8301  160.0820 C   0  0  0  0  0  0  0  0  0  0  0  0
  155.3494  140.2398  160.4146 O   0  0  0  0  0  0  0  0  0  0  0  0
  154.0099  138.3473  159.7495 C   0  0  0  0  0  0  0  0  0  0  0  0
  153.1337  138.1333  158.5884 N   0  0  0  0  0  0  0  0  0  0  0  0
  153.7005  138.5964  157.3247 N   0  5  0  0  0  0  0  0  0  0  0  0
  152.9662  138.4791  156.1866 C   0  0  0  0  0  0  0  0  0  0  0  0
  153.3675  138.8665  155.0916 O   0  0  0  0  0  0  0  0  0  0  0  0
  151.6536  137.8617  156.2797 C   0  0  0  0  0  0  0  0  0  0  0  0
  151.1696  137.4118  157.4541 C   0  0  0  0  0  0  0  0  0  0  0  0
  151.9190  137.5225  158.6997 C   0  0  0  0  0  0  0  0  0  0  0  0
  151.4882  137.1015  159.7739 O   0  0  0  0  0  0  0  0  0  0  0  0
  152.4660  142.8516  159.0842 C   0  0  1  0  0  0  0  0  0  0  0  0
  151.0600  142.3161  158.7248 C   0  0  0  0  0  0  0  0  0  0  0  0
  150.8326  145.1166  158.1839 H   0  0  0  0  0  0  0  0  0  0  0  0
  152.3704  145.0148  157.3258 H   0  0  0  0  0  0  0  0  0  0  0  0
  152.0892  146.3039  158.4883 H   0  0  0  0  0  0  0  0  0  0  0  0
  153.5399  144.6523  159.4962 H   0  0  0  0  0  0  0  0  0  0  0  0
  151.9124  145.7362  160.9922 H   0  0  0  0  0  0  0  0  0  0  0  0
  150.7633  144.4521  160.7272 H   0  0  0  0  0  0  0  0  0  0  0  0
  153.5100  144.2032  162.0444 H   0  0  0  0  0  0  0  0  0  0  0  0
  151.9632  144.0563  162.8420 H   0  0  0  0  0  0  0  0  0  0  0  0
  153.0036  141.8290  162.3930 H   0  0  0  0  0  0  0  0  0  0  0  0
  151.4545  141.9864  161.6067 H   0  0  0  0  0  0  0  0  0  0  0  0
  154.1826  142.3949  160.3138 H   0  0  0  0  0  0  0  0  0  0  0  0
  152.2824  140.2000  159.7226 H   0  0  0  0  0  0  0  0  0  0  0  0
  154.9865  137.8883  159.5861 H   0  0  0  0  0  0  0  0  0  0  0  0
  153.5861  137.8357  160.6157 H   0  0  0  0  0  0  0  0  0  0  0  0
  151.0548  137.7580  155.3870 H   0  0  0  0  0  0  0  0  0  0  0  0
  150.1906  136.9566  157.4762 H   0  0  0  0  0  0  0  0  0  0  0  0
  153.0802  142.7098  158.1936 H   0  0  0  0  0  0  0  0  0  0  0  0
  150.3543  142.4318  159.5465 H   0  0  0  0  0  0  0  0  0  0  0  0
  151.0892  141.2584  158.4639 H   0  0  0  0  0  0  0  0  0  0  0  0
  150.6454  142.8308  157.8589 H   0  0  0  0  0  0  0  0  0  0  0  0
  1  2  1  0  0  0  0
  1 21  1  0  0  0  0
  1 22  1  0  0  0  0
  1 23  1  0  0  0  0
  2 19  1  0  0  0  0
  2  3  1  0  0  0  0
  2 24  1  0  0  0  0
  3  4  1  0  0  0  0
  3 25  1  0  0  0  0
  3 26  1  0  0  0  0
  4  5  1  0  0  0  0
  4 27  1  0  0  0  0
  4 28  1  0  0  0  0
  5  6  1  0  0  0  0
  5 29  1  0  0  0  0
  5 30  1  0  0  0  0
  6  7  1  0  0  0  0
  6 19  1  0  0  0  0
  6 31  1  0  0  0  0
  7  8  1  0  0  0  0
  7 32  1  0  0  0  0
  8  9  2  0  0  0  0
  8 10  1  0  0  0  0
 10 33  1  0  0  0  0
 10 34  1  0  0  0  0
 10 11  1  0  0  0  0
 11 12  1  0  0  0  0
 11 17  1  0  0  0  0
 12 13  1  0  0  0  0
 13 14  2  0  0  0  0
 13 15  1  0  0  0  0
 15 35  1  0  0  0  0
 15 16  2  0  0  0  0
 16 36  1  0  0  0  0
 16 17  1  0  0  0  0
 17 18  2  0  0  0  0
 19 20  1  0  0  0  0
 19 37  1  0  0  0  0
 20 38  1  0  0  0  0
 20 39  1  0  0  0  0
 20 40  1  0  0  0  0
M  CHG  1  12  -1
M  END
> <s_m_source_file>
AV-unprocessed.smi

> <i_m_source_file_index>
1464

> <i_lp_mmshare_version>
43012

> <i_f3d_flags>
0

> <s_epik_input>
W0NIM11bQ0BASF0xW0NIMl1bQ0gyXVtDSDJdW0NASF0oW0NASF0xW0NIM10pW05IXUMoPU8pW0NIMl1uMltuSF1jKD1PKVtjSF1bY0hdYzI9Tw==

> <s_epik_cmdline>
J2VwaWtfcHl0aG9uJywgJy1waCcsICc3LjAnLCAnLXRuJywgJzgnLCAnLW1hJywgJzIwMCcsICctbWV0YWxfYmluZGluZycsICctaW1hZScsICc8aW5maWxlLm1hZT4nLCAnLW9tYWUnLCAnPG91dGZpbGUubWFlPic=

> <r_lp_tautomer_probability>
1

> <r_epik_Ionization_Penalty>
0.101366

> <r_epik_Ionization_Penalty_Charging>
0.101366

> <r_epik_Ionization_Penalty_Neutral>
1.90469e-08

> <r_epik_State_Penalty>
0.035861

> <r_epik_Charging_Adjusted_Penalty>
0.137227

> <i_epik_Tot_Q>
-1

> <i_epik_Tot_abs_Q>
1

> <r_epik_Metal_State_Penalty>
0.035861

> <b_epik_Metal_Only>
0

> <s_lp_Force_Field>
OPLS_2005

> <r_lp_Energy>
30.1614

> <b_lp_Chiralities_Consistent>
1

> <s_lp_Variant>
AV-unprocessed.smi:1464-2

> <Gold.Version>
5.8.1

> <Gold.Id.Protein>
6NUR|6NUR_protein|mol2

> <Gold.PLP.Fitness>
48.2748

> <Gold.PLP.PLP>
-39.7077

> <Gold.PLP.part.hbond>
-3.0000

> <Gold.PLP.part.metal>
0.0000

> <Gold.PLP.part.buried>
-5.5714

> <Gold.PLP.part.nonpolar>
-30.1752

> <Gold.PLP.part.repulsive>
0.0991

> <Gold.PLP.ligand.clash>
0.0000

> <Gold.PLP.ligand.torsion>
0.4171

> <Gold.PLP.Chemscore.Hbond>
3.1276

> <Gold.PLP.Chemscore.CHOScore>
0.0000

> <Gold.PLP.Chemscore.Metal>
0.0000

> <Gold.Chemscore.Hbonds>
donor molecule, donor type, donor heavy atom, donor atom, acceptor molecule, acceptor atom, score
      P1  H  6896  6907       L1    18  1.00
      P1  H  7997  8008       L1    12  1.70
      P1  H  7997  8009       L1    14  0.34

> <Gold.PLP.Chemscore.Internal.Correction>
0.0184

> <Gold.Rescore>
     Score         DG    S(hbond)    S(metal)    S(lipo)     H(rot)  DE(clash)    DE(int)     intcor
     21.09     -21.60       2.52        0.00     101.91       1.64       0.12       0.39       ----

> <Gold.Chemscore.Fitness>
21.0938

> <Gold.Chemscore.DG>
-21.5962

> <Gold.Chemscore.ZeroCoef>
-5.4800

> <Gold.Chemscore.Hbond>
2.5152

> <Gold.Chemscore.Metal>
0.0000

> <Gold.Chemscore.Lipo>
101.9108

> <Gold.Chemscore.Internal_Hbond>
0.0000

> <Gold.Chemscore.DEClash>
0.1172

> <Gold.Chemscore.DEInternal>
0.3852

> <Gold.Chemscore.Rot>
1.6438

> <Gold.Chemscore.Internal.Correction>
   9.000000E+99

> <Gold.Chemscore.Hbonds>
donor molecule, donor type, donor heavy atom, donor atom, acceptor molecule, acceptor atom, score
      P1  H  6896  6907       L1    18  0.87
      P1  H  7997  8008       L1    12  0.46
      P1  H  7997  8009       L1    14  0.21

> <Gold.Chemscore.Hbond.Weighted>
-8.4006

> <Gold.Chemscore.Metal.Weighted>
-0.0000

> <Gold.Chemscore.Lipo.Weighted>
-11.9236

> <Gold.Chemscore.Internal_Hbond.Weighted>
0.0000

> <Gold.Chemscore.DEClash.Weighted>
0.1172

> <Gold.Chemscore.DEInternal.Weighted>
0.3852

> <Gold.Chemscore.Rot.Weighted>
4.2080

> <Gold.Chemscore.Internal.Correction.Weighted>
   9.000000E+99

> <Gold.Protein.RotatedTorsions>
[ 6907 6896 6895 6894 ] final    6.03 input  -60.11 | X-H torsion
[ 7974 7965 7964 7962 ] final  -28.63 input  175.53 | X-H torsion
[ 8008 7997 7996 7995 ] final  -95.65 input   59.86 | X-H torsion
[ 10167 10162 10161 10158 ] final -171.62 input  -65.29 | X-H torsion
[ 10718 10713 10712 10709 ] final -154.30 input   66.30 | X-H torsion
[ 10763 10752 10751 10750 ] final -123.12 input  -60.55 | X-H torsion
[ 11005 11000 10999 10996 ] final   75.82 input  -57.11 | X-H torsion

> <Gold.Protein.ActiveResidues>
 VAL166  LYS551  ARG553  GLY616  TRP617  ASP618  TYR619  PRO620  LYS621  CYS622 
 ASP623  PHE694  ASN695  SER759  ASP760  ASP761  ALA762  ILE779  LEU786  VAL792 
 PHE793  MET794  SER795  GLU796  ALA797  LYS798  CYS799  TRP800  GLU811  SER814 

> <Gold.Protein.RotatedAtoms>
  151.6672  135.0981  160.0190 H   0  0  0  0  0  0  0  0  0  0  0  0  # atno 6907 bound_to 6896
  152.3913  133.6678  159.6248 H   0  0  0  0  0  0  0  0  0  0  0  0  # atno 6908 bound_to 6896
  150.7828  133.8867  159.3342 H   0  0  0  0  0  0  0  0  0  0  0  0  # atno 6909 bound_to 6896
  146.1274  140.5307  142.8708 H   0  0  0  0  0  0  0  0  0  0  0  0  # atno 7974 bound_to 7965
  154.7641  140.0478  157.0997 H   0  0  0  0  0  0  0  0  0  0  0  0  # atno 8008 bound_to 7997
  154.9901  140.3112  155.4890 H   0  0  0  0  0  0  0  0  0  0  0  0  # atno 8009 bound_to 7997
  156.2909  140.2220  156.5006 H   0  0  0  0  0  0  0  0  0  0  0  0  # atno 8010 bound_to 7997
  139.5792  144.1463  152.1492 H   0  0  0  0  0  0  0  0  0  0  0  0  # atno 10167 bound_to 10162
  156.4975  130.8376  151.2595 H   0  0  0  0  0  0  0  0  0  0  0  0  # atno 10718 bound_to 10713
  154.8702  135.4109  154.2892 H   0  0  0  0  0  0  0  0  0  0  0  0  # atno 10763 bound_to 10752
  153.3771  135.7010  153.6599 H   0  0  0  0  0  0  0  0  0  0  0  0  # atno 10764 bound_to 10752
  153.5436  135.3643  155.2701 H   0  0  0  0  0  0  0  0  0  0  0  0  # atno 10765 bound_to 10752
  139.9326  134.7549  156.1318 H   0  0  0  0  0  0  0  0  0  0  0  0  # atno 11005 bound_to 11000
  144.7656  140.5523  143.6705 LP  0  0  0  0  0  0  0  0  0  0  0  0  # atno 17320 bound_to 7965
  145.5334  139.1475  143.3487 LP  0  0  0  0  0  0  0  0  0  0  0  0  # atno 17321 bound_to 7965
  140.1012  144.5538  150.6987 LP  0  0  0  0  0  0  0  0  0  0  0  0  # atno 17342 bound_to 10162
  140.7072  143.2477  151.4692 LP  0  0  0  0  0  0  0  0  0  0  0  0  # atno 17343 bound_to 10162
  157.7467  130.9993  150.2884 LP  0  0  0  0  0  0  0  0  0  0  0  0  # atno 17370 bound_to 10713
  156.3366  130.3808  149.7445 LP  0  0  0  0  0  0  0  0  0  0  0  0  # atno 17371 bound_to 10713
  141.0923  133.6709  156.2568 LP  0  0  0  0  0  0  0  0  0  0  0  0  # atno 17394 bound_to 11000
  140.6160  134.5410  157.5541 LP  0  0  0  0  0  0  0  0  0  0  0  0  # atno 17395 bound_to 11000

$$$$
