AV-unprocessed.smi:1644|AV-procd|sdf|6599|dock9
  -GOLD-   22720 7303D 1   1.00000     0.00000
 Structure written by MMmdl.
 49 51  0  0  0  0  0  0  0  0  3 V2000
  147.9972  135.4409  163.0212 C   0  0  0  0  0  0  0  0  0  0  0  0
  147.9057  136.1893  161.6871 C   0  0  0  0  0  0  0  0  0  0  0  0
  147.5342  135.2564  160.5143 C   0  0  0  0  0  0  0  0  0  0  0  0
  147.7151  135.8413  159.0921 C   0  0  1  0  0  0  0  0  0  0  0  0
  146.7120  136.8409  158.7892 N   0  5  0  0  0  0  0  0  0  0  0  0
  147.3428  137.9905  158.4530 C   0  0  0  0  0  0  0  0  0  0  0  0
  146.8125  139.0592  158.1496 O   0  0  0  0  0  0  0  0  0  0  0  0
  148.6816  137.8438  158.5057 N   0  0  0  0  0  0  0  0  0  0  0  0
  149.6549  138.9087  158.2462 C   0  0  0  0  0  0  0  0  0  0  0  0
  150.6743  138.4882  157.1669 C   0  0  1  0  0  0  0  0  0  0  0  0
  150.0227  138.4143  155.9139 O   0  0  0  0  0  0  0  0  0  0  0  0
  151.8373  139.4924  157.0480 C   0  0  0  0  0  0  0  0  0  0  0  0
  151.3733  140.8849  157.0272 N   0  0  0  0  0  0  0  0  0  0  0  0
  150.6406  141.5569  156.0991 C   0  0  0  0  0  0  0  0  0  0  0  0
  150.4847  142.8341  156.5475 N   0  3  0  0  0  0  0  0  0  0  0  0
  151.1318  142.9789  157.7774 C   0  0  0  0  0  0  0  0  0  0  0  0
  151.2625  144.0790  158.6168 C   0  0  0  0  0  0  0  0  0  0  0  0
  151.9988  143.8966  159.8096 C   0  0  0  0  0  0  0  0  0  0  0  0
  152.1687  145.0812  160.7453 C   0  0  0  0  0  0  0  0  0  0  0  0
  152.5704  142.6377  160.1302 C   0  0  0  0  0  0  0  0  0  0  0  0
  153.3606  142.4512  161.4142 C   0  0  0  0  0  0  0  0  0  0  0  0
  152.4229  141.5305  159.2655 C   0  0  0  0  0  0  0  0  0  0  0  0
  151.7003  141.7301  158.0920 C   0  0  0  0  0  0  0  0  0  0  0  0
  149.0072  136.6073  158.8923 C   0  0  0  0  0  0  0  0  0  0  0  0
  150.1333  136.1437  159.0752 O   0  0  0  0  0  0  0  0  0  0  0  0
  148.2508  136.1234  163.8322 H   0  0  0  0  0  0  0  0  0  0  0  0
  148.7632  134.6661  162.9852 H   0  0  0  0  0  0  0  0  0  0  0  0
  147.0488  134.9646  163.2710 H   0  0  0  0  0  0  0  0  0  0  0  0
  147.1655  136.9846  161.7786 H   0  0  0  0  0  0  0  0  0  0  0  0
  148.8611  136.6782  161.4945 H   0  0  0  0  0  0  0  0  0  0  0  0
  148.1283  134.3448  160.5918 H   0  0  0  0  0  0  0  0  0  0  0  0
  146.4973  134.9384  160.6301 H   0  0  0  0  0  0  0  0  0  0  0  0
  147.6929  135.0242  158.3700 H   0  0  0  0  0  0  0  0  0  0  0  0
  149.1634  139.8471  157.9826 H   0  0  0  0  0  0  0  0  0  0  0  0
  150.1726  139.1162  159.1843 H   0  0  0  0  0  0  0  0  0  0  0  0
  151.0791  137.5024  157.3981 H   0  0  0  0  0  0  0  0  0  0  0  0
  149.9989  139.2802  155.5367 H   0  0  0  0  0  0  0  0  0  0  0  0
  152.5341  139.3801  157.8800 H   0  0  0  0  0  0  0  0  0  0  0  0
  152.4110  139.3188  156.1366 H   0  0  0  0  0  0  0  0  0  0  0  0
  150.2575  141.1527  155.1734 H   0  0  0  0  0  0  0  0  0  0  0  0
  150.8246  145.0343  158.3667 H   0  0  0  0  0  0  0  0  0  0  0  0
  153.2259  145.2943  160.9062 H   0  0  0  0  0  0  0  0  0  0  0  0
  151.7055  144.8744  161.7103 H   0  0  0  0  0  0  0  0  0  0  0  0
  151.7064  145.9813  160.3386 H   0  0  0  0  0  0  0  0  0  0  0  0
  153.6932  141.4191  161.5310 H   0  0  0  0  0  0  0  0  0  0  0  0
  152.7502  142.7037  162.2815 H   0  0  0  0  0  0  0  0  0  0  0  0
  154.2453  143.0885  161.4137 H   0  0  0  0  0  0  0  0  0  0  0  0
  152.8624  140.5726  159.5055 H   0  0  0  0  0  0  0  0  0  0  0  0
  149.9776  143.5525  156.0466 H   0  0  0  0  0  0  0  0  0  0  0  0
  1  2  1  0  0  0  0
  1 26  1  0  0  0  0
  1 27  1  0  0  0  0
  1 28  1  0  0  0  0
  2  3  1  0  0  0  0
  2 29  1  0  0  0  0
  2 30  1  0  0  0  0
  3  4  1  0  0  0  0
  3 31  1  0  0  0  0
  3 32  1  0  0  0  0
  4 24  1  0  0  0  0
  4  5  1  0  0  0  0
  4 33  1  0  0  0  0
  5  6  1  0  0  0  0
  6  7  2  0  0  0  0
  6  8  1  0  0  0  0
  8  9  1  0  0  0  0
  8 24  1  0  0  0  0
  9 10  1  0  0  0  0
  9 34  1  0  0  0  0
  9 35  1  0  0  0  0
 10 11  1  0  0  0  0
 10 12  1  0  0  0  0
 10 36  1  0  0  0  0
 11 37  1  0  0  0  0
 12 13  1  0  0  0  0
 12 38  1  0  0  0  0
 12 39  1  0  0  0  0
 13 23  1  0  0  0  0
 13 14  1  0  0  0  0
 14 15  2  0  0  0  0
 14 40  1  0  0  0  0
 15 16  1  0  0  0  0
 15 49  1  0  0  0  0
 16 23  2  0  0  0  0
 16 17  1  0  0  0  0
 17 18  2  0  0  0  0
 17 41  1  0  0  0  0
 18 19  1  0  0  0  0
 18 20  1  0  0  0  0
 19 42  1  0  0  0  0
 19 43  1  0  0  0  0
 19 44  1  0  0  0  0
 20 21  1  0  0  0  0
 20 22  2  0  0  0  0
 21 45  1  0  0  0  0
 21 46  1  0  0  0  0
 21 47  1  0  0  0  0
 22 23  1  0  0  0  0
 22 48  1  0  0  0  0
 24 25  2  0  0  0  0
M  CHG  1   5  -1
M  CHG  1  15   1
M  END
> <s_m_source_file>
AV-unprocessed.smi

> <i_m_source_file_index>
1644

> <i_lp_mmshare_version>
43012

> <i_f3d_flags>
0

> <s_epik_input>
W0NIM11bQ0gyXVtDSDJdW0NAQEhdMVtOSF1DKD1PKU4oQzE9TylbQ0gyXVtDQEhdKFtPSF0pW0NIMl1uKFtjSF1uMiljKGMyMylbY0hdYyhbQ0gzXSljKFtjSF0zKVtDSDNd

> <s_epik_cmdline>
J2VwaWtfcHl0aG9uJywgJy1waCcsICc3LjAnLCAnLXRuJywgJzgnLCAnLW1hJywgJzIwMCcsICctbWV0YWxfYmluZGluZycsICctaW1hZScsICc8aW5maWxlLm1hZT4nLCAnLW9tYWUnLCAnPG91dGZpbGUubWFlPic=

> <r_lp_tautomer_probability>
1

> <r_epik_Ionization_Penalty>
6.86868

> <r_epik_Ionization_Penalty_Charging>
6.86868

> <r_epik_Ionization_Penalty_Neutral>
5.84798e-07

> <r_epik_State_Penalty>
6.92818

> <r_epik_Charging_Adjusted_Penalty>
13.7969

> <i_epik_Tot_Q>
0

> <i_epik_Tot_abs_Q>
2

> <r_epik_Metal_State_Penalty>
2.98017

> <b_epik_Metal_Only>
1

> <s_lp_Force_Field>
OPLS_2005

> <r_lp_Energy>
22.7733

> <b_lp_Chiralities_Consistent>
1

> <s_lp_Variant>
AV-unprocessed.smi:1644-16

> <Gold.Version>
5.8.1

> <Gold.Id.Protein>
6NUR|6NUR_protein|mol2

> <Gold.PLP.Fitness>
56.9236

> <Gold.PLP.PLP>
-48.6748

> <Gold.PLP.part.hbond>
-2.0000

> <Gold.PLP.part.metal>
0.0000

> <Gold.PLP.part.buried>
-7.5015

> <Gold.PLP.part.nonpolar>
-40.3962

> <Gold.PLP.part.repulsive>
0.1012

> <Gold.PLP.ligand.clash>
0.0000

> <Gold.PLP.ligand.torsion>
0.3573

> <Gold.PLP.Chemscore.Hbond>
2.9520

> <Gold.PLP.Chemscore.CHOScore>
0.0000

> <Gold.PLP.Chemscore.Metal>
0.0000

> <Gold.Chemscore.Hbonds>
donor molecule, donor type, donor heavy atom, donor atom, acceptor molecule, acceptor atom, score
      L1  H    15    49       P1  8028  2.00
      P1  H  6896  6909       L1    25  0.99

> <Gold.PLP.Chemscore.Internal.Correction>
0.1073

> <Gold.Rescore>
     Score         DG    S(hbond)    S(metal)    S(lipo)     H(rot)  DE(clash)    DE(int)     intcor
     18.26     -18.69       1.93        0.00     117.31       2.72       0.00       0.42       ----

> <Gold.Chemscore.Fitness>
18.2614

> <Gold.Chemscore.DG>
-18.6859

> <Gold.Chemscore.ZeroCoef>
-5.4800

> <Gold.Chemscore.Hbond>
1.9328

> <Gold.Chemscore.Metal>
0.0000

> <Gold.Chemscore.Lipo>
117.3099

> <Gold.Chemscore.Internal_Hbond>
0.0000

> <Gold.Chemscore.DEClash>
0.0038

> <Gold.Chemscore.DEInternal>
0.4207

> <Gold.Chemscore.Rot>
2.7245

> <Gold.Chemscore.Internal.Correction>
   9.000000E+99

> <Gold.Chemscore.Hbonds>
donor molecule, donor type, donor heavy atom, donor atom, acceptor molecule, acceptor atom, score
      L1  H    15    49       P1  8028  0.99
      P1  H  6896  6909       L1    25  0.94

> <Gold.Chemscore.Hbond.Weighted>
-6.4554

> <Gold.Chemscore.Metal.Weighted>
-0.0000

> <Gold.Chemscore.Lipo.Weighted>
-13.7253

> <Gold.Chemscore.Internal_Hbond.Weighted>
0.0000

> <Gold.Chemscore.DEClash.Weighted>
0.0038

> <Gold.Chemscore.DEInternal.Weighted>
0.4207

> <Gold.Chemscore.Rot.Weighted>
6.9748

> <Gold.Chemscore.Internal.Correction.Weighted>
   9.000000E+99

> <Gold.Protein.RotatedTorsions>
[ 6907 6896 6895 6894 ] final   56.55 input  -60.11 | X-H torsion
[ 7974 7965 7964 7962 ] final   27.10 input  175.53 | X-H torsion
[ 8008 7997 7996 7995 ] final  124.60 input   59.86 | X-H torsion
[ 10167 10162 10161 10158 ] final -160.71 input  -65.29 | X-H torsion
[ 10718 10713 10712 10709 ] final -174.20 input   66.30 | X-H torsion
[ 10763 10752 10751 10750 ] final -150.63 input  -60.55 | X-H torsion
[ 11005 11000 10999 10996 ] final   36.29 input  -57.11 | X-H torsion

> <Gold.Protein.ActiveResidues>
 VAL166  LYS551  ARG553  GLY616  TRP617  ASP618  TYR619  PRO620  LYS621  CYS622 
 ASP623  PHE694  ASN695  SER759  ASP760  ASP761  ALA762  ILE779  LEU786  VAL792 
 PHE793  MET794  SER795  GLU796  ALA797  LYS798  CYS799  TRP800  GLU811  SER814 

> <Gold.Protein.RotatedAtoms>
  152.3647  134.6821  160.0195 H   0  0  0  0  0  0  0  0  0  0  0  0  # atno 6907 bound_to 6896
  151.7133  133.3307  159.3304 H   0  0  0  0  0  0  0  0  0  0  0  0  # atno 6908 bound_to 6896
  150.7630  134.6447  159.6300 H   0  0  0  0  0  0  0  0  0  0  0  0  # atno 6909 bound_to 6896
  146.1802  139.7238  142.8905 H   0  0  0  0  0  0  0  0  0  0  0  0  # atno 7974 bound_to 7965
  156.2807  140.2736  156.1814 H   0  0  0  0  0  0  0  0  0  0  0  0  # atno 8008 bound_to 7997
  155.0552  140.0386  157.2575 H   0  0  0  0  0  0  0  0  0  0  0  0  # atno 8009 bound_to 7997
  154.7162  140.2678  155.6589 H   0  0  0  0  0  0  0  0  0  0  0  0  # atno 8010 bound_to 7997
  139.6519  144.0068  152.2167 H   0  0  0  0  0  0  0  0  0  0  0  0  # atno 10167 bound_to 10162
  156.7815  130.9485  151.3120 H   0  0  0  0  0  0  0  0  0  0  0  0  # atno 10718 bound_to 10713
  154.8107  135.3279  154.7312 H   0  0  0  0  0  0  0  0  0  0  0  0  # atno 10763 bound_to 10752
  153.7962  135.6907  153.4867 H   0  0  0  0  0  0  0  0  0  0  0  0  # atno 10764 bound_to 10752
  153.1884  135.4560  155.0064 H   0  0  0  0  0  0  0  0  0  0  0  0  # atno 10765 bound_to 10752
  140.2341  134.3493  155.7952 H   0  0  0  0  0  0  0  0  0  0  0  0  # atno 11005 bound_to 11000
  145.4096  141.0395  143.3024 LP  0  0  0  0  0  0  0  0  0  0  0  0  # atno 17320 bound_to 7965
  144.8303  139.5640  143.6947 LP  0  0  0  0  0  0  0  0  0  0  0  0  # atno 17321 bound_to 7965
  139.9785  144.6445  150.7923 LP  0  0  0  0  0  0  0  0  0  0  0  0  # atno 17342 bound_to 10162
  140.7541  143.3022  151.3052 LP  0  0  0  0  0  0  0  0  0  0  0  0  # atno 17343 bound_to 10162
  157.6644  130.8994  149.9899 LP  0  0  0  0  0  0  0  0  0  0  0  0  # atno 17370 bound_to 10713
  156.1215  130.3646  149.9880 LP  0  0  0  0  0  0  0  0  0  0  0  0  # atno 17371 bound_to 10713
  141.2216  133.7261  156.8779 LP  0  0  0  0  0  0  0  0  0  0  0  0  # atno 17394 bound_to 11000
  140.1721  134.9093  157.2845 LP  0  0  0  0  0  0  0  0  0  0  0  0  # atno 17395 bound_to 11000

$$$$
