AV-unprocessed.smi:2110|AV-procd|sdf|8608|dock9
  -GOLD-   2272011353D 1   1.00000     0.00000
 Structure written by MMmdl.
 46 47  0  0  0  0  0  0  0  0  1 V2000
  142.9818  138.8513  155.6195 C   0  0  0  0  0  0  0  0  0  0  0  0
  143.3274  137.3867  155.3056 C   0  0  0  0  0  0  0  0  0  0  0  0
  143.3224  137.0890  153.8595 N   0  0  0  0  0  0  0  0  0  0  0  0
  142.0894  137.4144  153.1166 C   0  0  0  0  0  0  0  0  0  0  0  0
  140.8911  136.5496  153.5347 C   0  0  0  0  0  0  0  0  0  0  0  0
  144.8162  136.8319  153.0076 S   0  0  0  0  0  0  0  0  0  0  0  0
  145.7804  136.1816  153.9081 O   0  0  0  0  0  0  0  0  0  0  0  0
  144.5268  136.2705  151.6791 O   0  0  0  0  0  0  0  0  0  0  0  0
  145.3041  138.4670  152.7951 N   0  0  0  0  0  0  0  0  0  0  0  0
  146.6180  138.8014  152.2508 C   0  0  0  0  0  0  0  0  0  0  0  0
  147.4616  139.6971  153.1462 C   0  0  0  0  0  0  0  0  0  0  0  0
  147.0884  141.0433  153.3248 C   0  0  0  0  0  0  0  0  0  0  0  0
  147.8839  141.8587  154.1509 C   0  0  0  0  0  0  0  0  0  0  0  0
  148.9870  141.4142  154.7880 N   0  0  0  0  0  0  0  0  0  0  0  0
  149.3547  140.1187  154.6319 C   0  0  0  0  0  0  0  0  0  0  0  0
  150.5030  139.6589  155.3114 N   0  0  0  0  0  0  0  0  0  0  0  0
  151.1247  140.6248  156.2142 C   0  0  0  0  0  0  0  0  0  0  0  0
  152.1607  139.9277  157.1124 C   0  0  0  0  0  0  0  0  0  0  0  0
  153.1076  139.2335  156.3072 O   0  0  0  0  0  0  0  0  0  0  0  0
  152.4914  138.2218  155.5172 C   0  0  0  0  0  0  0  0  0  0  0  0
  151.4708  138.8616  154.5610 C   0  0  0  0  0  0  0  0  0  0  0  0
  148.6201  139.2318  153.8101 C   0  0  0  0  0  0  0  0  0  0  0  0
  142.9156  139.0043  156.6966 H   0  0  0  0  0  0  0  0  0  0  0  0
  142.0280  139.1506  155.1869 H   0  0  0  0  0  0  0  0  0  0  0  0
  143.7463  139.5319  155.2457 H   0  0  0  0  0  0  0  0  0  0  0  0
  144.3146  137.1540  155.7051 H   0  0  0  0  0  0  0  0  0  0  0  0
  142.6292  136.7250  155.8193 H   0  0  0  0  0  0  0  0  0  0  0  0
  141.8474  138.4674  153.2580 H   0  0  0  0  0  0  0  0  0  0  0  0
  142.2760  137.2911  152.0493 H   0  0  0  0  0  0  0  0  0  0  0  0
  139.9945  136.8586  152.9974 H   0  0  0  0  0  0  0  0  0  0  0  0
  140.6781  136.6399  154.5989 H   0  0  0  0  0  0  0  0  0  0  0  0
  141.0548  135.4968  153.3065 H   0  0  0  0  0  0  0  0  0  0  0  0
  144.5542  139.1282  152.5965 H   0  0  0  0  0  0  0  0  0  0  0  0
  147.1605  137.8774  152.0483 H   0  0  0  0  0  0  0  0  0  0  0  0
  146.4819  139.3072  151.2942 H   0  0  0  0  0  0  0  0  0  0  0  0
  146.2130  141.4463  152.8369 H   0  0  0  0  0  0  0  0  0  0  0  0
  147.6266  142.8960  154.3054 H   0  0  0  0  0  0  0  0  0  0  0  0
  151.6098  141.3994  155.6191 H   0  0  0  0  0  0  0  0  0  0  0  0
  150.3887  141.1240  156.8427 H   0  0  0  0  0  0  0  0  0  0  0  0
  152.6856  140.6645  157.7204 H   0  0  0  0  0  0  0  0  0  0  0  0
  151.6743  139.2348  157.8010 H   0  0  0  0  0  0  0  0  0  0  0  0
  153.2594  137.6971  154.9492 H   0  0  0  0  0  0  0  0  0  0  0  0
  152.0117  137.4838  156.1622 H   0  0  0  0  0  0  0  0  0  0  0  0
  150.9598  138.0785  153.9993 H   0  0  0  0  0  0  0  0  0  0  0  0
  151.9843  139.4996  153.8402 H   0  0  0  0  0  0  0  0  0  0  0  0
  148.9557  138.2141  153.6844 H   0  0  0  0  0  0  0  0  0  0  0  0
  1  2  1  0  0  0  0
  1 23  1  0  0  0  0
  1 24  1  0  0  0  0
  1 25  1  0  0  0  0
  2  3  1  0  0  0  0
  2 26  1  0  0  0  0
  2 27  1  0  0  0  0
  3  4  1  0  0  0  0
  3  6  1  0  0  0  0
  4  5  1  0  0  0  0
  4 28  1  0  0  0  0
  4 29  1  0  0  0  0
  5 30  1  0  0  0  0
  5 31  1  0  0  0  0
  5 32  1  0  0  0  0
  6  7  2  0  0  0  0
  6  8  2  0  0  0  0
  6  9  1  0  0  0  0
  9 10  1  0  0  0  0
  9 33  1  0  0  0  0
 10 11  1  0  0  0  0
 10 34  1  0  0  0  0
 10 35  1  0  0  0  0
 11 22  1  0  0  0  0
 11 12  2  0  0  0  0
 12 13  1  0  0  0  0
 12 36  1  0  0  0  0
 13 14  2  0  0  0  0
 13 37  1  0  0  0  0
 14 15  1  0  0  0  0
 15 16  1  0  0  0  0
 15 22  2  0  0  0  0
 16 21  1  0  0  0  0
 16 17  1  0  0  0  0
 17 18  1  0  0  0  0
 17 38  1  0  0  0  0
 17 39  1  0  0  0  0
 18 19  1  0  0  0  0
 18 40  1  0  0  0  0
 18 41  1  0  0  0  0
 19 20  1  0  0  0  0
 20 21  1  0  0  0  0
 20 42  1  0  0  0  0
 20 43  1  0  0  0  0
 21 44  1  0  0  0  0
 21 45  1  0  0  0  0
 22 46  1  0  0  0  0
M  END
> <s_m_source_file>
AV-unprocessed.smi

> <i_m_source_file_index>
2110

> <i_lp_mmshare_version>
43012

> <i_f3d_flags>
0

> <s_epik_input>
W0NIM11bQ0gyXU4oW0NIMl1bQ0gzXSlTKD1PKSg9TylbTkhdW0NIMl1jMVtjSF1bY0hdbmMoW2NIXTEpTjJbQ0gyXVtDSDJdT1tDSDJdW0NIMl0y

> <s_epik_cmdline>
J2VwaWtfcHl0aG9uJywgJy1waCcsICc3LjAnLCAnLXRuJywgJzgnLCAnLW1hJywgJzIwMCcsICctbWV0YWxfYmluZGluZycsICctaW1hZScsICc8aW5maWxlLm1hZT4nLCAnLW9tYWUnLCAnPG91dGZpbGUubWFlPic=

> <r_lp_tautomer_probability>
1

> <r_epik_Ionization_Penalty>
0.0503757

> <r_epik_Ionization_Penalty_Charging>
0

> <r_epik_Ionization_Penalty_Neutral>
0.0503757

> <r_epik_State_Penalty>
0.0467666

> <r_epik_Charging_Adjusted_Penalty>
0.0467666

> <i_epik_Tot_Q>
0

> <i_epik_Tot_abs_Q>
0

> <r_epik_Metal_State_Penalty>
0.311919

> <b_epik_Metal_Only>
0

> <s_lp_Force_Field>
OPLS_2005

> <r_lp_Energy>
13.6867

> <b_lp_Chiralities_Consistent>
1

> <s_lp_Variant>
AV-unprocessed.smi:2110-1

> <Gold.Version>
5.8.1

> <Gold.Id.Protein>
6NUR|6NUR_protein|mol2

> <Gold.PLP.Fitness>
43.2006

> <Gold.PLP.PLP>
-34.8231

> <Gold.PLP.part.hbond>
-2.0429

> <Gold.PLP.part.metal>
0.0000

> <Gold.PLP.part.buried>
-3.0815

> <Gold.PLP.part.nonpolar>
-30.5394

> <Gold.PLP.part.repulsive>
0.9370

> <Gold.PLP.ligand.clash>
0.0000

> <Gold.PLP.ligand.torsion>
2.0567

> <Gold.PLP.Chemscore.Hbond>
2.0000

> <Gold.PLP.Chemscore.CHOScore>
0.9510

> <Gold.PLP.Chemscore.Metal>
0.0000

> <Gold.Chemscore.Hbonds>
donor molecule, donor type, donor heavy atom, donor atom, acceptor molecule, acceptor atom, score
      L1  H     9    33       P1 10175  1.00
      P1  H  7997  8008       L1    19  0.96
      L1  C    13    37       P1  8028  0.94

> <Gold.PLP.Chemscore.Internal.Correction>
3.6378

> <Gold.Rescore>
     Score         DG    S(hbond)    S(metal)    S(lipo)     H(rot)  DE(clash)    DE(int)     intcor
     14.35     -16.51       1.96        0.00      75.88       1.72       0.10       2.06       ----

> <Gold.Chemscore.Fitness>
14.3466

> <Gold.Chemscore.DG>
-16.5065

> <Gold.Chemscore.ZeroCoef>
-5.4800

> <Gold.Chemscore.Hbond>
1.9598

> <Gold.Chemscore.Metal>
0.0000

> <Gold.Chemscore.Lipo>
75.8807

> <Gold.Chemscore.Internal_Hbond>
0.0000

> <Gold.Chemscore.DEClash>
0.0987

> <Gold.Chemscore.DEInternal>
2.0612

> <Gold.Chemscore.Rot>
1.7177

> <Gold.Chemscore.Internal.Correction>
   9.000000E+99

> <Gold.Chemscore.Hbonds>
donor molecule, donor type, donor heavy atom, donor atom, acceptor molecule, acceptor atom, score
      L1  H     9    33       P1 10175  0.98
      P1  H  7997  8008       L1    19  0.40

> <Gold.Chemscore.Hbond.Weighted>
-6.5458

> <Gold.Chemscore.Metal.Weighted>
-0.0000

> <Gold.Chemscore.Lipo.Weighted>
-8.8780

> <Gold.Chemscore.Internal_Hbond.Weighted>
0.0000

> <Gold.Chemscore.DEClash.Weighted>
0.0987

> <Gold.Chemscore.DEInternal.Weighted>
2.0612

> <Gold.Chemscore.Rot.Weighted>
4.3974

> <Gold.Chemscore.Internal.Correction.Weighted>
   9.000000E+99

> <Gold.Protein.RotatedTorsions>
[ 6907 6896 6895 6894 ] final   64.34 input  -60.11 | X-H torsion
[ 7974 7965 7964 7962 ] final  103.72 input  175.53 | X-H torsion
[ 8008 7997 7996 7995 ] final  -44.15 input   59.86 | X-H torsion
[ 10167 10162 10161 10158 ] final  -99.80 input  -65.29 | X-H torsion
[ 10718 10713 10712 10709 ] final  160.44 input   66.30 | X-H torsion
[ 10763 10752 10751 10750 ] final  -59.81 input  -60.55 | X-H torsion
[ 11005 11000 10999 10996 ] final  165.85 input  -57.11 | X-H torsion

> <Gold.Protein.ActiveResidues>
 VAL166  LYS551  ARG553  GLY616  TRP617  ASP618  TYR619  PRO620  LYS621  CYS622 
 ASP623  PHE694  ASN695  SER759  ASP760  ASP761  ALA762  ILE779  LEU786  VAL792 
 PHE793  MET794  SER795  GLU796  ALA797  LYS798  CYS799  TRP800  GLU811  SER814 

> <Gold.Protein.RotatedAtoms>
  152.4324  134.5752  159.9932 H   0  0  0  0  0  0  0  0  0  0  0  0  # atno 6907 bound_to 6896
  151.5871  133.3365  159.3028 H   0  0  0  0  0  0  0  0  0  0  0  0  # atno 6908 bound_to 6896
  150.8218  134.7466  159.6844 H   0  0  0  0  0  0  0  0  0  0  0  0  # atno 6909 bound_to 6896
  145.3423  139.2459  143.3603 H   0  0  0  0  0  0  0  0  0  0  0  0  # atno 7974 bound_to 7965
  154.3997  140.1429  156.3636 H   0  0  0  0  0  0  0  0  0  0  0  0  # atno 8008 bound_to 7997
  155.8158  140.3471  155.5463 H   0  0  0  0  0  0  0  0  0  0  0  0  # atno 8009 bound_to 7997
  155.8339  140.0916  157.1766 H   0  0  0  0  0  0  0  0  0  0  0  0  # atno 8010 bound_to 7997
  140.2587  143.3422  152.0646 H   0  0  0  0  0  0  0  0  0  0  0  0  # atno 10167 bound_to 10162
  157.1504  131.0562  151.2283 H   0  0  0  0  0  0  0  0  0  0  0  0  # atno 10718 bound_to 10713
  154.2594  135.6311  153.5269 H   0  0  0  0  0  0  0  0  0  0  0  0  # atno 10763 bound_to 10752
  152.9898  135.5584  154.5720 H   0  0  0  0  0  0  0  0  0  0  0  0  # atno 10764 bound_to 10752
  154.5266  135.2885  155.1192 H   0  0  0  0  0  0  0  0  0  0  0  0  # atno 10765 bound_to 10752
  140.2604  134.7906  157.3585 H   0  0  0  0  0  0  0  0  0  0  0  0  # atno 11005 bound_to 11000
  146.3002  140.4022  142.8707 LP  0  0  0  0  0  0  0  0  0  0  0  0  # atno 17320 bound_to 7965
  144.8781  140.7364  143.6004 LP  0  0  0  0  0  0  0  0  0  0  0  0  # atno 17321 bound_to 7965
  139.5023  144.6733  151.6190 LP  0  0  0  0  0  0  0  0  0  0  0  0  # atno 17342 bound_to 10162
  140.5983  143.9655  150.6369 LP  0  0  0  0  0  0  0  0  0  0  0  0  # atno 17343 bound_to 10162
  157.4226  130.7446  149.6925 LP  0  0  0  0  0  0  0  0  0  0  0  0  # atno 17370 bound_to 10713
  155.9771  130.4066  150.3731 LP  0  0  0  0  0  0  0  0  0  0  0  0  # atno 17371 bound_to 10713
  140.1470  134.4898  155.7989 LP  0  0  0  0  0  0  0  0  0  0  0  0  # atno 17394 bound_to 11000
  141.2191  133.6847  156.7311 LP  0  0  0  0  0  0  0  0  0  0  0  0  # atno 17395 bound_to 11000

$$$$
