AV-unprocessed.smi:2001|AV-procd|sdf|8110|dock4
  -GOLD-   2272010343D 1   1.00000     0.00000
 Structure written by MMmdl.
 50 51  0  0  0  0  0  0  0  0  3 V2000
  147.1332  141.8020  157.4834 C   0  0  0  0  0  0  0  0  0  0  0  0
  147.5416  140.7046  158.2799 O   0  0  0  0  0  0  0  0  0  0  0  0
  148.1027  139.6522  157.5127 C   0  0  0  0  0  0  0  0  0  0  0  0
  149.3871  140.1363  156.8205 C   0  0  0  0  0  0  0  0  0  0  0  0
  150.0084  139.0767  156.0177 N   0  0  0  0  0  0  0  0  0  0  0  0
  149.4050  137.8383  156.1610 N   0  0  0  0  0  0  0  0  0  0  0  0
  149.8494  136.8121  155.5097 C   0  0  0  0  0  0  0  0  0  0  0  0
  149.2081  135.4682  155.6778 C   0  0  0  0  0  0  0  0  0  0  0  0
  148.6051  135.3015  156.7470 O   0  0  0  0  0  0  0  0  0  0  0  0
  149.3298  134.5444  154.6773 N   0  5  0  0  0  0  0  0  0  0  0  0
  148.7204  133.2162  154.6739 C   0  0  0  0  0  0  0  0  0  0  0  0
  149.1517  132.4575  153.4041 C   0  0  0  0  0  0  0  0  0  0  0  0
  147.9894  131.9182  152.6488 N   0  3  1  0  0  0  0  0  0  0  0  0
  147.1899  130.9507  153.4388 C   0  0  0  0  0  0  0  0  0  0  0  0
  146.0412  130.3575  152.5992 C   0  0  2  0  0  0  0  0  0  0  0  0
  146.5108  129.3324  151.5519 C   0  0  0  0  0  0  0  0  0  0  0  0
  145.2599  131.4019  152.0194 O   0  0  0  0  0  0  0  0  0  0  0  0
  145.9954  132.3288  151.2248 C   0  0  1  0  0  0  0  0  0  0  0  0
  145.0102  133.3730  150.6880 C   0  0  0  0  0  0  0  0  0  0  0  0
  147.1040  132.9670  152.0797 C   0  0  0  0  0  0  0  0  0  0  0  0
  150.9870  136.9476  154.6079 C   0  0  0  0  0  0  0  0  0  0  0  0
  151.5645  138.1618  154.4781 C   0  0  0  0  0  0  0  0  0  0  0  0
  151.0821  139.3322  155.2113 C   0  0  0  0  0  0  0  0  0  0  0  0
  151.5967  140.4458  155.1108 O   0  0  0  0  0  0  0  0  0  0  0  0
  146.7218  142.5835  158.1218 H   0  0  0  0  0  0  0  0  0  0  0  0
  146.3615  141.5069  156.7716 H   0  0  0  0  0  0  0  0  0  0  0  0
  147.9746  142.2250  156.9337 H   0  0  0  0  0  0  0  0  0  0  0  0
  148.3408  138.8154  158.1708 H   0  0  0  0  0  0  0  0  0  0  0  0
  147.3848  139.2897  156.7750 H   0  0  0  0  0  0  0  0  0  0  0  0
  149.1821  141.0257  156.2221 H   0  0  0  0  0  0  0  0  0  0  0  0
  150.0965  140.4637  157.5824 H   0  0  0  0  0  0  0  0  0  0  0  0
  149.0089  132.6297  155.5472 H   0  0  0  0  0  0  0  0  0  0  0  0
  147.6317  133.2739  154.7009 H   0  0  0  0  0  0  0  0  0  0  0  0
  149.7087  133.1516  152.7724 H   0  0  0  0  0  0  0  0  0  0  0  0
  149.8453  131.6503  153.6470 H   0  0  0  0  0  0  0  0  0  0  0  0
  147.8291  130.1481  153.8097 H   0  0  0  0  0  0  0  0  0  0  0  0
  146.7823  131.4605  154.3133 H   0  0  0  0  0  0  0  0  0  0  0  0
  145.3744  129.8272  153.2799 H   0  0  0  0  0  0  0  0  0  0  0  0
  146.9841  128.4771  152.0345 H   0  0  0  0  0  0  0  0  0  0  0  0
  147.2367  129.7530  150.8565 H   0  0  0  0  0  0  0  0  0  0  0  0
  145.6679  128.9573  150.9708 H   0  0  0  0  0  0  0  0  0  0  0  0
  146.4394  131.8146  150.3721 H   0  0  0  0  0  0  0  0  0  0  0  0
  145.5179  134.1071  150.0619 H   0  0  0  0  0  0  0  0  0  0  0  0
  144.5197  133.9087  151.5014 H   0  0  0  0  0  0  0  0  0  0  0  0
  144.2342  132.9019  150.0842 H   0  0  0  0  0  0  0  0  0  0  0  0
  146.6665  133.5529  152.8897 H   0  0  0  0  0  0  0  0  0  0  0  0
  147.6834  133.6579  151.4664 H   0  0  0  0  0  0  0  0  0  0  0  0
  151.3719  136.1093  154.0465 H   0  0  0  0  0  0  0  0  0  0  0  0
  152.4071  138.2738  153.8121 H   0  0  0  0  0  0  0  0  0  0  0  0
  148.3775  131.3995  151.8738 H   0  0  0  0  0  0  0  0  0  0  0  0
  1  2  1  0  0  0  0
  1 25  1  0  0  0  0
  1 26  1  0  0  0  0
  1 27  1  0  0  0  0
  2  3  1  0  0  0  0
  3  4  1  0  0  0  0
  3 28  1  0  0  0  0
  3 29  1  0  0  0  0
  4  5  1  0  0  0  0
  4 30  1  0  0  0  0
  4 31  1  0  0  0  0
  5 23  1  0  0  0  0
  5  6  1  0  0  0  0
  6  7  2  0  0  0  0
  7  8  1  0  0  0  0
  7 21  1  0  0  0  0
  8  9  2  0  0  0  0
  8 10  1  0  0  0  0
 10 11  1  0  0  0  0
 11 12  1  0  0  0  0
 11 32  1  0  0  0  0
 11 33  1  0  0  0  0
 12 13  1  0  0  0  0
 12 34  1  0  0  0  0
 12 35  1  0  0  0  0
 13 20  1  0  0  0  0
 13 14  1  0  0  0  0
 13 50  1  0  0  0  0
 14 15  1  0  0  0  0
 14 36  1  0  0  0  0
 14 37  1  0  0  0  0
 15 16  1  0  0  0  0
 15 17  1  0  0  0  0
 15 38  1  0  0  0  0
 16 39  1  0  0  0  0
 16 40  1  0  0  0  0
 16 41  1  0  0  0  0
 17 18  1  0  0  0  0
 18 19  1  0  0  0  0
 18 20  1  0  0  0  0
 18 42  1  0  0  0  0
 19 43  1  0  0  0  0
 19 44  1  0  0  0  0
 19 45  1  0  0  0  0
 20 46  1  0  0  0  0
 20 47  1  0  0  0  0
 21 22  2  0  0  0  0
 21 48  1  0  0  0  0
 22 23  1  0  0  0  0
 22 49  1  0  0  0  0
 23 24  2  0  0  0  0
M  CHG  1  10  -1
M  CHG  1  13   1
M  END
> <s_m_source_file>
AV-unprocessed.smi

> <i_m_source_file_index>
2001

> <i_lp_mmshare_version>
43012

> <i_f3d_flags>
0

> <s_epik_input>
W0NIM11PW0NIMl1bQ0gyXW4xbmMoW2NIXVtjSF1jMT1PKUMoPU8pW05IXVtDSDJdW0NIMl1OMltDSDJdW0NAQEhdKFtDSDNdKU9bQ0BASF0oW0NIM10pW0NIMl0y

> <s_epik_cmdline>
J2VwaWtfcHl0aG9uJywgJy1waCcsICc3LjAnLCAnLXRuJywgJzgnLCAnLW1hJywgJzIwMCcsICctbWV0YWxfYmluZGluZycsICctaW1hZScsICc8aW5maWxlLm1hZT4nLCAnLW9tYWUnLCAnPG91dGZpbGUubWFlPic=

> <r_lp_tautomer_probability>
1

> <r_epik_Ionization_Penalty>
6.90846

> <r_epik_Ionization_Penalty_Charging>
6.90846

> <r_epik_Ionization_Penalty_Neutral>
1.08445e-11

> <r_epik_State_Penalty>
7.54671

> <r_epik_Charging_Adjusted_Penalty>
14.4552

> <i_epik_Tot_Q>
0

> <i_epik_Tot_abs_Q>
2

> <r_epik_Metal_State_Penalty>
3.46181

> <b_epik_Metal_Only>
1

> <s_lp_Force_Field>
OPLS_2005

> <r_lp_Energy>
44.3308

> <b_lp_Chiralities_Consistent>
1

> <s_lp_Variant>
AV-unprocessed.smi:2001-9

> <Gold.Version>
5.8.1

> <Gold.Id.Protein>
6NUR|6NUR_protein|mol2

> <Gold.PLP.Fitness>
39.5622

> <Gold.PLP.PLP>
-34.9549

> <Gold.PLP.part.hbond>
-3.0000

> <Gold.PLP.part.metal>
0.0000

> <Gold.PLP.part.buried>
-5.5383

> <Gold.PLP.part.nonpolar>
-27.2819

> <Gold.PLP.part.repulsive>
0.3702

> <Gold.PLP.ligand.clash>
0.0000

> <Gold.PLP.ligand.torsion>
0.6734

> <Gold.PLP.Chemscore.Hbond>
1.8640

> <Gold.PLP.Chemscore.CHOScore>
0.0000

> <Gold.PLP.Chemscore.Metal>
0.0000

> <Gold.Chemscore.Hbonds>
donor molecule, donor type, donor heavy atom, donor atom, acceptor molecule, acceptor atom, score
      L1  H    13    50       P1 10747  1.00
      P1  H  7989  7998       L1    24  0.86

> <Gold.PLP.Chemscore.Internal.Correction>
0.3621

> <Gold.Rescore>
     Score         DG    S(hbond)    S(metal)    S(lipo)     H(rot)  DE(clash)    DE(int)     intcor
     15.75     -16.51       1.96        0.00      82.60       2.02       0.07       0.69       ----

> <Gold.Chemscore.Fitness>
15.7520

> <Gold.Chemscore.DG>
-16.5111

> <Gold.Chemscore.ZeroCoef>
-5.4800

> <Gold.Chemscore.Hbond>
1.9560

> <Gold.Chemscore.Metal>
0.0000

> <Gold.Chemscore.Lipo>
82.5979

> <Gold.Chemscore.Internal_Hbond>
0.0000

> <Gold.Chemscore.DEClash>
0.0657

> <Gold.Chemscore.DEInternal>
0.6933

> <Gold.Chemscore.Rot>
2.0179

> <Gold.Chemscore.Internal.Correction>
   9.000000E+99

> <Gold.Chemscore.Hbonds>
donor molecule, donor type, donor heavy atom, donor atom, acceptor molecule, acceptor atom, score
      L1  H    13    50       P1 10747  1.00
      P1  H  7989  7998       L1    24  0.63

> <Gold.Chemscore.Hbond.Weighted>
-6.5330

> <Gold.Chemscore.Metal.Weighted>
-0.0000

> <Gold.Chemscore.Lipo.Weighted>
-9.6640

> <Gold.Chemscore.Internal_Hbond.Weighted>
0.0000

> <Gold.Chemscore.DEClash.Weighted>
0.0657

> <Gold.Chemscore.DEInternal.Weighted>
0.6933

> <Gold.Chemscore.Rot.Weighted>
5.1659

> <Gold.Chemscore.Internal.Correction.Weighted>
   9.000000E+99

> <Gold.Protein.RotatedTorsions>
[ 6907 6896 6895 6894 ] final  109.35 input  -60.11 | X-H torsion
[ 7974 7965 7964 7962 ] final  136.69 input  175.53 | X-H torsion
[ 8008 7997 7996 7995 ] final  132.84 input   59.86 | X-H torsion
[ 10167 10162 10161 10158 ] final   52.90 input  -65.29 | X-H torsion
[ 10718 10713 10712 10709 ] final   23.71 input   66.30 | X-H torsion
[ 10763 10752 10751 10750 ] final  -47.30 input  -60.55 | X-H torsion
[ 11005 11000 10999 10996 ] final  -52.10 input  -57.11 | X-H torsion

> <Gold.Protein.ActiveResidues>
 VAL166  LYS551  ARG553  GLY616  TRP617  ASP618  TYR619  PRO620  LYS621  CYS622 
 ASP623  PHE694  ASN695  SER759  ASP760  ASP761  ALA762  ILE779  LEU786  VAL792 
 PHE793  MET794  SER795  GLU796  ALA797  LYS798  CYS799  TRP800  GLU811  SER814 

> <Gold.Protein.RotatedAtoms>
  152.5071  133.8957  159.7415 H   0  0  0  0  0  0  0  0  0  0  0  0  # atno 6907 bound_to 6896
  150.9385  133.6675  159.2802 H   0  0  0  0  0  0  0  0  0  0  0  0  # atno 6908 bound_to 6896
  151.3995  135.0973  159.9604 H   0  0  0  0  0  0  0  0  0  0  0  0  # atno 6909 bound_to 6896
  144.9540  139.4786  143.5512 H   0  0  0  0  0  0  0  0  0  0  0  0  # atno 7974 bound_to 7965
  156.2986  140.2536  156.3155 H   0  0  0  0  0  0  0  0  0  0  0  0  # atno 8008 bound_to 7997
  154.9286  140.0399  157.2055 H   0  0  0  0  0  0  0  0  0  0  0  0  # atno 8009 bound_to 7997
  154.8241  140.2865  155.5771 H   0  0  0  0  0  0  0  0  0  0  0  0  # atno 8010 bound_to 7997
  140.2465  144.3526  150.6362 H   0  0  0  0  0  0  0  0  0  0  0  0  # atno 10167 bound_to 10162
  157.1698  130.6754  149.6074 H   0  0  0  0  0  0  0  0  0  0  0  0  # atno 10718 bound_to 10713
  154.0591  135.6620  153.4809 H   0  0  0  0  0  0  0  0  0  0  0  0  # atno 10763 bound_to 10752
  153.0434  135.5130  154.7677 H   0  0  0  0  0  0  0  0  0  0  0  0  # atno 10764 bound_to 10752
  154.6707  135.3029  154.9712 H   0  0  0  0  0  0  0  0  0  0  0  0  # atno 10765 bound_to 10752
  141.0906  133.6633  156.3975 H   0  0  0  0  0  0  0  0  0  0  0  0  # atno 11005 bound_to 11000
  146.3331  139.8645  142.8850 LP  0  0  0  0  0  0  0  0  0  0  0  0  # atno 17320 bound_to 7965
  145.2800  141.0136  143.3723 LP  0  0  0  0  0  0  0  0  0  0  0  0  # atno 17321 bound_to 7965
  140.6073  143.2168  151.6955 LP  0  0  0  0  0  0  0  0  0  0  0  0  # atno 17342 bound_to 10162
  139.5060  144.3697  152.0482 LP  0  0  0  0  0  0  0  0  0  0  0  0  # atno 17343 bound_to 10162
  155.9740  130.4683  150.6355 LP  0  0  0  0  0  0  0  0  0  0  0  0  # atno 17370 bound_to 10713
  157.4054  131.0816  151.1270 LP  0  0  0  0  0  0  0  0  0  0  0  0  # atno 17371 bound_to 10713
  140.5260  134.6259  157.5334 LP  0  0  0  0  0  0  0  0  0  0  0  0  # atno 17394 bound_to 11000
  139.9732  134.7259  156.0001 LP  0  0  0  0  0  0  0  0  0  0  0  0  # atno 17395 bound_to 11000

$$$$
