AV-unprocessed.smi:1936|AV-procd|sdf|7831|dock7
  -GOLD-   22720 9573D 1   1.00000     0.00000
 Structure written by MMmdl.
 39 40  0  0  0  0  0  0  0  0  2 V2000
  147.1284  139.5133  154.7978 C   0  0  0  0  0  0  0  0  0  0  0  0
  147.8029  139.5017  153.4193 C   0  0  2  0  0  0  0  0  0  0  0  0
  146.8223  139.0371  152.3190 C   0  0  0  0  0  0  0  0  0  0  0  0
  146.5333  137.5815  152.3736 N   0  3  0  0  0  0  0  0  0  0  0  0
  145.6970  137.1989  153.5350 C   0  0  0  0  0  0  0  0  0  0  0  0
  145.5029  135.6732  153.5710 C   0  0  0  0  0  0  0  0  0  0  0  0
  144.9242  135.2346  152.3479 O   0  0  0  0  0  0  0  0  0  0  0  0
  145.7546  135.5257  151.2301 C   0  0  0  0  0  0  0  0  0  0  0  0
  145.9522  137.0465  151.1182 C   0  0  0  0  0  0  0  0  0  0  0  0
  148.9860  138.6429  153.4774 N   0  0  0  0  0  0  0  0  0  0  0  0
  150.1141  138.8931  154.1632 C   0  0  0  0  0  0  0  0  0  0  0  0
  150.3067  139.9347  154.7894 O   0  0  0  0  0  0  0  0  0  0  0  0
  151.2034  137.8174  154.1194 C   0  0  0  0  0  0  0  0  0  0  0  0
  150.8707  136.6713  154.9490 N   0  0  0  0  0  0  0  0  0  0  0  0
  149.7408  135.8807  154.9062 C   0  0  0  0  0  0  0  0  0  0  0  0
  149.8720  134.9309  155.8783 C   0  0  0  0  0  0  0  0  0  0  0  0
  151.1330  135.2235  156.4691 C   0  0  0  0  0  0  0  0  0  0  0  0
  151.7289  136.2643  155.9099 N   0  0  0  0  0  0  0  0  0  0  0  0
  146.2640  140.1780  154.8053 H   0  0  0  0  0  0  0  0  0  0  0  0
  147.8163  139.8615  155.5691 H   0  0  0  0  0  0  0  0  0  0  0  0
  146.7843  138.5183  155.0825 H   0  0  0  0  0  0  0  0  0  0  0  0
  148.1145  140.5268  153.2141 H   0  0  0  0  0  0  0  0  0  0  0  0
  145.8905  139.5919  152.4415 H   0  0  0  0  0  0  0  0  0  0  0  0
  147.2004  139.2973  151.3290 H   0  0  0  0  0  0  0  0  0  0  0  0
  146.1727  137.5283  154.4595 H   0  0  0  0  0  0  0  0  0  0  0  0
  144.7299  137.7008  153.4724 H   0  0  0  0  0  0  0  0  0  0  0  0
  146.4529  135.1636  153.7411 H   0  0  0  0  0  0  0  0  0  0  0  0
  144.8423  135.3977  154.3932 H   0  0  0  0  0  0  0  0  0  0  0  0
  146.7137  135.0145  151.3289 H   0  0  0  0  0  0  0  0  0  0  0  0
  145.2798  135.1409  150.3273 H   0  0  0  0  0  0  0  0  0  0  0  0
  144.9959  137.5326  150.9188 H   0  0  0  0  0  0  0  0  0  0  0  0
  146.6041  137.2659  150.2731 H   0  0  0  0  0  0  0  0  0  0  0  0
  148.9240  137.7600  152.9905 H   0  0  0  0  0  0  0  0  0  0  0  0
  151.3435  137.4832  153.0908 H   0  0  0  0  0  0  0  0  0  0  0  0
  152.1559  138.2313  154.4545 H   0  0  0  0  0  0  0  0  0  0  0  0
  148.9457  136.0584  154.1968 H   0  0  0  0  0  0  0  0  0  0  0  0
  149.1743  134.1459  156.1296 H   0  0  0  0  0  0  0  0  0  0  0  0
  151.6299  134.7145  157.2822 H   0  0  0  0  0  0  0  0  0  0  0  0
  147.4233  137.1210  152.5035 H   0  0  0  0  0  0  0  0  0  0  0  0
  1  2  1  0  0  0  0
  1 19  1  0  0  0  0
  1 20  1  0  0  0  0
  1 21  1  0  0  0  0
  2  3  1  0  0  0  0
  2 10  1  0  0  0  0
  2 22  1  0  0  0  0
  3  4  1  0  0  0  0
  3 23  1  0  0  0  0
  3 24  1  0  0  0  0
  4  9  1  0  0  0  0
  4  5  1  0  0  0  0
  4 39  1  0  0  0  0
  5  6  1  0  0  0  0
  5 25  1  0  0  0  0
  5 26  1  0  0  0  0
  6  7  1  0  0  0  0
  6 27  1  0  0  0  0
  6 28  1  0  0  0  0
  7  8  1  0  0  0  0
  8  9  1  0  0  0  0
  8 29  1  0  0  0  0
  8 30  1  0  0  0  0
  9 31  1  0  0  0  0
  9 32  1  0  0  0  0
 10 11  1  0  0  0  0
 10 33  1  0  0  0  0
 11 12  2  0  0  0  0
 11 13  1  0  0  0  0
 13 14  1  0  0  0  0
 13 34  1  0  0  0  0
 13 35  1  0  0  0  0
 14 18  1  0  0  0  0
 14 15  1  0  0  0  0
 15 16  2  0  0  0  0
 15 36  1  0  0  0  0
 16 17  1  0  0  0  0
 16 37  1  0  0  0  0
 17 18  2  0  0  0  0
 17 38  1  0  0  0  0
M  CHG  1   4   1
M  END
> <s_m_source_file>
AV-unprocessed.smi

> <i_m_source_file_index>
1936

> <i_lp_mmshare_version>
43012

> <i_f3d_flags>
0

> <s_epik_input>
W0NIMl0xW0NIMl1PW0NIMl1bQ0gyXU4xW0NIMl1bQ0BASF0oW0NIM10pW05IXUMoPU8pW0NIMl1uMltjSF1bY0hdW2NIXW4y

> <s_epik_cmdline>
J2VwaWtfcHl0aG9uJywgJy1waCcsICc3LjAnLCAnLXRuJywgJzgnLCAnLW1hJywgJzIwMCcsICctbWV0YWxfYmluZGluZycsICctaW1hZScsICc8aW5maWxlLm1hZT4nLCAnLW9tYWUnLCAnPG91dGZpbGUubWFlPic=

> <r_lp_tautomer_probability>
1

> <r_epik_Ionization_Penalty>
0.748405

> <r_epik_Ionization_Penalty_Charging>
0.748396

> <r_epik_Ionization_Penalty_Neutral>
9.02181e-06

> <r_epik_State_Penalty>
0.775162

> <r_epik_Charging_Adjusted_Penalty>
1.52356

> <i_epik_Tot_Q>
1

> <i_epik_Tot_abs_Q>
1

> <r_epik_Metal_State_Penalty>
0.775167

> <b_epik_Metal_Only>
0

> <s_lp_Force_Field>
OPLS_2005

> <r_lp_Energy>
23.0503

> <b_lp_Chiralities_Consistent>
1

> <s_lp_Variant>
AV-unprocessed.smi:1936-3

> <Gold.Version>
5.8.1

> <Gold.Id.Protein>
6NUR|6NUR_protein|mol2

> <Gold.PLP.Fitness>
43.7299

> <Gold.PLP.PLP>
-26.6044

> <Gold.PLP.part.hbond>
-5.0000

> <Gold.PLP.part.metal>
0.0000

> <Gold.PLP.part.buried>
1.9920

> <Gold.PLP.part.nonpolar>
-23.3869

> <Gold.PLP.part.repulsive>
0.2977

> <Gold.PLP.ligand.clash>
0.0001

> <Gold.PLP.ligand.torsion>
0.4644

> <Gold.PLP.Chemscore.Hbond>
5.0000

> <Gold.PLP.Chemscore.CHOScore>
0.9993

> <Gold.PLP.Chemscore.Metal>
0.0000

> <Gold.Chemscore.Hbonds>
donor molecule, donor type, donor heavy atom, donor atom, acceptor molecule, acceptor atom, score
      L1  H     4    39       P1  7948  2.00
      L1  H    10    33       P1  7948  1.00
      P1  H  7989  7998       L1    12  0.85
      P1  H 10752 10765       L1    18  1.00
      L1  C    15    36       P1  7948  1.00

> <Gold.PLP.Chemscore.Internal.Correction>
0.0563

> <Gold.Rescore>
     Score         DG    S(hbond)    S(metal)    S(lipo)     H(rot)  DE(clash)    DE(int)     intcor
     14.92     -20.80       3.73        0.00      66.91       1.93       5.08       0.80       ----

> <Gold.Chemscore.Fitness>
14.9192

> <Gold.Chemscore.DG>
-20.8002

> <Gold.Chemscore.ZeroCoef>
-5.4800

> <Gold.Chemscore.Hbond>
3.7255

> <Gold.Chemscore.Metal>
0.0000

> <Gold.Chemscore.Lipo>
66.9076

> <Gold.Chemscore.Internal_Hbond>
0.0000

> <Gold.Chemscore.DEClash>
5.0810

> <Gold.Chemscore.DEInternal>
0.8000

> <Gold.Chemscore.Rot>
1.9340

> <Gold.Chemscore.Internal.Correction>
   9.000000E+99

> <Gold.Chemscore.Hbonds>
donor molecule, donor type, donor heavy atom, donor atom, acceptor molecule, acceptor atom, score
      L1  H     4    39       P1  7948  0.96
      L1  H    10    33       P1  7948  1.00
      P1  H  7989  7998       L1    12  0.19
      P1  H 10752 10765       L1    18  0.22

> <Gold.Chemscore.Hbond.Weighted>
-12.4431

> <Gold.Chemscore.Metal.Weighted>
-0.0000

> <Gold.Chemscore.Lipo.Weighted>
-7.8282

> <Gold.Chemscore.Internal_Hbond.Weighted>
0.0000

> <Gold.Chemscore.DEClash.Weighted>
5.0810

> <Gold.Chemscore.DEInternal.Weighted>
0.8000

> <Gold.Chemscore.Rot.Weighted>
4.9510

> <Gold.Chemscore.Internal.Correction.Weighted>
   9.000000E+99

> <Gold.Protein.RotatedTorsions>
[ 6907 6896 6895 6894 ] final  -33.97 input  -60.11 | X-H torsion
[ 7974 7965 7964 7962 ] final   80.74 input  175.53 | X-H torsion
[ 8008 7997 7996 7995 ] final  -10.94 input   59.86 | X-H torsion
[ 10167 10162 10161 10158 ] final  -54.25 input  -65.29 | X-H torsion
[ 10718 10713 10712 10709 ] final -112.11 input   66.30 | X-H torsion
[ 10763 10752 10751 10750 ] final -141.64 input  -60.55 | X-H torsion
[ 11005 11000 10999 10996 ] final -116.99 input  -57.11 | X-H torsion

> <Gold.Protein.ActiveResidues>
 VAL166  LYS551  ARG553  GLY616  TRP617  ASP618  TYR619  PRO620  LYS621  CYS622 
 ASP623  PHE694  ASN695  SER759  ASP760  ASP761  ALA762  ILE779  LEU786  VAL792 
 PHE793  MET794  SER795  GLU796  ALA797  LYS798  CYS799  TRP800  GLU811  SER814 

> <Gold.Protein.RotatedAtoms>
  151.0587  134.9722  159.8248 H   0  0  0  0  0  0  0  0  0  0  0  0  # atno 6907 bound_to 6896
  152.5392  134.2445  159.8885 H   0  0  0  0  0  0  0  0  0  0  0  0  # atno 6908 bound_to 6896
  151.2464  133.4329  159.2643 H   0  0  0  0  0  0  0  0  0  0  0  0  # atno 6909 bound_to 6896
  145.6473  139.2439  143.1997 H   0  0  0  0  0  0  0  0  0  0  0  0  # atno 7974 bound_to 7965
  154.5509  140.2315  155.8487 H   0  0  0  0  0  0  0  0  0  0  0  0  # atno 8008 bound_to 7997
  156.1945  140.3068  155.9361 H   0  0  0  0  0  0  0  0  0  0  0  0  # atno 8009 bound_to 7997
  155.3073  140.0434  157.3023 H   0  0  0  0  0  0  0  0  0  0  0  0  # atno 8010 bound_to 7997
  140.6441  143.2524  151.4909 H   0  0  0  0  0  0  0  0  0  0  0  0  # atno 10167 bound_to 10162
  156.0686  130.5903  150.8464 H   0  0  0  0  0  0  0  0  0  0  0  0  # atno 10718 bound_to 10713
  154.8538  135.3518  154.5900 H   0  0  0  0  0  0  0  0  0  0  0  0  # atno 10763 bound_to 10752
  153.6510  135.6994  153.5214 H   0  0  0  0  0  0  0  0  0  0  0  0  # atno 10764 bound_to 10752
  153.2894  135.4239  155.1111 H   0  0  0  0  0  0  0  0  0  0  0  0  # atno 10765 bound_to 10752
  141.0385  133.9872  157.3033 H   0  0  0  0  0  0  0  0  0  0  0  0  # atno 11005 bound_to 11000
  146.1233  140.7281  142.9447 LP  0  0  0  0  0  0  0  0  0  0  0  0  # atno 17320 bound_to 7965
  144.7135  140.4127  143.7062 LP  0  0  0  0  0  0  0  0  0  0  0  0  # atno 17321 bound_to 7965
  139.5650  144.2063  152.1751 LP  0  0  0  0  0  0  0  0  0  0  0  0  # atno 17342 bound_to 10162
  140.1342  144.5260  150.6783 LP  0  0  0  0  0  0  0  0  0  0  0  0  # atno 17343 bound_to 10162
  157.5743  131.0946  150.9369 LP  0  0  0  0  0  0  0  0  0  0  0  0  # atno 17370 bound_to 10713
  156.9578  130.5444  149.5285 LP  0  0  0  0  0  0  0  0  0  0  0  0  # atno 17371 bound_to 10713
  139.9258  135.0201  156.8229 LP  0  0  0  0  0  0  0  0  0  0  0  0  # atno 17394 bound_to 11000
  140.6278  133.9934  155.7648 LP  0  0  0  0  0  0  0  0  0  0  0  0  # atno 17395 bound_to 11000

$$$$
