AV-unprocessed.smi:496|AV-procd|sdf|2723|dock2
  -GOLD-   2262023173D 1   1.00000     0.00000
 Structure written by MMmdl.
 42 44  0  0  0  0  0  0  0  0  3 V2000
  153.9853  138.4415  159.8068 C   0  0  0  0  0  0  0  0  0  0  0  0
  154.3618  139.5986  159.0813 O   0  0  0  0  0  0  0  0  0  0  0  0
  153.6175  140.7416  159.4648 C   0  0  0  0  0  0  0  0  0  0  0  0
  152.1411  140.5124  159.1191 C   0  0  0  0  0  0  0  0  0  0  0  0
  151.5211  141.7231  158.5464 N   0  0  0  0  0  0  0  0  0  0  0  0
  150.8044  141.9229  157.3927 C   0  0  0  0  0  0  0  0  0  0  0  0
  150.4164  140.9149  156.3422 C   0  0  1  0  0  0  0  0  0  0  0  0
  150.2466  139.5277  156.9789 C   0  0  0  0  0  0  0  0  0  0  0  0
  149.1730  141.2997  155.6713 N   0  5  0  0  0  0  0  0  0  0  0  0
  147.9567  141.3696  156.2823 C   0  0  0  0  0  0  0  0  0  0  0  0
  147.5915  140.9037  157.3668 O   0  0  0  0  0  0  0  0  0  0  0  0
  146.9681  142.1285  155.4799 C   0  0  0  0  0  0  0  0  0  0  0  0
  146.9689  142.4384  154.1455 C   0  0  0  0  0  0  0  0  0  0  0  0
  145.7865  143.1886  153.8959 C   0  0  0  0  0  0  0  0  0  0  0  0
  145.1423  143.2836  155.0955 C   0  0  0  0  0  0  0  0  0  0  0  0
  145.8458  142.6456  156.0693 O   0  0  0  0  0  0  0  0  0  0  0  0
  150.4731  143.2461  157.3581 N   0  3  0  0  0  0  0  0  0  0  0  0
  150.9911  143.9027  158.4722 C   0  0  0  0  0  0  0  0  0  0  0  0
  150.9224  145.2384  158.8549 C   0  0  0  0  0  0  0  0  0  0  0  0
  151.5715  145.5854  160.0575 C   0  0  0  0  0  0  0  0  0  0  0  0
  152.2548  144.6216  160.8269 C   0  0  0  0  0  0  0  0  0  0  0  0
  152.3166  143.2701  160.4277 C   0  0  0  0  0  0  0  0  0  0  0  0
  151.6694  142.9334  159.2382 C   0  0  0  0  0  0  0  0  0  0  0  0
  154.5752  137.5891  159.4701 H   0  0  0  0  0  0  0  0  0  0  0  0
  152.9319  138.2038  159.6533 H   0  0  0  0  0  0  0  0  0  0  0  0
  154.1629  138.5720  160.8752 H   0  0  0  0  0  0  0  0  0  0  0  0
  153.7339  140.9185  160.5353 H   0  0  0  0  0  0  0  0  0  0  0  0
  153.9893  141.6248  158.9425 H   0  0  0  0  0  0  0  0  0  0  0  0
  152.0419  139.6986  158.4004 H   0  0  0  0  0  0  0  0  0  0  0  0
  151.5762  140.2016  159.9979 H   0  0  0  0  0  0  0  0  0  0  0  0
  151.2478  140.8569  155.6382 H   0  0  0  0  0  0  0  0  0  0  0  0
  151.1660  139.2107  157.4723 H   0  0  0  0  0  0  0  0  0  0  0  0
  150.0026  138.7755  156.2278 H   0  0  0  0  0  0  0  0  0  0  0  0
  149.4514  139.5236  157.7256 H   0  0  0  0  0  0  0  0  0  0  0  0
  147.7318  142.1589  153.4340 H   0  0  0  0  0  0  0  0  0  0  0  0
  145.4507  143.6050  152.9580 H   0  0  0  0  0  0  0  0  0  0  0  0
  144.2213  143.7455  155.4190 H   0  0  0  0  0  0  0  0  0  0  0  0
  150.4018  145.9772  158.2633 H   0  0  0  0  0  0  0  0  0  0  0  0
  151.5468  146.6114  160.3949 H   0  0  0  0  0  0  0  0  0  0  0  0
  152.7426  144.9246  161.7420 H   0  0  0  0  0  0  0  0  0  0  0  0
  152.8458  142.5418  161.0237 H   0  0  0  0  0  0  0  0  0  0  0  0
  149.9443  143.6593  156.6006 H   0  0  0  0  0  0  0  0  0  0  0  0
  1  2  1  0  0  0  0
  1 24  1  0  0  0  0
  1 25  1  0  0  0  0
  1 26  1  0  0  0  0
  2  3  1  0  0  0  0
  3  4  1  0  0  0  0
  3 27  1  0  0  0  0
  3 28  1  0  0  0  0
  4  5  1  0  0  0  0
  4 29  1  0  0  0  0
  4 30  1  0  0  0  0
  5 23  1  0  0  0  0
  5  6  1  0  0  0  0
  6  7  1  0  0  0  0
  6 17  2  0  0  0  0
  7  8  1  0  0  0  0
  7  9  1  0  0  0  0
  7 31  1  0  0  0  0
  8 32  1  0  0  0  0
  8 33  1  0  0  0  0
  8 34  1  0  0  0  0
  9 10  1  0  0  0  0
 10 11  2  0  0  0  0
 10 12  1  0  0  0  0
 12 16  1  0  0  0  0
 12 13  2  0  0  0  0
 13 14  1  0  0  0  0
 13 35  1  0  0  0  0
 14 15  2  0  0  0  0
 14 36  1  0  0  0  0
 15 16  1  0  0  0  0
 15 37  1  0  0  0  0
 17 18  1  0  0  0  0
 17 42  1  0  0  0  0
 18 23  2  0  0  0  0
 18 19  1  0  0  0  0
 19 20  2  0  0  0  0
 19 38  1  0  0  0  0
 20 21  1  0  0  0  0
 20 39  1  0  0  0  0
 21 22  2  0  0  0  0
 21 40  1  0  0  0  0
 22 23  1  0  0  0  0
 22 41  1  0  0  0  0
M  CHG  1   9  -1
M  CHG  1  17   1
M  END
> <s_m_source_file>
AV-unprocessed.smi

> <i_m_source_file_index>
496

> <i_lp_mmshare_version>
43012

> <i_f3d_flags>
0

> <s_epik_input>
W2NIXTFbY0hdW2NIXVtjSF1jKGMxMiluKFtDSDJdW0NIMl1PW0NIM10pYyhuMilbQ0BIXShbQ0gzXSlbTkhdQyg9TyljM1tjSF1bY0hdW2NIXW8z

> <s_epik_cmdline>
J2VwaWtfcHl0aG9uJywgJy1waCcsICc3LjAnLCAnLXRuJywgJzgnLCAnLW1hJywgJzIwMCcsICctbWV0YWxfYmluZGluZycsICctaW1hZScsICc8aW5maWxlLm1hZT4nLCAnLW9tYWUnLCAnPG91dGZpbGUubWFlPic=

> <r_epik_Ionization_Penalty>
6.2189

> <r_epik_Ionization_Penalty_Charging>
6.2189

> <r_epik_Ionization_Penalty_Neutral>
2.56052e-12

> <r_epik_State_Penalty>
7.14475

> <r_epik_Charging_Adjusted_Penalty>
13.3636

> <i_epik_Tot_Q>
0

> <i_epik_Tot_abs_Q>
2

> <r_epik_Metal_State_Penalty>
3.17915

> <b_epik_Metal_Only>
1

> <s_lp_Force_Field>
OPLS_2005

> <r_lp_Energy>
11.4028

> <b_lp_Chiralities_Consistent>
1

> <s_lp_Variant>
AV-unprocessed.smi:496-8

> <Gold.Version>
5.8.1

> <Gold.Id.Protein>
6NUR|6NUR_protein|mol2

> <Gold.PLP.Fitness>
54.0260

> <Gold.PLP.PLP>
-47.4715

> <Gold.PLP.part.hbond>
-2.0000

> <Gold.PLP.part.metal>
0.0000

> <Gold.PLP.part.buried>
-8.1572

> <Gold.PLP.part.nonpolar>
-38.2149

> <Gold.PLP.part.repulsive>
0.2597

> <Gold.PLP.ligand.clash>
0.0000

> <Gold.PLP.ligand.torsion>
1.3525

> <Gold.PLP.Chemscore.Hbond>
3.0000

> <Gold.PLP.Chemscore.CHOScore>
0.0000

> <Gold.PLP.Chemscore.Metal>
0.0000

> <Gold.Chemscore.Hbonds>
donor molecule, donor type, donor heavy atom, donor atom, acceptor molecule, acceptor atom, score
      L1  H    17    42       P1  8028  2.00
      P1  H  7997  8009       L1     2  1.00

> <Gold.PLP.Chemscore.Internal.Correction>
0.2594

> <Gold.Rescore>
     Score         DG    S(hbond)    S(metal)    S(lipo)     H(rot)  DE(clash)    DE(int)     intcor
     18.98     -21.09       1.91        0.00     118.91       1.83       0.02       2.10       ----

> <Gold.Chemscore.Fitness>
18.9751

> <Gold.Chemscore.DG>
-21.0927

> <Gold.Chemscore.ZeroCoef>
-5.4800

> <Gold.Chemscore.Hbond>
1.9148

> <Gold.Chemscore.Metal>
0.0000

> <Gold.Chemscore.Lipo>
118.9133

> <Gold.Chemscore.Internal_Hbond>
0.0000

> <Gold.Chemscore.DEClash>
0.0155

> <Gold.Chemscore.DEInternal>
2.1021

> <Gold.Chemscore.Rot>
1.8343

> <Gold.Chemscore.Internal.Correction>
   9.000000E+99

> <Gold.Chemscore.Hbonds>
donor molecule, donor type, donor heavy atom, donor atom, acceptor molecule, acceptor atom, score
      L1  H    17    42       P1  8028  1.00
      P1  H  7997  8009       L1     2  0.44

> <Gold.Chemscore.Hbond.Weighted>
-6.3956

> <Gold.Chemscore.Metal.Weighted>
-0.0000

> <Gold.Chemscore.Lipo.Weighted>
-13.9129

> <Gold.Chemscore.Internal_Hbond.Weighted>
0.0000

> <Gold.Chemscore.DEClash.Weighted>
0.0155

> <Gold.Chemscore.DEInternal.Weighted>
2.1021

> <Gold.Chemscore.Rot.Weighted>
4.6958

> <Gold.Chemscore.Internal.Correction.Weighted>
   9.000000E+99

> <Gold.Protein.RotatedTorsions>
[ 6907 6896 6895 6894 ] final    0.04 input  -60.11 | X-H torsion
[ 7974 7965 7964 7962 ] final  -75.19 input  175.53 | X-H torsion
[ 8008 7997 7996 7995 ] final  128.65 input   59.86 | X-H torsion
[ 10167 10162 10161 10158 ] final  115.53 input  -65.29 | X-H torsion
[ 10718 10713 10712 10709 ] final -121.36 input   66.30 | X-H torsion
[ 10763 10752 10751 10750 ] final  -96.20 input  -60.55 | X-H torsion
[ 11005 11000 10999 10996 ] final   73.44 input  -57.11 | X-H torsion

> <Gold.Protein.ActiveResidues>
 VAL166  LYS551  ARG553  GLY616  TRP617  ASP618  TYR619  PRO620  LYS621  CYS622 
 ASP623  PHE694  ASN695  SER759  ASP760  ASP761  ALA762  ILE779  LEU786  VAL792 
 PHE793  MET794  SER795  GLU796  ALA797  LYS798  CYS799  TRP800  GLU811  SER814 

> <Gold.Protein.RotatedAtoms>
  151.5699  135.1063  159.9992 H   0  0  0  0  0  0  0  0  0  0  0  0  # atno 6907 bound_to 6896
  152.4406  133.7436  159.6665 H   0  0  0  0  0  0  0  0  0  0  0  0  # atno 6908 bound_to 6896
  150.8310  133.8022  159.3122 H   0  0  0  0  0  0  0  0  0  0  0  0  # atno 6909 bound_to 6896
  145.6293  140.9342  143.1095 H   0  0  0  0  0  0  0  0  0  0  0  0  # atno 7974 bound_to 7965
  156.2919  140.2639  156.2470 H   0  0  0  0  0  0  0  0  0  0  0  0  # atno 8008 bound_to 7997
  154.9920  140.0388  157.2342 H   0  0  0  0  0  0  0  0  0  0  0  0  # atno 8009 bound_to 7997
  154.7677  140.2772  155.6167 H   0  0  0  0  0  0  0  0  0  0  0  0  # atno 8010 bound_to 7997
  139.6311  144.7115  151.2431 H   0  0  0  0  0  0  0  0  0  0  0  0  # atno 10167 bound_to 10162
  156.1331  130.6410  150.9653 H   0  0  0  0  0  0  0  0  0  0  0  0  # atno 10718 bound_to 10713
  154.7218  135.5092  153.8824 H   0  0  0  0  0  0  0  0  0  0  0  0  # atno 10763 bound_to 10752
  153.0869  135.6648  153.9940 H   0  0  0  0  0  0  0  0  0  0  0  0  # atno 10764 bound_to 10752
  153.9761  135.3033  155.3403 H   0  0  0  0  0  0  0  0  0  0  0  0  # atno 10765 bound_to 10752
  139.9440  134.7347  156.1027 H   0  0  0  0  0  0  0  0  0  0  0  0  # atno 11005 bound_to 11000
  144.7200  139.8064  143.7385 LP  0  0  0  0  0  0  0  0  0  0  0  0  # atno 17320 bound_to 7965
  146.1369  139.4417  143.0133 LP  0  0  0  0  0  0  0  0  0  0  0  0  # atno 17321 bound_to 7965
  140.7439  143.6479  150.8275 LP  0  0  0  0  0  0  0  0  0  0  0  0  # atno 17342 bound_to 10162
  140.0104  143.5649  152.2841 LP  0  0  0  0  0  0  0  0  0  0  0  0  # atno 17343 bound_to 10162
  157.6507  131.0897  150.8057 LP  0  0  0  0  0  0  0  0  0  0  0  0  # atno 17370 bound_to 10713
  156.8140  130.4962  149.5352 LP  0  0  0  0  0  0  0  0  0  0  0  0  # atno 17371 bound_to 10713
  141.1084  133.6652  156.2920 LP  0  0  0  0  0  0  0  0  0  0  0  0  # atno 17394 bound_to 11000
  140.5881  134.5678  157.5494 LP  0  0  0  0  0  0  0  0  0  0  0  0  # atno 17395 bound_to 11000

$$$$
