AV-unprocessed.smi:1240|AV-procd|sdf|5214|dock3
  -GOLD-   22720 4313D 1   1.00000     0.00000
 Structure written by MMmdl.
 48 50  0  0  0  0  0  0  0  0  4 V2000
  148.9148  140.8224  157.9133 O   0  0  0  0  0  0  0  0  0  0  0  0
  149.0660  141.3836  156.8222 C   0  0  0  0  0  0  0  0  0  0  0  0
  148.4000  141.1364  155.6627 N   0  5  0  0  0  0  0  0  0  0  0  0
  149.0056  141.1095  154.3299 C   0  0  0  0  0  0  0  0  0  0  0  0
  149.4737  139.6592  153.9524 C   0  0  1  0  0  0  0  0  0  0  0  0
  150.4906  139.0195  154.9550 C   0  0  1  0  0  0  0  0  0  0  0  0
  151.4499  138.0278  154.3119 C   0  0  0  0  0  0  0  0  0  0  0  0
  152.5429  137.8983  155.3649 C   0  0  0  0  0  0  0  0  0  0  0  0
  152.6419  139.1839  155.9620 O   0  0  0  0  0  0  0  0  0  0  0  0
  151.5092  139.9717  155.6084 C   0  0  0  0  0  0  0  0  0  0  0  0
  148.3475  138.6930  153.6953 N   0  3  0  0  0  0  0  0  0  0  0  0
  147.7964  137.9316  154.8522 C   0  0  0  0  0  0  0  0  0  0  0  0
  146.8839  136.8035  154.3451 C   0  0  0  0  0  0  0  0  0  0  0  0
  145.8495  137.3510  153.5357 O   0  0  0  0  0  0  0  0  0  0  0  0
  146.3610  138.0109  152.3835 C   0  0  0  0  0  0  0  0  0  0  0  0
  147.2574  139.1846  152.8108 C   0  0  0  0  0  0  0  0  0  0  0  0
  149.9896  142.3510  156.6778 N   0  0  0  0  0  0  0  0  0  0  0  0
  150.9087  142.8565  157.6361 C   0  0  0  0  0  0  0  0  0  0  0  0
  151.5273  144.0961  157.3619 C   0  0  0  0  0  0  0  0  0  0  0  0
  152.4361  144.6395  158.2921 C   0  0  0  0  0  0  0  0  0  0  0  0
  152.6972  143.9801  159.4413 N   0  3  0  0  0  0  0  0  0  0  0  0
  152.1144  142.8033  159.7565 C   0  0  0  0  0  0  0  0  0  0  0  0
  151.1970  142.2109  158.8649 C   0  0  0  0  0  0  0  0  0  0  0  0
  148.3121  141.4664  153.5685 H   0  0  0  0  0  0  0  0  0  0  0  0
  149.8624  141.7804  154.2630 H   0  0  0  0  0  0  0  0  0  0  0  0
  149.9975  139.7321  152.9975 H   0  0  0  0  0  0  0  0  0  0  0  0
  149.9599  138.4955  155.7527 H   0  0  0  0  0  0  0  0  0  0  0  0
  150.9880  137.0685  154.0774 H   0  0  0  0  0  0  0  0  0  0  0  0
  151.8653  138.4409  153.3915 H   0  0  0  0  0  0  0  0  0  0  0  0
  152.2493  137.1803  156.1314 H   0  0  0  0  0  0  0  0  0  0  0  0
  153.4956  137.5763  154.9437 H   0  0  0  0  0  0  0  0  0  0  0  0
  151.8370  140.7348  154.9011 H   0  0  0  0  0  0  0  0  0  0  0  0
  151.1055  140.4775  156.4860 H   0  0  0  0  0  0  0  0  0  0  0  0
  148.6005  137.5039  155.4500 H   0  0  0  0  0  0  0  0  0  0  0  0
  147.2220  138.5882  155.5071 H   0  0  0  0  0  0  0  0  0  0  0  0
  147.4549  136.0660  153.7784 H   0  0  0  0  0  0  0  0  0  0  0  0
  146.4330  136.2779  155.1869 H   0  0  0  0  0  0  0  0  0  0  0  0
  146.9145  137.3049  151.7621 H   0  0  0  0  0  0  0  0  0  0  0  0
  145.5258  138.3749  151.7850 H   0  0  0  0  0  0  0  0  0  0  0  0
  146.6553  139.9340  153.3259 H   0  0  0  0  0  0  0  0  0  0  0  0
  147.6782  139.6627  151.9256 H   0  0  0  0  0  0  0  0  0  0  0  0
  150.1096  142.6929  155.7355 H   0  0  0  0  0  0  0  0  0  0  0  0
  151.3157  144.6224  156.4421 H   0  0  0  0  0  0  0  0  0  0  0  0
  152.9570  145.5753  158.1526 H   0  0  0  0  0  0  0  0  0  0  0  0
  152.3927  142.3755  160.7086 H   0  0  0  0  0  0  0  0  0  0  0  0
  150.7234  141.2807  159.1404 H   0  0  0  0  0  0  0  0  0  0  0  0
  148.7967  137.9843  153.1341 H   0  0  0  0  0  0  0  0  0  0  0  0
  153.3585  144.3901  160.1011 H   0  0  0  0  0  0  0  0  0  0  0  0
  1  2  2  0  0  0  0
  2  3  1  0  0  0  0
  2 17  1  0  0  0  0
  3  4  1  0  0  0  0
  4  5  1  0  0  0  0
  4 24  1  0  0  0  0
  4 25  1  0  0  0  0
  5  6  1  0  0  0  0
  5 11  1  0  0  0  0
  5 26  1  0  0  0  0
  6 10  1  0  0  0  0
  6  7  1  0  0  0  0
  6 27  1  0  0  0  0
  7  8  1  0  0  0  0
  7 28  1  0  0  0  0
  7 29  1  0  0  0  0
  8  9  1  0  0  0  0
  8 30  1  0  0  0  0
  8 31  1  0  0  0  0
  9 10  1  0  0  0  0
 10 32  1  0  0  0  0
 10 33  1  0  0  0  0
 11 16  1  0  0  0  0
 11 12  1  0  0  0  0
 11 47  1  0  0  0  0
 12 13  1  0  0  0  0
 12 34  1  0  0  0  0
 12 35  1  0  0  0  0
 13 14  1  0  0  0  0
 13 36  1  0  0  0  0
 13 37  1  0  0  0  0
 14 15  1  0  0  0  0
 15 16  1  0  0  0  0
 15 38  1  0  0  0  0
 15 39  1  0  0  0  0
 16 40  1  0  0  0  0
 16 41  1  0  0  0  0
 17 18  1  0  0  0  0
 17 42  1  0  0  0  0
 18 23  1  0  0  0  0
 18 19  2  0  0  0  0
 19 20  1  0  0  0  0
 19 43  1  0  0  0  0
 20 21  2  0  0  0  0
 20 44  1  0  0  0  0
 21 22  1  0  0  0  0
 21 48  1  0  0  0  0
 22 23  2  0  0  0  0
 22 45  1  0  0  0  0
 23 46  1  0  0  0  0
M  CHG  1   3  -1
M  CHG  1  11   1
M  CHG  1  21   1
M  END
> <s_m_source_file>
AV-unprocessed.smi

> <i_m_source_file_index>
1240

> <i_lp_mmshare_version>
43012

> <i_f3d_flags>
0

> <s_epik_input>
W2NIXTFbY0hdbltjSF1bY0hdYzFbTkhdQyg9TylbTkhdW0NIMl1bQ0BIXShbQ0BASF0yW0NIMl1bQ0gyXU9bQ0gyXTIpTjNbQ0gyXVtDSDJdT1tDSDJdW0NIMl0z

> <s_epik_cmdline>
J2VwaWtfcHl0aG9uJywgJy1waCcsICc3LjAnLCAnLXRuJywgJzgnLCAnLW1hJywgJzIwMCcsICctbWV0YWxfYmluZGluZycsICctaW1hZScsICc8aW5maWxlLm1hZT4nLCAnLW9tYWUnLCAnPG91dGZpbGUubWFlPic=

> <r_epik_Ionization_Penalty>
8.41087

> <r_epik_Ionization_Penalty_Charging>
8.41087

> <r_epik_Ionization_Penalty_Neutral>
3.12936e-06

> <r_epik_State_Penalty>
8.81894

> <r_epik_Charging_Adjusted_Penalty>
17.2298

> <i_epik_Tot_Q>
1

> <i_epik_Tot_abs_Q>
3

> <r_epik_Metal_State_Penalty>
4.82983

> <b_epik_Metal_Only>
1

> <s_lp_Force_Field>
OPLS_2005

> <r_lp_Energy>
49.5446

> <b_lp_Chiralities_Consistent>
1

> <s_lp_Variant>
AV-unprocessed.smi:1240-20

> <Gold.Version>
5.8.1

> <Gold.Id.Protein>
6NUR|6NUR_protein|mol2

> <Gold.PLP.Fitness>
47.0059

> <Gold.PLP.PLP>
-41.8308

> <Gold.PLP.part.hbond>
-3.4694

> <Gold.PLP.part.metal>
0.0000

> <Gold.PLP.part.buried>
1.1998

> <Gold.PLP.part.nonpolar>
-40.4664

> <Gold.PLP.part.repulsive>
0.3095

> <Gold.PLP.ligand.clash>
0.0000

> <Gold.PLP.ligand.torsion>
1.3395

> <Gold.PLP.Chemscore.Hbond>
2.4212

> <Gold.PLP.Chemscore.CHOScore>
0.0000

> <Gold.PLP.Chemscore.Metal>
0.0000

> <Gold.Chemscore.Hbonds>
donor molecule, donor type, donor heavy atom, donor atom, acceptor molecule, acceptor atom, score
      L1  H    11    47       P1  7948  1.40
      L1  H    17    42       P1  8028  0.02
      P1  H  7997  8010       L1     9  1.00

> <Gold.PLP.Chemscore.Internal.Correction>
0.5906

> <Gold.Rescore>
     Score         DG    S(hbond)    S(metal)    S(lipo)     H(rot)  DE(clash)    DE(int)     intcor
     16.01     -20.51       1.58        0.00     120.55       1.70       1.90       2.61       ----

> <Gold.Chemscore.Fitness>
16.0108

> <Gold.Chemscore.DG>
-20.5122

> <Gold.Chemscore.ZeroCoef>
-5.4800

> <Gold.Chemscore.Hbond>
1.5823

> <Gold.Chemscore.Metal>
0.0000

> <Gold.Chemscore.Lipo>
120.5545

> <Gold.Chemscore.Internal_Hbond>
0.0000

> <Gold.Chemscore.DEClash>
1.8961

> <Gold.Chemscore.DEInternal>
2.6053

> <Gold.Chemscore.Rot>
1.7021

> <Gold.Chemscore.Internal.Correction>
   9.000000E+99

> <Gold.Chemscore.Hbonds>
donor molecule, donor type, donor heavy atom, donor atom, acceptor molecule, acceptor atom, score
      L1  H    11    47       P1  7948  0.70
      L1  H    17    42       P1  8028  0.02
      P1  H  7997  8010       L1     9  0.92

> <Gold.Chemscore.Hbond.Weighted>
-5.2848

> <Gold.Chemscore.Metal.Weighted>
-0.0000

> <Gold.Chemscore.Lipo.Weighted>
-14.1049

> <Gold.Chemscore.Internal_Hbond.Weighted>
0.0000

> <Gold.Chemscore.DEClash.Weighted>
1.8961

> <Gold.Chemscore.DEInternal.Weighted>
2.6053

> <Gold.Chemscore.Rot.Weighted>
4.3575

> <Gold.Chemscore.Internal.Correction.Weighted>
   9.000000E+99

> <Gold.Protein.RotatedTorsions>
[ 6907 6896 6895 6894 ] final -142.34 input  -60.11 | X-H torsion
[ 7974 7965 7964 7962 ] final  -71.92 input  175.53 | X-H torsion
[ 8008 7997 7996 7995 ] final   88.16 input   59.86 | X-H torsion
[ 10167 10162 10161 10158 ] final  -36.31 input  -65.29 | X-H torsion
[ 10718 10713 10712 10709 ] final  176.50 input   66.30 | X-H torsion
[ 10763 10752 10751 10750 ] final    7.54 input  -60.55 | X-H torsion
[ 11005 11000 10999 10996 ] final -153.95 input  -57.11 | X-H torsion

> <Gold.Protein.ActiveResidues>
 VAL166  LYS551  ARG553  GLY616  TRP617  ASP618  TYR619  PRO620  LYS621  CYS622 
 ASP623  PHE694  ASN695  SER759  ASP760  ASP761  ALA762  ILE779  LEU786  VAL792 
 PHE793  MET794  SER795  GLU796  ALA797  LYS798  CYS799  TRP800  GLU811  SER814 

> <Gold.Protein.RotatedAtoms>
  151.0858  133.5354  159.2617 H   0  0  0  0  0  0  0  0  0  0  0  0  # atno 6907 bound_to 6896
  151.2240  135.0529  159.8971 H   0  0  0  0  0  0  0  0  0  0  0  0  # atno 6908 bound_to 6896
  152.5429  134.0656  159.8225 H   0  0  0  0  0  0  0  0  0  0  0  0  # atno 6909 bound_to 6896
  145.6719  140.9218  143.0878 H   0  0  0  0  0  0  0  0  0  0  0  0  # atno 7974 bound_to 7965
  155.9844  140.3374  155.6693 H   0  0  0  0  0  0  0  0  0  0  0  0  # atno 8008 bound_to 7997
  155.6505  140.0705  157.2606 H   0  0  0  0  0  0  0  0  0  0  0  0  # atno 8009 bound_to 7997
  154.4201  140.1726  156.1657 H   0  0  0  0  0  0  0  0  0  0  0  0  # atno 8010 bound_to 7997
  140.7145  143.3417  151.2342 H   0  0  0  0  0  0  0  0  0  0  0  0  # atno 10167 bound_to 10162
  156.9192  130.9935  151.3007 H   0  0  0  0  0  0  0  0  0  0  0  0  # atno 10718 bound_to 10713
  153.2352  135.6897  153.7845 H   0  0  0  0  0  0  0  0  0  0  0  0  # atno 10763 bound_to 10752
  153.6995  135.3300  155.3222 H   0  0  0  0  0  0  0  0  0  0  0  0  # atno 10764 bound_to 10752
  154.8331  135.4564  154.1252 H   0  0  0  0  0  0  0  0  0  0  0  0  # atno 10765 bound_to 10752
  140.7026  134.3920  157.5208 H   0  0  0  0  0  0  0  0  0  0  0  0  # atno 11005 bound_to 11000
  144.7054  139.8583  143.7431 LP  0  0  0  0  0  0  0  0  0  0  0  0  # atno 17320 bound_to 7965
  146.1038  139.4036  143.0330 LP  0  0  0  0  0  0  0  0  0  0  0  0  # atno 17321 bound_to 7965
  139.6927  143.9665  152.2867 LP  0  0  0  0  0  0  0  0  0  0  0  0  # atno 17342 bound_to 10162
  139.9332  144.6728  150.8341 LP  0  0  0  0  0  0  0  0  0  0  0  0  # atno 17343 bound_to 10162
  157.5918  130.8449  149.8671 LP  0  0  0  0  0  0  0  0  0  0  0  0  # atno 17370 bound_to 10713
  156.0499  130.3720  150.1227 LP  0  0  0  0  0  0  0  0  0  0  0  0  # atno 17371 bound_to 10713
  139.8893  134.8835  156.2430 LP  0  0  0  0  0  0  0  0  0  0  0  0  # atno 17394 bound_to 11000
  141.0151  133.7073  156.1175 LP  0  0  0  0  0  0  0  0  0  0  0  0  # atno 17395 bound_to 11000

$$$$
