AV-unprocessed.smi:1644|AV-procd|sdf|6586|dock2
  -GOLD-   22720 7273D 1   1.00000     0.00000
 Structure written by MMmdl.
 49 51  0  0  0  0  0  0  0  0  1 V2000
  142.6714  145.6853  155.2559 C   0  0  0  0  0  0  0  0  0  0  0  0
  143.2330  145.1058  156.5584 C   0  0  0  0  0  0  0  0  0  0  0  0
  144.5932  144.4088  156.3522 C   0  0  0  0  0  0  0  0  0  0  0  0
  144.5571  143.0877  155.5509 C   0  0  2  0  0  0  0  0  0  0  0  0
  144.8894  141.9246  156.3469 N   0  0  0  0  0  0  0  0  0  0  0  0
  145.9226  141.2368  155.8438 C   0  0  0  0  0  0  0  0  0  0  0  0
  146.3937  140.2131  156.3366 O   0  0  0  0  0  0  0  0  0  0  0  0
  146.3396  141.8513  154.7201 N   0  0  0  0  0  0  0  0  0  0  0  0
  147.4538  141.3836  153.8827 C   0  0  0  0  0  0  0  0  0  0  0  0
  148.6642  140.8305  154.6793 C   0  0  1  0  0  0  0  0  0  0  0  0
  149.2538  139.8066  153.9060 O   0  0  0  0  0  0  0  0  0  0  0  0
  149.7788  141.8439  155.0297 C   0  0  0  0  0  0  0  0  0  0  0  0
  150.7682  141.3461  155.9698 N   0  0  0  0  0  0  0  0  0  0  0  0
  151.5174  140.2346  155.8339 C   0  0  0  0  0  0  0  0  0  0  0  0
  152.3820  139.9591  156.8058 N   0  0  0  0  0  0  0  0  0  0  0  0
  152.1521  141.0012  157.6863 C   0  0  0  0  0  0  0  0  0  0  0  0
  152.7634  141.3053  158.9219 C   0  0  0  0  0  0  0  0  0  0  0  0
  152.3692  142.4398  159.6655 C   0  0  0  0  0  0  0  0  0  0  0  0
  153.0625  142.7369  160.9834 C   0  0  0  0  0  0  0  0  0  0  0  0
  151.3391  143.2839  159.1799 C   0  0  0  0  0  0  0  0  0  0  0  0
  150.8984  144.5095  159.9603 C   0  0  0  0  0  0  0  0  0  0  0  0
  150.7149  142.9921  157.9496 C   0  0  0  0  0  0  0  0  0  0  0  0
  151.1301  141.8724  157.2069 C   0  0  0  0  0  0  0  0  0  0  0  0
  145.6334  142.9675  154.4884 C   0  0  0  0  0  0  0  0  0  0  0  0
  145.7965  143.7813  153.5796 O   0  0  0  0  0  0  0  0  0  0  0  0
  141.7106  146.1708  155.4291 H   0  0  0  0  0  0  0  0  0  0  0  0
  142.5204  144.9045  154.5099 H   0  0  0  0  0  0  0  0  0  0  0  0
  143.3477  146.4282  154.8323 H   0  0  0  0  0  0  0  0  0  0  0  0
  143.3282  145.9101  157.2884 H   0  0  0  0  0  0  0  0  0  0  0  0
  142.5116  144.3993  156.9697 H   0  0  0  0  0  0  0  0  0  0  0  0
  145.2661  145.0999  155.8432 H   0  0  0  0  0  0  0  0  0  0  0  0
  145.0499  144.2183  157.3245 H   0  0  0  0  0  0  0  0  0  0  0  0
  143.5790  142.9439  155.0899 H   0  0  0  0  0  0  0  0  0  0  0  0
  144.3877  141.6705  157.1856 H   0  0  0  0  0  0  0  0  0  0  0  0
  147.0523  140.5954  153.2431 H   0  0  0  0  0  0  0  0  0  0  0  0
  147.7932  142.1632  153.1989 H   0  0  0  0  0  0  0  0  0  0  0  0
  148.3184  140.3442  155.5895 H   0  0  0  0  0  0  0  0  0  0  0  0
  149.0591  139.9685  152.9954 H   0  0  0  0  0  0  0  0  0  0  0  0
  150.3062  142.1443  154.1235 H   0  0  0  0  0  0  0  0  0  0  0  0
  149.3361  142.7510  155.4445 H   0  0  0  0  0  0  0  0  0  0  0  0
  151.4407  139.6036  154.9605 H   0  0  0  0  0  0  0  0  0  0  0  0
  153.5446  140.6586  159.2935 H   0  0  0  0  0  0  0  0  0  0  0  0
  152.3448  142.7243  161.8038 H   0  0  0  0  0  0  0  0  0  0  0  0
  153.5369  143.7179  160.9523 H   0  0  0  0  0  0  0  0  0  0  0  0
  153.8346  141.9990  161.2033 H   0  0  0  0  0  0  0  0  0  0  0  0
  150.0847  145.0308  159.4555 H   0  0  0  0  0  0  0  0  0  0  0  0
  151.7270  145.2094  160.0699 H   0  0  0  0  0  0  0  0  0  0  0  0
  150.5487  144.2262  160.9532 H   0  0  0  0  0  0  0  0  0  0  0  0
  149.9329  143.6324  157.5704 H   0  0  0  0  0  0  0  0  0  0  0  0
  1  2  1  0  0  0  0
  1 26  1  0  0  0  0
  1 27  1  0  0  0  0
  1 28  1  0  0  0  0
  2  3  1  0  0  0  0
  2 29  1  0  0  0  0
  2 30  1  0  0  0  0
  3  4  1  0  0  0  0
  3 31  1  0  0  0  0
  3 32  1  0  0  0  0
  4 24  1  0  0  0  0
  4  5  1  0  0  0  0
  4 33  1  0  0  0  0
  5  6  1  0  0  0  0
  5 34  1  0  0  0  0
  6  7  2  0  0  0  0
  6  8  1  0  0  0  0
  8  9  1  0  0  0  0
  8 24  1  0  0  0  0
  9 10  1  0  0  0  0
  9 35  1  0  0  0  0
  9 36  1  0  0  0  0
 10 11  1  0  0  0  0
 10 12  1  0  0  0  0
 10 37  1  0  0  0  0
 11 38  1  0  0  0  0
 12 13  1  0  0  0  0
 12 39  1  0  0  0  0
 12 40  1  0  0  0  0
 13 23  1  0  0  0  0
 13 14  1  0  0  0  0
 14 15  2  0  0  0  0
 14 41  1  0  0  0  0
 15 16  1  0  0  0  0
 16 23  2  0  0  0  0
 16 17  1  0  0  0  0
 17 18  2  0  0  0  0
 17 42  1  0  0  0  0
 18 19  1  0  0  0  0
 18 20  1  0  0  0  0
 19 43  1  0  0  0  0
 19 44  1  0  0  0  0
 19 45  1  0  0  0  0
 20 21  1  0  0  0  0
 20 22  2  0  0  0  0
 21 46  1  0  0  0  0
 21 47  1  0  0  0  0
 21 48  1  0  0  0  0
 22 23  1  0  0  0  0
 22 49  1  0  0  0  0
 24 25  2  0  0  0  0
M  END
> <s_m_source_file>
AV-unprocessed.smi

> <i_m_source_file_index>
1644

> <i_lp_mmshare_version>
43012

> <i_f3d_flags>
0

> <s_epik_input>
W0NIM11bQ0gyXVtDSDJdW0NAQEhdMVtOSF1DKD1PKU4oQzE9TylbQ0gyXVtDQEhdKFtPSF0pW0NIMl1uKFtjSF1uMiljKGMyMylbY0hdYyhbQ0gzXSljKFtjSF0zKVtDSDNd

> <s_epik_cmdline>
J2VwaWtfcHl0aG9uJywgJy1waCcsICc3LjAnLCAnLXRuJywgJzgnLCAnLW1hJywgJzIwMCcsICctbWV0YWxfYmluZGluZycsICctaW1hZScsICc8aW5maWxlLm1hZT4nLCAnLW9tYWUnLCAnPG91dGZpbGUubWFlPic=

> <r_lp_tautomer_probability>
1

> <r_epik_Ionization_Penalty>
0.10693

> <r_epik_Ionization_Penalty_Charging>
0

> <r_epik_Ionization_Penalty_Neutral>
0.10693

> <r_epik_State_Penalty>
0.096713

> <r_epik_Charging_Adjusted_Penalty>
0.096713

> <i_epik_Tot_Q>
0

> <i_epik_Tot_abs_Q>
0

> <r_epik_Metal_State_Penalty>
0.102757

> <b_epik_Metal_Only>
0

> <s_lp_Force_Field>
OPLS_2005

> <r_lp_Energy>
20.4665

> <b_lp_Chiralities_Consistent>
1

> <s_lp_Variant>
AV-unprocessed.smi:1644-3

> <Gold.Version>
5.8.1

> <Gold.Id.Protein>
6NUR|6NUR_protein|mol2

> <Gold.PLP.Fitness>
51.9452

> <Gold.PLP.PLP>
-48.4870

> <Gold.PLP.part.hbond>
-2.9839

> <Gold.PLP.part.metal>
0.0000

> <Gold.PLP.part.buried>
-4.5453

> <Gold.PLP.part.nonpolar>
-39.4763

> <Gold.PLP.part.repulsive>
0.2357

> <Gold.PLP.ligand.clash>
0.0000

> <Gold.PLP.ligand.torsion>
1.4592

> <Gold.PLP.Chemscore.Hbond>
2.0000

> <Gold.PLP.Chemscore.CHOScore>
0.0000

> <Gold.PLP.Chemscore.Metal>
0.0000

> <Gold.Chemscore.Hbonds>
donor molecule, donor type, donor heavy atom, donor atom, acceptor molecule, acceptor atom, score
      L1  H    11    38       P1  7957  1.00
      P1  H  7997  8009       L1    15  1.00

> <Gold.PLP.Chemscore.Internal.Correction>
0.3766

> <Gold.Rescore>
     Score         DG    S(hbond)    S(metal)    S(lipo)     H(rot)  DE(clash)    DE(int)     intcor
     13.41     -16.90       1.74        0.00     107.49       2.72       0.42       3.08       ----

> <Gold.Chemscore.Fitness>
13.4069

> <Gold.Chemscore.DG>
-16.9016

> <Gold.Chemscore.ZeroCoef>
-5.4800

> <Gold.Chemscore.Hbond>
1.7398

> <Gold.Chemscore.Metal>
0.0000

> <Gold.Chemscore.Lipo>
107.4944

> <Gold.Chemscore.Internal_Hbond>
0.0000

> <Gold.Chemscore.DEClash>
0.4187

> <Gold.Chemscore.DEInternal>
3.0759

> <Gold.Chemscore.Rot>
2.7212

> <Gold.Chemscore.Internal.Correction>
   9.000000E+99

> <Gold.Chemscore.Hbonds>
donor molecule, donor type, donor heavy atom, donor atom, acceptor molecule, acceptor atom, score
      L1  H    11    38       P1  7957  0.95
      P1  H  7997  8009       L1    15  0.33

> <Gold.Chemscore.Hbond.Weighted>
-5.8110

> <Gold.Chemscore.Metal.Weighted>
-0.0000

> <Gold.Chemscore.Lipo.Weighted>
-12.5768

> <Gold.Chemscore.Internal_Hbond.Weighted>
0.0000

> <Gold.Chemscore.DEClash.Weighted>
0.4187

> <Gold.Chemscore.DEInternal.Weighted>
3.0759

> <Gold.Chemscore.Rot.Weighted>
6.9663

> <Gold.Chemscore.Internal.Correction.Weighted>
   9.000000E+99

> <Gold.Protein.RotatedTorsions>
[ 6907 6896 6895 6894 ] final  -56.45 input  -60.11 | X-H torsion
[ 7974 7965 7964 7962 ] final -144.36 input  175.53 | X-H torsion
[ 8008 7997 7996 7995 ] final -170.33 input   59.86 | X-H torsion
[ 10167 10162 10161 10158 ] final -123.97 input  -65.29 | X-H torsion
[ 10718 10713 10712 10709 ] final  100.95 input   66.30 | X-H torsion
[ 10763 10752 10751 10750 ] final -104.64 input  -60.55 | X-H torsion
[ 11005 11000 10999 10996 ] final  140.56 input  -57.11 | X-H torsion

> <Gold.Protein.ActiveResidues>
 VAL166  LYS551  ARG553  GLY616  TRP617  ASP618  TYR619  PRO620  LYS621  CYS622 
 ASP623  PHE694  ASN695  SER759  ASP760  ASP761  ALA762  ILE779  LEU786  VAL792 
 PHE793  MET794  SER795  GLU796  ALA797  LYS798  CYS799  TRP800  GLU811  SER814 

> <Gold.Protein.RotatedAtoms>
  150.8167  134.7352  159.6735 H   0  0  0  0  0  0  0  0  0  0  0  0  # atno 6907 bound_to 6896
  152.4285  134.5820  159.9960 H   0  0  0  0  0  0  0  0  0  0  0  0  # atno 6908 bound_to 6896
  151.6015  133.3318  159.3084 H   0  0  0  0  0  0  0  0  0  0  0  0  # atno 6909 bound_to 6896
  144.8303  140.5720  143.5519 H   0  0  0  0  0  0  0  0  0  0  0  0  # atno 7974 bound_to 7965
  155.9169  140.1067  157.1237 H   0  0  0  0  0  0  0  0  0  0  0  0  # atno 8008 bound_to 7997
  154.4048  140.1263  156.4694 H   0  0  0  0  0  0  0  0  0  0  0  0  # atno 8009 bound_to 7997
  155.7243  140.3469  155.5032 H   0  0  0  0  0  0  0  0  0  0  0  0  # atno 8010 bound_to 7997
  139.9978  143.5572  152.2316 H   0  0  0  0  0  0  0  0  0  0  0  0  # atno 10167 bound_to 10162
  157.6841  131.0713  150.5179 H   0  0  0  0  0  0  0  0  0  0  0  0  # atno 10718 bound_to 10713
  154.7892  135.4778  154.0014 H   0  0  0  0  0  0  0  0  0  0  0  0  # atno 10763 bound_to 10752
  153.1606  135.6808  153.8756 H   0  0  0  0  0  0  0  0  0  0  0  0  # atno 10764 bound_to 10752
  153.8371  135.3184  155.3401 H   0  0  0  0  0  0  0  0  0  0  0  0  # atno 10765 bound_to 10752
  140.0336  134.9340  157.0710 H   0  0  0  0  0  0  0  0  0  0  0  0  # atno 11005 bound_to 11000
  145.4909  139.1489  143.3710 LP  0  0  0  0  0  0  0  0  0  0  0  0  # atno 17320 bound_to 7965
  146.2607  140.5048  142.8855 LP  0  0  0  0  0  0  0  0  0  0  0  0  # atno 17321 bound_to 7965
  139.6293  144.7642  151.2570 LP  0  0  0  0  0  0  0  0  0  0  0  0  # atno 17342 bound_to 10162
  140.7430  143.6507  150.8251 LP  0  0  0  0  0  0  0  0  0  0  0  0  # atno 17343 bound_to 10162
  156.5493  130.4227  149.6115 LP  0  0  0  0  0  0  0  0  0  0  0  0  # atno 17370 bound_to 10713
  156.2916  130.7127  151.1978 LP  0  0  0  0  0  0  0  0  0  0  0  0  # atno 17371 bound_to 10713
  140.4184  134.1907  155.7164 LP  0  0  0  0  0  0  0  0  0  0  0  0  # atno 17394 bound_to 11000
  141.1845  133.8343  157.1138 LP  0  0  0  0  0  0  0  0  0  0  0  0  # atno 17395 bound_to 11000

$$$$
