AV-unprocessed.smi:1662|AV-procd|sdf|6660|dock8
  -GOLD-   22720 7373D 1   1.00000     0.00000
 Structure written by MMmdl.
 47 48  0  0  0  0  0  0  0  0  1 V2000
  147.1818  136.7363  163.0745 C   0  0  0  0  0  0  0  0  0  0  0  0
  147.4700  136.2275  161.6879 C   0  0  0  0  0  0  0  0  0  0  0  0
  147.6323  137.1177  160.7653 N   0  0  0  0  0  0  0  0  0  0  0  0
  147.9131  136.7594  159.4607 N   0  0  0  0  0  0  0  0  0  0  0  0
  148.1534  137.9039  158.5643 C   0  0  0  0  0  0  0  0  0  0  0  0
  149.6195  138.0647  158.1233 C   0  0  0  0  0  0  0  0  0  0  0  0
  150.4364  137.1894  158.4055 O   0  0  0  0  0  0  0  0  0  0  0  0
  149.9416  139.1723  157.4362 N   0  0  0  0  0  0  0  0  0  0  0  0
  151.2593  139.5381  156.9255 C   0  0  1  0  0  0  0  0  0  0  0  0
  151.1308  140.2893  155.5859 C   0  0  0  0  0  0  0  0  0  0  0  0
  150.4831  141.6700  155.7686 C   0  0  0  0  0  0  0  0  0  0  0  0
  151.2553  142.5061  156.7979 C   0  0  0  0  0  0  0  0  0  0  0  0
  151.3839  141.7866  158.1568 C   0  0  2  0  0  0  0  0  0  0  0  0
  152.1550  142.6776  159.1468 C   0  0  0  0  0  0  0  0  0  0  0  0
  152.0274  140.3821  157.9758 C   0  0  1  0  0  0  0  0  0  0  0  0
  152.1758  139.6139  159.3055 C   0  0  0  0  0  0  0  0  0  0  0  0
  148.0316  135.4743  159.0170 C   0  0  0  0  0  0  0  0  0  0  0  0
  148.2973  135.2000  157.8461 O   0  0  0  0  0  0  0  0  0  0  0  0
  147.8397  134.4712  160.0662 C   0  0  0  0  0  0  0  0  0  0  0  0
  147.9640  133.1131  159.6454 C   0  0  0  0  0  0  0  0  0  0  0  0
  148.0509  132.0151  159.2892 N   0  0  0  0  0  0  0  0  0  0  0  0
  147.5743  134.8111  161.3524 C   0  0  0  0  0  0  0  0  0  0  0  0
  147.3758  133.8084  162.4805 C   0  0  0  0  0  0  0  0  0  0  0  0
  146.2401  136.3342  163.4479 H   0  0  0  0  0  0  0  0  0  0  0  0
  147.1078  137.8245  163.1013 H   0  0  0  0  0  0  0  0  0  0  0  0
  147.9727  136.4440  163.7649 H   0  0  0  0  0  0  0  0  0  0  0  0
  147.5248  137.8329  157.6750 H   0  0  0  0  0  0  0  0  0  0  0  0
  147.8485  138.8282  159.0585 H   0  0  0  0  0  0  0  0  0  0  0  0
  149.1981  139.8301  157.2523 H   0  0  0  0  0  0  0  0  0  0  0  0
  151.8252  138.6215  156.7490 H   0  0  0  0  0  0  0  0  0  0  0  0
  152.1219  140.4132  155.1475 H   0  0  0  0  0  0  0  0  0  0  0  0
  150.5562  139.6991  154.8710 H   0  0  0  0  0  0  0  0  0  0  0  0
  150.4531  142.1934  154.8127 H   0  0  0  0  0  0  0  0  0  0  0  0
  149.4465  141.5566  156.0887 H   0  0  0  0  0  0  0  0  0  0  0  0
  152.2486  142.7309  156.4069 H   0  0  0  0  0  0  0  0  0  0  0  0
  150.7541  143.4656  156.9301 H   0  0  0  0  0  0  0  0  0  0  0  0
  150.3778  141.6554  158.5585 H   0  0  0  0  0  0  0  0  0  0  0  0
  153.1964  142.7959  158.8467 H   0  0  0  0  0  0  0  0  0  0  0  0
  152.1401  142.2678  160.1562 H   0  0  0  0  0  0  0  0  0  0  0  0
  151.7123  143.6723  159.2038 H   0  0  0  0  0  0  0  0  0  0  0  0
  153.0353  140.5313  157.5854 H   0  0  0  0  0  0  0  0  0  0  0  0
  151.2268  139.5379  159.8373 H   0  0  0  0  0  0  0  0  0  0  0  0
  152.8907  140.0969  159.9708 H   0  0  0  0  0  0  0  0  0  0  0  0
  152.5402  138.6010  159.1326 H   0  0  0  0  0  0  0  0  0  0  0  0
  147.4918  132.7788  162.1433 H   0  0  0  0  0  0  0  0  0  0  0  0
  146.3756  133.9036  162.9046 H   0  0  0  0  0  0  0  0  0  0  0  0
  148.1042  133.9761  163.2746 H   0  0  0  0  0  0  0  0  0  0  0  0
  1  2  1  0  0  0  0
  1 24  1  0  0  0  0
  1 25  1  0  0  0  0
  1 26  1  0  0  0  0
  2 22  1  0  0  0  0
  2  3  2  0  0  0  0
  3  4  1  0  0  0  0
  4  5  1  0  0  0  0
  4 17  1  0  0  0  0
  5  6  1  0  0  0  0
  5 27  1  0  0  0  0
  5 28  1  0  0  0  0
  6  7  2  0  0  0  0
  6  8  1  0  0  0  0
  8  9  1  0  0  0  0
  8 29  1  0  0  0  0
  9 15  1  0  0  0  0
  9 10  1  0  0  0  0
  9 30  1  0  0  0  0
 10 11  1  0  0  0  0
 10 31  1  0  0  0  0
 10 32  1  0  0  0  0
 11 12  1  0  0  0  0
 11 33  1  0  0  0  0
 11 34  1  0  0  0  0
 12 13  1  0  0  0  0
 12 35  1  0  0  0  0
 12 36  1  0  0  0  0
 13 14  1  0  0  0  0
 13 15  1  0  0  0  0
 13 37  1  0  0  0  0
 14 38  1  0  0  0  0
 14 39  1  0  0  0  0
 14 40  1  0  0  0  0
 15 16  1  0  0  0  0
 15 41  1  0  0  0  0
 16 42  1  0  0  0  0
 16 43  1  0  0  0  0
 16 44  1  0  0  0  0
 17 18  2  0  0  0  0
 17 19  1  0  0  0  0
 19 20  1  0  0  0  0
 19 22  2  0  0  0  0
 20 21  3  0  0  0  0
 22 23  1  0  0  0  0
 23 45  1  0  0  0  0
 23 46  1  0  0  0  0
 23 47  1  0  0  0  0
M  END
> <s_m_source_file>
AV-unprocessed.smi

> <i_m_source_file_index>
1662

> <i_lp_mmshare_version>
43012

> <i_f3d_flags>
0

> <s_epik_input>
TiNDYyhjMVtDSDNdKWMoPU8pbihuYzFbQ0gzXSlbQ0gyXUMoPU8pW05IXVtDQEBIXTJbQ0gyXVtDSDJdW0NIMl1bQ0BASF0oW0NIM10pW0NASF0yW0NIM10=

> <s_epik_cmdline>
J2VwaWtfcHl0aG9uJywgJy1waCcsICc3LjAnLCAnLXRuJywgJzgnLCAnLW1hJywgJzIwMCcsICctbWV0YWxfYmluZGluZycsICctaW1hZScsICc8aW5maWxlLm1hZT4nLCAnLW9tYWUnLCAnPG91dGZpbGUubWFlPic=

> <r_lp_tautomer_probability>
1

> <r_epik_Ionization_Penalty>
1.90709e-08

> <r_epik_Ionization_Penalty_Charging>
2.37982e-11

> <r_epik_Ionization_Penalty_Neutral>
1.90471e-08

> <r_epik_State_Penalty>
-0

> <r_epik_Charging_Adjusted_Penalty>
2.37982e-11

> <i_epik_Tot_Q>
0

> <i_epik_Tot_abs_Q>
0

> <r_epik_Metal_State_Penalty>
-0

> <b_epik_Metal_Only>
0

> <s_lp_Force_Field>
OPLS_2005

> <r_lp_Energy>
25.169

> <b_lp_Chiralities_Consistent>
1

> <s_lp_Variant>
AV-unprocessed.smi:1662-4

> <Gold.Version>
5.8.1

> <Gold.Id.Protein>
6NUR|6NUR_protein|mol2

> <Gold.PLP.Fitness>
42.3937

> <Gold.PLP.PLP>
-38.2282

> <Gold.PLP.part.hbond>
-2.0000

> <Gold.PLP.part.metal>
0.0000

> <Gold.PLP.part.buried>
-4.6190

> <Gold.PLP.part.nonpolar>
-32.2192

> <Gold.PLP.part.repulsive>
0.0610

> <Gold.PLP.ligand.clash>
0.0000

> <Gold.PLP.ligand.torsion>
0.5084

> <Gold.PLP.Chemscore.Hbond>
1.7234

> <Gold.PLP.Chemscore.CHOScore>
0.0000

> <Gold.PLP.Chemscore.Metal>
0.0000

> <Gold.Chemscore.Hbonds>
donor molecule, donor type, donor heavy atom, donor atom, acceptor molecule, acceptor atom, score
      P1  H  6931  6943       L1     3  0.44
      P1  H  6934  6947       L1     3  0.96

> <Gold.PLP.Chemscore.Internal.Correction>
0.0123

> <Gold.Rescore>
     Score         DG    S(hbond)    S(metal)    S(lipo)     H(rot)  DE(clash)    DE(int)     intcor
     15.39     -16.12       0.77        0.00     100.85       1.45       0.15       0.57       ----

> <Gold.Chemscore.Fitness>
15.3949

> <Gold.Chemscore.DG>
-16.1231

> <Gold.Chemscore.ZeroCoef>
-5.4800

> <Gold.Chemscore.Hbond>
0.7655

> <Gold.Chemscore.Metal>
0.0000

> <Gold.Chemscore.Lipo>
100.8470

> <Gold.Chemscore.Internal_Hbond>
0.0000

> <Gold.Chemscore.DEClash>
0.1542

> <Gold.Chemscore.DEInternal>
0.5741

> <Gold.Chemscore.Rot>
1.4504

> <Gold.Chemscore.Internal.Correction>
   9.000000E+99

> <Gold.Chemscore.Hbonds>
donor molecule, donor type, donor heavy atom, donor atom, acceptor molecule, acceptor atom, score
      P1  H  6931  6943       L1     3  0.04
      P1  H  6934  6947       L1     3  0.75

> <Gold.Chemscore.Hbond.Weighted>
-2.5569

> <Gold.Chemscore.Metal.Weighted>
-0.0000

> <Gold.Chemscore.Lipo.Weighted>
-11.7991

> <Gold.Chemscore.Internal_Hbond.Weighted>
0.0000

> <Gold.Chemscore.DEClash.Weighted>
0.1542

> <Gold.Chemscore.DEInternal.Weighted>
0.5741

> <Gold.Chemscore.Rot.Weighted>
3.7129

> <Gold.Chemscore.Internal.Correction.Weighted>
   9.000000E+99

> <Gold.Protein.RotatedTorsions>
[ 6907 6896 6895 6894 ] final   92.18 input  -60.11 | X-H torsion
[ 7974 7965 7964 7962 ] final   53.57 input  175.53 | X-H torsion
[ 8008 7997 7996 7995 ] final   28.59 input   59.86 | X-H torsion
[ 10167 10162 10161 10158 ] final  -44.97 input  -65.29 | X-H torsion
[ 10718 10713 10712 10709 ] final   89.39 input   66.30 | X-H torsion
[ 10763 10752 10751 10750 ] final  150.58 input  -60.55 | X-H torsion
[ 11005 11000 10999 10996 ] final   16.76 input  -57.11 | X-H torsion

> <Gold.Protein.ActiveResidues>
 VAL166  LYS551  ARG553  GLY616  TRP617  ASP618  TYR619  PRO620  LYS621  CYS622 
 ASP623  PHE694  ASN695  SER759  ASP760  ASP761  ALA762  ILE779  LEU786  VAL792 
 PHE793  MET794  SER795  GLU796  ALA797  LYS798  CYS799  TRP800  GLU811  SER814 

> <Gold.Protein.RotatedAtoms>
  152.5452  134.1542  159.8530 H   0  0  0  0  0  0  0  0  0  0  0  0  # atno 6907 bound_to 6896
  151.1566  133.4865  159.2602 H   0  0  0  0  0  0  0  0  0  0  0  0  # atno 6908 bound_to 6896
  151.1416  135.0193  159.8683 H   0  0  0  0  0  0  0  0  0  0  0  0  # atno 6909 bound_to 6896
  145.9698  139.4138  143.0197 H   0  0  0  0  0  0  0  0  0  0  0  0  # atno 7974 bound_to 7965
  155.0611  140.3190  155.4660 H   0  0  0  0  0  0  0  0  0  0  0  0  # atno 8008 bound_to 7997
  156.2813  140.2128  156.5682 H   0  0  0  0  0  0  0  0  0  0  0  0  # atno 8009 bound_to 7997
  154.7131  140.0496  157.0557 H   0  0  0  0  0  0  0  0  0  0  0  0  # atno 8010 bound_to 7997
  140.6876  143.2903  151.3571 H   0  0  0  0  0  0  0  0  0  0  0  0  # atno 10167 bound_to 10162
  157.6955  131.0331  150.3418 H   0  0  0  0  0  0  0  0  0  0  0  0  # atno 10718 bound_to 10713
  154.0898  135.2853  155.3274 H   0  0  0  0  0  0  0  0  0  0  0  0  # atno 10763 bound_to 10752
  154.6627  135.5328  153.8042 H   0  0  0  0  0  0  0  0  0  0  0  0  # atno 10764 bound_to 10752
  153.0417  135.6538  154.1068 H   0  0  0  0  0  0  0  0  0  0  0  0  # atno 10765 bound_to 10752
  140.4435  134.1297  155.7693 H   0  0  0  0  0  0  0  0  0  0  0  0  # atno 11005 bound_to 11000
  145.7923  140.9809  143.1042 LP  0  0  0  0  0  0  0  0  0  0  0  0  # atno 17320 bound_to 7965
  144.6834  139.9697  143.7482 LP  0  0  0  0  0  0  0  0  0  0  0  0  # atno 17321 bound_to 7965
  139.6249  144.0834  152.2425 LP  0  0  0  0  0  0  0  0  0  0  0  0  # atno 17342 bound_to 10162
  140.0290  144.6095  150.7503 LP  0  0  0  0  0  0  0  0  0  0  0  0  # atno 17343 bound_to 10162
  156.3878  130.3892  149.7053 LP  0  0  0  0  0  0  0  0  0  0  0  0  # atno 17370 bound_to 10713
  156.4413  130.7862  151.2883 LP  0  0  0  0  0  0  0  0  0  0  0  0  # atno 17371 bound_to 10713
  141.1695  133.8636  157.1613 LP  0  0  0  0  0  0  0  0  0  0  0  0  # atno 17394 bound_to 11000
  140.0054  135.0010  157.0281 LP  0  0  0  0  0  0  0  0  0  0  0  0  # atno 17395 bound_to 11000

$$$$
