AV-unprocessed.smi:1762|AV-procd|sdf|7116|dock10
  -GOLD-   22720 8343D 1   1.00000     0.00000
 Structure written by MMmdl.
 53 54  0  0  0  0  0  0  0  0  2 V2000
  149.1273  139.8057  153.1455 C   0  0  0  0  0  0  0  0  0  0  0  0
  149.4874  139.5476  154.6199 C   0  0  1  0  0  0  0  0  0  0  0  0
  148.8527  138.2633  155.1908 C   0  0  0  0  0  0  0  0  0  0  0  0
  149.5213  137.0391  154.6674 N   0  3  2  0  0  0  0  0  0  0  0  0
  148.9253  135.7362  155.1240 C   0  0  2  0  0  0  0  0  0  0  0  0
  147.3991  135.7151  154.8905 C   0  0  0  0  0  0  0  0  0  0  0  0
  146.6274  135.6280  155.8466 O   0  0  0  0  0  0  0  0  0  0  0  0
  146.9806  135.7982  153.6190 N   0  0  0  0  0  0  0  0  0  0  0  0
  145.5818  135.7980  153.2134 C   0  0  0  0  0  0  0  0  0  0  0  0
  145.4537  135.5304  151.7076 C   0  0  0  0  0  0  0  0  0  0  0  0
  145.0576  134.0961  151.4114 C   0  0  0  0  0  0  0  0  0  0  0  0
  145.9558  133.0352  151.6549 C   0  0  0  0  0  0  0  0  0  0  0  0
  145.5353  131.7217  151.3703 C   0  0  0  0  0  0  0  0  0  0  0  0
  144.2400  131.5203  150.8560 C   0  0  0  0  0  0  0  0  0  0  0  0
  143.4187  132.6466  150.6487 C   0  0  0  0  0  0  0  0  0  0  0  0
  143.8120  133.9104  150.9186 N   0  0  0  0  0  0  0  0  0  0  0  0
  149.2605  135.3582  156.6071 C   0  0  0  0  0  0  0  0  0  0  0  0
  148.7021  133.9834  157.0254 C   0  0  0  0  0  0  0  0  0  0  0  0
  148.8506  136.4316  157.6374 C   0  0  0  0  0  0  0  0  0  0  0  0
  150.9833  137.1390  154.9401 C   0  0  0  0  0  0  0  0  0  0  0  0
  151.5756  138.4148  154.3185 C   0  0  2  0  0  0  0  0  0  0  0  0
  153.0656  138.5713  154.6415 C   0  0  0  0  0  0  0  0  0  0  0  0
  150.8953  139.5499  154.8404 O   0  0  0  0  0  0  0  0  0  0  0  0
  148.0520  139.9433  153.0293 H   0  0  0  0  0  0  0  0  0  0  0  0
  149.4181  138.9801  152.4963 H   0  0  0  0  0  0  0  0  0  0  0  0
  149.6152  140.7091  152.7784 H   0  0  0  0  0  0  0  0  0  0  0  0
  149.0950  140.3909  155.1892 H   0  0  0  0  0  0  0  0  0  0  0  0
  148.9227  138.2678  156.2797 H   0  0  0  0  0  0  0  0  0  0  0  0
  147.7940  138.2885  154.9415 H   0  0  0  0  0  0  0  0  0  0  0  0
  149.3671  134.9627  154.4924 H   0  0  0  0  0  0  0  0  0  0  0  0
  147.6722  135.8653  152.8860 H   0  0  0  0  0  0  0  0  0  0  0  0
  145.0453  135.0342  153.7784 H   0  0  0  0  0  0  0  0  0  0  0  0
  145.1296  136.7602  153.4598 H   0  0  0  0  0  0  0  0  0  0  0  0
  144.7099  136.1987  151.2709 H   0  0  0  0  0  0  0  0  0  0  0  0
  146.3972  135.7523  151.2068 H   0  0  0  0  0  0  0  0  0  0  0  0
  146.9431  133.2207  152.0524 H   0  0  0  0  0  0  0  0  0  0  0  0
  146.1939  130.8835  151.5441 H   0  0  0  0  0  0  0  0  0  0  0  0
  143.8838  130.5268  150.6270 H   0  0  0  0  0  0  0  0  0  0  0  0
  142.4193  132.5288  150.2565 H   0  0  0  0  0  0  0  0  0  0  0  0
  150.3396  135.2305  156.6817 H   0  0  0  0  0  0  0  0  0  0  0  0
  147.6142  133.9857  157.0986 H   0  0  0  0  0  0  0  0  0  0  0  0
  149.0889  133.6883  158.0014 H   0  0  0  0  0  0  0  0  0  0  0  0
  148.9889  133.2082  156.3144 H   0  0  0  0  0  0  0  0  0  0  0  0
  147.7672  136.5263  157.7119 H   0  0  0  0  0  0  0  0  0  0  0  0
  149.2495  137.4145  157.3878 H   0  0  0  0  0  0  0  0  0  0  0  0
  149.2206  136.1761  158.6308 H   0  0  0  0  0  0  0  0  0  0  0  0
  151.1514  137.1323  156.0184 H   0  0  0  0  0  0  0  0  0  0  0  0
  151.5250  136.2847  154.5352 H   0  0  0  0  0  0  0  0  0  0  0  0
  151.4675  138.3804  153.2342 H   0  0  0  0  0  0  0  0  0  0  0  0
  153.6421  137.7300  154.2561 H   0  0  0  0  0  0  0  0  0  0  0  0
  153.2333  138.6272  155.7176 H   0  0  0  0  0  0  0  0  0  0  0  0
  153.4677  139.4809  154.1944 H   0  0  0  0  0  0  0  0  0  0  0  0
  149.4092  137.0582  153.6634 H   0  0  0  0  0  0  0  0  0  0  0  0
  1  2  1  0  0  0  0
  1 24  1  0  0  0  0
  1 25  1  0  0  0  0
  1 26  1  0  0  0  0
  2 23  1  0  0  0  0
  2  3  1  0  0  0  0
  2 27  1  0  0  0  0
  3  4  1  0  0  0  0
  3 28  1  0  0  0  0
  3 29  1  0  0  0  0
  4  5  1  0  0  0  0
  4 20  1  0  0  0  0
  4 53  1  0  0  0  0
  5  6  1  0  0  0  0
  5 17  1  0  0  0  0
  5 30  1  0  0  0  0
  6  7  2  0  0  0  0
  6  8  1  0  0  0  0
  8  9  1  0  0  0  0
  8 31  1  0  0  0  0
  9 10  1  0  0  0  0
  9 32  1  0  0  0  0
  9 33  1  0  0  0  0
 10 11  1  0  0  0  0
 10 34  1  0  0  0  0
 10 35  1  0  0  0  0
 11 16  1  0  0  0  0
 11 12  2  0  0  0  0
 12 13  1  0  0  0  0
 12 36  1  0  0  0  0
 13 14  2  0  0  0  0
 13 37  1  0  0  0  0
 14 15  1  0  0  0  0
 14 38  1  0  0  0  0
 15 16  2  0  0  0  0
 15 39  1  0  0  0  0
 17 18  1  0  0  0  0
 17 19  1  0  0  0  0
 17 40  1  0  0  0  0
 18 41  1  0  0  0  0
 18 42  1  0  0  0  0
 18 43  1  0  0  0  0
 19 44  1  0  0  0  0
 19 45  1  0  0  0  0
 19 46  1  0  0  0  0
 20 21  1  0  0  0  0
 20 47  1  0  0  0  0
 20 48  1  0  0  0  0
 21 22  1  0  0  0  0
 21 23  1  0  0  0  0
 21 49  1  0  0  0  0
 22 50  1  0  0  0  0
 22 51  1  0  0  0  0
 22 52  1  0  0  0  0
M  CHG  1   4   1
M  END
> <s_m_source_file>
AV-unprocessed.smi

> <i_m_source_file_index>
1762

> <i_lp_mmshare_version>
43012

> <i_f3d_flags>
0

> <s_epik_input>
W0NIM11bQ0BASF0xW0NIMl1OKFtDSDJdW0NASF0oTzEpW0NIM10pW0NAQEhdKFtDSF0oW0NIM10pW0NIM10pQyg9TylbTkhdW0NIMl1bQ0gyXWMyW2NIXVtjSF1bY0hdW2NIXW4y

> <s_epik_cmdline>
J2VwaWtfcHl0aG9uJywgJy1waCcsICc3LjAnLCAnLXRuJywgJzgnLCAnLW1hJywgJzIwMCcsICctbWV0YWxfYmluZGluZycsICctaW1hZScsICc8aW5maWxlLm1hZT4nLCAnLW9tYWUnLCAnPG91dGZpbGUubWFlPic=

> <r_epik_Ionization_Penalty>
2.27005

> <r_epik_Ionization_Penalty_Charging>
2.24983

> <r_epik_Ionization_Penalty_Neutral>
0.0202209

> <r_epik_State_Penalty>
2.40228

> <r_epik_Charging_Adjusted_Penalty>
4.65211

> <i_epik_Tot_Q>
1

> <i_epik_Tot_abs_Q>
1

> <r_epik_Metal_State_Penalty>
2.40762

> <b_epik_Metal_Only>
0

> <s_lp_Force_Field>
OPLS_2005

> <r_lp_Energy>
24.3613

> <b_lp_Chiralities_Consistent>
1

> <s_lp_Variant>
AV-unprocessed.smi:1762-18

> <Gold.Version>
5.8.1

> <Gold.Id.Protein>
6NUR|6NUR_protein|mol2

> <Gold.PLP.Fitness>
44.0823

> <Gold.PLP.PLP>
-30.5873

> <Gold.PLP.part.hbond>
-2.9542

> <Gold.PLP.part.metal>
0.0000

> <Gold.PLP.part.buried>
-0.1823

> <Gold.PLP.part.nonpolar>
-28.5053

> <Gold.PLP.part.repulsive>
0.2791

> <Gold.PLP.ligand.clash>
0.0000

> <Gold.PLP.ligand.torsion>
0.7157

> <Gold.PLP.Chemscore.Hbond>
3.6443

> <Gold.PLP.Chemscore.CHOScore>
1.2419

> <Gold.PLP.Chemscore.Metal>
0.0000

> <Gold.Chemscore.Hbonds>
donor molecule, donor type, donor heavy atom, donor atom, acceptor molecule, acceptor atom, score
      L1  H     4    53       P1  7948  2.00
      L1  H     8    31       P1  7948  1.00
      P1  H  7989  7998       L1    23  0.80
      L1  C    15    39       P1 10186  0.88
      L1  C    15    39       P1 10952  0.38

> <Gold.PLP.Chemscore.Internal.Correction>
0.2678

> <Gold.Rescore>
     Score         DG    S(hbond)    S(metal)    S(lipo)     H(rot)  DE(clash)    DE(int)     intcor
     14.54     -19.35       1.87        0.00     101.49       1.66       1.89       2.92       ----

> <Gold.Chemscore.Fitness>
14.5379

> <Gold.Chemscore.DG>
-19.3519

> <Gold.Chemscore.ZeroCoef>
-5.4800

> <Gold.Chemscore.Hbond>
1.8732

> <Gold.Chemscore.Metal>
0.0000

> <Gold.Chemscore.Lipo>
101.4878

> <Gold.Chemscore.Internal_Hbond>
0.0000

> <Gold.Chemscore.DEClash>
1.8916

> <Gold.Chemscore.DEInternal>
2.9224

> <Gold.Chemscore.Rot>
1.6635

> <Gold.Chemscore.Internal.Correction>
   9.000000E+99

> <Gold.Chemscore.Hbonds>
donor molecule, donor type, donor heavy atom, donor atom, acceptor molecule, acceptor atom, score
      L1  H     4    53       P1  7948  0.88
      L1  H     8    31       P1  7948  1.00
      P1  H  7989  7998       L1    23  0.06

> <Gold.Chemscore.Hbond.Weighted>
-6.2564

> <Gold.Chemscore.Metal.Weighted>
-0.0000

> <Gold.Chemscore.Lipo.Weighted>
-11.8741

> <Gold.Chemscore.Internal_Hbond.Weighted>
0.0000

> <Gold.Chemscore.DEClash.Weighted>
1.8916

> <Gold.Chemscore.DEInternal.Weighted>
2.9224

> <Gold.Chemscore.Rot.Weighted>
4.2586

> <Gold.Chemscore.Internal.Correction.Weighted>
   9.000000E+99

> <Gold.Protein.RotatedTorsions>
[ 6907 6896 6895 6894 ] final  -16.44 input  -60.11 | X-H torsion
[ 7974 7965 7964 7962 ] final  -94.48 input  175.53 | X-H torsion
[ 8008 7997 7996 7995 ] final   -5.37 input   59.86 | X-H torsion
[ 10167 10162 10161 10158 ] final -117.58 input  -65.29 | X-H torsion
[ 10718 10713 10712 10709 ] final  175.76 input   66.30 | X-H torsion
[ 10763 10752 10751 10750 ] final  134.75 input  -60.55 | X-H torsion
[ 11005 11000 10999 10996 ] final  155.05 input  -57.11 | X-H torsion

> <Gold.Protein.ActiveResidues>
 VAL166  LYS551  ARG553  GLY616  TRP617  ASP618  TYR619  PRO620  LYS621  CYS622 
 ASP623  PHE694  ASN695  SER759  ASP760  ASP761  ALA762  ILE779  LEU786  VAL792 
 PHE793  MET794  SER795  GLU796  ALA797  LYS798  CYS799  TRP800  GLU811  SER814 

> <Gold.Protein.RotatedAtoms>
  151.3085  135.0788  159.9263 H   0  0  0  0  0  0  0  0  0  0  0  0  # atno 6907 bound_to 6896
  152.5283  133.9760  159.7794 H   0  0  0  0  0  0  0  0  0  0  0  0  # atno 6908 bound_to 6896
  151.0059  133.5959  159.2719 H   0  0  0  0  0  0  0  0  0  0  0  0  # atno 6909 bound_to 6896
  145.3727  140.9507  143.2438 H   0  0  0  0  0  0  0  0  0  0  0  0  # atno 7974 bound_to 7965
  154.6046  140.2460  155.7747 H   0  0  0  0  0  0  0  0  0  0  0  0  # atno 8008 bound_to 7997
  156.2333  140.2959  156.0197 H   0  0  0  0  0  0  0  0  0  0  0  0  # atno 8009 bound_to 7997
  155.2153  140.0398  157.2930 H   0  0  0  0  0  0  0  0  0  0  0  0  # atno 8010 bound_to 7997
  140.0668  143.4915  152.2001 H   0  0  0  0  0  0  0  0  0  0  0  0  # atno 10167 bound_to 10162
  156.9301  130.9968  151.2989 H   0  0  0  0  0  0  0  0  0  0  0  0  # atno 10718 bound_to 10713
  153.8287  135.3106  155.3417 H   0  0  0  0  0  0  0  0  0  0  0  0  # atno 10763 bound_to 10752
  154.7982  135.4742  154.0215 H   0  0  0  0  0  0  0  0  0  0  0  0  # atno 10764 bound_to 10752
  153.1647  135.6867  153.8782 H   0  0  0  0  0  0  0  0  0  0  0  0  # atno 10765 bound_to 10752
  140.1546  134.8652  157.2497 H   0  0  0  0  0  0  0  0  0  0  0  0  # atno 11005 bound_to 11000
  144.8564  139.5243  143.6832 LP  0  0  0  0  0  0  0  0  0  0  0  0  # atno 17320 bound_to 7965
  146.2878  139.7052  142.9183 LP  0  0  0  0  0  0  0  0  0  0  0  0  # atno 17321 bound_to 7965
  139.5860  144.7531  151.3519 LP  0  0  0  0  0  0  0  0  0  0  0  0  # atno 17342 bound_to 10162
  140.7145  143.7303  150.7629 LP  0  0  0  0  0  0  0  0  0  0  0  0  # atno 17343 bound_to 10162
  157.5852  130.8405  149.8580 LP  0  0  0  0  0  0  0  0  0  0  0  0  # atno 17370 bound_to 10713
  156.0451  130.3730  150.1337 LP  0  0  0  0  0  0  0  0  0  0  0  0  # atno 17371 bound_to 10713
  140.2563  134.3623  155.7423 LP  0  0  0  0  0  0  0  0  0  0  0  0  # atno 17394 bound_to 11000
  141.2203  133.7345  156.9013 LP  0  0  0  0  0  0  0  0  0  0  0  0  # atno 17395 bound_to 11000

$$$$
