AV-unprocessed.smi:1703|AV-procd|sdf|6854|dock8
  -GOLD-   22720 8 33D 1   1.00000     0.00000
 Structure written by MMmdl.
 48 50  0  0  0  0  0  0  0  0  1 V2000
  145.0943  144.8833  152.6310 C   0  0  0  0  0  0  0  0  0  0  0  0
  145.4480  144.1825  153.9470 C   0  0  2  0  0  0  0  0  0  0  0  0
  146.2591  142.8925  153.7212 C   0  0  0  0  0  0  0  0  0  0  0  0
  146.5298  142.1886  154.9697 N   0  0  0  0  0  0  0  0  0  0  0  0
  147.3140  140.9765  154.7244 C   0  0  0  0  0  0  0  0  0  0  0  0
  148.8439  141.1646  154.7203 C   0  0  2  0  0  0  0  0  0  0  0  0
  149.2266  141.7096  153.4730 O   0  0  0  0  0  0  0  0  0  0  0  0
  149.5804  139.8291  154.9414 C   0  0  0  0  0  0  0  0  0  0  0  0
  150.7237  139.9657  155.8346 N   0  0  0  0  0  0  0  0  0  0  0  0
  151.8905  139.2725  155.8273 C   0  0  0  0  0  0  0  0  0  0  0  0
  152.1561  138.1925  154.8172 C   0  0  0  0  0  0  0  0  0  0  0  0
  152.1987  136.8919  155.3680 O   0  0  0  0  0  0  0  0  0  0  0  0
  152.7700  139.6155  156.7721 N   0  0  0  0  0  0  0  0  0  0  0  0
  152.1112  140.6185  157.4552 C   0  0  0  0  0  0  0  0  0  0  0  0
  152.5138  141.3904  158.5687 C   0  0  0  0  0  0  0  0  0  0  0  0
  151.6556  142.3739  159.1029 C   0  0  0  0  0  0  0  0  0  0  0  0
  150.3860  142.5999  158.5325 C   0  0  0  0  0  0  0  0  0  0  0  0
  149.9658  141.8419  157.4227 C   0  0  0  0  0  0  0  0  0  0  0  0
  150.8263  140.8612  156.8939 C   0  0  0  0  0  0  0  0  0  0  0  0
  145.2610  141.9191  155.6434 C   0  0  0  0  0  0  0  0  0  0  0  0
  144.4450  143.2063  155.8716 C   0  0  2  0  0  0  0  0  0  0  0  0
  143.0783  142.9211  156.5027 C   0  0  0  0  0  0  0  0  0  0  0  0
  144.2358  143.8558  154.6208 O   0  0  0  0  0  0  0  0  0  0  0  0
  145.9934  145.1616  152.0807 H   0  0  0  0  0  0  0  0  0  0  0  0
  144.5227  145.7930  152.8157 H   0  0  0  0  0  0  0  0  0  0  0  0
  144.4944  144.2378  151.9888 H   0  0  0  0  0  0  0  0  0  0  0  0
  146.0235  144.8718  154.5673 H   0  0  0  0  0  0  0  0  0  0  0  0
  145.7156  142.2362  153.0393 H   0  0  0  0  0  0  0  0  0  0  0  0
  147.1997  143.1419  153.2287 H   0  0  0  0  0  0  0  0  0  0  0  0
  147.0482  140.2248  155.4695 H   0  0  0  0  0  0  0  0  0  0  0  0
  147.0256  140.5515  153.7617 H   0  0  0  0  0  0  0  0  0  0  0  0
  149.1474  141.8564  155.5047 H   0  0  0  0  0  0  0  0  0  0  0  0
  149.5385  141.0051  152.9252 H   0  0  0  0  0  0  0  0  0  0  0  0
  148.8990  139.1000  155.3814 H   0  0  0  0  0  0  0  0  0  0  0  0
  149.9015  139.4041  153.9904 H   0  0  0  0  0  0  0  0  0  0  0  0
  151.3765  138.2203  154.0554 H   0  0  0  0  0  0  0  0  0  0  0  0
  153.1069  138.3857  154.3210 H   0  0  0  0  0  0  0  0  0  0  0  0
  151.3392  136.6832  155.7013 H   0  0  0  0  0  0  0  0  0  0  0  0
  153.4843  141.2247  159.0125 H   0  0  0  0  0  0  0  0  0  0  0  0
  151.9731  142.9576  159.9545 H   0  0  0  0  0  0  0  0  0  0  0  0
  149.7348  143.3554  158.9475 H   0  0  0  0  0  0  0  0  0  0  0  0
  148.9945  142.0122  156.9828 H   0  0  0  0  0  0  0  0  0  0  0  0
  144.6727  141.2139  155.0538 H   0  0  0  0  0  0  0  0  0  0  0  0
  145.4361  141.4489  156.6099 H   0  0  0  0  0  0  0  0  0  0  0  0
  145.0001  143.8776  156.5293 H   0  0  0  0  0  0  0  0  0  0  0  0
  143.1876  142.4307  157.4704 H   0  0  0  0  0  0  0  0  0  0  0  0
  142.4759  142.2738  155.8648 H   0  0  0  0  0  0  0  0  0  0  0  0
  142.5219  143.8454  156.6599 H   0  0  0  0  0  0  0  0  0  0  0  0
  1  2  1  0  0  0  0
  1 24  1  0  0  0  0
  1 25  1  0  0  0  0
  1 26  1  0  0  0  0
  2 23  1  0  0  0  0
  2  3  1  0  0  0  0
  2 27  1  0  0  0  0
  3  4  1  0  0  0  0
  3 28  1  0  0  0  0
  3 29  1  0  0  0  0
  4  5  1  0  0  0  0
  4 20  1  0  0  0  0
  5  6  1  0  0  0  0
  5 30  1  0  0  0  0
  5 31  1  0  0  0  0
  6  7  1  0  0  0  0
  6  8  1  0  0  0  0
  6 32  1  0  0  0  0
  7 33  1  0  0  0  0
  8  9  1  0  0  0  0
  8 34  1  0  0  0  0
  8 35  1  0  0  0  0
  9 19  1  0  0  0  0
  9 10  1  0  0  0  0
 10 11  1  0  0  0  0
 10 13  2  0  0  0  0
 11 12  1  0  0  0  0
 11 36  1  0  0  0  0
 11 37  1  0  0  0  0
 12 38  1  0  0  0  0
 13 14  1  0  0  0  0
 14 19  2  0  0  0  0
 14 15  1  0  0  0  0
 15 16  2  0  0  0  0
 15 39  1  0  0  0  0
 16 17  1  0  0  0  0
 16 40  1  0  0  0  0
 17 18  2  0  0  0  0
 17 41  1  0  0  0  0
 18 19  1  0  0  0  0
 18 42  1  0  0  0  0
 20 21  1  0  0  0  0
 20 43  1  0  0  0  0
 20 44  1  0  0  0  0
 21 22  1  0  0  0  0
 21 23  1  0  0  0  0
 21 45  1  0  0  0  0
 22 46  1  0  0  0  0
 22 47  1  0  0  0  0
 22 48  1  0  0  0  0
M  END
> <s_m_source_file>
AV-unprocessed.smi

> <i_m_source_file_index>
1703

> <i_lp_mmshare_version>
43012

> <i_f3d_flags>
0

> <s_epik_input>
W0NIM11bQ0BASF0xW0NIMl1OKFtDSDJdW0NASF0oTzEpW0NIM10pW0NIMl1bQ0BIXShbT0hdKVtDSDJdbihjKG4yKVtDSDJdW09IXSljKGMyMylbY0hdW2NIXVtjSF1bY0hdMw==

> <s_epik_cmdline>
J2VwaWtfcHl0aG9uJywgJy1waCcsICc3LjAnLCAnLXRuJywgJzgnLCAnLW1hJywgJzIwMCcsICctbWV0YWxfYmluZGluZycsICctaW1hZScsICc8aW5maWxlLm1hZT4nLCAnLW9tYWUnLCAnPG91dGZpbGUubWFlPic=

> <r_epik_Ionization_Penalty>
0.307685

> <r_epik_Ionization_Penalty_Charging>
0

> <r_epik_Ionization_Penalty_Neutral>
0.307685

> <r_epik_State_Penalty>
0.277856

> <r_epik_Charging_Adjusted_Penalty>
0.277856

> <i_epik_Tot_Q>
0

> <i_epik_Tot_abs_Q>
0

> <r_epik_Metal_State_Penalty>
0.238959

> <b_epik_Metal_Only>
0

> <s_lp_Force_Field>
OPLS_2005

> <r_lp_Energy>
28.9256

> <b_lp_Chiralities_Consistent>
1

> <s_lp_Variant>
AV-unprocessed.smi:1703-2

> <Gold.Version>
5.8.1

> <Gold.Id.Protein>
6NUR|6NUR_protein|mol2

> <Gold.PLP.Fitness>
47.8548

> <Gold.PLP.PLP>
-42.0959

> <Gold.PLP.part.hbond>
-4.3528

> <Gold.PLP.part.metal>
0.0000

> <Gold.PLP.part.buried>
-5.7903

> <Gold.PLP.part.nonpolar>
-31.5923

> <Gold.PLP.part.repulsive>
0.3060

> <Gold.PLP.ligand.clash>
0.0000

> <Gold.PLP.ligand.torsion>
1.5577

> <Gold.PLP.Chemscore.Hbond>
2.9440

> <Gold.PLP.Chemscore.CHOScore>
0.0000

> <Gold.PLP.Chemscore.Metal>
0.0000

> <Gold.Chemscore.Hbonds>
donor molecule, donor type, donor heavy atom, donor atom, acceptor molecule, acceptor atom, score
      L1  H     7    33       P1  7957  1.00
      P1  H  7997  8010       L1    13  1.00
      P1  H 10752 10765       L1    12  0.94

> <Gold.PLP.Chemscore.Internal.Correction>
0.0422

> <Gold.Rescore>
     Score         DG    S(hbond)    S(metal)    S(lipo)     H(rot)  DE(clash)    DE(int)     intcor
     15.31     -18.26       2.52        0.00     100.15       2.88       0.31       2.65       ----

> <Gold.Chemscore.Fitness>
15.3071

> <Gold.Chemscore.DG>
-18.2608

> <Gold.Chemscore.ZeroCoef>
-5.4800

> <Gold.Chemscore.Hbond>
2.5239

> <Gold.Chemscore.Metal>
0.0000

> <Gold.Chemscore.Lipo>
100.1537

> <Gold.Chemscore.Internal_Hbond>
0.0000

> <Gold.Chemscore.DEClash>
0.3065

> <Gold.Chemscore.DEInternal>
2.6472

> <Gold.Chemscore.Rot>
2.8778

> <Gold.Chemscore.Internal.Correction>
   9.000000E+99

> <Gold.Chemscore.Hbonds>
donor molecule, donor type, donor heavy atom, donor atom, acceptor molecule, acceptor atom, score
      L1  H     7    33       P1  7957  0.92
      P1  H  7997  8010       L1    13  0.55
      P1  H 10752 10765       L1    12  0.77

> <Gold.Chemscore.Hbond.Weighted>
-8.4299

> <Gold.Chemscore.Metal.Weighted>
-0.0000

> <Gold.Chemscore.Lipo.Weighted>
-11.7180

> <Gold.Chemscore.Internal_Hbond.Weighted>
0.0000

> <Gold.Chemscore.DEClash.Weighted>
0.3065

> <Gold.Chemscore.DEInternal.Weighted>
2.6472

> <Gold.Chemscore.Rot.Weighted>
7.3671

> <Gold.Chemscore.Internal.Correction.Weighted>
   9.000000E+99

> <Gold.Protein.RotatedTorsions>
[ 6907 6896 6895 6894 ] final -124.77 input  -60.11 | X-H torsion
[ 7974 7965 7964 7962 ] final  -43.21 input  175.53 | X-H torsion
[ 8008 7997 7996 7995 ] final   55.29 input   59.86 | X-H torsion
[ 10167 10162 10161 10158 ] final   30.39 input  -65.29 | X-H torsion
[ 10718 10713 10712 10709 ] final  -30.04 input   66.30 | X-H torsion
[ 10763 10752 10751 10750 ] final -166.53 input  -60.55 | X-H torsion
[ 11005 11000 10999 10996 ] final   22.53 input  -57.11 | X-H torsion

> <Gold.Protein.ActiveResidues>
 VAL166  LYS551  ARG553  GLY616  TRP617  ASP618  TYR619  PRO620  LYS621  CYS622 
 ASP623  PHE694  ASN695  SER759  ASP760  ASP761  ALA762  ILE779  LEU786  VAL792 
 PHE793  MET794  SER795  GLU796  ALA797  LYS798  CYS799  TRP800  GLU811  SER814 

> <Gold.Protein.RotatedAtoms>
  150.8801  133.7384  159.2934 H   0  0  0  0  0  0  0  0  0  0  0  0  # atno 6907 bound_to 6896
  151.4968  135.1058  159.9828 H   0  0  0  0  0  0  0  0  0  0  0  0  # atno 6908 bound_to 6896
  152.4754  133.8080  159.7044 H   0  0  0  0  0  0  0  0  0  0  0  0  # atno 6909 bound_to 6896
  146.0041  140.7041  142.9256 H   0  0  0  0  0  0  0  0  0  0  0  0  # atno 7974 bound_to 7965
  155.4987  140.3473  155.4367 H   0  0  0  0  0  0  0  0  0  0  0  0  # atno 8008 bound_to 7997
  156.0928  140.1415  156.9597 H   0  0  0  0  0  0  0  0  0  0  0  0  # atno 8009 bound_to 7997
  154.4645  140.0922  156.6961 H   0  0  0  0  0  0  0  0  0  0  0  0  # atno 8010 bound_to 7997
  140.4682  144.0803  150.6230 H   0  0  0  0  0  0  0  0  0  0  0  0  # atno 10167 bound_to 10162
  156.4048  130.4397  149.7295 H   0  0  0  0  0  0  0  0  0  0  0  0  # atno 10718 bound_to 10713
  154.6824  135.2957  154.9595 H   0  0  0  0  0  0  0  0  0  0  0  0  # atno 10763 bound_to 10752
  154.0585  135.6634  153.4813 H   0  0  0  0  0  0  0  0  0  0  0  0  # atno 10764 bound_to 10752
  153.0556  135.5146  154.7874 H   0  0  0  0  0  0  0  0  0  0  0  0  # atno 10765 bound_to 10752
  140.3795  134.1935  155.7664 H   0  0  0  0  0  0  0  0  0  0  0  0  # atno 11005 bound_to 11000
  144.6929  140.3284  143.7220 LP  0  0  0  0  0  0  0  0  0  0  0  0  # atno 17320 bound_to 7965
  145.7443  139.1774  143.2358 LP  0  0  0  0  0  0  0  0  0  0  0  0  # atno 17321 bound_to 7965
  140.4010  143.2704  151.9948 LP  0  0  0  0  0  0  0  0  0  0  0  0  # atno 17342 bound_to 10162
  139.4815  144.5998  151.7626 LP  0  0  0  0  0  0  0  0  0  0  0  0  # atno 17343 bound_to 10162
  156.4297  130.7809  151.2829 LP  0  0  0  0  0  0  0  0  0  0  0  0  # atno 17370 bound_to 10713
  157.7505  131.0157  150.3517 LP  0  0  0  0  0  0  0  0  0  0  0  0  # atno 17371 bound_to 10713
  141.1928  133.8165  157.0825 LP  0  0  0  0  0  0  0  0  0  0  0  0  # atno 17394 bound_to 11000
  140.0489  134.9816  157.1100 LP  0  0  0  0  0  0  0  0  0  0  0  0  # atno 17395 bound_to 11000

$$$$
