AV-unprocessed.smi:2063|AV-procd|sdf|8410|dock8
  -GOLD-   2272011103D 1   1.00000     0.00000
 Structure written by MMmdl.
 39 40  0  0  0  0  0  0  0  0  1 V2000
  154.2302  132.9325  162.6823 C   0  0  0  0  0  0  0  0  0  0  0  0
  154.4196  134.3568  163.2244 C   0  0  0  0  0  0  0  0  0  0  0  0
  153.6650  134.6072  164.5382 C   0  0  0  0  0  0  0  0  0  0  0  0
  154.1166  135.3982  162.1924 C   0  0  0  0  0  0  0  0  0  0  0  0
  153.8262  135.1000  160.9188 N   0  0  0  0  0  0  0  0  0  0  0  0
  153.5837  136.2313  160.1531 N   0  0  0  0  0  0  0  0  0  0  0  0
  153.6979  137.3556  160.8726 C   0  0  0  0  0  0  0  0  0  0  0  0
  153.5018  138.6572  160.3397 N   0  0  0  0  0  0  0  0  0  0  0  0
  153.7203  139.8431  160.9345 C   0  0  0  0  0  0  0  0  0  0  0  0
  154.1360  139.9969  162.0833 O   0  0  0  0  0  0  0  0  0  0  0  0
  153.4246  140.8589  160.1097 N   0  0  0  0  0  0  0  0  0  0  0  0
  153.5537  142.2791  160.4287 C   0  0  2  0  0  0  0  0  0  0  0  0
  152.7246  142.5730  161.6885 C   0  0  0  0  0  0  0  0  0  0  0  0
  153.1059  143.1322  159.2234 C   0  0  1  0  0  0  0  0  0  0  0  0
  151.8772  142.6010  158.4837 C   0  0  0  0  0  0  0  0  0  0  0  0
  151.2987  143.8382  157.8157 C   0  0  0  0  0  0  0  0  0  0  0  0
  151.9616  145.0041  158.5536 C   0  0  0  0  0  0  0  0  0  0  0  0
  152.6542  144.4110  159.6426 O   0  0  0  0  0  0  0  0  0  0  0  0
  154.1137  137.1198  162.5614 S   0  0  0  0  0  0  0  0  0  0  0  0
  154.8443  132.7651  161.7968 H   0  0  0  0  0  0  0  0  0  0  0  0
  153.1915  132.7465  162.4074 H   0  0  0  0  0  0  0  0  0  0  0  0
  154.5143  132.1883  163.4266 H   0  0  0  0  0  0  0  0  0  0  0  0
  155.4805  134.4559  163.4581 H   0  0  0  0  0  0  0  0  0  0  0  0
  153.8933  135.5954  164.9389 H   0  0  0  0  0  0  0  0  0  0  0  0
  153.9403  133.8726  165.2952 H   0  0  0  0  0  0  0  0  0  0  0  0
  152.5857  134.5464  164.3939 H   0  0  0  0  0  0  0  0  0  0  0  0
  153.1537  138.6890  159.3931 H   0  0  0  0  0  0  0  0  0  0  0  0
  153.0917  140.6342  159.1838 H   0  0  0  0  0  0  0  0  0  0  0  0
  154.5957  142.5098  160.6579 H   0  0  0  0  0  0  0  0  0  0  0  0
  152.8368  143.6099  162.0060 H   0  0  0  0  0  0  0  0  0  0  0  0
  153.0407  141.9440  162.5214 H   0  0  0  0  0  0  0  0  0  0  0  0
  151.6632  142.3902  161.5174 H   0  0  0  0  0  0  0  0  0  0  0  0
  153.9324  143.2640  158.5217 H   0  0  0  0  0  0  0  0  0  0  0  0
  152.1206  141.8120  157.7716 H   0  0  0  0  0  0  0  0  0  0  0  0
  151.1541  142.2005  159.1959 H   0  0  0  0  0  0  0  0  0  0  0  0
  151.5451  143.8685  156.7537 H   0  0  0  0  0  0  0  0  0  0  0  0
  150.2124  143.8625  157.9097 H   0  0  0  0  0  0  0  0  0  0  0  0
  152.6781  145.5108  157.9056 H   0  0  0  0  0  0  0  0  0  0  0  0
  151.2401  145.7418  158.9058 H   0  0  0  0  0  0  0  0  0  0  0  0
  1  2  1  0  0  0  0
  1 20  1  0  0  0  0
  1 21  1  0  0  0  0
  1 22  1  0  0  0  0
  2  3  1  0  0  0  0
  2  4  1  0  0  0  0
  2 23  1  0  0  0  0
  3 24  1  0  0  0  0
  3 25  1  0  0  0  0
  3 26  1  0  0  0  0
  4 19  1  0  0  0  0
  4  5  2  0  0  0  0
  5  6  1  0  0  0  0
  6  7  2  0  0  0  0
  7  8  1  0  0  0  0
  7 19  1  0  0  0  0
  8  9  1  0  0  0  0
  8 27  1  0  0  0  0
  9 10  2  0  0  0  0
  9 11  1  0  0  0  0
 11 12  1  0  0  0  0
 11 28  1  0  0  0  0
 12 13  1  0  0  0  0
 12 14  1  0  0  0  0
 12 29  1  0  0  0  0
 13 30  1  0  0  0  0
 13 31  1  0  0  0  0
 13 32  1  0  0  0  0
 14 18  1  0  0  0  0
 14 15  1  0  0  0  0
 14 33  1  0  0  0  0
 15 16  1  0  0  0  0
 15 34  1  0  0  0  0
 15 35  1  0  0  0  0
 16 17  1  0  0  0  0
 16 36  1  0  0  0  0
 16 37  1  0  0  0  0
 17 18  1  0  0  0  0
 17 38  1  0  0  0  0
 17 39  1  0  0  0  0
M  END
> <s_m_source_file>
AV-unprocessed.smi

> <i_m_source_file_index>
2063

> <i_lp_mmshare_version>
43012

> <i_f3d_flags>
0

> <s_epik_input>
W0NIM11bQ0hdKFtDSDNdKWMxbm5jKHMxKVtOSF1DKD1PKVtOSF1bQ0BIXShbQ0gzXSlbQ0BASF0yW0NIMl1bQ0gyXVtDSDJdTzI=

> <s_epik_cmdline>
J2VwaWtfcHl0aG9uJywgJy1waCcsICc3LjAnLCAnLXRuJywgJzgnLCAnLW1hJywgJzIwMCcsICctbWV0YWxfYmluZGluZycsICctaW1hZScsICc8aW5maWxlLm1hZT4nLCAnLW9tYWUnLCAnPG91dGZpbGUubWFlPic=

> <r_lp_tautomer_probability>
1

> <r_epik_Ionization_Penalty>
0.00050567

> <r_epik_Ionization_Penalty_Charging>
0

> <r_epik_Ionization_Penalty_Neutral>
0.00050567

> <r_epik_State_Penalty>
-0

> <r_epik_Charging_Adjusted_Penalty>
0

> <i_epik_Tot_Q>
0

> <i_epik_Tot_abs_Q>
0

> <r_epik_Metal_State_Penalty>
0.219912

> <b_epik_Metal_Only>
0

> <s_lp_Force_Field>
OPLS_2005

> <r_lp_Energy>
10.8912

> <b_lp_Chiralities_Consistent>
1

> <s_lp_Variant>
AV-unprocessed.smi:2063-3

> <Gold.Version>
5.8.1

> <Gold.Id.Protein>
6NUR|6NUR_protein|mol2

> <Gold.PLP.Fitness>
35.8225

> <Gold.PLP.PLP>
-37.1529

> <Gold.PLP.part.hbond>
-1.2916

> <Gold.PLP.part.metal>
0.0000

> <Gold.PLP.part.buried>
-5.4208

> <Gold.PLP.part.nonpolar>
-30.9377

> <Gold.PLP.part.repulsive>
0.1130

> <Gold.PLP.ligand.clash>
0.0000

> <Gold.PLP.ligand.torsion>
0.7138

> <Gold.PLP.Chemscore.Hbond>
0.0000

> <Gold.PLP.Chemscore.CHOScore>
0.0000

> <Gold.PLP.Chemscore.Metal>
0.0000

> <Gold.PLP.Chemscore.Internal.Correction>
0.0973

> <Gold.Rescore>
     Score         DG    S(hbond)    S(metal)    S(lipo)     H(rot)  DE(clash)    DE(int)     intcor
     11.01     -13.37       0.00        0.00      98.39       1.42       0.03       2.33       ----

> <Gold.Chemscore.Fitness>
11.0053

> <Gold.Chemscore.DG>
-13.3686

> <Gold.Chemscore.ZeroCoef>
-5.4800

> <Gold.Chemscore.Hbond>
0.0000

> <Gold.Chemscore.Metal>
0.0000

> <Gold.Chemscore.Lipo>
98.3895

> <Gold.Chemscore.Internal_Hbond>
0.0000

> <Gold.Chemscore.DEClash>
0.0313

> <Gold.Chemscore.DEInternal>
2.3321

> <Gold.Chemscore.Rot>
1.4152

> <Gold.Chemscore.Internal.Correction>
   9.000000E+99

> <Gold.Chemscore.Hbond.Weighted>
-0.0000

> <Gold.Chemscore.Metal.Weighted>
-0.0000

> <Gold.Chemscore.Lipo.Weighted>
-11.5116

> <Gold.Chemscore.Internal_Hbond.Weighted>
0.0000

> <Gold.Chemscore.DEClash.Weighted>
0.0313

> <Gold.Chemscore.DEInternal.Weighted>
2.3321

> <Gold.Chemscore.Rot.Weighted>
3.6229

> <Gold.Chemscore.Internal.Correction.Weighted>
   9.000000E+99

> <Gold.Protein.RotatedTorsions>
[ 6907 6896 6895 6894 ] final   42.71 input  -60.11 | X-H torsion
[ 7974 7965 7964 7962 ] final  152.81 input  175.53 | X-H torsion
[ 8008 7997 7996 7995 ] final  -57.33 input   59.86 | X-H torsion
[ 10167 10162 10161 10158 ] final  -61.61 input  -65.29 | X-H torsion
[ 10718 10713 10712 10709 ] final  105.36 input   66.30 | X-H torsion
[ 10763 10752 10751 10750 ] final  150.66 input  -60.55 | X-H torsion
[ 11005 11000 10999 10996 ] final   29.32 input  -57.11 | X-H torsion

> <Gold.Protein.ActiveResidues>
 VAL166  LYS551  ARG553  GLY616  TRP617  ASP618  TYR619  PRO620  LYS621  CYS622 
 ASP623  PHE694  ASN695  SER759  ASP760  ASP761  ALA762  ILE779  LEU786  VAL792 
 PHE793  MET794  SER795  GLU796  ALA797  LYS798  CYS799  TRP800  GLU811  SER814 

> <Gold.Protein.RotatedAtoms>
  152.2112  134.8499  160.0496 H   0  0  0  0  0  0  0  0  0  0  0  0  # atno 6907 bound_to 6896
  151.9317  133.3608  159.3941 H   0  0  0  0  0  0  0  0  0  0  0  0  # atno 6908 bound_to 6896
  150.6977  134.4455  159.5356 H   0  0  0  0  0  0  0  0  0  0  0  0  # atno 6909 bound_to 6896
  144.8197  139.6718  143.6106 H   0  0  0  0  0  0  0  0  0  0  0  0  # atno 7974 bound_to 7965
  154.4264  140.1109  156.5780 H   0  0  0  0  0  0  0  0  0  0  0  0  # atno 8008 bound_to 7997
  155.6142  140.3494  155.4613 H   0  0  0  0  0  0  0  0  0  0  0  0  # atno 8009 bound_to 7997
  156.0075  140.1212  157.0476 H   0  0  0  0  0  0  0  0  0  0  0  0  # atno 8010 bound_to 7997
  140.5994  143.2358  151.5962 H   0  0  0  0  0  0  0  0  0  0  0  0  # atno 10167 bound_to 10162
  157.6708  131.0826  150.5844 H   0  0  0  0  0  0  0  0  0  0  0  0  # atno 10718 bound_to 10713
  154.0911  135.2852  155.3271 H   0  0  0  0  0  0  0  0  0  0  0  0  # atno 10763 bound_to 10752
  154.6619  135.5331  153.8032 H   0  0  0  0  0  0  0  0  0  0  0  0  # atno 10764 bound_to 10752
  153.0413  135.6536  154.1080 H   0  0  0  0  0  0  0  0  0  0  0  0  # atno 10765 bound_to 10752
  140.3062  134.2701  155.7743 H   0  0  0  0  0  0  0  0  0  0  0  0  # atno 11005 bound_to 11000
  146.2502  139.6183  142.9432 LP  0  0  0  0  0  0  0  0  0  0  0  0  # atno 17320 bound_to 7965
  145.5134  141.0434  143.2475 LP  0  0  0  0  0  0  0  0  0  0  0  0  # atno 17321 bound_to 7965
  139.5281  144.2999  152.1082 LP  0  0  0  0  0  0  0  0  0  0  0  0  # atno 17342 bound_to 10162
  140.2177  144.4498  150.6356 LP  0  0  0  0  0  0  0  0  0  0  0  0  # atno 17343 bound_to 10162
  156.6145  130.4389  149.5846 LP  0  0  0  0  0  0  0  0  0  0  0  0  # atno 17370 bound_to 10713
  156.2404  130.6848  151.1550 LP  0  0  0  0  0  0  0  0  0  0  0  0  # atno 17371 bound_to 10713
  141.2118  133.7678  156.9840 LP  0  0  0  0  0  0  0  0  0  0  0  0  # atno 17394 bound_to 11000
  140.1065  134.9503  157.2002 LP  0  0  0  0  0  0  0  0  0  0  0  0  # atno 17395 bound_to 11000

$$$$
