AV-unprocessed.smi:2077|AV-procd|sdf|8462|dock3
  -GOLD-   2272011163D 1   1.00000     0.00000
 Structure written by MMmdl.
 38 40  0  0  0  0  0  0  0  0  1 V2000
  150.1954  135.9783  160.3717 C   0  0  0  0  0  0  0  0  0  0  0  0
  150.4566  136.2967  158.9553 N   0  0  0  0  0  0  0  0  0  0  0  0
  150.9370  137.5431  158.6498 C   0  0  0  0  0  0  0  0  0  0  0  0
  151.1808  138.4276  159.4719 O   0  0  0  0  0  0  0  0  0  0  0  0
  151.1496  137.7605  157.2166 C   0  0  0  0  0  0  0  0  0  0  0  0
  150.9081  136.8112  156.2812 C   0  0  0  0  0  0  0  0  0  0  0  0
  151.1933  137.2765  155.0023 N   0  0  0  0  0  0  0  0  0  0  0  0
  151.6049  138.5222  155.2452 C   0  0  0  0  0  0  0  0  0  0  0  0
  151.6093  138.8900  156.5428 N   0  0  0  0  0  0  0  0  0  0  0  0
  152.0077  140.1821  157.0784 C   0  0  0  0  0  0  0  0  0  0  0  0
  153.1026  140.0621  158.1562 C   0  0  1  0  0  0  0  0  0  0  0  0
  154.3165  139.6486  157.5583 O   0  0  0  0  0  0  0  0  0  0  0  0
  153.2520  141.3585  158.9361 C   0  0  0  0  0  0  0  0  0  0  0  0
  154.1838  141.4643  159.9926 C   0  0  0  0  0  0  0  0  0  0  0  0
  154.3205  142.6751  160.6993 C   0  0  0  0  0  0  0  0  0  0  0  0
  153.5292  143.7870  160.3523 C   0  0  0  0  0  0  0  0  0  0  0  0
  152.6022  143.6884  159.2970 C   0  0  0  0  0  0  0  0  0  0  0  0
  151.8441  144.7582  158.9596 F   0  0  0  0  0  0  0  0  0  0  0  0
  152.4647  142.4778  158.5907 C   0  0  0  0  0  0  0  0  0  0  0  0
  150.4251  135.5483  156.7053 N   0  0  0  0  0  0  0  0  0  0  0  0
  150.1791  134.5431  155.6671 C   0  0  0  0  0  0  0  0  0  0  0  0
  150.1928  135.2946  158.0361 C   0  0  0  0  0  0  0  0  0  0  0  0
  149.7589  134.1988  158.4019 O   0  0  0  0  0  0  0  0  0  0  0  0
  150.3910  136.7932  161.0696 H   0  0  0  0  0  0  0  0  0  0  0  0
  150.8146  135.1392  160.6927 H   0  0  0  0  0  0  0  0  0  0  0  0
  149.1503  135.6975  160.5126 H   0  0  0  0  0  0  0  0  0  0  0  0
  151.9150  139.1891  154.4538 H   0  0  0  0  0  0  0  0  0  0  0  0
  152.3512  140.8115  156.2560 H   0  0  0  0  0  0  0  0  0  0  0  0
  151.1225  140.6721  157.4842 H   0  0  0  0  0  0  0  0  0  0  0  0
  152.8243  139.2767  158.8601 H   0  0  0  0  0  0  0  0  0  0  0  0
  154.6858  138.9530  158.0810 H   0  0  0  0  0  0  0  0  0  0  0  0
  154.7994  140.6185  160.2626 H   0  0  0  0  0  0  0  0  0  0  0  0
  155.0342  142.7514  161.5063 H   0  0  0  0  0  0  0  0  0  0  0  0
  153.6349  144.7158  160.8935 H   0  0  0  0  0  0  0  0  0  0  0  0
  151.7537  142.4129  157.7796 H   0  0  0  0  0  0  0  0  0  0  0  0
  149.8749  133.5675  156.0474 H   0  0  0  0  0  0  0  0  0  0  0  0
  151.0831  134.3889  155.0771 H   0  0  0  0  0  0  0  0  0  0  0  0
  149.3952  134.8904  154.9934 H   0  0  0  0  0  0  0  0  0  0  0  0
  1  2  1  0  0  0  0
  1 24  1  0  0  0  0
  1 25  1  0  0  0  0
  1 26  1  0  0  0  0
  2 22  1  0  0  0  0
  2  3  1  0  0  0  0
  3  4  2  0  0  0  0
  3  5  1  0  0  0  0
  5  9  1  0  0  0  0
  5  6  2  0  0  0  0
  6  7  1  0  0  0  0
  6 20  1  0  0  0  0
  7  8  2  0  0  0  0
  8  9  1  0  0  0  0
  8 27  1  0  0  0  0
  9 10  1  0  0  0  0
 10 11  1  0  0  0  0
 10 28  1  0  0  0  0
 10 29  1  0  0  0  0
 11 12  1  0  0  0  0
 11 13  1  0  0  0  0
 11 30  1  0  0  0  0
 12 31  1  0  0  0  0
 13 19  1  0  0  0  0
 13 14  2  0  0  0  0
 14 15  1  0  0  0  0
 14 32  1  0  0  0  0
 15 16  2  0  0  0  0
 15 33  1  0  0  0  0
 16 17  1  0  0  0  0
 16 34  1  0  0  0  0
 17 18  1  0  0  0  0
 17 19  2  0  0  0  0
 19 35  1  0  0  0  0
 20 21  1  0  0  0  0
 20 22  1  0  0  0  0
 21 36  1  0  0  0  0
 21 37  1  0  0  0  0
 21 38  1  0  0  0  0
 22 23  2  0  0  0  0
M  END
> <s_m_source_file>
AV-unprocessed.smi

> <i_m_source_file_index>
2077

> <i_lp_mmshare_version>
43012

> <i_f3d_flags>
0

> <s_epik_input>
Tz1jMW4oW0NIM10pYyg9TyluKFtDSDNdKWMoYzEyKW5bY0hdbjJbQ0gyXVtDQEhdKFtPSF0pYzNbY0hdW2NIXVtjSF1jKEYpW2NIXTM=

> <s_epik_cmdline>
J2VwaWtfcHl0aG9uJywgJy1waCcsICc3LjAnLCAnLXRuJywgJzgnLCAnLW1hJywgJzIwMCcsICctbWV0YWxfYmluZGluZycsICctaW1hZScsICc8aW5maWxlLm1hZT4nLCAnLW9tYWUnLCAnPG91dGZpbGUubWFlPic=

> <r_lp_tautomer_probability>
1

> <r_epik_Ionization_Penalty>
1.5338e-06

> <r_epik_Ionization_Penalty_Charging>
3.74189e-09

> <r_epik_Ionization_Penalty_Neutral>
1.53006e-06

> <r_epik_State_Penalty>
-0

> <r_epik_Charging_Adjusted_Penalty>
3.74189e-09

> <i_epik_Tot_Q>
0

> <i_epik_Tot_abs_Q>
0

> <r_epik_Metal_State_Penalty>
-0

> <b_epik_Metal_Only>
0

> <s_lp_Force_Field>
OPLS_2005

> <r_lp_Energy>
35.2463

> <b_lp_Chiralities_Consistent>
1

> <s_lp_Variant>
AV-unprocessed.smi:2077-2

> <Gold.Version>
5.8.1

> <Gold.Id.Protein>
6NUR|6NUR_protein|mol2

> <Gold.PLP.Fitness>
48.9266

> <Gold.PLP.PLP>
-43.1295

> <Gold.PLP.part.hbond>
-2.3326

> <Gold.PLP.part.metal>
0.0000

> <Gold.PLP.part.buried>
-5.5973

> <Gold.PLP.part.nonpolar>
-34.9826

> <Gold.PLP.part.repulsive>
0.1203

> <Gold.PLP.ligand.clash>
0.0000

> <Gold.PLP.ligand.torsion>
0.1013

> <Gold.PLP.Chemscore.Hbond>
1.9920

> <Gold.PLP.Chemscore.CHOScore>
0.0000

> <Gold.PLP.Chemscore.Metal>
0.0000

> <Gold.PLP.Chemscore.Internal.Correction>
0.0236

> <Gold.Rescore>
     Score         DG    S(hbond)    S(metal)    S(lipo)     H(rot)  DE(clash)    DE(int)     intcor
     15.72     -16.03       1.93        0.00      84.04       2.24       0.00       0.31       ----

> <Gold.Chemscore.Fitness>
15.7217

> <Gold.Chemscore.DG>
-16.0311

> <Gold.Chemscore.ZeroCoef>
-5.4800

> <Gold.Chemscore.Hbond>
1.9302

> <Gold.Chemscore.Metal>
0.0000

> <Gold.Chemscore.Lipo>
84.0429

> <Gold.Chemscore.Internal_Hbond>
0.0000

> <Gold.Chemscore.DEClash>
0.0000

> <Gold.Chemscore.DEInternal>
0.3094

> <Gold.Chemscore.Rot>
2.2377

> <Gold.Chemscore.Internal.Correction>
   9.000000E+99

> <Gold.Chemscore.Hbonds>
donor molecule, donor type, donor heavy atom, donor atom, acceptor molecule, acceptor atom, score
      P1  H 10752 10764       L1     7  0.01

> <Gold.Chemscore.Hbond.Weighted>
-6.4467

> <Gold.Chemscore.Metal.Weighted>
-0.0000

> <Gold.Chemscore.Lipo.Weighted>
-9.8330

> <Gold.Chemscore.Internal_Hbond.Weighted>
0.0000

> <Gold.Chemscore.DEClash.Weighted>
0.0000

> <Gold.Chemscore.DEInternal.Weighted>
0.3094

> <Gold.Chemscore.Rot.Weighted>
5.7286

> <Gold.Chemscore.Internal.Correction.Weighted>
   9.000000E+99

> <Gold.Protein.RotatedTorsions>
[ 6907 6896 6895 6894 ] final   58.34 input  -60.11 | X-H torsion
[ 7974 7965 7964 7962 ] final -161.92 input  175.53 | X-H torsion
[ 8008 7997 7996 7995 ] final  161.61 input   59.86 | X-H torsion
[ 10167 10162 10161 10158 ] final -125.52 input  -65.29 | X-H torsion
[ 10718 10713 10712 10709 ] final  109.37 input   66.30 | X-H torsion
[ 10763 10752 10751 10750 ] final  -63.30 input  -60.55 | X-H torsion
[ 11005 11000 10999 10996 ] final  175.42 input  -57.11 | X-H torsion

> <Gold.Protein.ActiveResidues>
 VAL166  LYS551  ARG553  GLY616  TRP617  ASP618  TYR619  PRO620  LYS621  CYS622 
 ASP623  PHE694  ASN695  SER759  ASP760  ASP761  ALA762  ILE779  LEU786  VAL792 
 PHE793  MET794  SER795  GLU796  ALA797  LYS798  CYS799  TRP800  GLU811  SER814 

> <Gold.Protein.RotatedAtoms>
  152.3815  134.6582  160.0140 H   0  0  0  0  0  0  0  0  0  0  0  0  # atno 6907 bound_to 6896
  151.6844  133.3306  159.3235 H   0  0  0  0  0  0  0  0  0  0  0  0  # atno 6908 bound_to 6896
  150.7751  134.6689  159.6425 H   0  0  0  0  0  0  0  0  0  0  0  0  # atno 6909 bound_to 6896
  144.7375  140.3328  143.6150 H   0  0  0  0  0  0  0  0  0  0  0  0  # atno 7974 bound_to 7965
  156.2090  140.1772  156.7736 H   0  0  0  0  0  0  0  0  0  0  0  0  # atno 8008 bound_to 7997
  154.5696  140.0685  156.8974 H   0  0  0  0  0  0  0  0  0  0  0  0  # atno 8009 bound_to 7997
  155.2697  140.3341  155.4268 H   0  0  0  0  0  0  0  0  0  0  0  0  # atno 8010 bound_to 7997
  139.9812  143.5741  152.2377 H   0  0  0  0  0  0  0  0  0  0  0  0  # atno 10167 bound_to 10162
  157.6544  131.0912  150.6444 H   0  0  0  0  0  0  0  0  0  0  0  0  # atno 10718 bound_to 10713
  154.3129  135.6212  153.5473 H   0  0  0  0  0  0  0  0  0  0  0  0  # atno 10763 bound_to 10752
  152.9827  135.5705  154.5157 H   0  0  0  0  0  0  0  0  0  0  0  0  # atno 10764 bound_to 10752
  154.4810  135.2863  155.1547 H   0  0  0  0  0  0  0  0  0  0  0  0  # atno 10765 bound_to 10752
  140.3619  134.7105  157.4337 H   0  0  0  0  0  0  0  0  0  0  0  0  # atno 11005 bound_to 11000
  145.7454  139.1777  143.2352 LP  0  0  0  0  0  0  0  0  0  0  0  0  # atno 17320 bound_to 7965
  146.1102  140.7438  142.9507 LP  0  0  0  0  0  0  0  0  0  0  0  0  # atno 17321 bound_to 7965
  139.6408  144.7654  151.2342 LP  0  0  0  0  0  0  0  0  0  0  0  0  # atno 17342 bound_to 10162
  140.7488  143.6320  150.8414 LP  0  0  0  0  0  0  0  0  0  0  0  0  # atno 17343 bound_to 10162
  156.6752  130.4551  149.5645 LP  0  0  0  0  0  0  0  0  0  0  0  0  # atno 17370 bound_to 10713
  156.1969  130.6595  151.1124 LP  0  0  0  0  0  0  0  0  0  0  0  0  # atno 17371 bound_to 10713
  140.0619  134.5983  155.8739 LP  0  0  0  0  0  0  0  0  0  0  0  0  # atno 17394 bound_to 11000
  141.1981  133.6600  156.5776 LP  0  0  0  0  0  0  0  0  0  0  0  0  # atno 17395 bound_to 11000

$$$$
