AV-unprocessed.smi:2061|AV-procd|sdf|8391|dock9
  -GOLD-   2272011 73D 1   1.00000     0.00000
 Structure written by MMmdl.
 45 46  0  0  0  0  0  0  0  0  3 V2000
  150.9869  142.4001  157.3515 C   0  0  0  0  0  0  0  0  0  0  0  0
  150.6034  141.5811  156.1673 C   0  0  0  0  0  0  0  0  0  0  0  0
  149.4717  141.5243  155.4035 C   0  0  0  0  0  0  0  0  0  0  0  0
  149.7838  140.5281  154.4404 C   0  0  0  0  0  0  0  0  0  0  0  0
  148.8404  140.1637  153.4435 N   0  0  0  0  0  0  0  0  0  0  0  0
  147.5506  139.8117  153.5939 C   0  0  0  0  0  0  0  0  0  0  0  0
  147.0467  139.7505  154.7220 O   0  0  0  0  0  0  0  0  0  0  0  0
  146.9409  139.5605  152.4022 N   0  5  0  0  0  0  0  0  0  0  0  0
  146.5015  138.2386  151.9513 C   0  0  0  0  0  0  0  0  0  0  0  0
  146.2225  137.2978  153.1567 C   0  0  1  0  0  0  0  0  0  0  0  0
  144.9027  137.6035  153.9086 C   0  0  0  0  0  0  0  0  0  0  0  0
  146.3381  135.8662  152.7392 N   0  3  1  0  0  0  0  0  0  0  0  0
  146.3386  134.9144  153.8773 C   0  0  0  0  0  0  0  0  0  0  0  0
  146.6665  133.4863  153.3990 C   0  0  2  0  0  0  0  0  0  0  0  0
  148.1490  133.2886  153.0358 C   0  0  0  0  0  0  0  0  0  0  0  0
  145.7953  133.1055  152.3335 O   0  0  0  0  0  0  0  0  0  0  0  0
  145.7898  133.9895  151.2149 C   0  0  1  0  0  0  0  0  0  0  0  0
  144.8043  133.4330  150.1813 C   0  0  0  0  0  0  0  0  0  0  0  0
  145.3977  135.4008  151.6841 C   0  0  0  0  0  0  0  0  0  0  0  0
  150.9977  140.0226  154.6035 N   0  0  0  0  0  0  0  0  0  0  0  0
  151.5291  140.6954  155.7100 O   0  0  0  0  0  0  0  0  0  0  0  0
  150.1061  142.8294  157.8291 H   0  0  0  0  0  0  0  0  0  0  0  0
  151.6455  143.2173  157.0571 H   0  0  0  0  0  0  0  0  0  0  0  0
  151.5094  141.7927  158.0909 H   0  0  0  0  0  0  0  0  0  0  0  0
  148.5668  142.1024  155.5169 H   0  0  0  0  0  0  0  0  0  0  0  0
  149.1816  140.1802  152.4938 H   0  0  0  0  0  0  0  0  0  0  0  0
  145.6015  138.3069  151.3399 H   0  0  0  0  0  0  0  0  0  0  0  0
  147.2469  137.7719  151.3050 H   0  0  0  0  0  0  0  0  0  0  0  0
  147.0309  137.4739  153.8683 H   0  0  0  0  0  0  0  0  0  0  0  0
  144.9044  138.6071  154.3375 H   0  0  0  0  0  0  0  0  0  0  0  0
  144.7610  136.9130  154.7401 H   0  0  0  0  0  0  0  0  0  0  0  0
  144.0232  137.5278  153.2667 H   0  0  0  0  0  0  0  0  0  0  0  0
  147.0646  135.2199  154.6322 H   0  0  0  0  0  0  0  0  0  0  0  0
  145.3588  134.9302  154.3566 H   0  0  0  0  0  0  0  0  0  0  0  0
  146.4521  132.8040  154.2220 H   0  0  0  0  0  0  0  0  0  0  0  0
  148.7846  133.4570  153.9055 H   0  0  0  0  0  0  0  0  0  0  0  0
  148.4807  133.9747  152.2569 H   0  0  0  0  0  0  0  0  0  0  0  0
  148.3313  132.2718  152.6877 H   0  0  0  0  0  0  0  0  0  0  0  0
  146.7795  134.0162  150.7585 H   0  0  0  0  0  0  0  0  0  0  0  0
  144.7651  134.0659  149.2944 H   0  0  0  0  0  0  0  0  0  0  0  0
  143.7958  133.3680  150.5911 H   0  0  0  0  0  0  0  0  0  0  0  0
  145.0981  132.4326  149.8625 H   0  0  0  0  0  0  0  0  0  0  0  0
  144.3776  135.3876  152.0706 H   0  0  0  0  0  0  0  0  0  0  0  0
  145.4099  136.0825  150.8330 H   0  0  0  0  0  0  0  0  0  0  0  0
  147.2633  135.7972  152.3394 H   0  0  0  0  0  0  0  0  0  0  0  0
  1  2  1  0  0  0  0
  1 22  1  0  0  0  0
  1 23  1  0  0  0  0
  1 24  1  0  0  0  0
  2 21  1  0  0  0  0
  2  3  2  0  0  0  0
  3  4  1  0  0  0  0
  3 25  1  0  0  0  0
  4  5  1  0  0  0  0
  4 20  2  0  0  0  0
  5  6  1  0  0  0  0
  5 26  1  0  0  0  0
  6  7  2  0  0  0  0
  6  8  1  0  0  0  0
  8  9  1  0  0  0  0
  9 10  1  0  0  0  0
  9 27  1  0  0  0  0
  9 28  1  0  0  0  0
 10 11  1  0  0  0  0
 10 12  1  0  0  0  0
 10 29  1  0  0  0  0
 11 30  1  0  0  0  0
 11 31  1  0  0  0  0
 11 32  1  0  0  0  0
 12 19  1  0  0  0  0
 12 13  1  0  0  0  0
 12 45  1  0  0  0  0
 13 14  1  0  0  0  0
 13 33  1  0  0  0  0
 13 34  1  0  0  0  0
 14 15  1  0  0  0  0
 14 16  1  0  0  0  0
 14 35  1  0  0  0  0
 15 36  1  0  0  0  0
 15 37  1  0  0  0  0
 15 38  1  0  0  0  0
 16 17  1  0  0  0  0
 17 18  1  0  0  0  0
 17 19  1  0  0  0  0
 17 39  1  0  0  0  0
 18 40  1  0  0  0  0
 18 41  1  0  0  0  0
 18 42  1  0  0  0  0
 19 43  1  0  0  0  0
 19 44  1  0  0  0  0
 20 21  1  0  0  0  0
M  CHG  1   8  -1
M  CHG  1  12   1
M  END
> <s_m_source_file>
AV-unprocessed.smi

> <i_m_source_file_index>
2061

> <i_lp_mmshare_version>
43012

> <i_f3d_flags>
0

> <s_epik_input>
W0NIM11jMVtjSF1jKG5vMSlbTkhdQyg9TylbTkhdW0NIMl1bQ0BIXShbQ0gzXSlOMltDSDJdW0NAQEhdKFtDSDNdKU9bQ0BASF0oW0NIM10pW0NIMl0y

> <s_epik_cmdline>
J2VwaWtfcHl0aG9uJywgJy1waCcsICc3LjAnLCAnLXRuJywgJzgnLCAnLW1hJywgJzIwMCcsICctbWV0YWxfYmluZGluZycsICctaW1hZScsICc8aW5maWxlLm1hZT4nLCAnLW9tYWUnLCAnPG91dGZpbGUubWFlPic=

> <r_epik_Ionization_Penalty>
6.8073

> <r_epik_Ionization_Penalty_Charging>
6.80729

> <r_epik_Ionization_Penalty_Neutral>
5.65391e-06

> <r_epik_State_Penalty>
7.47323

> <r_epik_Charging_Adjusted_Penalty>
14.2805

> <i_epik_Tot_Q>
0

> <i_epik_Tot_abs_Q>
2

> <r_epik_Metal_State_Penalty>
3.40035

> <b_epik_Metal_Only>
1

> <s_lp_Force_Field>
OPLS_2005

> <r_lp_Energy>
19.3707

> <b_lp_Chiralities_Consistent>
1

> <s_lp_Variant>
AV-unprocessed.smi:2061-32

> <Gold.Version>
5.8.1

> <Gold.Id.Protein>
6NUR|6NUR_protein|mol2

> <Gold.PLP.Fitness>
41.4207

> <Gold.PLP.PLP>
-32.2962

> <Gold.PLP.part.hbond>
-3.9675

> <Gold.PLP.part.metal>
0.0000

> <Gold.PLP.part.buried>
-2.3302

> <Gold.PLP.part.nonpolar>
-26.7149

> <Gold.PLP.part.repulsive>
0.7419

> <Gold.PLP.ligand.clash>
0.0000

> <Gold.PLP.ligand.torsion>
1.5125

> <Gold.PLP.Chemscore.Hbond>
4.0000

> <Gold.PLP.Chemscore.CHOScore>
0.0000

> <Gold.PLP.Chemscore.Metal>
0.0000

> <Gold.Chemscore.Hbonds>
donor molecule, donor type, donor heavy atom, donor atom, acceptor molecule, acceptor atom, score
      L1  H     5    26       P1  7957  0.70
      L1  H    12    45       P1  7948  2.00
      P1  H  7989  7998       L1    20  0.71

> <Gold.PLP.Chemscore.Internal.Correction>
0.1495

> <Gold.Rescore>
     Score         DG    S(hbond)    S(metal)    S(lipo)     H(rot)  DE(clash)    DE(int)     intcor
     14.38     -16.02       1.99        0.00      67.29       1.56       0.04       1.60       ----

> <Gold.Chemscore.Fitness>
14.3820

> <Gold.Chemscore.DG>
-16.0249

> <Gold.Chemscore.ZeroCoef>
-5.4800

> <Gold.Chemscore.Hbond>
1.9918

> <Gold.Chemscore.Metal>
0.0000

> <Gold.Chemscore.Lipo>
67.2902

> <Gold.Chemscore.Internal_Hbond>
0.0000

> <Gold.Chemscore.DEClash>
0.0414

> <Gold.Chemscore.DEInternal>
1.6014

> <Gold.Chemscore.Rot>
1.5550

> <Gold.Chemscore.Internal.Correction>
   9.000000E+99

> <Gold.Chemscore.Hbonds>
donor molecule, donor type, donor heavy atom, donor atom, acceptor molecule, acceptor atom, score
      L1  H     5    26       P1  7957  0.69
      L1  H    12    45       P1  7948  1.00
      P1  H  7989  7998       L1    20  0.02

> <Gold.Chemscore.Hbond.Weighted>
-6.6528

> <Gold.Chemscore.Metal.Weighted>
-0.0000

> <Gold.Chemscore.Lipo.Weighted>
-7.8730

> <Gold.Chemscore.Internal_Hbond.Weighted>
0.0000

> <Gold.Chemscore.DEClash.Weighted>
0.0414

> <Gold.Chemscore.DEInternal.Weighted>
1.6014

> <Gold.Chemscore.Rot.Weighted>
3.9809

> <Gold.Chemscore.Internal.Correction.Weighted>
   9.000000E+99

> <Gold.Protein.RotatedTorsions>
[ 6907 6896 6895 6894 ] final  119.28 input  -60.11 | X-H torsion
[ 7974 7965 7964 7962 ] final  139.41 input  175.53 | X-H torsion
[ 8008 7997 7996 7995 ] final -148.17 input   59.86 | X-H torsion
[ 10167 10162 10161 10158 ] final   42.27 input  -65.29 | X-H torsion
[ 10718 10713 10712 10709 ] final  170.09 input   66.30 | X-H torsion
[ 10763 10752 10751 10750 ] final -162.92 input  -60.55 | X-H torsion
[ 11005 11000 10999 10996 ] final -165.60 input  -57.11 | X-H torsion

> <Gold.Protein.ActiveResidues>
 VAL166  LYS551  ARG553  GLY616  TRP617  ASP618  TYR619  PRO620  LYS621  CYS622 
 ASP623  PHE694  ASN695  SER759  ASP760  ASP761  ALA762  ILE779  LEU786  VAL792 
 PHE793  MET794  SER795  GLU796  ALA797  LYS798  CYS799  TRP800  GLU811  SER814 

> <Gold.Protein.RotatedAtoms>
  152.4483  133.7579  159.6730 H   0  0  0  0  0  0  0  0  0  0  0  0  # atno 6907 bound_to 6896
  150.8388  133.7959  159.3075 H   0  0  0  0  0  0  0  0  0  0  0  0  # atno 6908 bound_to 6896
  151.5590  135.1068  160.0020 H   0  0  0  0  0  0  0  0  0  0  0  0  # atno 6909 bound_to 6896
  144.9281  139.5082  143.5631 H   0  0  0  0  0  0  0  0  0  0  0  0  # atno 7974 bound_to 7965
  155.5874  140.0649  157.2767 H   0  0  0  0  0  0  0  0  0  0  0  0  # atno 8008 bound_to 7997
  154.4315  140.1841  156.1086 H   0  0  0  0  0  0  0  0  0  0  0  0  # atno 8009 bound_to 7997
  156.0259  140.3312  155.7091 H   0  0  0  0  0  0  0  0  0  0  0  0  # atno 8010 bound_to 7997
  140.3561  144.2288  150.6141 H   0  0  0  0  0  0  0  0  0  0  0  0  # atno 10167 bound_to 10162
  157.0131  131.0210  151.2797 H   0  0  0  0  0  0  0  0  0  0  0  0  # atno 10718 bound_to 10713
  154.7170  135.3018  154.9108 H   0  0  0  0  0  0  0  0  0  0  0  0  # atno 10763 bound_to 10752
  153.9992  135.6709  153.4762 H   0  0  0  0  0  0  0  0  0  0  0  0  # atno 10764 bound_to 10752
  153.0801  135.5013  154.8402 H   0  0  0  0  0  0  0  0  0  0  0  0  # atno 10765 bound_to 10752
  140.5738  134.5210  157.5166 H   0  0  0  0  0  0  0  0  0  0  0  0  # atno 11005 bound_to 11000
  146.3235  139.8211  142.8926 LP  0  0  0  0  0  0  0  0  0  0  0  0  # atno 17320 bound_to 7965
  145.3186  141.0238  143.3513 LP  0  0  0  0  0  0  0  0  0  0  0  0  # atno 17321 bound_to 7965
  140.5172  143.2275  151.8444 LP  0  0  0  0  0  0  0  0  0  0  0  0  # atno 17342 bound_to 10162
  139.4820  144.4879  151.9222 LP  0  0  0  0  0  0  0  0  0  0  0  0  # atno 17343 bound_to 10162
  157.5305  130.8056  149.7912 LP  0  0  0  0  0  0  0  0  0  0  0  0  # atno 17370 bound_to 10713
  156.0129  130.3826  150.2206 LP  0  0  0  0  0  0  0  0  0  0  0  0  # atno 17371 bound_to 10713
  139.9349  134.7894  156.0830 LP  0  0  0  0  0  0  0  0  0  0  0  0  # atno 17394 bound_to 11000
  141.1039  133.6667  156.2818 LP  0  0  0  0  0  0  0  0  0  0  0  0  # atno 17395 bound_to 11000

$$$$
