#       Name:                AV-unprocessed.smi:3234
#       Creating user name   scv26
#       Creation time:       Fri Mar 27 18:21:58 2020


#       File generated by GOLD software.
#

@<TRIPOS>MOLECULE
AV-unprocessed.smi:3234
    40    42     1
SMALL
NO_CHARGES


@<TRIPOS>ATOM
      1 ****        -0.6221   1.4695  -1.1365 O.2            1 S1                 0.0000
      2 ****        -1.1759   0.3935  -0.8820 C.2            1 S1                 0.0000
      3 ****        -2.5179   0.3122  -0.8512 N.am           1 S1                 0.0000
      4 ****        -3.4756   1.3456  -1.0326 C.ar           1 S1                 0.0000
      5 ****        -4.7316   0.9941  -1.5740 C.ar           1 S1                 0.0000
      6 ****        -5.7150   1.9889  -1.7480 C.ar           1 S1                 0.0000
      7 ****        -5.4547   3.2631  -1.3840 N.pl3          1 S1                 1.0000
      8 ****        -4.2761   3.6424  -0.8447 C.ar           1 S1                 0.0000
      9 ****        -3.2544   2.6918  -0.6473 C.ar           1 S1                 0.0000
     10 ****        -0.5815  -0.8039  -0.6284 N.pl3          1 S1                -1.0000
     11 ****         0.8642  -1.0360  -0.6391 C.3            1 S1                 0.0000
     12 ****         1.1984  -2.5260  -0.5538 C.3            1 S1                 0.0000
     13 ****         2.5887  -2.5682   0.0987 C.3            1 S1                 0.0000
     14 ****         2.8203  -1.2311   0.6940 N.4            1 S1                 1.0000
     15 ****         3.4213  -1.2571   2.0447 C.3            1 S1                 0.0000
     16 ****         4.2451  -0.0319   2.3616 C.3            1 S1                 0.0000
     17 ****         4.9285  -1.3414   2.0317 C.3            1 S1                 0.0000
     18 ****         1.5510  -0.4834   0.6105 C.3            1 S1                 0.0000
     19 ****        -2.8927  -0.6199  -0.7506 H              1 S1                 0.0000
     20 ****        -4.9387  -0.0267  -1.8618 H              1 S1                 0.0000
     21 ****        -6.6955   1.8042  -2.1618 H              1 S1                 0.0000
     22 ****        -4.1876   4.6862  -0.5818 H              1 S1                 0.0000
     23 ****        -2.3254   3.0043  -0.1946 H              1 S1                 0.0000
     24 ****         1.3500  -0.6202  -1.5236 H              1 S1                 0.0000
     25 ****         0.4854  -3.0431   0.0911 H              1 S1                 0.0000
     26 ****         1.1774  -3.0154  -1.5279 H              1 S1                 0.0000
     27 ****         2.6346  -3.3597   0.8487 H              1 S1                 0.0000
     28 ****         3.3703  -2.7682  -0.6359 H              1 S1                 0.0000
     29 ****         2.8441  -1.7515   2.8243 H              1 S1                 0.0000
     30 ****         4.2936   0.7623   1.6184 H              1 S1                 0.0000
     31 ****         4.2739   0.2990   3.3976 H              1 S1                 0.0000
     32 ****         5.4085  -1.8733   2.8507 H              1 S1                 0.0000
     33 ****         5.4319  -1.4171   1.0695 H              1 S1                 0.0000
     34 ****         1.7238   0.5919   0.5552 H              1 S1                 0.0000
     35 ****         0.9502  -0.6856   1.4996 H              1 S1                 0.0000
     36 ****         3.4648  -0.7564   0.0784 H              1 S1                 0.0000
     37 ****        -6.1807   3.9675  -1.5167 H              1 S1                 0.0000
     38 ****        -1.1725   2.2839  -1.3205 LP             1 S1                 0.0000
     39 ****         0.3761   1.5252  -1.1583 LP             1 S1                 0.0000
     40 ****        -1.1747  -1.5814  -0.4196 LP             1 S1                 0.0000
@<TRIPOS>BOND
    1    1    2 2     
    2    2    3 am    
    3    2   10 1     
    4    3    4 1     
    5    3   19 1     
    6    4    9 ar    
    7    4    5 ar    
    8    5    6 ar    
    9    5   20 1     
   10    6    7 ar    
   11    6   21 1     
   12    7    8 ar    
   13    7   37 1     
   14    8    9 ar    
   15    8   22 1     
   16    9   23 1     
   17   10   11 1     
   18   11   18 1     
   19   11   12 1     
   20   11   24 1     
   21   12   13 1     
   22   12   25 1     
   23   12   26 1     
   24   13   14 1     
   25   13   27 1     
   26   13   28 1     
   27   14   15 1     
   28   14   18 1     
   29   14   36 1     
   30   15   17 1     
   31   15   16 1     
   32   15   29 1     
   33   16   17 1     
   34   16   30 1     
   35   16   31 1     
   36   17   32 1     
   37   17   33 1     
   38   18   34 1     
   39   18   35 1     
   40    1   38 1     
   41    1   39 1     
   42   10   40 1     
@<TRIPOS>SUBSTRUCTURE
      1 S1             1
@<TRIPOS>SET
LONE_PAIRS      STATIC     ATOMS    <user>   **** ""
3 38 39 40
DONOR_HYDROGENS      STATIC     ATOMS    <user>   **** ""
3 19 37 36
ATOM$BLUE        STATIC     ATOMS    COLORGROUP SYSTEM
3 38 39 40
ATOM$RED        STATIC     ATOMS    COLORGROUP SYSTEM
3 19 37 36
