AV-unprocessed.smi:2095|AV-procd|sdf|8556|dock5
  -GOLD-   2272011283D 1   1.00000     0.00000
 Structure written by MMmdl.
 42 43  0  0  0  0  0  0  0  0  2 V2000
  147.3907  133.2991  151.9155 C   0  0  0  0  0  0  0  0  0  0  0  0
  145.9433  133.5585  152.3688 C   0  0  2  0  0  0  0  0  0  0  0  0
  144.9648  133.7070  151.1878 C   0  0  0  0  0  0  0  0  0  0  0  0
  145.1396  135.0596  150.4808 C   0  0  0  0  0  0  0  0  0  0  0  0
  145.0518  136.2228  151.4815 C   0  0  0  0  0  0  0  0  0  0  0  0
  146.0429  136.0520  152.5760 N   0  3  1  0  0  0  0  0  0  0  0  0
  146.2006  137.2652  153.4294 C   0  0  2  0  0  0  0  0  0  0  0  0
  146.6930  138.4615  152.5916 C   0  0  0  0  0  0  0  0  0  0  0  0
  147.0689  137.0163  154.6895 C   0  0  0  0  0  0  0  0  0  0  0  0
  148.4791  136.8531  154.3575 N   0  0  0  0  0  0  0  0  0  0  0  0
  149.4811  136.8354  155.2497 C   0  0  0  0  0  0  0  0  0  0  0  0
  149.3063  136.8882  156.4667 O   0  0  0  0  0  0  0  0  0  0  0  0
  150.8979  136.7800  154.6796 C   0  0  0  0  0  0  0  0  0  0  0  0
  151.5142  138.0922  154.7288 N   0  0  0  0  0  0  0  0  0  0  0  0
  152.7952  138.4564  154.8169 C   0  0  0  0  0  0  0  0  0  0  0  0
  152.9258  139.7732  154.8693 N   0  0  0  0  0  0  0  0  0  0  0  0
  151.6174  140.2228  154.8047 N   0  0  0  0  0  0  0  0  0  0  0  0
  150.7751  139.2300  154.7214 N   0  0  0  0  0  0  0  0  0  0  0  0
  145.8367  134.7740  153.3126 C   0  0  0  0  0  0  0  0  0  0  0  0
  147.7987  134.1377  151.3512 H   0  0  0  0  0  0  0  0  0  0  0  0
  147.4492  132.4136  151.2819 H   0  0  0  0  0  0  0  0  0  0  0  0
  148.0439  133.1311  152.7724 H   0  0  0  0  0  0  0  0  0  0  0  0
  145.6370  132.6779  152.9348 H   0  0  0  0  0  0  0  0  0  0  0  0
  145.0925  132.8889  150.4779 H   0  0  0  0  0  0  0  0  0  0  0  0
  143.9419  133.6309  151.5589 H   0  0  0  0  0  0  0  0  0  0  0  0
  146.1003  135.0896  149.9659 H   0  0  0  0  0  0  0  0  0  0  0  0
  144.3774  135.1755  149.7098 H   0  0  0  0  0  0  0  0  0  0  0  0
  145.2333  137.1595  150.9532 H   0  0  0  0  0  0  0  0  0  0  0  0
  144.0448  136.2825  151.8962 H   0  0  0  0  0  0  0  0  0  0  0  0
  145.1985  137.5384  153.7628 H   0  0  0  0  0  0  0  0  0  0  0  0
  146.6315  139.3928  153.1557 H   0  0  0  0  0  0  0  0  0  0  0  0
  146.0841  138.5900  151.6962 H   0  0  0  0  0  0  0  0  0  0  0  0
  147.7293  138.3421  152.2762 H   0  0  0  0  0  0  0  0  0  0  0  0
  146.9590  137.8276  155.4103 H   0  0  0  0  0  0  0  0  0  0  0  0
  146.7543  136.1053  155.1982 H   0  0  0  0  0  0  0  0  0  0  0  0
  148.7160  136.8026  153.3768 H   0  0  0  0  0  0  0  0  0  0  0  0
  151.5082  136.0821  155.2547 H   0  0  0  0  0  0  0  0  0  0  0  0
  150.8801  136.4234  153.6485 H   0  0  0  0  0  0  0  0  0  0  0  0
  153.6225  137.7630  154.8524 H   0  0  0  0  0  0  0  0  0  0  0  0
  144.8502  134.7773  153.7780 H   0  0  0  0  0  0  0  0  0  0  0  0
  146.5615  134.6717  154.1198 H   0  0  0  0  0  0  0  0  0  0  0  0
  146.9316  135.9532  152.1062 H   0  0  0  0  0  0  0  0  0  0  0  0
  1  2  1  0  0  0  0
  1 20  1  0  0  0  0
  1 21  1  0  0  0  0
  1 22  1  0  0  0  0
  2 19  1  0  0  0  0
  2  3  1  0  0  0  0
  2 23  1  0  0  0  0
  3  4  1  0  0  0  0
  3 24  1  0  0  0  0
  3 25  1  0  0  0  0
  4  5  1  0  0  0  0
  4 26  1  0  0  0  0
  4 27  1  0  0  0  0
  5  6  1  0  0  0  0
  5 28  1  0  0  0  0
  5 29  1  0  0  0  0
  6  7  1  0  0  0  0
  6 19  1  0  0  0  0
  6 42  1  0  0  0  0
  7  8  1  0  0  0  0
  7  9  1  0  0  0  0
  7 30  1  0  0  0  0
  8 31  1  0  0  0  0
  8 32  1  0  0  0  0
  8 33  1  0  0  0  0
  9 10  1  0  0  0  0
  9 34  1  0  0  0  0
  9 35  1  0  0  0  0
 10 11  1  0  0  0  0
 10 36  1  0  0  0  0
 11 12  2  0  0  0  0
 11 13  1  0  0  0  0
 13 14  1  0  0  0  0
 13 37  1  0  0  0  0
 13 38  1  0  0  0  0
 14 18  1  0  0  0  0
 14 15  1  0  0  0  0
 15 16  2  0  0  0  0
 15 39  1  0  0  0  0
 16 17  1  0  0  0  0
 17 18  2  0  0  0  0
 19 40  1  0  0  0  0
 19 41  1  0  0  0  0
M  CHG  1   6   1
M  END
> <s_m_source_file>
AV-unprocessed.smi

> <i_m_source_file_index>
2095

> <i_lp_mmshare_version>
43012

> <i_f3d_flags>
0

> <s_epik_input>
W0NIM11bQ0BASF0xW0NIMl1bQ0gyXVtDSDJdTihbQ0gyXTEpW0NASF0oW0NIM10pW0NIMl1bTkhdQyg9TylbQ0gyXW4yW2NIXW5ubjI=

> <s_epik_cmdline>
J2VwaWtfcHl0aG9uJywgJy1waCcsICc3LjAnLCAnLXRuJywgJzgnLCAnLW1hJywgJzIwMCcsICctbWV0YWxfYmluZGluZycsICctaW1hZScsICc8aW5maWxlLm1hZT4nLCAnLW9tYWUnLCAnPG91dGZpbGUubWFlPic=

> <r_lp_tautomer_probability>
1

> <r_epik_Ionization_Penalty>
0.00268321

> <r_epik_Ionization_Penalty_Charging>
0.00267875

> <r_epik_Ionization_Penalty_Neutral>
4.46125e-06

> <r_epik_State_Penalty>
0.00186642

> <r_epik_Charging_Adjusted_Penalty>
0.00454517

> <i_epik_Tot_Q>
1

> <i_epik_Tot_abs_Q>
1

> <r_epik_Metal_State_Penalty>
-0

> <b_epik_Metal_Only>
0

> <s_lp_Force_Field>
OPLS_2005

> <r_lp_Energy>
23.935

> <b_lp_Chiralities_Consistent>
1

> <s_lp_Variant>
AV-unprocessed.smi:2095-3

> <Gold.Version>
5.8.1

> <Gold.Id.Protein>
6NUR|6NUR_protein|mol2

> <Gold.PLP.Fitness>
42.3506

> <Gold.PLP.PLP>
-28.9128

> <Gold.PLP.part.hbond>
-4.9627

> <Gold.PLP.part.metal>
0.0000

> <Gold.PLP.part.buried>
-1.6449

> <Gold.PLP.part.nonpolar>
-22.8404

> <Gold.PLP.part.repulsive>
0.1888

> <Gold.PLP.ligand.clash>
0.0000

> <Gold.PLP.ligand.torsion>
0.8379

> <Gold.PLP.Chemscore.Hbond>
5.0000

> <Gold.PLP.Chemscore.CHOScore>
0.0000

> <Gold.PLP.Chemscore.Metal>
0.0000

> <Gold.Chemscore.Hbonds>
donor molecule, donor type, donor heavy atom, donor atom, acceptor molecule, acceptor atom, score
      L1  H     6    42       P1  7948  1.98
      L1  H    10    36       P1  7948  1.00
      P1  H  7989  7998       L1    17  0.76
      P1  H  7997  8010       L1    16  1.00

> <Gold.PLP.Chemscore.Internal.Correction>
0.1136

> <Gold.Rescore>
     Score         DG    S(hbond)    S(metal)    S(lipo)     H(rot)  DE(clash)    DE(int)     intcor
     14.97     -15.93       3.51        0.00      47.03       2.64       0.10       0.87       ----

> <Gold.Chemscore.Fitness>
14.9722

> <Gold.Chemscore.DG>
-15.9341

> <Gold.Chemscore.ZeroCoef>
-5.4800

> <Gold.Chemscore.Hbond>
3.5091

> <Gold.Chemscore.Metal>
0.0000

> <Gold.Chemscore.Lipo>
47.0277

> <Gold.Chemscore.Internal_Hbond>
0.0000

> <Gold.Chemscore.DEClash>
0.0951

> <Gold.Chemscore.DEInternal>
0.8668

> <Gold.Chemscore.Rot>
2.6439

> <Gold.Chemscore.Internal.Correction>
   9.000000E+99

> <Gold.Chemscore.Hbonds>
donor molecule, donor type, donor heavy atom, donor atom, acceptor molecule, acceptor atom, score
      L1  H     6    42       P1  7948  0.91
      L1  H    10    36       P1  7948  0.99
      P1  H  7989  7998       L1    17  0.11
      P1  H  7997  8010       L1    16  0.65

> <Gold.Chemscore.Hbond.Weighted>
-11.7203

> <Gold.Chemscore.Metal.Weighted>
-0.0000

> <Gold.Chemscore.Lipo.Weighted>
-5.5022

> <Gold.Chemscore.Internal_Hbond.Weighted>
0.0000

> <Gold.Chemscore.DEClash.Weighted>
0.0951

> <Gold.Chemscore.DEInternal.Weighted>
0.8668

> <Gold.Chemscore.Rot.Weighted>
6.7685

> <Gold.Chemscore.Internal.Correction.Weighted>
   9.000000E+99

> <Gold.Protein.RotatedTorsions>
[ 6907 6896 6895 6894 ] final   40.62 input  -60.11 | X-H torsion
[ 7974 7965 7964 7962 ] final   10.96 input  175.53 | X-H torsion
[ 8008 7997 7996 7995 ] final   94.91 input   59.86 | X-H torsion
[ 10167 10162 10161 10158 ] final   78.97 input  -65.29 | X-H torsion
[ 10718 10713 10712 10709 ] final  -33.88 input   66.30 | X-H torsion
[ 10763 10752 10751 10750 ] final   66.86 input  -60.55 | X-H torsion
[ 11005 11000 10999 10996 ] final  102.83 input  -57.11 | X-H torsion

> <Gold.Protein.ActiveResidues>
 VAL166  LYS551  ARG553  GLY616  TRP617  ASP618  TYR619  PRO620  LYS621  CYS622 
 ASP623  PHE694  ASN695  SER759  ASP760  ASP761  ALA762  ILE779  LEU786  VAL792 
 PHE793  MET794  SER795  GLU796  ALA797  LYS798  CYS799  TRP800  GLU811  SER814 

> <Gold.Protein.RotatedAtoms>
  152.1848  134.8723  160.0522 H   0  0  0  0  0  0  0  0  0  0  0  0  # atno 6907 bound_to 6896
  151.9634  133.3697  159.4052 H   0  0  0  0  0  0  0  0  0  0  0  0  # atno 6908 bound_to 6896
  150.6924  134.4140  159.5218 H   0  0  0  0  0  0  0  0  0  0  0  0  # atno 6909 bound_to 6896
  146.2379  139.9557  142.8465 H   0  0  0  0  0  0  0  0  0  0  0  0  # atno 7974 bound_to 7965
  156.0631  140.3293  155.7486 H   0  0  0  0  0  0  0  0  0  0  0  0  # atno 8008 bound_to 7997
  155.5423  140.0603  157.2885 H   0  0  0  0  0  0  0  0  0  0  0  0  # atno 8009 bound_to 7997
  154.4491  140.1908  156.0591 H   0  0  0  0  0  0  0  0  0  0  0  0  # atno 8010 bound_to 7997
  139.9653  144.5933  150.8035 H   0  0  0  0  0  0  0  0  0  0  0  0  # atno 10167 bound_to 10162
  156.3573  130.4318  149.7653 H   0  0  0  0  0  0  0  0  0  0  0  0  # atno 10718 bound_to 10713
  153.0159  135.5305  154.6889 H   0  0  0  0  0  0  0  0  0  0  0  0  # atno 10763 bound_to 10752
  154.6029  135.2870  155.0518 H   0  0  0  0  0  0  0  0  0  0  0  0  # atno 10764 bound_to 10752
  154.1569  135.6554  153.5029 H   0  0  0  0  0  0  0  0  0  0  0  0  # atno 10765 bound_to 10752
  139.8780  134.9239  156.5117 H   0  0  0  0  0  0  0  0  0  0  0  0  # atno 11005 bound_to 11000
  145.1819  140.9771  143.4261 LP  0  0  0  0  0  0  0  0  0  0  0  0  # atno 17320 bound_to 7965
  144.9935  139.3667  143.6203 LP  0  0  0  0  0  0  0  0  0  0  0  0  # atno 17321 bound_to 7965
  140.7540  143.3019  151.3060 LP  0  0  0  0  0  0  0  0  0  0  0  0  # atno 17342 bound_to 10162
  139.6523  144.0340  152.2635 LP  0  0  0  0  0  0  0  0  0  0  0  0  # atno 17343 bound_to 10162
  156.4830  130.8050  151.3063 LP  0  0  0  0  0  0  0  0  0  0  0  0  # atno 17370 bound_to 10713
  157.7469  130.9999  150.2908 LP  0  0  0  0  0  0  0  0  0  0  0  0  # atno 17371 bound_to 10713
  140.8515  133.8128  155.9173 LP  0  0  0  0  0  0  0  0  0  0  0  0  # atno 17394 bound_to 11000
  140.9139  134.2226  157.4968 LP  0  0  0  0  0  0  0  0  0  0  0  0  # atno 17395 bound_to 11000

$$$$
