AV-unprocessed.smi:2665|AV-procd|sdf|10331|dock1
  -GOLD-   2272014353D 1   1.00000     0.00000
 Structure written by MMmdl.
 29 30  0  0  0  0  0  0  0  0  2 V2000
  153.0070  142.4335  161.9106 C   0  0  0  0  0  0  0  0  0  0  0  0
  152.8888  142.7363  160.4131 C   0  0  1  0  0  0  0  0  0  0  0  0
  152.1267  141.6309  159.6568 C   0  0  0  0  0  0  0  0  0  0  0  0
  151.9621  142.0042  158.2576 N   0  0  0  0  0  0  0  0  0  0  0  0
  151.3848  140.9957  157.4731 C   0  0  0  0  0  0  0  0  0  0  0  0
  152.2090  140.2497  156.6054 C   0  0  0  0  0  0  0  0  0  0  0  0
  151.6312  139.2312  155.8135 C   0  0  0  0  0  0  0  0  0  0  0  0
  152.4701  138.4096  154.8737 C   0  0  0  0  0  0  0  0  0  0  0  0
  151.9622  137.3987  154.3387 O   0  0  0  0  0  0  0  0  0  0  0  0
  153.6510  138.7606  154.6545 O   0  5  0  0  0  0  0  0  0  0  0  0
  150.2408  139.0089  155.9322 C   0  0  0  0  0  0  0  0  0  0  0  0
  149.5022  139.8065  156.8266 C   0  0  0  0  0  0  0  0  0  0  0  0
  150.0526  140.7789  157.5829 N   0  0  0  0  0  0  0  0  0  0  0  0
  151.3212  143.3030  158.0987 C   0  0  0  0  0  0  0  0  0  0  0  0
  152.0940  144.3697  158.8926 C   0  0  0  0  0  0  0  0  0  0  0  0
  152.1932  143.9718  160.2576 O   0  0  0  0  0  0  0  0  0  0  0  0
  153.5436  141.4997  162.0805 H   0  0  0  0  0  0  0  0  0  0  0  0
  152.0239  142.3437  162.3737 H   0  0  0  0  0  0  0  0  0  0  0  0
  153.5479  143.2268  162.4271 H   0  0  0  0  0  0  0  0  0  0  0  0
  153.8937  142.8383  159.9990 H   0  0  0  0  0  0  0  0  0  0  0  0
  152.6700  140.6873  159.7218 H   0  0  0  0  0  0  0  0  0  0  0  0
  151.1484  141.4728  160.1133 H   0  0  0  0  0  0  0  0  0  0  0  0
  153.2677  140.4599  156.5532 H   0  0  0  0  0  0  0  0  0  0  0  0
  149.7420  138.2454  155.3530 H   0  0  0  0  0  0  0  0  0  0  0  0
  148.4381  139.6599  156.9374 H   0  0  0  0  0  0  0  0  0  0  0  0
  151.2883  143.5721  157.0422 H   0  0  0  0  0  0  0  0  0  0  0  0
  150.2904  143.2528  158.4527 H   0  0  0  0  0  0  0  0  0  0  0  0
  153.0903  144.5208  158.4739 H   0  0  0  0  0  0  0  0  0  0  0  0
  151.5766  145.3275  158.8381 H   0  0  0  0  0  0  0  0  0  0  0  0
  1  2  1  0  0  0  0
  1 17  1  0  0  0  0
  1 18  1  0  0  0  0
  1 19  1  0  0  0  0
  2 16  1  0  0  0  0
  2  3  1  0  0  0  0
  2 20  1  0  0  0  0
  3  4  1  0  0  0  0
  3 21  1  0  0  0  0
  3 22  1  0  0  0  0
  4  5  1  0  0  0  0
  4 14  1  0  0  0  0
  5 13  1  0  0  0  0
  5  6  2  0  0  0  0
  6  7  1  0  0  0  0
  6 23  1  0  0  0  0
  7  8  1  0  0  0  0
  7 11  2  0  0  0  0
  8  9  2  0  0  0  0
  8 10  1  0  0  0  0
 11 12  1  0  0  0  0
 11 24  1  0  0  0  0
 12 13  2  0  0  0  0
 12 25  1  0  0  0  0
 14 15  1  0  0  0  0
 14 26  1  0  0  0  0
 14 27  1  0  0  0  0
 15 16  1  0  0  0  0
 15 28  1  0  0  0  0
 15 29  1  0  0  0  0
M  CHG  1  10  -1
M  END
> <s_m_source_file>
AV-unprocessed.smi

> <i_m_source_file_index>
2665

> <i_lp_mmshare_version>
43012

> <i_f3d_flags>
0

> <s_epik_input>
W0NIM11bQ0BASF0xW0NIMl1OKFtDSDJdW0NIMl1PMSljMltjSF1jKEMoPU8pW09IXSlbY0hdW2NIXW4y

> <s_epik_cmdline>
J2VwaWtfcHl0aG9uJywgJy1waCcsICc3LjAnLCAnLXRuJywgJzgnLCAnLW1hJywgJzIwMCcsICctbWV0YWxfYmluZGluZycsICctaW1hZScsICc8aW5maWxlLm1hZT4nLCAnLW9tYWUnLCAnPG91dGZpbGUubWFlPic=

> <r_epik_Ionization_Penalty>
0.00511367

> <r_epik_Ionization_Penalty_Charging>
0.00135522

> <r_epik_Ionization_Penalty_Neutral>
0.00375844

> <r_epik_State_Penalty>
0.00357724

> <r_epik_Charging_Adjusted_Penalty>
0.00493246

> <i_epik_Tot_Q>
-1

> <i_epik_Tot_abs_Q>
1

> <r_epik_Metal_State_Penalty>
-0

> <b_epik_Metal_Only>
0

> <s_lp_Force_Field>
OPLS_2005

> <r_lp_Energy>
17.7567

> <b_lp_Chiralities_Consistent>
1

> <s_lp_Variant>
AV-unprocessed.smi:2665-2

> <Gold.Version>
5.8.1

> <Gold.Id.Protein>
6NUR|6NUR_protein|mol2

> <Gold.PLP.Fitness>
42.7402

> <Gold.PLP.PLP>
-31.6312

> <Gold.PLP.part.hbond>
-2.0000

> <Gold.PLP.part.metal>
0.0000

> <Gold.PLP.part.buried>
-5.0434

> <Gold.PLP.part.nonpolar>
-25.3379

> <Gold.PLP.part.repulsive>
0.2493

> <Gold.PLP.ligand.clash>
0.0000

> <Gold.PLP.ligand.torsion>
0.2814

> <Gold.PLP.Chemscore.Hbond>
3.8560

> <Gold.PLP.Chemscore.CHOScore>
0.0000

> <Gold.PLP.Chemscore.Metal>
0.0000

> <Gold.Chemscore.Hbonds>
donor molecule, donor type, donor heavy atom, donor atom, acceptor molecule, acceptor atom, score
      P1  H  7997  8009       L1    10  1.95
      P1  H 10752 10765       L1     9  1.82

> <Gold.PLP.Chemscore.Internal.Correction>
0.1039

> <Gold.Rescore>
     Score         DG    S(hbond)    S(metal)    S(lipo)     H(rot)  DE(clash)    DE(int)     intcor
     17.30     -17.82       1.78        0.00      76.64       1.00       0.21       0.31       ----

> <Gold.Chemscore.Fitness>
17.2980

> <Gold.Chemscore.DG>
-17.8167

> <Gold.Chemscore.ZeroCoef>
-5.4800

> <Gold.Chemscore.Hbond>
1.7755

> <Gold.Chemscore.Metal>
0.0000

> <Gold.Chemscore.Lipo>
76.6376

> <Gold.Chemscore.Internal_Hbond>
0.0000

> <Gold.Chemscore.DEClash>
0.2121

> <Gold.Chemscore.DEInternal>
0.3067

> <Gold.Chemscore.Rot>
1.0000

> <Gold.Chemscore.Internal.Correction>
   9.000000E+99

> <Gold.Chemscore.Hbonds>
donor molecule, donor type, donor heavy atom, donor atom, acceptor molecule, acceptor atom, score
      P1  H  7997  8009       L1    10  0.86
      P1  H 10752 10765       L1     9  0.84

> <Gold.Chemscore.Hbond.Weighted>
-5.9301

> <Gold.Chemscore.Metal.Weighted>
-0.0000

> <Gold.Chemscore.Lipo.Weighted>
-8.9666

> <Gold.Chemscore.Internal_Hbond.Weighted>
0.0000

> <Gold.Chemscore.DEClash.Weighted>
0.2121

> <Gold.Chemscore.DEInternal.Weighted>
0.3067

> <Gold.Chemscore.Rot.Weighted>
2.5600

> <Gold.Chemscore.Internal.Correction.Weighted>
   9.000000E+99

> <Gold.Protein.RotatedTorsions>
[ 6907 6896 6895 6894 ] final -106.93 input  -60.11 | X-H torsion
[ 7974 7965 7964 7962 ] final  108.19 input  175.53 | X-H torsion
[ 8008 7997 7996 7995 ] final -116.12 input   59.86 | X-H torsion
[ 10167 10162 10161 10158 ] final   91.01 input  -65.29 | X-H torsion
[ 10718 10713 10712 10709 ] final  148.09 input   66.30 | X-H torsion
[ 10763 10752 10751 10750 ] final  150.59 input  -60.55 | X-H torsion
[ 11005 11000 10999 10996 ] final -169.34 input  -57.11 | X-H torsion

> <Gold.Protein.ActiveResidues>
 VAL166  LYS551  ARG553  GLY616  TRP617  ASP618  TYR619  PRO620  LYS621  CYS622 
 ASP623  PHE694  ASN695  SER759  ASP760  ASP761  ALA762  ILE779  LEU786  VAL792 
 PHE793  MET794  SER795  GLU796  ALA797  LYS798  CYS799  TRP800  GLU811  SER814 

> <Gold.Protein.RotatedAtoms>
  150.7416  133.9903  159.3604 H   0  0  0  0  0  0  0  0  0  0  0  0  # atno 6907 bound_to 6896
  151.7850  135.0749  160.0388 H   0  0  0  0  0  0  0  0  0  0  0  0  # atno 6908 bound_to 6896
  152.3247  133.5856  159.5805 H   0  0  0  0  0  0  0  0  0  0  0  0  # atno 6909 bound_to 6896
  145.2838  139.2623  143.3901 H   0  0  0  0  0  0  0  0  0  0  0  0  # atno 7974 bound_to 7965
  155.0629  140.0393  157.2582 H   0  0  0  0  0  0  0  0  0  0  0  0  # atno 8008 bound_to 7997
  154.7045  140.2680  155.6663 H   0  0  0  0  0  0  0  0  0  0  0  0  # atno 8009 bound_to 7997
  156.2771  140.2734  156.1667 H   0  0  0  0  0  0  0  0  0  0  0  0  # atno 8010 bound_to 7997
  139.8417  144.6638  150.9276 H   0  0  0  0  0  0  0  0  0  0  0  0  # atno 10167 bound_to 10162
  157.3129  131.0891  151.1302 H   0  0  0  0  0  0  0  0  0  0  0  0  # atno 10718 bound_to 10713
  154.0900  135.2853  155.3273 H   0  0  0  0  0  0  0  0  0  0  0  0  # atno 10763 bound_to 10752
  154.6626  135.5329  153.8041 H   0  0  0  0  0  0  0  0  0  0  0  0  # atno 10764 bound_to 10752
  153.0417  135.6538  154.1069 H   0  0  0  0  0  0  0  0  0  0  0  0  # atno 10765 bound_to 10752
  140.5319  134.5608  157.5077 H   0  0  0  0  0  0  0  0  0  0  0  0  # atno 11005 bound_to 11000
  146.3207  140.3312  142.8640 LP  0  0  0  0  0  0  0  0  0  0  0  0  # atno 17320 bound_to 7965
  144.9230  140.7890  143.5736 LP  0  0  0  0  0  0  0  0  0  0  0  0  # atno 17321 bound_to 7965
  140.7797  143.3907  151.1315 LP  0  0  0  0  0  0  0  0  0  0  0  0  # atno 17342 bound_to 10162
  139.7553  143.8717  152.3087 LP  0  0  0  0  0  0  0  0  0  0  0  0  # atno 17343 bound_to 10162
  157.2617  130.6662  149.5978 LP  0  0  0  0  0  0  0  0  0  0  0  0  # atno 17370 bound_to 10713
  155.9679  130.4506  150.5705 LP  0  0  0  0  0  0  0  0  0  0  0  0  # atno 17371 bound_to 10713
  139.9550  134.7551  156.0363 LP  0  0  0  0  0  0  0  0  0  0  0  0  # atno 17394 bound_to 11000
  141.1277  133.6595  156.3379 LP  0  0  0  0  0  0  0  0  0  0  0  0  # atno 17395 bound_to 11000

$$$$
