AV-unprocessed.smi:3324|AV-procd|sdf|12783|dock5
  -GOLD-   2272019133D 1   1.00000     0.00000
 Structure written by MMmdl.
 30 30  0  0  0  0  0  0  0  0  3 V2000
  147.2897  138.4504  153.9438 O   0  0  0  0  0  0  0  0  0  0  0  0
  147.0962  139.3881  153.1638 C   0  0  0  0  0  0  0  0  0  0  0  0
  146.7628  139.0637  151.7064 C   0  0  0  0  0  0  0  0  0  0  0  0
  145.5103  138.2853  151.6530 N   0  3  0  0  0  0  0  0  0  0  0  0
  145.6218  136.9244  152.2089 C   0  0  0  0  0  0  0  0  0  0  0  0
  144.3202  136.1377  152.0031 C   0  0  0  0  0  0  0  0  0  0  0  0
  144.5814  134.7603  151.6335 N   0  0  0  0  0  0  0  0  0  0  0  0
  144.1205  134.0633  150.5364 C   0  0  0  0  0  0  0  0  0  0  0  0
  144.6360  132.8011  150.6119 C   0  0  0  0  0  0  0  0  0  0  0  0
  145.4086  132.8222  151.8068 C   0  0  0  0  0  0  0  0  0  0  0  0
  145.3747  133.9972  152.4153 N   0  0  0  0  0  0  0  0  0  0  0  0
  147.1289  140.7333  153.3675 N   0  5  0  0  0  0  0  0  0  0  0  0
  147.4455  141.3475  154.6577 C   0  0  0  0  0  0  0  0  0  0  0  0
  146.2325  142.1228  155.2058 C   0  0  0  0  0  0  0  0  0  0  0  0
  145.9346  143.1184  154.3711 F   0  0  0  0  0  0  0  0  0  0  0  0
  145.1694  141.3231  155.3075 F   0  0  0  0  0  0  0  0  0  0  0  0
  146.5072  142.6420  156.4036 F   0  0  0  0  0  0  0  0  0  0  0  0
  146.6475  139.9870  151.1368 H   0  0  0  0  0  0  0  0  0  0  0  0
  147.5790  138.4993  151.2519 H   0  0  0  0  0  0  0  0  0  0  0  0
  144.8112  138.7990  152.1713 H   0  0  0  0  0  0  0  0  0  0  0  0
  146.4517  136.4071  151.7253 H   0  0  0  0  0  0  0  0  0  0  0  0
  145.8572  136.9913  153.2720 H   0  0  0  0  0  0  0  0  0  0  0  0
  143.7182  136.1467  152.9134 H   0  0  0  0  0  0  0  0  0  0  0  0
  143.7166  136.5979  151.2196 H   0  0  0  0  0  0  0  0  0  0  0  0
  143.4725  134.5175  149.8011 H   0  0  0  0  0  0  0  0  0  0  0  0
  144.4843  131.9862  149.9194 H   0  0  0  0  0  0  0  0  0  0  0  0
  145.9894  132.0250  152.2466 H   0  0  0  0  0  0  0  0  0  0  0  0
  147.7460  140.5991  155.3925 H   0  0  0  0  0  0  0  0  0  0  0  0
  148.2907  142.0317  154.5711 H   0  0  0  0  0  0  0  0  0  0  0  0
  145.2164  138.2270  150.6889 H   0  0  0  0  0  0  0  0  0  0  0  0
  1  2  2  0  0  0  0
  2  3  1  0  0  0  0
  2 12  1  0  0  0  0
  3  4  1  0  0  0  0
  3 18  1  0  0  0  0
  3 19  1  0  0  0  0
  4  5  1  0  0  0  0
  4 20  1  0  0  0  0
  4 30  1  0  0  0  0
  5  6  1  0  0  0  0
  5 21  1  0  0  0  0
  5 22  1  0  0  0  0
  6  7  1  0  0  0  0
  6 23  1  0  0  0  0
  6 24  1  0  0  0  0
  7 11  1  0  0  0  0
  7  8  1  0  0  0  0
  8  9  2  0  0  0  0
  8 25  1  0  0  0  0
  9 10  1  0  0  0  0
  9 26  1  0  0  0  0
 10 11  2  0  0  0  0
 10 27  1  0  0  0  0
 12 13  1  0  0  0  0
 13 14  1  0  0  0  0
 13 28  1  0  0  0  0
 13 29  1  0  0  0  0
 14 15  1  0  0  0  0
 14 16  1  0  0  0  0
 14 17  1  0  0  0  0
M  CHG  1   4   1
M  CHG  1  12  -1
M  END
> <s_m_source_file>
AV-unprocessed.smi

> <i_m_source_file_index>
3324

> <i_lp_mmshare_version>
43012

> <i_f3d_flags>
0

> <s_epik_input>
RkMoRikoRilbQ0gyXVtOSF1DKD1PKVtDSDJdW05IXVtDSDJdW0NIMl1uMVtjSF1bY0hdW2NIXW4x

> <s_epik_cmdline>
J2VwaWtfcHl0aG9uJywgJy1waCcsICc3LjAnLCAnLXRuJywgJzgnLCAnLW1hJywgJzIwMCcsICctbWV0YWxfYmluZGluZycsICctaW1hZScsICc8aW5maWxlLm1hZT4nLCAnLW9tYWUnLCAnPG91dGZpbGUubWFlPic=

> <r_lp_tautomer_probability>
1

> <r_epik_Ionization_Penalty>
6.17309

> <r_epik_Ionization_Penalty_Charging>
6.17309

> <r_epik_Ionization_Penalty_Neutral>
2.40201e-06

> <r_epik_State_Penalty>
6.46579

> <r_epik_Charging_Adjusted_Penalty>
12.6389

> <i_epik_Tot_Q>
0

> <i_epik_Tot_abs_Q>
2

> <r_epik_Metal_State_Penalty>
2.40143

> <b_epik_Metal_Only>
1

> <s_lp_Force_Field>
OPLS_2005

> <r_lp_Energy>
2.56422

> <b_lp_Chiralities_Consistent>
1

> <s_lp_Variant>
AV-unprocessed.smi:3324-3

> <Gold.Version>
5.8.1

> <Gold.Id.Protein>
6NUR|6NUR_protein|mol2

> <Gold.PLP.Fitness>
40.3522

> <Gold.PLP.PLP>
-29.7191

> <Gold.PLP.part.hbond>
-1.8199

> <Gold.PLP.part.metal>
0.0000

> <Gold.PLP.part.buried>
-3.7080

> <Gold.PLP.part.nonpolar>
-25.4956

> <Gold.PLP.part.repulsive>
0.4733

> <Gold.PLP.ligand.clash>
0.0000

> <Gold.PLP.ligand.torsion>
0.3551

> <Gold.PLP.Chemscore.Hbond>
2.7520

> <Gold.PLP.Chemscore.CHOScore>
1.0000

> <Gold.PLP.Chemscore.Metal>
0.0000

> <Gold.Chemscore.Hbonds>
donor molecule, donor type, donor heavy atom, donor atom, acceptor molecule, acceptor atom, score
      L1  H     4    20       P1 10175  2.00
      L1  H     4    30       P1 10171  0.75
      L1  C     8    25       P1 10186  1.00

> <Gold.PLP.Chemscore.Internal.Correction>
0.0872

> <Gold.Rescore>
     Score         DG    S(hbond)    S(metal)    S(lipo)     H(rot)  DE(clash)    DE(int)     intcor
      8.26      -9.96       1.73        0.00      50.84       2.83       0.05       1.65       ----

> <Gold.Chemscore.Fitness>
8.2630

> <Gold.Chemscore.DG>
-9.9613

> <Gold.Chemscore.ZeroCoef>
-5.4800

> <Gold.Chemscore.Hbond>
1.7329

> <Gold.Chemscore.Metal>
0.0000

> <Gold.Chemscore.Lipo>
50.8441

> <Gold.Chemscore.Internal_Hbond>
0.0000

> <Gold.Chemscore.DEClash>
0.0458

> <Gold.Chemscore.DEInternal>
1.6525

> <Gold.Chemscore.Rot>
2.8342

> <Gold.Chemscore.Internal.Correction>
   9.000000E+99

> <Gold.Chemscore.Hbonds>
donor molecule, donor type, donor heavy atom, donor atom, acceptor molecule, acceptor atom, score
      L1  H     4    20       P1 10175  0.90
      L1  H     4    30       P1 10171  0.75

> <Gold.Chemscore.Hbond.Weighted>
-5.7880

> <Gold.Chemscore.Metal.Weighted>
-0.0000

> <Gold.Chemscore.Lipo.Weighted>
-5.9488

> <Gold.Chemscore.Internal_Hbond.Weighted>
0.0000

> <Gold.Chemscore.DEClash.Weighted>
0.0458

> <Gold.Chemscore.DEInternal.Weighted>
1.6525

> <Gold.Chemscore.Rot.Weighted>
7.2555

> <Gold.Chemscore.Internal.Correction.Weighted>
   9.000000E+99

> <Gold.Protein.RotatedTorsions>
[ 6907 6896 6895 6894 ] final  154.46 input  -60.11 | X-H torsion
[ 7974 7965 7964 7962 ] final  -23.23 input  175.53 | X-H torsion
[ 8008 7997 7996 7995 ] final  -56.42 input   59.86 | X-H torsion
[ 10167 10162 10161 10158 ] final   60.35 input  -65.29 | X-H torsion
[ 10718 10713 10712 10709 ] final  -60.70 input   66.30 | X-H torsion
[ 10763 10752 10751 10750 ] final    0.92 input  -60.55 | X-H torsion
[ 11005 11000 10999 10996 ] final  -30.59 input  -57.11 | X-H torsion

> <Gold.Protein.ActiveResidues>
 VAL166  LYS551  ARG553  GLY616  TRP617  ASP618  TYR619  PRO620  LYS621  CYS622 
 ASP623  PHE694  ASN695  SER759  ASP760  ASP761  ALA762  ILE779  LEU786  VAL792 
 PHE793  MET794  SER795  GLU796  ALA797  LYS798  CYS799  TRP800  GLU811  SER814 

> <Gold.Protein.RotatedAtoms>
  152.0582  133.4050  159.4405 H   0  0  0  0  0  0  0  0  0  0  0  0  # atno 6907 bound_to 6896
  150.6867  134.3231  159.4804 H   0  0  0  0  0  0  0  0  0  0  0  0  # atno 6908 bound_to 6896
  152.1049  134.9315  160.0619 H   0  0  0  0  0  0  0  0  0  0  0  0  # atno 6909 bound_to 6896
  146.1628  140.4588  142.8564 H   0  0  0  0  0  0  0  0  0  0  0  0  # atno 7974 bound_to 7965
  154.4230  140.1130  156.5635 H   0  0  0  0  0  0  0  0  0  0  0  0  # atno 8008 bound_to 7997
  155.6286  140.3495  155.4656 H   0  0  0  0  0  0  0  0  0  0  0  0  # atno 8009 bound_to 7997
  155.9966  140.1190  157.0577 H   0  0  0  0  0  0  0  0  0  0  0  0  # atno 8010 bound_to 7997
  140.1666  144.4318  150.6682 H   0  0  0  0  0  0  0  0  0  0  0  0  # atno 10167 bound_to 10162
  156.0973  130.4191  150.0890 H   0  0  0  0  0  0  0  0  0  0  0  0  # atno 10718 bound_to 10713
  153.3146  135.6965  153.7085 H   0  0  0  0  0  0  0  0  0  0  0  0  # atno 10763 bound_to 10752
  153.5948  135.3473  155.2925 H   0  0  0  0  0  0  0  0  0  0  0  0  # atno 10764 bound_to 10752
  154.8583  135.4326  154.2294 H   0  0  0  0  0  0  0  0  0  0  0  0  # atno 10765 bound_to 10752
  140.9396  133.7287  156.1056 H   0  0  0  0  0  0  0  0  0  0  0  0  # atno 11005 bound_to 11000
  144.8051  140.6284  143.6452 LP  0  0  0  0  0  0  0  0  0  0  0  0  # atno 17320 bound_to 7965
  145.4544  139.1520  143.3901 LP  0  0  0  0  0  0  0  0  0  0  0  0  # atno 17321 bound_to 7965
  140.6609  143.2252  151.5858 LP  0  0  0  0  0  0  0  0  0  0  0  0  # atno 17342 bound_to 10162
  139.5357  144.2788  152.1245 LP  0  0  0  0  0  0  0  0  0  0  0  0  # atno 17343 bound_to 10162
  156.8886  130.9581  151.3591 LP  0  0  0  0  0  0  0  0  0  0  0  0  # atno 17370 bound_to 10713
  157.6136  130.8601  149.8992 LP  0  0  0  0  0  0  0  0  0  0  0  0  # atno 17371 bound_to 10713
  140.7752  134.3788  157.5499 LP  0  0  0  0  0  0  0  0  0  0  0  0  # atno 17394 bound_to 11000
  139.8817  134.9047  156.2883 LP  0  0  0  0  0  0  0  0  0  0  0  0  # atno 17395 bound_to 11000

$$$$
