#       Name:                AV-unprocessed.smi:232
#       Creating user name   scv26
#       Creation time:       Thu Mar 26 20:31:15 2020


#       File generated by GOLD software.
#

@<TRIPOS>MOLECULE
AV-unprocessed.smi:232
    60    63     1
SMALL
NO_CHARGES


@<TRIPOS>ATOM
      1 ****        -3.9176  -0.6289  -2.9120 C.3            1 S1                 0.0000
      2 ****        -3.2753  -0.1766  -1.5946 C.3            1 S1                 0.0000
      3 ****        -3.5053   1.3189  -1.2889 C.3            1 S1                 0.0000
      4 ****        -4.9836   1.6922  -1.0956 C.3            1 S1                 0.0000
      5 ****        -4.9775   2.8065  -0.0423 C.3            1 S1                 0.0000
      6 ****        -3.4947   3.0328   0.2690 C.3            1 S1                 0.0000
      7 ****        -3.2324   3.4801   1.7161 C.3            1 S1                 0.0000
      8 ****        -2.8523   1.7663  -0.0635 N.3            1 S1                 0.0000
      9 ****        -1.4988   1.7700  -0.1084 C.ar           1 S1                 0.0000
     10 ****        -0.8324   2.7164  -0.8219 N.ar           1 S1                 0.0000
     11 ****         0.5034   2.6987  -0.8696 C.ar           1 S1                 0.0000
     12 ****         1.3491   1.8404  -0.2939 N.ar           1 S1                 0.0000
     13 ****         0.6797   0.8896   0.4197 C.ar           1 S1                 0.0000
     14 ****        -0.7314   0.7839   0.5642 C.ar           1 S1                 0.0000
     15 ****        -1.0510  -0.3085   1.3602 N.2            1 S1                 0.0000
     16 ****         0.1082  -0.8245   1.6667 C.2            1 S1                 0.0000
     17 ****         1.1997  -0.1698   1.1422 N.pl3          1 S1                 0.0000
     18 ****         2.5940  -0.5362   1.3162 C.3            1 S1                 0.0000
     19 ****         3.0237  -1.6693   0.3631 C.3            1 S1                 0.0000
     20 ****         2.8347  -1.2497  -0.9752 O.3            1 S1                 0.0000
     21 ****         4.4969  -2.0739   0.5581 C.3            1 S1                 0.0000
     22 ****         4.9629  -3.2143  -0.3512 C.3            1 S1                 0.0000
     23 ****         6.0977  -3.8065   0.4513 C.3            1 S1                 0.0000
     24 ****         5.5470  -3.7118   1.8695 C.3            1 S1                 0.0000
     25 ****         4.7079  -2.5600   1.8837 O.3            1 S1                 0.0000
     26 ****        -3.7035  -1.6800  -3.1054 H              1 S1                 0.0000
     27 ****        -3.5350  -0.0519  -3.7543 H              1 S1                 0.0000
     28 ****        -5.0013  -0.5129  -2.8895 H              1 S1                 0.0000
     29 ****        -3.6566  -0.7849  -0.7734 H              1 S1                 0.0000
     30 ****        -2.2062  -0.3827  -1.6537 H              1 S1                 0.0000
     31 ****        -3.1071   1.9107  -2.1157 H              1 S1                 0.0000
     32 ****        -5.4383   2.0128  -2.0334 H              1 S1                 0.0000
     33 ****        -5.5584   0.8434  -0.7226 H              1 S1                 0.0000
     34 ****        -5.4591   3.7183  -0.3965 H              1 S1                 0.0000
     35 ****        -5.5149   2.4709   0.8458 H              1 S1                 0.0000
     36 ****        -3.1271   3.8052  -0.4086 H              1 S1                 0.0000
     37 ****        -3.7699   4.4015   1.9414 H              1 S1                 0.0000
     38 ****        -2.1721   3.6686   1.8875 H              1 S1                 0.0000
     39 ****        -3.5556   2.7216   2.4300 H              1 S1                 0.0000
     40 ****         0.9598   3.4843  -1.4534 H              1 S1                 0.0000
     41 ****         0.2005  -1.7063   2.2842 H              1 S1                 0.0000
     42 ****         3.2126   0.3496   1.1658 H              1 S1                 0.0000
     43 ****         2.7352  -0.8406   2.3539 H              1 S1                 0.0000
     44 ****         2.3892  -2.5404   0.5326 H              1 S1                 0.0000
     45 ****         3.3481  -0.4696  -1.1205 H              1 S1                 0.0000
     46 ****         5.1505  -1.2116   0.4144 H              1 S1                 0.0000
     47 ****         4.1723  -3.9555  -0.4780 H              1 S1                 0.0000
     48 ****         5.2713  -2.8721  -1.3396 H              1 S1                 0.0000
     49 ****         6.3485  -4.8258   0.1567 H              1 S1                 0.0000
     50 ****         6.9912  -3.1885   0.3503 H              1 S1                 0.0000
     51 ****         4.9368  -4.5862   2.0994 H              1 S1                 0.0000
     52 ****         6.3354  -3.6422   2.6193 H              1 S1                 0.0000
     53 ****        -2.9811   1.1133   0.6829 LP             1 S1                 0.0000
     54 ****        -1.3412   3.4251  -1.3106 LP             1 S1                 0.0000
     55 ****         2.3446   1.8884  -0.3753 LP             1 S1                 0.0000
     56 ****        -1.9586  -0.6261   1.6348 LP             1 S1                 0.0000
     57 ****         1.8674  -1.0511  -1.1330 LP             1 S1                 0.0000
     58 ****         3.1331  -1.9711  -1.6001 LP             1 S1                 0.0000
     59 ****         3.8262  -2.8010   2.2893 LP             1 S1                 0.0000
     60 ****         5.1420  -1.8442   2.4308 LP             1 S1                 0.0000
@<TRIPOS>BOND
    1    1    2 1     
    2    1   26 1     
    3    1   27 1     
    4    1   28 1     
    5    2    3 1     
    6    2   29 1     
    7    2   30 1     
    8    3    8 1     
    9    3    4 1     
   10    3   31 1     
   11    4    5 1     
   12    4   32 1     
   13    4   33 1     
   14    5    6 1     
   15    5   34 1     
   16    5   35 1     
   17    6    7 1     
   18    6    8 1     
   19    6   36 1     
   20    7   37 1     
   21    7   38 1     
   22    7   39 1     
   23    8    9 1     
   24    9   14 ar    
   25    9   10 ar    
   26   10   11 ar    
   27   11   12 ar    
   28   11   40 1     
   29   12   13 ar    
   30   13   17 1     
   31   13   14 ar    
   32   14   15 1     
   33   15   16 2     
   34   16   17 1     
   35   16   41 1     
   36   17   18 1     
   37   18   19 1     
   38   18   42 1     
   39   18   43 1     
   40   19   20 1     
   41   19   21 1     
   42   19   44 1     
   43   20   45 1     
   44   21   25 1     
   45   21   22 1     
   46   21   46 1     
   47   22   23 1     
   48   22   47 1     
   49   22   48 1     
   50   23   24 1     
   51   23   49 1     
   52   23   50 1     
   53   24   25 1     
   54   24   51 1     
   55   24   52 1     
   56    8   53 1     
   57   10   54 1     
   58   12   55 1     
   59   15   56 1     
   60   20   57 1     
   61   20   58 1     
   62   25   59 1     
   63   25   60 1     
@<TRIPOS>SUBSTRUCTURE
      1 S1             1
@<TRIPOS>SET
LONE_PAIRS      STATIC     ATOMS    <user>   **** ""
8 53 54 55 56 57 58 59 60
DONOR_HYDROGENS      STATIC     ATOMS    <user>   **** ""
1 45
ATOM$BLUE        STATIC     ATOMS    COLORGROUP SYSTEM
8 53 54 55 56 57 58 59 60
ATOM$RED        STATIC     ATOMS    COLORGROUP SYSTEM
1 45
