#       Name:                AV-unprocessed.smi:3331
#       Creating user name   scv26
#       Creation time:       Fri Mar 27 19:19:17 2020


#       File generated by GOLD software.
#

@<TRIPOS>MOLECULE
AV-unprocessed.smi:3331
    50    51     1
SMALL
NO_CHARGES


@<TRIPOS>ATOM
      1 ****        -2.8941   1.2757   0.3842 C.3            1 S1                 0.0000
      2 ****        -1.9946   1.4221   1.6244 C.3            1 S1                 0.0000
      3 ****        -2.7103   0.9796   2.9201 C.3            1 S1                 0.0000
      4 ****        -2.7912  -0.5566   3.0676 C.3            1 S1                 0.0000
      5 ****        -3.3865  -0.9592   4.4239 C.3            1 S1                 0.0000
      6 ****        -1.4013  -1.1889   2.8469 C.3            1 S1                 0.0000
      7 ****        -0.8873  -0.7811   1.5317 N.am           1 S1                 0.0000
      8 ****        -0.7369  -1.6566   0.5045 C.2            1 S1                 0.0000
      9 ****        -0.9649  -2.8599   0.6383 O.2            1 S1                 0.0000
     10 ****        -0.2451  -1.1525  -0.8676 C.3            1 S1                 0.0000
     11 ****        -0.5913  -2.1386  -2.0036 C.3            1 S1                 0.0000
     12 ****         1.2125  -0.9024  -0.8063 N.4            1 S1                 1.0000
     13 ****         1.7626  -0.0825  -1.9047 C.3            1 S1                 0.0000
     14 ****         3.2414   0.2437  -1.6513 C.3            1 S1                 0.0000
     15 ****         3.8233   1.0019  -2.7419 N.pl3          1 S1                 0.0000
     16 ****         4.7863   0.6033  -3.6449 C.2            1 S1                 0.0000
     17 ****         5.0206   1.6577  -4.4800 C.2            1 S1                 0.0000
     18 ****         4.1468   2.6719  -3.9981 C.2            1 S1                 0.0000
     19 ****         3.4330   2.2768  -2.9558 N.2            1 S1                 0.0000
     20 ****        -0.6533   0.6705   1.4800 C.3            1 S1                 0.0000
     21 ****        -3.1728   0.2382   0.2001 H              1 S1                 0.0000
     22 ****        -2.3907   1.6466  -0.5088 H              1 S1                 0.0000
     23 ****        -3.8152   1.8476   0.5007 H              1 S1                 0.0000
     24 ****        -1.7699   2.4850   1.7211 H              1 S1                 0.0000
     25 ****        -2.1619   1.3844   3.7721 H              1 S1                 0.0000
     26 ****        -3.7075   1.4185   2.9707 H              1 S1                 0.0000
     27 ****        -3.4600  -0.9384   2.2951 H              1 S1                 0.0000
     28 ****        -2.7598  -0.6207   5.2496 H              1 S1                 0.0000
     29 ****        -3.4855  -2.0422   4.5031 H              1 S1                 0.0000
     30 ****        -4.3785  -0.5275   4.5599 H              1 S1                 0.0000
     31 ****        -0.7084  -0.8590   3.6226 H              1 S1                 0.0000
     32 ****        -1.4676  -2.2722   2.9575 H              1 S1                 0.0000
     33 ****        -0.7637  -0.2209  -1.0930 H              1 S1                 0.0000
     34 ****        -1.6539  -2.3855  -2.0021 H              1 S1                 0.0000
     35 ****        -0.0323  -3.0709  -1.9140 H              1 S1                 0.0000
     36 ****        -0.3701  -1.7144  -2.9828 H              1 S1                 0.0000
     37 ****         1.3968  -0.4107   0.0565 H              1 S1                 0.0000
     38 ****         1.6601  -0.6162  -2.8497 H              1 S1                 0.0000
     39 ****         1.1861   0.8401  -1.9882 H              1 S1                 0.0000
     40 ****         3.3546   0.8187  -0.7310 H              1 S1                 0.0000
     41 ****         3.8157  -0.6750  -1.5245 H              1 S1                 0.0000
     42 ****         5.2195  -0.3858  -3.6202 H              1 S1                 0.0000
     43 ****         5.7132   1.6990  -5.3078 H              1 S1                 0.0000
     44 ****         4.0115   3.6762  -4.3716 H              1 S1                 0.0000
     45 ****        -0.1290   1.0073   0.5880 H              1 S1                 0.0000
     46 ****         0.0052   0.9438   2.3060 H              1 S1                 0.0000
     47 ****         1.6944  -1.7895  -0.7759 H              1 S1                 0.0000
     48 ****        -1.2697  -3.2159   1.5217 LP             1 S1                 0.0000
     49 ****        -0.8452  -3.4807  -0.1365 LP             1 S1                 0.0000
     50 ****         2.7564   2.8042  -2.4420 LP             1 S1                 0.0000
@<TRIPOS>BOND
    1    1    2 1     
    2    1   21 1     
    3    1   22 1     
    4    1   23 1     
    5    2   20 1     
    6    2    3 1     
    7    2   24 1     
    8    3    4 1     
    9    3   25 1     
   10    3   26 1     
   11    4    5 1     
   12    4    6 1     
   13    4   27 1     
   14    5   28 1     
   15    5   29 1     
   16    5   30 1     
   17    6    7 1     
   18    6   31 1     
   19    6   32 1     
   20    7    8 am    
   21    7   20 1     
   22    8    9 2     
   23    8   10 1     
   24   10   11 1     
   25   10   12 1     
   26   10   33 1     
   27   11   34 1     
   28   11   35 1     
   29   11   36 1     
   30   12   13 1     
   31   12   37 1     
   32   12   47 1     
   33   13   14 1     
   34   13   38 1     
   35   13   39 1     
   36   14   15 1     
   37   14   40 1     
   38   14   41 1     
   39   15   19 1     
   40   15   16 1     
   41   16   17 2     
   42   16   42 1     
   43   17   18 1     
   44   17   43 1     
   45   18   19 2     
   46   18   44 1     
   47   20   45 1     
   48   20   46 1     
   49    9   48 1     
   50    9   49 1     
   51   19   50 1     
@<TRIPOS>SUBSTRUCTURE
      1 S1             1
@<TRIPOS>SET
LONE_PAIRS      STATIC     ATOMS    <user>   **** ""
3 48 49 50
DONOR_HYDROGENS      STATIC     ATOMS    <user>   **** ""
2 37 47
ATOM$BLUE        STATIC     ATOMS    COLORGROUP SYSTEM
3 48 49 50
ATOM$RED        STATIC     ATOMS    COLORGROUP SYSTEM
2 37 47
