AV-unprocessed.smi:1087|AV-procd|sdf|4725|dock3
  -GOLD-   22720 3253D 1   1.00000     0.00000
 Structure written by MMmdl.
 47 48  0  0  0  0  0  0  0  0  2 V2000
  143.8903  133.3716  149.9629 C   0  0  0  0  0  0  0  0  0  0  0  0
  145.0088  132.7469  150.5682 O   0  0  0  0  0  0  0  0  0  0  0  0
  145.7250  133.6241  151.4213 C   0  0  0  0  0  0  0  0  0  0  0  0
  147.0464  132.9543  151.8296 C   0  0  0  0  0  0  0  0  0  0  0  0
  147.8263  133.7699  152.7955 N   0  3  2  0  0  0  0  0  0  0  0  0
  149.1197  133.1311  153.1510 C   0  0  0  0  0  0  0  0  0  0  0  0
  149.9711  134.0517  154.0411 C   0  0  0  0  0  0  0  0  0  0  0  0
  149.2128  134.4553  155.3162 C   0  0  1  0  0  0  0  0  0  0  0  0
  150.0685  135.3794  156.2107 C   0  0  0  0  0  0  0  0  0  0  0  0
  150.4770  136.5982  155.5210 N   0  0  0  0  0  0  0  0  0  0  0  0
  151.7404  137.0347  155.4105 C   0  0  0  0  0  0  0  0  0  0  0  0
  152.7116  136.4070  155.8340 O   0  0  0  0  0  0  0  0  0  0  0  0
  151.9307  138.3870  154.7110 C   0  0  0  0  0  0  0  0  0  0  0  0
  151.4258  139.5141  155.5117 N   0  0  0  0  0  0  0  0  0  0  0  0
  150.2836  140.1854  155.0442 C   0  0  0  0  0  0  0  0  0  0  0  0
  149.7722  141.2252  155.7187 C   0  0  0  0  0  0  0  0  0  0  0  0
  150.4694  141.6097  156.9526 C   0  0  0  0  0  0  0  0  0  0  0  0
  151.5126  141.0020  157.3801 N   0  0  0  0  0  0  0  0  0  0  0  0
  152.0487  139.9116  156.6693 C   0  0  0  0  0  0  0  0  0  0  0  0
  153.0546  139.3260  157.0720 O   0  0  0  0  0  0  0  0  0  0  0  0
  147.8644  135.0862  154.9162 C   0  0  0  0  0  0  0  0  0  0  0  0
  147.0539  134.1455  154.0095 C   0  0  0  0  0  0  0  0  0  0  0  0
  143.3756  132.6581  149.3194 H   0  0  0  0  0  0  0  0  0  0  0  0
  144.1968  134.2187  149.3476 H   0  0  0  0  0  0  0  0  0  0  0  0
  143.1798  133.7222  150.7125 H   0  0  0  0  0  0  0  0  0  0  0  0
  145.8942  134.5842  150.9338 H   0  0  0  0  0  0  0  0  0  0  0  0
  145.1324  133.8230  152.3154 H   0  0  0  0  0  0  0  0  0  0  0  0
  146.8578  131.9671  152.2539 H   0  0  0  0  0  0  0  0  0  0  0  0
  147.6338  132.7914  150.9249 H   0  0  0  0  0  0  0  0  0  0  0  0
  148.9319  132.1834  153.6589 H   0  0  0  0  0  0  0  0  0  0  0  0
  149.6784  132.8996  152.2434 H   0  0  0  0  0  0  0  0  0  0  0  0
  150.9008  133.5457  154.3046 H   0  0  0  0  0  0  0  0  0  0  0  0
  150.2535  134.9431  153.4792 H   0  0  0  0  0  0  0  0  0  0  0  0
  149.0029  133.5423  155.8757 H   0  0  0  0  0  0  0  0  0  0  0  0
  149.5235  135.6411  157.1191 H   0  0  0  0  0  0  0  0  0  0  0  0
  150.9701  134.8573  156.5328 H   0  0  0  0  0  0  0  0  0  0  0  0
  149.7422  137.1701  155.1303 H   0  0  0  0  0  0  0  0  0  0  0  0
  152.9924  138.5099  154.4937 H   0  0  0  0  0  0  0  0  0  0  0  0
  151.4361  138.3769  153.7378 H   0  0  0  0  0  0  0  0  0  0  0  0
  149.8659  139.8114  154.1209 H   0  0  0  0  0  0  0  0  0  0  0  0
  148.9009  141.7857  155.4140 H   0  0  0  0  0  0  0  0  0  0  0  0
  150.0367  142.4581  157.4890 H   0  0  0  0  0  0  0  0  0  0  0  0
  147.2739  135.3191  155.8027 H   0  0  0  0  0  0  0  0  0  0  0  0
  148.0360  136.0328  154.4020 H   0  0  0  0  0  0  0  0  0  0  0  0
  146.1253  134.6428  153.7322 H   0  0  0  0  0  0  0  0  0  0  0  0
  146.7765  133.2449  154.5602 H   0  0  0  0  0  0  0  0  0  0  0  0
  148.0602  134.6282  152.3167 H   0  0  0  0  0  0  0  0  0  0  0  0
  1  2  1  0  0  0  0
  1 23  1  0  0  0  0
  1 24  1  0  0  0  0
  1 25  1  0  0  0  0
  2  3  1  0  0  0  0
  3  4  1  0  0  0  0
  3 26  1  0  0  0  0
  3 27  1  0  0  0  0
  4  5  1  0  0  0  0
  4 28  1  0  0  0  0
  4 29  1  0  0  0  0
  5 22  1  0  0  0  0
  5  6  1  0  0  0  0
  5 47  1  0  0  0  0
  6  7  1  0  0  0  0
  6 30  1  0  0  0  0
  6 31  1  0  0  0  0
  7  8  1  0  0  0  0
  7 32  1  0  0  0  0
  7 33  1  0  0  0  0
  8  9  1  0  0  0  0
  8 21  1  0  0  0  0
  8 34  1  0  0  0  0
  9 10  1  0  0  0  0
  9 35  1  0  0  0  0
  9 36  1  0  0  0  0
 10 11  1  0  0  0  0
 10 37  1  0  0  0  0
 11 12  2  0  0  0  0
 11 13  1  0  0  0  0
 13 14  1  0  0  0  0
 13 38  1  0  0  0  0
 13 39  1  0  0  0  0
 14 19  1  0  0  0  0
 14 15  1  0  0  0  0
 15 16  2  0  0  0  0
 15 40  1  0  0  0  0
 16 17  1  0  0  0  0
 16 41  1  0  0  0  0
 17 18  2  0  0  0  0
 17 42  1  0  0  0  0
 18 19  1  0  0  0  0
 19 20  2  0  0  0  0
 21 22  1  0  0  0  0
 21 43  1  0  0  0  0
 21 44  1  0  0  0  0
 22 45  1  0  0  0  0
 22 46  1  0  0  0  0
M  CHG  1   5   1
M  END
> <s_m_source_file>
AV-unprocessed.smi

> <i_m_source_file_index>
1087

> <i_lp_mmshare_version>
43012

> <i_f3d_flags>
0

> <s_epik_input>
W0NIM11PW0NIMl1bQ0gyXU4xW0NIMl1bQ0gyXVtDSF0oW0NIMl1bQ0gyXTEpW0NIMl1bTkhdQyg9TylbQ0gyXW4yW2NIXVtjSF1bY0hdbmMyPU8=

> <s_epik_cmdline>
J2VwaWtfcHl0aG9uJywgJy1waCcsICc3LjAnLCAnLXRuJywgJzgnLCAnLW1hJywgJzIwMCcsICctbWV0YWxfYmluZGluZycsICctaW1hZScsICc8aW5maWxlLm1hZT4nLCAnLW9tYWUnLCAnPG91dGZpbGUubWFlPic=

> <r_lp_tautomer_probability>
1

> <r_epik_Ionization_Penalty>
0.00982698

> <r_epik_Ionization_Penalty_Charging>
0.00982062

> <r_epik_Ionization_Penalty_Neutral>
6.35787e-06

> <r_epik_State_Penalty>
0.00747828

> <r_epik_Charging_Adjusted_Penalty>
0.0172989

> <i_epik_Tot_Q>
1

> <i_epik_Tot_abs_Q>
1

> <r_epik_Metal_State_Penalty>
0.00747829

> <b_epik_Metal_Only>
0

> <s_lp_Force_Field>
OPLS_2005

> <r_lp_Energy>
21.8948

> <b_lp_Chiralities_Consistent>
1

> <s_lp_Variant>
AV-unprocessed.smi:1087-1

> <Gold.Version>
5.8.1

> <Gold.Id.Protein>
6NUR|6NUR_protein|mol2

> <Gold.PLP.Fitness>
53.8076

> <Gold.PLP.PLP>
-36.2005

> <Gold.PLP.part.hbond>
-3.0000

> <Gold.PLP.part.metal>
0.0000

> <Gold.PLP.part.buried>
-1.1696

> <Gold.PLP.part.nonpolar>
-32.5697

> <Gold.PLP.part.repulsive>
0.2146

> <Gold.PLP.ligand.clash>
0.0000

> <Gold.PLP.ligand.torsion>
0.2314

> <Gold.PLP.Chemscore.Hbond>
3.9920

> <Gold.PLP.Chemscore.CHOScore>
2.0000

> <Gold.PLP.Chemscore.Metal>
0.0000

> <Gold.Chemscore.Hbonds>
donor molecule, donor type, donor heavy atom, donor atom, acceptor molecule, acceptor atom, score
      L1  H     5    47       P1  7948  2.00
      P1  H  7997  8009       L1    20  1.00
      P1  H 10752 10764       L1    12  0.39

> <Gold.PLP.Chemscore.Internal.Correction>
0.0940

> <Gold.Rescore>
     Score         DG    S(hbond)    S(metal)    S(lipo)     H(rot)  DE(clash)    DE(int)     intcor
     15.70     -15.98       2.71        0.00      65.87       2.45       0.02       0.26       ----

> <Gold.Chemscore.Fitness>
15.7028

> <Gold.Chemscore.DG>
-15.9812

> <Gold.Chemscore.ZeroCoef>
-5.4800

> <Gold.Chemscore.Hbond>
2.7109

> <Gold.Chemscore.Metal>
0.0000

> <Gold.Chemscore.Lipo>
65.8719

> <Gold.Chemscore.Internal_Hbond>
0.0000

> <Gold.Chemscore.DEClash>
0.0217

> <Gold.Chemscore.DEInternal>
0.2567

> <Gold.Chemscore.Rot>
2.4454

> <Gold.Chemscore.Internal.Correction>
   9.000000E+99

> <Gold.Chemscore.Hbonds>
donor molecule, donor type, donor heavy atom, donor atom, acceptor molecule, acceptor atom, score
      L1  H     5    47       P1  7948  0.35
      P1  H  7997  8009       L1    20  0.83
      P1  H 10752 10764       L1    12  0.26

> <Gold.Chemscore.Hbond.Weighted>
-9.0545

> <Gold.Chemscore.Metal.Weighted>
-0.0000

> <Gold.Chemscore.Lipo.Weighted>
-7.7070

> <Gold.Chemscore.Internal_Hbond.Weighted>
0.0000

> <Gold.Chemscore.DEClash.Weighted>
0.0217

> <Gold.Chemscore.DEInternal.Weighted>
0.2567

> <Gold.Chemscore.Rot.Weighted>
6.2603

> <Gold.Chemscore.Internal.Correction.Weighted>
   9.000000E+99

> <Gold.Protein.RotatedTorsions>
[ 6907 6896 6895 6894 ] final  161.47 input  -60.11 | X-H torsion
[ 7974 7965 7964 7962 ] final  -36.93 input  175.53 | X-H torsion
[ 8008 7997 7996 7995 ] final  178.26 input   59.86 | X-H torsion
[ 10167 10162 10161 10158 ] final   52.37 input  -65.29 | X-H torsion
[ 10718 10713 10712 10709 ] final -128.05 input   66.30 | X-H torsion
[ 10763 10752 10751 10750 ] final  -41.25 input  -60.55 | X-H torsion
[ 11005 11000 10999 10996 ] final  157.88 input  -57.11 | X-H torsion

> <Gold.Protein.ActiveResidues>
 VAL166  LYS551  ARG553  GLY616  TRP617  ASP618  TYR619  PRO620  LYS621  CYS622 
 ASP623  PHE694  ASN695  SER759  ASP760  ASP761  ALA762  ILE779  LEU786  VAL792 
 PHE793  MET794  SER795  GLU796  ALA797  LYS798  CYS799  TRP800  GLU811  SER814 

> <Gold.Protein.RotatedAtoms>
  151.9552  133.3678  159.4014 H   0  0  0  0  0  0  0  0  0  0  0  0  # atno 6907 bound_to 6896
  150.6974  134.4299  159.5253 H   0  0  0  0  0  0  0  0  0  0  0  0  # atno 6908 bound_to 6896
  152.1978  134.8615  160.0562 H   0  0  0  0  0  0  0  0  0  0  0  0  # atno 6909 bound_to 6896
  146.0619  140.6336  142.8993 H   0  0  0  0  0  0  0  0  0  0  0  0  # atno 7974 bound_to 7965
  156.0566  140.1338  156.9989 H   0  0  0  0  0  0  0  0  0  0  0  0  # atno 8008 bound_to 7997
  154.4461  140.1000  156.6526 H   0  0  0  0  0  0  0  0  0  0  0  0  # atno 8009 bound_to 7997
  155.5441  140.3461  155.4456 H   0  0  0  0  0  0  0  0  0  0  0  0  # atno 8010 bound_to 7997
  140.2521  144.3468  150.6345 H   0  0  0  0  0  0  0  0  0  0  0  0  # atno 10167 bound_to 10162
  156.1914  130.6798  151.0429 H   0  0  0  0  0  0  0  0  0  0  0  0  # atno 10718 bound_to 10713
  153.9593  135.6741  153.4745 H   0  0  0  0  0  0  0  0  0  0  0  0  # atno 10763 bound_to 10752
  153.0846  135.4906  154.8567 H   0  0  0  0  0  0  0  0  0  0  0  0  # atno 10764 bound_to 10752
  154.7281  135.3132  154.8896 H   0  0  0  0  0  0  0  0  0  0  0  0  # atno 10765 bound_to 10752
  140.1812  134.8474  157.2805 H   0  0  0  0  0  0  0  0  0  0  0  0  # atno 11005 bound_to 11000
  144.7180  140.4276  143.7030 LP  0  0  0  0  0  0  0  0  0  0  0  0  # atno 17320 bound_to 7965
  145.6544  139.1570  143.2843 LP  0  0  0  0  0  0  0  0  0  0  0  0  # atno 17321 bound_to 7965
  140.6033  143.2167  151.7031 LP  0  0  0  0  0  0  0  0  0  0  0  0  # atno 17342 bound_to 10162
  139.5043  144.3759  152.0424 LP  0  0  0  0  0  0  0  0  0  0  0  0  # atno 17343 bound_to 10162
  157.6931  131.0803  150.7049 LP  0  0  0  0  0  0  0  0  0  0  0  0  # atno 17370 bound_to 10713
  156.7105  130.4650  149.5548 LP  0  0  0  0  0  0  0  0  0  0  0  0  # atno 17371 bound_to 10713
  140.2265  134.3960  155.7541 LP  0  0  0  0  0  0  0  0  0  0  0  0  # atno 17394 bound_to 11000
  141.2223  133.7193  156.8574 LP  0  0  0  0  0  0  0  0  0  0  0  0  # atno 17395 bound_to 11000

$$$$
