AV-unprocessed.smi:249|AV-procd|sdf|1918|dock5
  -GOLD-   2262021 23D 1   1.00000     0.00000
 Structure written by MMmdl.
 64 67  0  0  0  0  0  0  0  0  2 V2000
  145.6974  134.8781  150.7985 C   0  0  0  0  0  0  0  0  0  0  0  0
  146.2487  133.6105  151.4662 C   0  0  0  0  0  0  0  0  0  0  0  0
  147.3604  133.9065  152.4064 N   0  3  2  0  0  0  0  0  0  0  0  0
  148.1652  132.7103  152.7746 C   0  0  0  0  0  0  0  0  0  0  0  0
  149.4167  133.1139  153.5693 C   0  0  0  0  0  0  0  0  0  0  0  0
  149.0410  133.9168  154.8312 C   0  0  1  0  0  0  0  0  0  0  0  0
  150.1916  134.2769  155.6704 N   0  0  0  0  0  0  0  0  0  0  0  0
  150.8181  133.2137  156.4467 C   0  0  0  0  0  0  0  0  0  0  0  0
  150.1651  135.4773  156.2970 C   0  0  0  0  0  0  0  0  0  0  0  0
  149.5991  135.5262  157.5290 N   0  0  0  0  0  0  0  0  0  0  0  0
  149.5399  136.6833  158.1949 C   0  0  0  0  0  0  0  0  0  0  0  0
  149.9780  137.8862  157.8181 N   0  0  0  0  0  0  0  0  0  0  0  0
  150.5418  137.8414  156.5773 C   0  0  0  0  0  0  0  0  0  0  0  0
  150.6739  136.6905  155.7508 C   0  0  0  0  0  0  0  0  0  0  0  0
  151.3042  137.0343  154.5599 N   0  0  0  0  0  0  0  0  0  0  0  0
  151.5272  138.3154  154.6745 C   0  0  0  0  0  0  0  0  0  0  0  0
  151.1088  138.8778  155.8588 N   0  0  0  0  0  0  0  0  0  0  0  0
  151.2351  140.2679  156.2585 C   0  0  0  0  0  0  0  0  0  0  0  0
  151.1683  140.4660  157.7932 C   0  0  1  0  0  0  0  0  0  0  0  0
  152.0943  139.4913  158.5605 C   0  0  0  0  0  0  0  0  0  0  0  0
  153.4496  139.6816  158.2087 O   0  0  0  0  0  0  0  0  0  0  0  0
  151.4087  141.9447  158.1887 C   0  0  2  0  0  0  0  0  0  0  0  0
  151.3060  142.2337  159.6761 C   0  0  0  0  0  0  0  0  0  0  0  0
  151.1077  143.7452  159.6999 C   0  0  0  0  0  0  0  0  0  0  0  0
  150.3934  144.0590  158.5097 O   0  0  0  0  0  0  0  0  0  0  0  0
  150.3665  142.9277  157.6453 C   0  0  0  0  0  0  0  0  0  0  0  0
  148.1830  135.1321  154.4166 C   0  0  0  0  0  0  0  0  0  0  0  0
  146.9474  134.7168  153.5909 C   0  0  2  0  0  0  0  0  0  0  0  0
  145.8640  134.0350  154.4550 C   0  0  0  0  0  0  0  0  0  0  0  0
  144.8321  134.6391  150.1799 H   0  0  0  0  0  0  0  0  0  0  0  0
  146.4337  135.3554  150.1525 H   0  0  0  0  0  0  0  0  0  0  0  0
  145.3781  135.6085  151.5427 H   0  0  0  0  0  0  0  0  0  0  0  0
  145.4292  133.1411  152.0121 H   0  0  0  0  0  0  0  0  0  0  0  0
  146.5728  132.8913  150.7128 H   0  0  0  0  0  0  0  0  0  0  0  0
  147.5594  132.0076  153.3472 H   0  0  0  0  0  0  0  0  0  0  0  0
  148.4820  132.1811  151.8766 H   0  0  0  0  0  0  0  0  0  0  0  0
  149.9792  132.2217  153.8467 H   0  0  0  0  0  0  0  0  0  0  0  0
  150.0639  133.7030  152.9183 H   0  0  0  0  0  0  0  0  0  0  0  0
  148.4239  133.2669  155.4524 H   0  0  0  0  0  0  0  0  0  0  0  0
  151.7027  133.5801  156.9697 H   0  0  0  0  0  0  0  0  0  0  0  0
  151.1347  132.4057  155.7870 H   0  0  0  0  0  0  0  0  0  0  0  0
  150.1326  132.7976  157.1845 H   0  0  0  0  0  0  0  0  0  0  0  0
  149.0749  136.6395  159.1689 H   0  0  0  0  0  0  0  0  0  0  0  0
  152.0148  138.8875  153.8982 H   0  0  0  0  0  0  0  0  0  0  0  0
  152.1749  140.6581  155.8661 H   0  0  0  0  0  0  0  0  0  0  0  0
  150.4400  140.8248  155.7626 H   0  0  0  0  0  0  0  0  0  0  0  0
  150.1501  140.2195  158.0980 H   0  0  0  0  0  0  0  0  0  0  0  0
  151.9905  139.6229  159.6372 H   0  0  0  0  0  0  0  0  0  0  0  0
  151.8238  138.4543  158.3606 H   0  0  0  0  0  0  0  0  0  0  0  0
  153.9622  139.7352  159.0008 H   0  0  0  0  0  0  0  0  0  0  0  0
  152.3938  142.2615  157.8420 H   0  0  0  0  0  0  0  0  0  0  0  0
  150.4337  141.7361  160.1024 H   0  0  0  0  0  0  0  0  0  0  0  0
  152.1865  141.9219  160.2387 H   0  0  0  0  0  0  0  0  0  0  0  0
  150.5713  144.0815  160.5876 H   0  0  0  0  0  0  0  0  0  0  0  0
  152.0709  144.2562  159.6711 H   0  0  0  0  0  0  0  0  0  0  0  0
  150.5666  143.2208  156.6144 H   0  0  0  0  0  0  0  0  0  0  0  0
  149.3665  142.4932  157.6836 H   0  0  0  0  0  0  0  0  0  0  0  0
  147.8631  135.6967  155.2927 H   0  0  0  0  0  0  0  0  0  0  0  0
  148.7853  135.8167  153.8184 H   0  0  0  0  0  0  0  0  0  0  0  0
  146.5088  135.6388  153.2064 H   0  0  0  0  0  0  0  0  0  0  0  0
  145.5881  134.6708  155.2965 H   0  0  0  0  0  0  0  0  0  0  0  0
  146.1961  133.0827  154.8666 H   0  0  0  0  0  0  0  0  0  0  0  0
  144.9522  133.8496  153.8874 H   0  0  0  0  0  0  0  0  0  0  0  0
  147.9876  134.5078  151.8913 H   0  0  0  0  0  0  0  0  0  0  0  0
  1  2  1  0  0  0  0
  1 30  1  0  0  0  0
  1 31  1  0  0  0  0
  1 32  1  0  0  0  0
  2  3  1  0  0  0  0
  2 33  1  0  0  0  0
  2 34  1  0  0  0  0
  3 28  1  0  0  0  0
  3  4  1  0  0  0  0
  3 64  1  0  0  0  0
  4  5  1  0  0  0  0
  4 35  1  0  0  0  0
  4 36  1  0  0  0  0
  5  6  1  0  0  0  0
  5 37  1  0  0  0  0
  5 38  1  0  0  0  0
  6  7  1  0  0  0  0
  6 27  1  0  0  0  0
  6 39  1  0  0  0  0
  7  8  1  0  0  0  0
  7  9  1  0  0  0  0
  8 40  1  0  0  0  0
  8 41  1  0  0  0  0
  8 42  1  0  0  0  0
  9 14  1  0  0  0  0
  9 10  2  0  0  0  0
 10 11  1  0  0  0  0
 11 12  2  0  0  0  0
 11 43  1  0  0  0  0
 12 13  1  0  0  0  0
 13 17  1  0  0  0  0
 13 14  2  0  0  0  0
 14 15  1  0  0  0  0
 15 16  2  0  0  0  0
 16 17  1  0  0  0  0
 16 44  1  0  0  0  0
 17 18  1  0  0  0  0
 18 19  1  0  0  0  0
 18 45  1  0  0  0  0
 18 46  1  0  0  0  0
 19 20  1  0  0  0  0
 19 22  1  0  0  0  0
 19 47  1  0  0  0  0
 20 21  1  0  0  0  0
 20 48  1  0  0  0  0
 20 49  1  0  0  0  0
 21 50  1  0  0  0  0
 22 26  1  0  0  0  0
 22 23  1  0  0  0  0
 22 51  1  0  0  0  0
 23 24  1  0  0  0  0
 23 52  1  0  0  0  0
 23 53  1  0  0  0  0
 24 25  1  0  0  0  0
 24 54  1  0  0  0  0
 24 55  1  0  0  0  0
 25 26  1  0  0  0  0
 26 56  1  0  0  0  0
 26 57  1  0  0  0  0
 27 28  1  0  0  0  0
 27 58  1  0  0  0  0
 27 59  1  0  0  0  0
 28 29  1  0  0  0  0
 28 60  1  0  0  0  0
 29 61  1  0  0  0  0
 29 62  1  0  0  0  0
 29 63  1  0  0  0  0
M  CHG  1   3   1
M  END
> <s_m_source_file>
AV-unprocessed.smi

> <i_m_source_file_index>
249

> <i_lp_mmshare_version>
43012

> <i_f3d_flags>
0

> <s_epik_input>
W0NIM11bQ0gyXU4xW0NIMl1bQ0gyXVtDQEhdKFtDSDJdW0NASF0xW0NIM10pTihbQ0gzXSljKG5bY0hdbjIpYyhjMjMpbltjSF1uM1tDSDJdW0NASF0oW0NIMl1bT0hdKVtDQEBIXTRbQ0gyXVtDSDJdT1tDSDJdNA==

> <s_epik_cmdline>
J2VwaWtfcHl0aG9uJywgJy1waCcsICc3LjAnLCAnLXRuJywgJzgnLCAnLW1hJywgJzIwMCcsICctbWV0YWxfYmluZGluZycsICctaW1hZScsICc8aW5maWxlLm1hZT4nLCAnLW9tYWUnLCAnPG91dGZpbGUubWFlPic=

> <r_lp_tautomer_probability>
1

> <r_epik_Ionization_Penalty>
0.00294688

> <r_epik_Ionization_Penalty_Charging>
0.00169971

> <r_epik_Ionization_Penalty_Neutral>
0.00124717

> <r_epik_State_Penalty>
-0

> <r_epik_Charging_Adjusted_Penalty>
0.00169971

> <i_epik_Tot_Q>
1

> <i_epik_Tot_abs_Q>
1

> <r_epik_Metal_State_Penalty>
-0

> <b_epik_Metal_Only>
0

> <s_lp_Force_Field>
OPLS_2005

> <r_lp_Energy>
53.4352

> <b_lp_Chiralities_Consistent>
1

> <s_lp_Variant>
AV-unprocessed.smi:249-21

> <Gold.Version>
5.8.1

> <Gold.Id.Protein>
6NUR|6NUR_protein|mol2

> <Gold.PLP.Fitness>
54.4257

> <Gold.PLP.PLP>
-43.9807

> <Gold.PLP.part.hbond>
-3.8684

> <Gold.PLP.part.metal>
0.0000

> <Gold.PLP.part.buried>
-5.9275

> <Gold.PLP.part.nonpolar>
-35.8091

> <Gold.PLP.part.repulsive>
0.2560

> <Gold.PLP.ligand.clash>
0.0000

> <Gold.PLP.ligand.torsion>
1.5246

> <Gold.PLP.Chemscore.Hbond>
4.1544

> <Gold.PLP.Chemscore.CHOScore>
0.0000

> <Gold.PLP.Chemscore.Metal>
0.0000

> <Gold.Chemscore.Hbonds>
donor molecule, donor type, donor heavy atom, donor atom, acceptor molecule, acceptor atom, score
      L1  H     3    64       P1  7948  1.54
      P1  H  7997  8008       L1    21  0.75
      P1  H 10752 10763       L1    15  0.59

> <Gold.PLP.Chemscore.Internal.Correction>
1.0309

> <Gold.Rescore>
     Score         DG    S(hbond)    S(metal)    S(lipo)     H(rot)  DE(clash)    DE(int)     intcor
     14.40     -18.77       2.96        0.00      92.52       2.90       0.20       4.17       ----

> <Gold.Chemscore.Fitness>
14.4036

> <Gold.Chemscore.DG>
-18.7712

> <Gold.Chemscore.ZeroCoef>
-5.4800

> <Gold.Chemscore.Hbond>
2.9617

> <Gold.Chemscore.Metal>
0.0000

> <Gold.Chemscore.Lipo>
92.5193

> <Gold.Chemscore.Internal_Hbond>
0.0000

> <Gold.Chemscore.DEClash>
0.1975

> <Gold.Chemscore.DEInternal>
4.1701

> <Gold.Chemscore.Rot>
2.9006

> <Gold.Chemscore.Internal.Correction>
   9.000000E+99

> <Gold.Chemscore.Hbonds>
donor molecule, donor type, donor heavy atom, donor atom, acceptor molecule, acceptor atom, score
      L1  H     3    64       P1  7948  0.11
      P1  H  7997  8008       L1    21  0.09
      P1  H 10752 10763       L1    15  0.13

> <Gold.Chemscore.Hbond.Weighted>
-9.8921

> <Gold.Chemscore.Metal.Weighted>
-0.0000

> <Gold.Chemscore.Lipo.Weighted>
-10.8248

> <Gold.Chemscore.Internal_Hbond.Weighted>
0.0000

> <Gold.Chemscore.DEClash.Weighted>
0.1975

> <Gold.Chemscore.DEInternal.Weighted>
4.1701

> <Gold.Chemscore.Rot.Weighted>
7.4256

> <Gold.Chemscore.Internal.Correction.Weighted>
   9.000000E+99

> <Gold.Protein.RotatedTorsions>
[ 6907 6896 6895 6894 ] final   13.66 input  -60.11 | X-H torsion
[ 7974 7965 7964 7962 ] final  -77.05 input  175.53 | X-H torsion
[ 8008 7997 7996 7995 ] final  -97.91 input   59.86 | X-H torsion
[ 10167 10162 10161 10158 ] final  -93.30 input  -65.29 | X-H torsion
[ 10718 10713 10712 10709 ] final    2.54 input   66.30 | X-H torsion
[ 10763 10752 10751 10750 ] final   62.47 input  -60.55 | X-H torsion
[ 11005 11000 10999 10996 ] final  -22.49 input  -57.11 | X-H torsion

> <Gold.Protein.ActiveResidues>
 VAL166  LYS551  ARG553  GLY616  TRP617  ASP618  TYR619  PRO620  LYS621  CYS622 
 ASP623  PHE694  ASN695  SER759  ASP760  ASP761  ALA762  ILE779  LEU786  VAL792 
 PHE793  MET794  SER795  GLU796  ALA797  LYS798  CYS799  TRP800  GLU811  SER814 

> <Gold.Protein.RotatedAtoms>
  151.7898  135.0739  160.0385 H   0  0  0  0  0  0  0  0  0  0  0  0  # atno 6907 bound_to 6896
  152.3164  133.5803  159.5724 H   0  0  0  0  0  0  0  0  0  0  0  0  # atno 6908 bound_to 6896
  150.7346  133.9992  159.3674 H   0  0  0  0  0  0  0  0  0  0  0  0  # atno 6909 bound_to 6896
  145.6047  140.9400  143.1221 H   0  0  0  0  0  0  0  0  0  0  0  0  # atno 7974 bound_to 7965
  154.7941  140.0459  157.1223 H   0  0  0  0  0  0  0  0  0  0  0  0  # atno 8008 bound_to 7997
  154.9556  140.3071  155.5035 H   0  0  0  0  0  0  0  0  0  0  0  0  # atno 8009 bound_to 7997
  156.2953  140.2280  156.4637 H   0  0  0  0  0  0  0  0  0  0  0  0  # atno 8010 bound_to 7997
  140.3261  143.3021  151.9993 H   0  0  0  0  0  0  0  0  0  0  0  0  # atno 10167 bound_to 10162
  156.8645  130.5598  149.5661 H   0  0  0  0  0  0  0  0  0  0  0  0  # atno 10718 bound_to 10713
  152.9984  135.5464  154.6199 H   0  0  0  0  0  0  0  0  0  0  0  0  # atno 10763 bound_to 10752
  154.5500  135.2826  155.1019 H   0  0  0  0  0  0  0  0  0  0  0  0  # atno 10764 bound_to 10752
  154.2262  135.6441  153.5213 H   0  0  0  0  0  0  0  0  0  0  0  0  # atno 10765 bound_to 10752
  140.8662  133.7753  156.0132 H   0  0  0  0  0  0  0  0  0  0  0  0  # atno 11005 bound_to 11000
  144.7295  139.7771  143.7352 LP  0  0  0  0  0  0  0  0  0  0  0  0  # atno 17320 bound_to 7965
  146.1549  139.4644  143.0025 LP  0  0  0  0  0  0  0  0  0  0  0  0  # atno 17321 bound_to 7965
  139.4865  144.6272  151.7140 LP  0  0  0  0  0  0  0  0  0  0  0  0  # atno 17342 bound_to 10162
  140.5440  144.0534  150.6099 LP  0  0  0  0  0  0  0  0  0  0  0  0  # atno 17343 bound_to 10162
  156.0759  130.5781  150.9473 LP  0  0  0  0  0  0  0  0  0  0  0  0  # atno 17370 bound_to 10713
  157.6231  131.0928  150.8584 LP  0  0  0  0  0  0  0  0  0  0  0  0  # atno 17371 bound_to 10713
  140.8626  134.2822  157.5227 LP  0  0  0  0  0  0  0  0  0  0  0  0  # atno 17394 bound_to 11000
  139.8709  134.9526  156.4120 LP  0  0  0  0  0  0  0  0  0  0  0  0  # atno 17395 bound_to 11000

$$$$
