#       Name:                AV-unprocessed.smi:1428
#       Creating user name   scv26
#       Creation time:       Fri Mar 27 05:47:07 2020


#       File generated by GOLD software.
#

@<TRIPOS>MOLECULE
AV-unprocessed.smi:1428
    51    52     1
SMALL
NO_CHARGES


@<TRIPOS>ATOM
      1 ****        -4.0605  -4.4907   0.9187 C.3            1 S1                 0.0000
      2 ****        -3.4364  -3.2112   0.9029 O.3            1 S1                 0.0000
      3 ****        -4.2342  -2.0867   1.0000 C.ar           1 S1                 0.0000
      4 ****        -5.5772  -2.2563   1.0909 N.ar           1 S1                 0.0000
      5 ****        -6.3583  -1.1615   1.1892 C.ar           1 S1                 0.0000
      6 ****        -5.8477   0.1488   1.2098 C.ar           1 S1                 0.0000
      7 ****        -4.4552   0.3278   1.1173 C.ar           1 S1                 0.0000
      8 ****        -3.6211  -0.8113   0.9982 C.ar           1 S1                 0.0000
      9 ****        -2.2014  -0.7539   0.9092 N.am           1 S1                 0.0000
     10 ****        -1.4107   0.2897   0.6053 C.2            1 S1                 0.0000
     11 ****        -1.7975   1.4247   0.3287 O.2            1 S1                 0.0000
     12 ****        -0.1172  -0.0628   0.6250 N.am           1 S1                 0.0000
     13 ****         1.0025   0.8335   0.3511 C.3            1 S1                 0.0000
     14 ****         1.2012   1.0265  -1.1637 C.3            1 S1                 0.0000
     15 ****         2.4366   1.8945  -1.4533 C.3            1 S1                 0.0000
     16 ****         3.6578   1.3116  -0.8359 N.4            1 S1                 1.0000
     17 ****         4.9025   2.0368  -1.1978 C.3            1 S1                 0.0000
     18 ****         5.3540   1.6696  -2.6156 C.2            1 S1                 0.0000
     19 ****         5.6601   0.3617  -2.7345 N.pl3          1 S1                -1.0000
     20 ****         5.4008   2.5383  -3.4832 O.2            1 S1                 0.0000
     21 ****         3.5060   1.1438   0.6314 C.3            1 S1                 0.0000
     22 ****         2.2903   0.2636   0.9673 C.3            1 S1                 0.0000
     23 ****        -3.2985  -5.2646   0.8288 H              1 S1                 0.0000
     24 ****        -4.7516  -4.6096   0.0830 H              1 S1                 0.0000
     25 ****        -4.5961  -4.6612   1.8539 H              1 S1                 0.0000
     26 ****        -7.4219  -1.3354   1.2596 H              1 S1                 0.0000
     27 ****        -6.5091   0.9977   1.2989 H              1 S1                 0.0000
     28 ****        -4.0624   1.3313   1.1527 H              1 S1                 0.0000
     29 ****        -1.7313  -1.6366   1.0485 H              1 S1                 0.0000
     30 ****         0.1103  -1.0189   0.8563 H              1 S1                 0.0000
     31 ****         0.8021   1.8030   0.8119 H              1 S1                 0.0000
     32 ****         1.3179   0.0570  -1.6508 H              1 S1                 0.0000
     33 ****         0.3189   1.4902  -1.6063 H              1 S1                 0.0000
     34 ****         2.5647   1.9820  -2.5326 H              1 S1                 0.0000
     35 ****         2.2818   2.9051  -1.0721 H              1 S1                 0.0000
     36 ****         4.7563   3.1141  -1.1052 H              1 S1                 0.0000
     37 ****         5.7098   1.7730  -0.5123 H              1 S1                 0.0000
     38 ****         5.9829   0.0128  -3.6450 H              1 S1                 0.0000
     39 ****         4.4040   0.6815   1.0431 H              1 S1                 0.0000
     40 ****         3.4076   2.1229   1.1028 H              1 S1                 0.0000
     41 ****         2.1842   0.1817   2.0498 H              1 S1                 0.0000
     42 ****         2.4643  -0.7476   0.5957 H              1 S1                 0.0000
     43 ****         3.7705   0.3838  -1.2209 H              1 S1                 0.0000
     44 ****        -2.9299  -3.1404   0.0435 LP             1 S1                 0.0000
     45 ****        -2.7958  -3.1857   1.6704 LP             1 S1                 0.0000
     46 ****        -5.9786  -3.1721   1.0851 LP             1 S1                 0.0000
     47 ****        -2.7760   1.6307   0.3178 LP             1 S1                 0.0000
     48 ****        -1.1333   2.1411   0.1148 LP             1 S1                 0.0000
     49 ****         5.5746  -0.2556  -1.9525 LP             1 S1                 0.0000
     50 ****         5.1450   3.4796  -3.2627 LP             1 S1                 0.0000
     51 ****         5.6947   2.3041  -4.4099 LP             1 S1                 0.0000
@<TRIPOS>BOND
    1    1    2 1     
    2    1   23 1     
    3    1   24 1     
    4    1   25 1     
    5    2    3 1     
    6    3    8 ar    
    7    3    4 ar    
    8    4    5 ar    
    9    5    6 ar    
   10    5   26 1     
   11    6    7 ar    
   12    6   27 1     
   13    7    8 ar    
   14    7   28 1     
   15    8    9 1     
   16    9   10 am    
   17    9   29 1     
   18   10   11 2     
   19   10   12 am    
   20   12   13 1     
   21   12   30 1     
   22   13   22 1     
   23   13   14 1     
   24   13   31 1     
   25   14   15 1     
   26   14   32 1     
   27   14   33 1     
   28   15   16 1     
   29   15   34 1     
   30   15   35 1     
   31   16   17 1     
   32   16   21 1     
   33   16   43 1     
   34   17   18 1     
   35   17   36 1     
   36   17   37 1     
   37   18   19 1     
   38   18   20 2     
   39   19   38 1     
   40   21   22 1     
   41   21   39 1     
   42   21   40 1     
   43   22   41 1     
   44   22   42 1     
   45    2   44 1     
   46    2   45 1     
   47    4   46 1     
   48   11   47 1     
   49   11   48 1     
   50   19   49 1     
   51   20   50 1     
   52   20   51 1     
@<TRIPOS>SUBSTRUCTURE
      1 S1             1
@<TRIPOS>SET
LONE_PAIRS      STATIC     ATOMS    <user>   **** ""
8 44 45 46 47 48 49 50 51
DONOR_HYDROGENS      STATIC     ATOMS    <user>   **** ""
4 29 30 43 38
ATOM$BLUE        STATIC     ATOMS    COLORGROUP SYSTEM
8 44 45 46 47 48 49 50 51
ATOM$RED        STATIC     ATOMS    COLORGROUP SYSTEM
4 29 30 43 38
