AV-unprocessed.smi:249|AV-procd|sdf|1904|dock5
  -GOLD-   2262020583D 1   1.00000     0.00000
 Structure written by MMmdl.
 64 67  0  0  0  0  0  0  0  0  2 V2000
  143.6277  132.9926  151.5761 C   0  0  0  0  0  0  0  0  0  0  0  0
  144.2153  134.1669  152.3760 C   0  0  0  0  0  0  0  0  0  0  0  0
  144.7138  133.7794  153.7277 N   0  3  2  0  0  0  0  0  0  0  0  0
  144.6550  134.9198  154.6874 C   0  0  0  0  0  0  0  0  0  0  0  0
  145.0922  134.5129  156.1036 C   0  0  0  0  0  0  0  0  0  0  0  0
  146.5214  133.9334  156.1104 C   0  0  2  0  0  0  0  0  0  0  0  0
  147.5621  134.9201  155.7770 N   0  0  0  0  0  0  0  0  0  0  0  0
  148.8453  134.4089  155.3056 C   0  0  0  0  0  0  0  0  0  0  0  0
  147.7536  135.8979  156.6906 C   0  0  0  0  0  0  0  0  0  0  0  0
  146.8659  135.9752  157.7122 N   0  0  0  0  0  0  0  0  0  0  0  0
  147.0111  136.9155  158.6513 C   0  0  0  0  0  0  0  0  0  0  0  0
  147.9536  137.8557  158.7533 N   0  0  0  0  0  0  0  0  0  0  0  0
  148.8417  137.7824  157.7206 C   0  0  0  0  0  0  0  0  0  0  0  0
  148.8157  136.8441  156.6519 C   0  0  0  0  0  0  0  0  0  0  0  0
  149.8775  137.0786  155.7867 N   0  0  0  0  0  0  0  0  0  0  0  0
  150.4999  138.0965  156.3167 C   0  0  0  0  0  0  0  0  0  0  0  0
  149.9491  138.5762  157.4836 N   0  0  0  0  0  0  0  0  0  0  0  0
  150.4338  139.6859  158.2844 C   0  0  0  0  0  0  0  0  0  0  0  0
  150.6319  140.9868  157.4673 C   0  0  1  0  0  0  0  0  0  0  0  0
  149.4268  141.3071  156.5497 C   0  0  0  0  0  0  0  0  0  0  0  0
  149.7955  142.1706  155.4937 O   0  0  0  0  0  0  0  0  0  0  0  0
  151.0134  142.1781  158.3815 C   0  0  2  0  0  0  0  0  0  0  0  0
  151.4718  143.4267  157.6487 C   0  0  0  0  0  0  0  0  0  0  0  0
  152.2004  144.1938  158.7463 C   0  0  0  0  0  0  0  0  0  0  0  0
  152.7809  143.2018  159.5847 O   0  0  0  0  0  0  0  0  0  0  0  0
  152.2263  141.9248  159.2844 C   0  0  0  0  0  0  0  0  0  0  0  0
  146.5112  132.7405  155.1370 C   0  0  0  0  0  0  0  0  0  0  0  0
  146.0688  133.1360  153.7089 C   0  0  1  0  0  0  0  0  0  0  0  0
  146.1312  131.8825  152.8113 C   0  0  0  0  0  0  0  0  0  0  0  0
  143.4372  133.2937  150.5456 H   0  0  0  0  0  0  0  0  0  0  0  0
  142.6772  132.6481  151.9823 H   0  0  0  0  0  0  0  0  0  0  0  0
  144.3158  132.1473  151.5490 H   0  0  0  0  0  0  0  0  0  0  0  0
  145.0303  134.5578  151.7714 H   0  0  0  0  0  0  0  0  0  0  0  0
  143.4818  134.9693  152.4663 H   0  0  0  0  0  0  0  0  0  0  0  0
  145.2751  135.7381  154.3187 H   0  0  0  0  0  0  0  0  0  0  0  0
  143.6396  135.3056  154.7592 H   0  0  0  0  0  0  0  0  0  0  0  0
  144.9991  135.3602  156.7831 H   0  0  0  0  0  0  0  0  0  0  0  0
  144.3996  133.7620  156.4864 H   0  0  0  0  0  0  0  0  0  0  0  0
  146.7367  133.5511  157.1085 H   0  0  0  0  0  0  0  0  0  0  0  0
  149.6303  135.1661  155.3494 H   0  0  0  0  0  0  0  0  0  0  0  0
  148.7639  134.0880  154.2671 H   0  0  0  0  0  0  0  0  0  0  0  0
  149.1647  133.5551  155.9046 H   0  0  0  0  0  0  0  0  0  0  0  0
  146.2668  136.9139  159.4340 H   0  0  0  0  0  0  0  0  0  0  0  0
  151.3883  138.5229  155.8734 H   0  0  0  0  0  0  0  0  0  0  0  0
  149.7306  139.8560  159.1006 H   0  0  0  0  0  0  0  0  0  0  0  0
  151.3711  139.3740  158.7456 H   0  0  0  0  0  0  0  0  0  0  0  0
  151.4794  140.8139  156.8025 H   0  0  0  0  0  0  0  0  0  0  0  0
  149.0077  140.3949  156.1259 H   0  0  0  0  0  0  0  0  0  0  0  0
  148.6174  141.7705  157.1140 H   0  0  0  0  0  0  0  0  0  0  0  0
  149.3086  142.9760  155.5801 H   0  0  0  0  0  0  0  0  0  0  0  0
  150.1635  142.4419  159.0134 H   0  0  0  0  0  0  0  0  0  0  0  0
  152.1671  143.1677  156.8485 H   0  0  0  0  0  0  0  0  0  0  0  0
  150.6509  144.0000  157.2170 H   0  0  0  0  0  0  0  0  0  0  0  0
  152.9543  144.8746  158.3510 H   0  0  0  0  0  0  0  0  0  0  0  0
  151.4925  144.7764  159.3370 H   0  0  0  0  0  0  0  0  0  0  0  0
  151.9610  141.3907  160.1971 H   0  0  0  0  0  0  0  0  0  0  0  0
  152.9839  141.3403  158.7608 H   0  0  0  0  0  0  0  0  0  0  0  0
  147.4896  132.2606  155.1141 H   0  0  0  0  0  0  0  0  0  0  0  0
  145.8303  131.9794  155.5213 H   0  0  0  0  0  0  0  0  0  0  0  0
  146.7809  133.8637  153.3162 H   0  0  0  0  0  0  0  0  0  0  0  0
  147.0755  131.3540  152.9464 H   0  0  0  0  0  0  0  0  0  0  0  0
  146.0748  132.1259  151.7512 H   0  0  0  0  0  0  0  0  0  0  0  0
  145.3285  131.1827  153.0468 H   0  0  0  0  0  0  0  0  0  0  0  0
  144.0766  133.0777  154.0762 H   0  0  0  0  0  0  0  0  0  0  0  0
  1  2  1  0  0  0  0
  1 30  1  0  0  0  0
  1 31  1  0  0  0  0
  1 32  1  0  0  0  0
  2  3  1  0  0  0  0
  2 33  1  0  0  0  0
  2 34  1  0  0  0  0
  3 28  1  0  0  0  0
  3  4  1  0  0  0  0
  3 64  1  0  0  0  0
  4  5  1  0  0  0  0
  4 35  1  0  0  0  0
  4 36  1  0  0  0  0
  5  6  1  0  0  0  0
  5 37  1  0  0  0  0
  5 38  1  0  0  0  0
  6  7  1  0  0  0  0
  6 27  1  0  0  0  0
  6 39  1  0  0  0  0
  7  8  1  0  0  0  0
  7  9  1  0  0  0  0
  8 40  1  0  0  0  0
  8 41  1  0  0  0  0
  8 42  1  0  0  0  0
  9 14  1  0  0  0  0
  9 10  2  0  0  0  0
 10 11  1  0  0  0  0
 11 12  2  0  0  0  0
 11 43  1  0  0  0  0
 12 13  1  0  0  0  0
 13 17  1  0  0  0  0
 13 14  2  0  0  0  0
 14 15  1  0  0  0  0
 15 16  2  0  0  0  0
 16 17  1  0  0  0  0
 16 44  1  0  0  0  0
 17 18  1  0  0  0  0
 18 19  1  0  0  0  0
 18 45  1  0  0  0  0
 18 46  1  0  0  0  0
 19 20  1  0  0  0  0
 19 22  1  0  0  0  0
 19 47  1  0  0  0  0
 20 21  1  0  0  0  0
 20 48  1  0  0  0  0
 20 49  1  0  0  0  0
 21 50  1  0  0  0  0
 22 26  1  0  0  0  0
 22 23  1  0  0  0  0
 22 51  1  0  0  0  0
 23 24  1  0  0  0  0
 23 52  1  0  0  0  0
 23 53  1  0  0  0  0
 24 25  1  0  0  0  0
 24 54  1  0  0  0  0
 24 55  1  0  0  0  0
 25 26  1  0  0  0  0
 26 56  1  0  0  0  0
 26 57  1  0  0  0  0
 27 28  1  0  0  0  0
 27 58  1  0  0  0  0
 27 59  1  0  0  0  0
 28 29  1  0  0  0  0
 28 60  1  0  0  0  0
 29 61  1  0  0  0  0
 29 62  1  0  0  0  0
 29 63  1  0  0  0  0
M  CHG  1   3   1
M  END
> <s_m_source_file>
AV-unprocessed.smi

> <i_m_source_file_index>
249

> <i_lp_mmshare_version>
43012

> <i_f3d_flags>
0

> <s_epik_input>
W0NIM11bQ0gyXU4xW0NIMl1bQ0gyXVtDQEhdKFtDSDJdW0NASF0xW0NIM10pTihbQ0gzXSljKG5bY0hdbjIpYyhjMjMpbltjSF1uM1tDSDJdW0NASF0oW0NIMl1bT0hdKVtDQEBIXTRbQ0gyXVtDSDJdT1tDSDJdNA==

> <s_epik_cmdline>
J2VwaWtfcHl0aG9uJywgJy1waCcsICc3LjAnLCAnLXRuJywgJzgnLCAnLW1hJywgJzIwMCcsICctbWV0YWxfYmluZGluZycsICctaW1hZScsICc8aW5maWxlLm1hZT4nLCAnLW9tYWUnLCAnPG91dGZpbGUubWFlPic=

> <r_lp_tautomer_probability>
1

> <r_epik_Ionization_Penalty>
0.00294688

> <r_epik_Ionization_Penalty_Charging>
0.00169971

> <r_epik_Ionization_Penalty_Neutral>
0.00124717

> <r_epik_State_Penalty>
-0

> <r_epik_Charging_Adjusted_Penalty>
0.00169971

> <i_epik_Tot_Q>
1

> <i_epik_Tot_abs_Q>
1

> <r_epik_Metal_State_Penalty>
-0

> <b_epik_Metal_Only>
0

> <s_lp_Force_Field>
OPLS_2005

> <r_lp_Energy>
56.7452

> <b_lp_Chiralities_Consistent>
1

> <s_lp_Variant>
AV-unprocessed.smi:249-7

> <Gold.Version>
5.8.1

> <Gold.Id.Protein>
6NUR|6NUR_protein|mol2

> <Gold.PLP.Fitness>
39.2026

> <Gold.PLP.PLP>
-31.8474

> <Gold.PLP.part.hbond>
-1.9715

> <Gold.PLP.part.metal>
0.0000

> <Gold.PLP.part.buried>
-7.3737

> <Gold.PLP.part.nonpolar>
-23.4519

> <Gold.PLP.part.repulsive>
0.1360

> <Gold.PLP.ligand.clash>
0.0000

> <Gold.PLP.ligand.torsion>
1.2099

> <Gold.PLP.Chemscore.Hbond>
3.0000

> <Gold.PLP.Chemscore.CHOScore>
0.0000

> <Gold.PLP.Chemscore.Metal>
0.0000

> <Gold.Chemscore.Hbonds>
donor molecule, donor type, donor heavy atom, donor atom, acceptor molecule, acceptor atom, score
      L1  H     3    64       P1 10957  1.92
      L1  H    21    50       P1  8028  1.00

> <Gold.PLP.Chemscore.Internal.Correction>
0.7750

> <Gold.Rescore>
     Score         DG    S(hbond)    S(metal)    S(lipo)     H(rot)  DE(clash)    DE(int)     intcor
     10.62     -14.76       1.99        0.00      85.94       2.90       0.00       4.14       ----

> <Gold.Chemscore.Fitness>
10.6196

> <Gold.Chemscore.DG>
-14.7633

> <Gold.Chemscore.ZeroCoef>
-5.4800

> <Gold.Chemscore.Hbond>
1.9922

> <Gold.Chemscore.Metal>
0.0000

> <Gold.Chemscore.Lipo>
85.9398

> <Gold.Chemscore.Internal_Hbond>
0.0000

> <Gold.Chemscore.DEClash>
0.0038

> <Gold.Chemscore.DEInternal>
4.1399

> <Gold.Chemscore.Rot>
2.9006

> <Gold.Chemscore.Internal.Correction>
   9.000000E+99

> <Gold.Chemscore.Hbonds>
donor molecule, donor type, donor heavy atom, donor atom, acceptor molecule, acceptor atom, score
      L1  H     3    64       P1 10957  0.89
      L1  H    21    50       P1  8028  1.00

> <Gold.Chemscore.Hbond.Weighted>
-6.6540

> <Gold.Chemscore.Metal.Weighted>
-0.0000

> <Gold.Chemscore.Lipo.Weighted>
-10.0550

> <Gold.Chemscore.Internal_Hbond.Weighted>
0.0000

> <Gold.Chemscore.DEClash.Weighted>
0.0038

> <Gold.Chemscore.DEInternal.Weighted>
4.1399

> <Gold.Chemscore.Rot.Weighted>
7.4256

> <Gold.Chemscore.Internal.Correction.Weighted>
   9.000000E+99

> <Gold.Protein.RotatedTorsions>
[ 6907 6896 6895 6894 ] final -114.41 input  -60.11 | X-H torsion
[ 7974 7965 7964 7962 ] final    3.46 input  175.53 | X-H torsion
[ 8008 7997 7996 7995 ] final  -47.91 input   59.86 | X-H torsion
[ 10167 10162 10161 10158 ] final   56.08 input  -65.29 | X-H torsion
[ 10718 10713 10712 10709 ] final   46.65 input   66.30 | X-H torsion
[ 10763 10752 10751 10750 ] final  -47.82 input  -60.55 | X-H torsion
[ 11005 11000 10999 10996 ] final -149.13 input  -57.11 | X-H torsion

> <Gold.Protein.ActiveResidues>
 VAL166  LYS551  ARG553  GLY616  TRP617  ASP618  TYR619  PRO620  LYS621  CYS622 
 ASP623  PHE694  ASN695  SER759  ASP760  ASP761  ALA762  ILE779  LEU786  VAL792 
 PHE793  MET794  SER795  GLU796  ALA797  LYS798  CYS799  TRP800  GLU811  SER814 

> <Gold.Protein.RotatedAtoms>
  150.7900  133.8805  159.3284 H   0  0  0  0  0  0  0  0  0  0  0  0  # atno 6907 bound_to 6896
  151.6645  135.0983  160.0195 H   0  0  0  0  0  0  0  0  0  0  0  0  # atno 6908 bound_to 6896
  152.3972  133.6726  159.6322 H   0  0  0  0  0  0  0  0  0  0  0  0  # atno 6909 bound_to 6896
  146.2445  140.0682  142.8364 H   0  0  0  0  0  0  0  0  0  0  0  0  # atno 7974 bound_to 7965
  154.4022  140.1334  156.4253 H   0  0  0  0  0  0  0  0  0  0  0  0  # atno 8008 bound_to 7997
  155.7604  140.3486  155.5175 H   0  0  0  0  0  0  0  0  0  0  0  0  # atno 8009 bound_to 7997
  155.8865  140.0996  157.1439 H   0  0  0  0  0  0  0  0  0  0  0  0  # atno 8010 bound_to 7997
  140.2126  144.3873  150.6483 H   0  0  0  0  0  0  0  0  0  0  0  0  # atno 10167 bound_to 10162
  157.4503  130.8134  149.7782 H   0  0  0  0  0  0  0  0  0  0  0  0  # atno 10718 bound_to 10713
  154.0677  135.6609  153.4820 H   0  0  0  0  0  0  0  0  0  0  0  0  # atno 10763 bound_to 10752
  153.0402  135.5150  154.7597 H   0  0  0  0  0  0  0  0  0  0  0  0  # atno 10764 bound_to 10752
  154.6653  135.3021  154.9780 H   0  0  0  0  0  0  0  0  0  0  0  0  # atno 10765 bound_to 10752
  140.7539  134.3375  157.5119 H   0  0  0  0  0  0  0  0  0  0  0  0  # atno 11005 bound_to 11000
  145.0840  140.9240  143.4808 LP  0  0  0  0  0  0  0  0  0  0  0  0  # atno 17320 bound_to 7965
  145.0840  139.2938  143.5769 LP  0  0  0  0  0  0  0  0  0  0  0  0  # atno 17321 bound_to 7965
  140.6313  143.2188  151.6490 LP  0  0  0  0  0  0  0  0  0  0  0  0  # atno 17342 bound_to 10162
  139.5174  144.3316  152.0821 LP  0  0  0  0  0  0  0  0  0  0  0  0  # atno 17343 bound_to 10162
  155.9984  130.3894  150.2701 LP  0  0  0  0  0  0  0  0  0  0  0  0  # atno 17370 bound_to 10713
  157.0873  131.0160  151.3135 LP  0  0  0  0  0  0  0  0  0  0  0  0  # atno 17371 bound_to 10713
  139.8782  134.9160  156.3143 LP  0  0  0  0  0  0  0  0  0  0  0  0  # atno 17394 bound_to 11000
  140.9725  133.7318  156.0555 LP  0  0  0  0  0  0  0  0  0  0  0  0  # atno 17395 bound_to 11000

$$$$
