#       Name:                AV-unprocessed.smi:2632
#       Creating user name   scv26
#       Creation time:       Fri Mar 27 14:26:16 2020


#       File generated by GOLD software.
#

@<TRIPOS>MOLECULE
AV-unprocessed.smi:2632
    44    45     1
SMALL
NO_CHARGES


@<TRIPOS>ATOM
      1 ****        -3.2525   1.2445   2.4989 C.3            1 S1                 0.0000
      2 ****        -2.8194  -0.1024   2.4383 O.3            1 S1                 0.0000
      3 ****        -3.0548  -0.6945   1.1720 C.3            1 S1                 0.0000
      4 ****        -2.5444  -2.1460   1.1685 C.3            1 S1                 0.0000
      5 ****        -1.0676  -2.2121   1.1999 N.am           1 S1                 0.0000
      6 ****        -0.3492  -2.0855  -0.0186 C.2            1 S1                 0.0000
      7 ****        -1.0308  -1.8980  -1.2101 N.pl3          1 S1                 0.0000
      8 ****         1.0014  -2.1445  -0.0012 C.2            1 S1                 0.0000
      9 ****         2.0702  -1.9890  -1.4147 S.3            1 S1                 0.0000
     10 ****         2.1723  -0.2358  -1.5622 C.ar           1 S1                 0.0000
     11 ****         1.3141   0.4476  -2.4458 C.ar           1 S1                 0.0000
     12 ****         1.3917   1.8498  -2.5555 C.ar           1 S1                 0.0000
     13 ****         2.3284   2.5701  -1.7852 C.ar           1 S1                 0.0000
     14 ****         2.4044   4.0781  -1.9057 C.3            1 S1                 0.0000
     15 ****         3.1871   1.8814  -0.9028 C.ar           1 S1                 0.0000
     16 ****         3.1101   0.4796  -0.7920 C.ar           1 S1                 0.0000
     17 ****         1.7208  -2.3397   1.2591 C.2            1 S1                 0.0000
     18 ****         2.9504  -2.4065   1.2901 O.2            1 S1                 0.0000
     19 ****         0.9619  -2.4388   2.3846 N.pl3          1 S1                -1.0000
     20 ****        -0.4032  -2.3739   2.3879 C.2            1 S1                 0.0000
     21 ****        -1.0491  -2.4584   3.4332 O.2            1 S1                 0.0000
     22 ****        -3.0519   1.6483   3.4911 H              1 S1                 0.0000
     23 ****        -4.3243   1.3234   2.3133 H              1 S1                 0.0000
     24 ****        -2.7241   1.8614   1.7708 H              1 S1                 0.0000
     25 ****        -4.1261  -0.6877   0.9666 H              1 S1                 0.0000
     26 ****        -2.5719  -0.1140   0.3845 H              1 S1                 0.0000
     27 ****        -2.9985  -2.6946   1.9950 H              1 S1                 0.0000
     28 ****        -2.9202  -2.6620   0.2849 H              1 S1                 0.0000
     29 ****        -2.0387  -1.8476  -1.2406 H              1 S1                 0.0000
     30 ****        -0.5448  -1.7209  -2.0773 H              1 S1                 0.0000
     31 ****         0.5943  -0.0996  -3.0364 H              1 S1                 0.0000
     32 ****         0.7301   2.3715  -3.2315 H              1 S1                 0.0000
     33 ****         3.2967   4.4703  -1.4167 H              1 S1                 0.0000
     34 ****         1.5308   4.5371  -1.4427 H              1 S1                 0.0000
     35 ****         2.4348   4.3753  -2.9541 H              1 S1                 0.0000
     36 ****         3.9061   2.4240  -0.3069 H              1 S1                 0.0000
     37 ****         3.7673  -0.0437  -0.1128 H              1 S1                 0.0000
     38 ****        -3.3095  -0.6280   3.1336 LP             1 S1                 0.0000
     39 ****        -1.8380  -0.1321   2.6282 LP             1 S1                 0.0000
     40 ****         3.4770  -2.3270   0.4437 LP             1 S1                 0.0000
     41 ****         3.4221  -2.5401   2.1617 LP             1 S1                 0.0000
     42 ****         1.4299  -2.5664   3.2590 LP             1 S1                 0.0000
     43 ****        -2.0476  -2.4088   3.4094 LP             1 S1                 0.0000
     44 ****        -0.5750  -2.5765   4.3057 LP             1 S1                 0.0000
@<TRIPOS>BOND
    1    1    2 1     
    2    1   22 1     
    3    1   23 1     
    4    1   24 1     
    5    2    3 1     
    6    3    4 1     
    7    3   25 1     
    8    3   26 1     
    9    4    5 1     
   10    4   27 1     
   11    4   28 1     
   12    5   20 am    
   13    5    6 1     
   14    6    7 1     
   15    6    8 2     
   16    7   29 1     
   17    7   30 1     
   18    8    9 1     
   19    8   17 1     
   20    9   10 1     
   21   10   16 ar    
   22   10   11 ar    
   23   11   12 ar    
   24   11   31 1     
   25   12   13 ar    
   26   12   32 1     
   27   13   14 1     
   28   13   15 ar    
   29   14   33 1     
   30   14   34 1     
   31   14   35 1     
   32   15   16 ar    
   33   15   36 1     
   34   16   37 1     
   35   17   18 2     
   36   17   19 1     
   37   19   20 1     
   38   20   21 2     
   39    2   38 1     
   40    2   39 1     
   41   18   40 1     
   42   18   41 1     
   43   19   42 1     
   44   21   43 1     
   45   21   44 1     
@<TRIPOS>SUBSTRUCTURE
      1 S1             1
@<TRIPOS>SET
LONE_PAIRS      STATIC     ATOMS    <user>   **** ""
7 38 39 40 41 42 43 44
DONOR_HYDROGENS      STATIC     ATOMS    <user>   **** ""
2 29 30
ATOM$BLUE        STATIC     ATOMS    COLORGROUP SYSTEM
7 38 39 40 41 42 43 44
ATOM$RED        STATIC     ATOMS    COLORGROUP SYSTEM
2 29 30
