AV-unprocessed.smi:193|AV-procd|sdf|1514|dock4
  -GOLD-   2262019353D 1   1.00000     0.00000
 Structure written by MMmdl.
 61 65  0  0  0  0  0  0  0  0  1 V2000
  154.0398  139.0547  160.6906 C   0  0  0  0  0  0  0  0  0  0  0  0
  153.1298  139.9377  159.8243 C   0  0  2  0  0  0  0  0  0  0  0  0
  153.0559  139.3518  158.3957 C   0  0  0  0  0  0  0  0  0  0  0  0
  152.0544  140.0023  157.5496 N   0  0  0  0  0  0  0  0  0  0  0  0
  151.5091  139.2979  156.5254 C   0  0  0  0  0  0  0  0  0  0  0  0
  150.9637  139.9605  155.4708 N   0  0  0  0  0  0  0  0  0  0  0  0
  150.4173  139.2825  154.4572 C   0  0  0  0  0  0  0  0  0  0  0  0
  150.3110  137.9620  154.2975 N   0  0  0  0  0  0  0  0  0  0  0  0
  150.8610  137.2902  155.3491 C   0  0  0  0  0  0  0  0  0  0  0  0
  151.4806  137.8745  156.4899 C   0  0  0  0  0  0  0  0  0  0  0  0
  151.9482  136.8759  157.3365 N   0  0  0  0  0  0  0  0  0  0  0  0
  151.6122  135.7667  156.7380 C   0  0  0  0  0  0  0  0  0  0  0  0
  150.9424  135.9222  155.5453 N   0  0  0  0  0  0  0  0  0  0  0  0
  150.4522  134.8600  154.6801 C   0  0  0  0  0  0  0  0  0  0  0  0
  148.9289  134.5813  154.8126 C   0  0  0  0  0  0  0  0  0  0  0  0
  148.2435  135.7394  154.3756 O   0  0  0  0  0  0  0  0  0  0  0  0
  148.4846  133.4135  153.9098 C   0  0  0  0  0  0  0  0  0  0  0  0
  148.9228  132.0533  154.4849 C   0  0  0  0  0  0  0  0  0  0  0  0
  148.4320  131.8997  155.8128 O   0  0  0  0  0  0  0  0  0  0  0  0
  148.9218  132.8891  156.7116 C   0  0  0  0  0  0  0  0  0  0  0  0
  148.4596  134.2827  156.2528 C   0  0  0  0  0  0  0  0  0  0  0  0
  152.0851  141.4566  157.4127 C   0  0  0  0  0  0  0  0  0  0  0  0
  151.5753  142.1208  158.6999 C   0  0  0  0  0  0  0  0  0  0  0  0
  152.6421  142.4372  159.6516 N   0  0  0  0  0  0  0  0  0  0  0  0
  152.0347  142.7613  160.9363 C   0  0  1  0  0  0  0  0  0  0  0  0
  152.7714  143.7188  161.8462 C   0  0  0  0  0  0  0  0  0  0  0  0
  151.4986  144.1637  161.1654 C   0  0  1  0  0  0  0  0  0  0  0  0
  151.5442  145.2512  160.1092 C   0  0  0  0  0  0  0  0  0  0  0  0
  153.6610  141.3928  159.8159 C   0  0  0  0  0  0  0  0  0  0  0  0
  155.0581  139.0321  160.3009 H   0  0  0  0  0  0  0  0  0  0  0  0
  153.6742  138.0282  160.7257 H   0  0  0  0  0  0  0  0  0  0  0  0
  154.0822  139.4205  161.7168 H   0  0  0  0  0  0  0  0  0  0  0  0
  152.1400  139.9020  160.2816 H   0  0  0  0  0  0  0  0  0  0  0  0
  154.0298  139.4155  157.9089 H   0  0  0  0  0  0  0  0  0  0  0  0
  152.8144  138.2906  158.4731 H   0  0  0  0  0  0  0  0  0  0  0  0
  150.0057  139.8840  153.6601 H   0  0  0  0  0  0  0  0  0  0  0  0
  151.8393  134.7975  157.1572 H   0  0  0  0  0  0  0  0  0  0  0  0
  150.6989  135.1189  153.6494 H   0  0  0  0  0  0  0  0  0  0  0  0
  151.0294  133.9637  154.9052 H   0  0  0  0  0  0  0  0  0  0  0  0
  148.6378  136.0376  153.5706 H   0  0  0  0  0  0  0  0  0  0  0  0
  147.3969  133.4110  153.8211 H   0  0  0  0  0  0  0  0  0  0  0  0
  148.8728  133.5388  152.8983 H   0  0  0  0  0  0  0  0  0  0  0  0
  148.5231  131.2457  153.8714 H   0  0  0  0  0  0  0  0  0  0  0  0
  150.0077  131.9453  154.4720 H   0  0  0  0  0  0  0  0  0  0  0  0
  148.5328  132.6776  157.7077 H   0  0  0  0  0  0  0  0  0  0  0  0
  150.0088  132.8319  156.7791 H   0  0  0  0  0  0  0  0  0  0  0  0
  148.7961  135.0476  156.9523 H   0  0  0  0  0  0  0  0  0  0  0  0
  147.3693  134.3071  156.2927 H   0  0  0  0  0  0  0  0  0  0  0  0
  153.0919  141.7916  157.1610 H   0  0  0  0  0  0  0  0  0  0  0  0
  151.4611  141.7783  156.5794 H   0  0  0  0  0  0  0  0  0  0  0  0
  151.0812  143.0574  158.4425 H   0  0  0  0  0  0  0  0  0  0  0  0
  150.8087  141.4950  159.1602 H   0  0  0  0  0  0  0  0  0  0  0  0
  151.4911  141.9733  161.4550 H   0  0  0  0  0  0  0  0  0  0  0  0
  152.7269  143.5275  162.9163 H   0  0  0  0  0  0  0  0  0  0  0  0
  153.7100  144.1388  161.4890 H   0  0  0  0  0  0  0  0  0  0  0  0
  150.6152  144.2219  161.7981 H   0  0  0  0  0  0  0  0  0  0  0  0
  152.4660  145.1987  159.5292 H   0  0  0  0  0  0  0  0  0  0  0  0
  151.4924  146.2314  160.5832 H   0  0  0  0  0  0  0  0  0  0  0  0
  150.6977  145.1510  159.4301 H   0  0  0  0  0  0  0  0  0  0  0  0
  154.2147  141.5980  160.7331 H   0  0  0  0  0  0  0  0  0  0  0  0
  154.3966  141.4996  159.0183 H   0  0  0  0  0  0  0  0  0  0  0  0
  1  2  1  0  0  0  0
  1 30  1  0  0  0  0
  1 31  1  0  0  0  0
  1 32  1  0  0  0  0
  2 29  1  0  0  0  0
  2  3  1  0  0  0  0
  2 33  1  0  0  0  0
  3  4  1  0  0  0  0
  3 34  1  0  0  0  0
  3 35  1  0  0  0  0
  4  5  1  0  0  0  0
  4 22  1  0  0  0  0
  5 10  1  0  0  0  0
  5  6  2  0  0  0  0
  6  7  1  0  0  0  0
  7  8  2  0  0  0  0
  7 36  1  0  0  0  0
  8  9  1  0  0  0  0
  9 13  1  0  0  0  0
  9 10  2  0  0  0  0
 10 11  1  0  0  0  0
 11 12  2  0  0  0  0
 12 13  1  0  0  0  0
 12 37  1  0  0  0  0
 13 14  1  0  0  0  0
 14 15  1  0  0  0  0
 14 38  1  0  0  0  0
 14 39  1  0  0  0  0
 15 21  1  0  0  0  0
 15 16  1  0  0  0  0
 15 17  1  0  0  0  0
 16 40  1  0  0  0  0
 17 18  1  0  0  0  0
 17 41  1  0  0  0  0
 17 42  1  0  0  0  0
 18 19  1  0  0  0  0
 18 43  1  0  0  0  0
 18 44  1  0  0  0  0
 19 20  1  0  0  0  0
 20 21  1  0  0  0  0
 20 45  1  0  0  0  0
 20 46  1  0  0  0  0
 21 47  1  0  0  0  0
 21 48  1  0  0  0  0
 22 23  1  0  0  0  0
 22 49  1  0  0  0  0
 22 50  1  0  0  0  0
 23 24  1  0  0  0  0
 23 51  1  0  0  0  0
 23 52  1  0  0  0  0
 24 25  1  0  0  0  0
 24 29  1  0  0  0  0
 25 27  1  0  0  0  0
 25 26  1  0  0  0  0
 25 53  1  0  0  0  0
 26 27  1  0  0  0  0
 26 54  1  0  0  0  0
 26 55  1  0  0  0  0
 27 28  1  0  0  0  0
 27 56  1  0  0  0  0
 28 57  1  0  0  0  0
 28 58  1  0  0  0  0
 28 59  1  0  0  0  0
 29 60  1  0  0  0  0
 29 61  1  0  0  0  0
M  END
> <s_m_source_file>
AV-unprocessed.smi

> <i_m_source_file_index>
193

> <i_lp_mmshare_version>
43012

> <i_f3d_flags>
0

> <s_epik_input>
W0NIM11bQ0BASF0xW0NIMl1bQ0BIXTFOKFtDSDJdMilbQ0gyXVtDSDJdTihbQ0gyXVtDQEhdMltDSDNdKWMobltjSF1uMyljKGMzNCluW2NIXW40W0NIMl1DNShbT0hdKVtDSDJdW0NIMl1PW0NIMl1bQ0gyXTU=

> <s_epik_cmdline>
J2VwaWtfcHl0aG9uJywgJy1waCcsICc3LjAnLCAnLXRuJywgJzgnLCAnLW1hJywgJzIwMCcsICctbWV0YWxfYmluZGluZycsICctaW1hZScsICc8aW5maWxlLm1hZT4nLCAnLW9tYWUnLCAnPG91dGZpbGUubWFlPic=

> <r_lp_tautomer_probability>
1

> <r_epik_Ionization_Penalty>
1.45227

> <r_epik_Ionization_Penalty_Charging>
0

> <r_epik_Ionization_Penalty_Neutral>
1.45227

> <r_epik_State_Penalty>
2.02377

> <r_epik_Charging_Adjusted_Penalty>
2.02377

> <i_epik_Tot_Q>
0

> <i_epik_Tot_abs_Q>
0

> <r_epik_Metal_State_Penalty>
2.01937

> <b_epik_Metal_Only>
0

> <s_lp_Force_Field>
OPLS_2005

> <r_lp_Energy>
54.496

> <b_lp_Chiralities_Consistent>
1

> <s_lp_Variant>
AV-unprocessed.smi:193-19

> <Gold.Version>
5.8.1

> <Gold.Id.Protein>
6NUR|6NUR_protein|mol2

> <Gold.PLP.Fitness>
47.4277

> <Gold.PLP.PLP>
-42.0433

> <Gold.PLP.part.hbond>
-1.3340

> <Gold.PLP.part.metal>
0.0000

> <Gold.PLP.part.buried>
-5.8032

> <Gold.PLP.part.nonpolar>
-34.1787

> <Gold.PLP.part.repulsive>
0.2561

> <Gold.PLP.ligand.clash>
0.0000

> <Gold.PLP.ligand.torsion>
0.9825

> <Gold.PLP.Chemscore.Hbond>
1.0000

> <Gold.PLP.Chemscore.CHOScore>
1.0000

> <Gold.PLP.Chemscore.Metal>
0.0000

> <Gold.Chemscore.Hbonds>
donor molecule, donor type, donor heavy atom, donor atom, acceptor molecule, acceptor atom, score
      L1  H    16    40       P1  7948  1.00
      L1  C     7    36       P1  7957  1.00

> <Gold.PLP.Chemscore.Internal.Correction>
1.3493

> <Gold.Rescore>
     Score         DG    S(hbond)    S(metal)    S(lipo)     H(rot)  DE(clash)    DE(int)     intcor
     15.43     -17.85       1.00        0.00     118.90       1.91       0.19       2.23       ----

> <Gold.Chemscore.Fitness>
15.4341

> <Gold.Chemscore.DG>
-17.8496

> <Gold.Chemscore.ZeroCoef>
-5.4800

> <Gold.Chemscore.Hbond>
0.9998

> <Gold.Chemscore.Metal>
0.0000

> <Gold.Chemscore.Lipo>
118.9032

> <Gold.Chemscore.Internal_Hbond>
0.0000

> <Gold.Chemscore.DEClash>
0.1878

> <Gold.Chemscore.DEInternal>
2.2276

> <Gold.Chemscore.Rot>
1.9068

> <Gold.Chemscore.Internal.Correction>
   9.000000E+99

> <Gold.Chemscore.Hbonds>
donor molecule, donor type, donor heavy atom, donor atom, acceptor molecule, acceptor atom, score
      L1  H    16    40       P1  7948  1.00

> <Gold.Chemscore.Hbond.Weighted>
-3.3393

> <Gold.Chemscore.Metal.Weighted>
-0.0000

> <Gold.Chemscore.Lipo.Weighted>
-13.9117

> <Gold.Chemscore.Internal_Hbond.Weighted>
0.0000

> <Gold.Chemscore.DEClash.Weighted>
0.1878

> <Gold.Chemscore.DEInternal.Weighted>
2.2276

> <Gold.Chemscore.Rot.Weighted>
4.8814

> <Gold.Chemscore.Internal.Correction.Weighted>
   9.000000E+99

> <Gold.Protein.RotatedTorsions>
[ 6907 6896 6895 6894 ] final  120.99 input  -60.11 | X-H torsion
[ 7974 7965 7964 7962 ] final  -19.29 input  175.53 | X-H torsion
[ 8008 7997 7996 7995 ] final   44.77 input   59.86 | X-H torsion
[ 10167 10162 10161 10158 ] final   -3.14 input  -65.29 | X-H torsion
[ 10718 10713 10712 10709 ] final   80.84 input   66.30 | X-H torsion
[ 10763 10752 10751 10750 ] final  114.11 input  -60.55 | X-H torsion
[ 11005 11000 10999 10996 ] final  159.13 input  -57.11 | X-H torsion

> <Gold.Protein.ActiveResidues>
 VAL166  LYS551  ARG553  GLY616  TRP617  ASP618  TYR619  PRO620  LYS621  CYS622 
 ASP623  PHE694  ASN695  SER759  ASP760  ASP761  ALA762  ILE779  LEU786  VAL792 
 PHE793  MET794  SER795  GLU796  ALA797  LYS798  CYS799  TRP800  GLU811  SER814 

> <Gold.Protein.RotatedAtoms>
  152.4356  133.7355  159.6611 H   0  0  0  0  0  0  0  0  0  0  0  0  # atno 6907 bound_to 6896
  150.8240  133.8193  159.3133 H   0  0  0  0  0  0  0  0  0  0  0  0  # atno 6908 bound_to 6896
  151.5867  135.1058  160.0081 H   0  0  0  0  0  0  0  0  0  0  0  0  # atno 6909 bound_to 6896
  146.1849  140.4041  142.8480 H   0  0  0  0  0  0  0  0  0  0  0  0  # atno 7974 bound_to 7965
  155.3248  140.3399  155.4240 H   0  0  0  0  0  0  0  0  0  0  0  0  # atno 8008 bound_to 7997
  156.1891  140.1691  156.8164 H   0  0  0  0  0  0  0  0  0  0  0  0  # atno 8009 bound_to 7997
  154.5421  140.0723  156.8510 H   0  0  0  0  0  0  0  0  0  0  0  0  # atno 8010 bound_to 7997
  140.6878  143.6575  150.8296 H   0  0  0  0  0  0  0  0  0  0  0  0  # atno 10167 bound_to 10162
  157.6817  130.9977  150.2138 H   0  0  0  0  0  0  0  0  0  0  0  0  # atno 10718 bound_to 10713
  153.5024  135.3635  155.2546 H   0  0  0  0  0  0  0  0  0  0  0  0  # atno 10763 bound_to 10752
  154.8747  135.4003  154.3463 H   0  0  0  0  0  0  0  0  0  0  0  0  # atno 10764 bound_to 10752
  153.4102  135.7077  153.6431 H   0  0  0  0  0  0  0  0  0  0  0  0  # atno 10765 bound_to 10752
  140.1932  134.8392  157.2936 H   0  0  0  0  0  0  0  0  0  0  0  0  # atno 11005 bound_to 11000
  144.8379  140.6811  143.6248 LP  0  0  0  0  0  0  0  0  0  0  0  0  # atno 17320 bound_to 7965
  145.3968  139.1605  143.4199 LP  0  0  0  0  0  0  0  0  0  0  0  0  # atno 17321 bound_to 7965
  140.0284  143.5469  152.2771 LP  0  0  0  0  0  0  0  0  0  0  0  0  # atno 17342 bound_to 10162
  139.6253  144.7636  151.2652 LP  0  0  0  0  0  0  0  0  0  0  0  0  # atno 17343 bound_to 10162
  156.2803  130.3732  149.7941 LP  0  0  0  0  0  0  0  0  0  0  0  0  # atno 17370 bound_to 10713
  156.5632  130.8392  151.3335 LP  0  0  0  0  0  0  0  0  0  0  0  0  # atno 17371 bound_to 10713
  140.2136  134.4109  155.7600 LP  0  0  0  0  0  0  0  0  0  0  0  0  # atno 17394 bound_to 11000
  141.2226  133.7130  156.8377 LP  0  0  0  0  0  0  0  0  0  0  0  0  # atno 17395 bound_to 11000

$$$$
