#       Name:                AV-unprocessed.smi:114
#       Creating user name   scv26
#       Creation time:       Thu Mar 26 18:23:04 2020


#       File generated by GOLD software.
#

@<TRIPOS>MOLECULE
AV-unprocessed.smi:114
    43    45     1
SMALL
NO_CHARGES


@<TRIPOS>ATOM
      1 ****        -5.1914   0.6376   0.2498 N.pl3          1 S1                 0.0000
      2 ****        -3.9592   1.1235   0.0441 C.ar           1 S1                 0.0000
      3 ****        -3.8330   2.3333  -0.5501 N.ar           1 S1                 0.0000
      4 ****        -2.6199   2.8559  -0.7711 C.ar           1 S1                 0.0000
      5 ****        -2.5880   4.0695  -1.3700 F              1 S1                 0.0000
      6 ****        -1.4350   2.3138  -0.4672 N.ar           1 S1                 0.0000
      7 ****        -1.5607   1.0933   0.1298 C.ar           1 S1                 0.0000
      8 ****        -2.7824   0.4315   0.4210 C.ar           1 S1                 0.0000
      9 ****        -2.5248  -0.7869   1.0344 N.2            1 S1                 0.0000
     10 ****        -1.2206  -0.8352   1.1029 C.2            1 S1                 0.0000
     11 ****        -0.5608   0.2535   0.5690 N.pl3          1 S1                 0.0000
     12 ****         0.9082   0.5371   0.4923 C.3            1 S1                 0.0000
     13 ****         1.5869  -0.5018   1.1319 O.3            1 S1                 0.0000
     14 ****         1.9989  -1.4627   0.1657 C.3            1 S1                 0.0000
     15 ****         3.0795  -2.3999   0.7320 C.3            1 S1                 0.0000
     16 ****         2.4745  -3.4487   1.4580 O.3            1 S1                 0.0000
     17 ****         2.4368  -0.5644  -0.9970 C.3            1 S1                 0.0000
     18 ****         3.7437  -0.0613  -0.7699 O.3            1 S1                 0.0000
     19 ****         1.3709   0.5312  -0.9780 C.3            1 S1                 0.0000
     20 ****         1.8642   1.7830  -1.4174 O.3            1 S1                 0.0000
     21 ****         1.0395   1.4849   1.0158 H              1 S1                 0.0000
     22 ****         1.1336  -2.0439  -0.1592 H              1 S1                 0.0000
     23 ****         2.4404  -1.1024  -1.9453 H              1 S1                 0.0000
     24 ****         0.5400   0.2348  -1.6206 H              1 S1                 0.0000
     25 ****        -5.3087  -0.2626   0.6929 H              1 S1                 0.0000
     26 ****        -5.9994   1.1713  -0.0364 H              1 S1                 0.0000
     27 ****        -0.7075  -1.6745   1.5500 H              1 S1                 0.0000
     28 ****         3.6486  -2.8512  -0.0813 H              1 S1                 0.0000
     29 ****         3.7849  -1.8605   1.3650 H              1 S1                 0.0000
     30 ****         3.1543  -4.0152   1.7895 H              1 S1                 0.0000
     31 ****         3.9229   0.6015  -1.4195 H              1 S1                 0.0000
     32 ****         1.1642   2.4158  -1.3605 H              1 S1                 0.0000
     33 ****        -4.6502   2.8395  -0.8257 LP             1 S1                 0.0000
     34 ****        -0.5569   2.7533  -0.6563 LP             1 S1                 0.0000
     35 ****        -3.1841  -1.4692   1.3504 LP             1 S1                 0.0000
     36 ****         0.9803  -0.9367   1.7974 LP             1 S1                 0.0000
     37 ****         2.3900  -0.1360   1.6021 LP             1 S1                 0.0000
     38 ****         1.8662  -3.9676   0.8573 LP             1 S1                 0.0000
     39 ****         1.9482  -3.0716   2.2200 LP             1 S1                 0.0000
     40 ****         4.4102  -0.8025  -0.8501 LP             1 S1                 0.0000
     41 ****         3.7981   0.3384   0.1451 LP             1 S1                 0.0000
     42 ****         2.1769   1.7093  -2.3644 LP             1 S1                 0.0000
     43 ****         2.6260   2.0688  -0.8362 LP             1 S1                 0.0000
@<TRIPOS>BOND
    1    1    2 1     
    2    1   25 1     
    3    1   26 1     
    4    2    8 ar    
    5    2    3 ar    
    6    3    4 ar    
    7    4    5 1     
    8    4    6 ar    
    9    6    7 ar    
   10    7   11 1     
   11    7    8 ar    
   12    8    9 1     
   13    9   10 2     
   14   10   11 1     
   15   10   27 1     
   16   11   12 1     
   17   12   21 1     
   18   12   19 1     
   19   12   13 1     
   20   13   14 1     
   21   14   22 1     
   22   14   15 1     
   23   14   17 1     
   24   15   16 1     
   25   15   28 1     
   26   15   29 1     
   27   16   30 1     
   28   17   23 1     
   29   17   18 1     
   30   17   19 1     
   31   18   31 1     
   32   19   24 1     
   33   19   20 1     
   34   20   32 1     
   35    3   33 1     
   36    6   34 1     
   37    9   35 1     
   38   13   36 1     
   39   13   37 1     
   40   16   38 1     
   41   16   39 1     
   42   18   40 1     
   43   18   41 1     
   44   20   42 1     
   45   20   43 1     
@<TRIPOS>SUBSTRUCTURE
      1 S1             1
@<TRIPOS>SET
LONE_PAIRS      STATIC     ATOMS    <user>   **** ""
11 33 34 35 36 37 38 39 40 41 42 43
DONOR_HYDROGENS      STATIC     ATOMS    <user>   **** ""
5 25 26 30 31 32
ATOM$BLUE        STATIC     ATOMS    COLORGROUP SYSTEM
11 33 34 35 36 37 38 39 40 41 42 43
ATOM$RED        STATIC     ATOMS    COLORGROUP SYSTEM
5 25 26 30 31 32
