AV-unprocessed.smi:1554|AV-procd|sdf|6256|dock2
  -GOLD-   22720 6443D 1   1.00000     0.00000
 Structure written by MMmdl.
 49 51  0  0  0  0  0  0  0  0  3 V2000
  152.1284  143.2863  160.2152 C   0  0  0  0  0  0  0  0  0  0  0  0
  151.8360  142.4465  158.9833 C   0  0  0  0  0  0  0  0  0  0  0  0
  150.8643  142.9083  158.0671 C   0  0  0  0  0  0  0  0  0  0  0  0
  150.6160  142.1162  156.9524 C   0  0  0  0  0  0  0  0  0  0  0  0
  149.7317  142.2902  155.8860 N   0  3  0  0  0  0  0  0  0  0  0  0
  149.8423  141.2393  155.0271 C   0  0  0  0  0  0  0  0  0  0  0  0
  150.7828  140.3941  155.5306 N   0  0  0  0  0  0  0  0  0  0  0  0
  151.2819  139.1192  154.9937 C   0  0  0  0  0  0  0  0  0  0  0  0
  150.1525  138.1261  154.6539 C   0  0  2  0  0  0  0  0  0  0  0  0
  149.3830  138.6306  153.5797 O   0  0  0  0  0  0  0  0  0  0  0  0
  149.2207  137.8916  155.8599 C   0  0  0  0  0  0  0  0  0  0  0  0
  149.1240  136.4604  156.2459 N   0  3  1  0  0  0  0  0  0  0  0  0
  150.3742  135.6935  156.0198 C   0  0  0  0  0  0  0  0  0  0  0  0
  150.1750  134.2187  156.4063 C   0  0  0  0  0  0  0  0  0  0  0  0
  149.7478  134.1326  157.7599 O   0  0  0  0  0  0  0  0  0  0  0  0
  148.5015  134.7851  157.9748 C   0  0  1  0  0  0  0  0  0  0  0  0
  148.0861  134.5576  159.4325 C   0  0  0  0  0  0  0  0  0  0  0  0
  148.6544  136.2816  157.6405 C   0  0  0  0  0  0  0  0  0  0  0  0
  151.2966  140.9031  156.7300 C   0  0  0  0  0  0  0  0  0  0  0  0
  152.2588  140.4352  157.6222 C   0  0  0  0  0  0  0  0  0  0  0  0
  152.5243  141.2253  158.7634 C   0  0  0  0  0  0  0  0  0  0  0  0
  153.5670  140.7374  159.7549 C   0  0  0  0  0  0  0  0  0  0  0  0
  151.5378  144.2028  160.2228 H   0  0  0  0  0  0  0  0  0  0  0  0
  153.1810  143.5684  160.2469 H   0  0  0  0  0  0  0  0  0  0  0  0
  151.8909  142.7298  161.1223 H   0  0  0  0  0  0  0  0  0  0  0  0
  150.3359  143.8367  158.2284 H   0  0  0  0  0  0  0  0  0  0  0  0
  149.2848  141.1029  154.1115 H   0  0  0  0  0  0  0  0  0  0  0  0
  151.8490  139.3547  154.0922 H   0  0  0  0  0  0  0  0  0  0  0  0
  151.9955  138.6872  155.6959 H   0  0  0  0  0  0  0  0  0  0  0  0
  150.6064  137.1883  154.3347 H   0  0  0  0  0  0  0  0  0  0  0  0
  149.2447  137.9334  152.9563 H   0  0  0  0  0  0  0  0  0  0  0  0
  149.5536  138.4738  156.7206 H   0  0  0  0  0  0  0  0  0  0  0  0
  148.2279  138.2670  155.6057 H   0  0  0  0  0  0  0  0  0  0  0  0
  150.6773  135.7509  154.9753 H   0  0  0  0  0  0  0  0  0  0  0  0
  151.1824  136.1265  156.6114 H   0  0  0  0  0  0  0  0  0  0  0  0
  149.4479  133.7376  155.7502 H   0  0  0  0  0  0  0  0  0  0  0  0
  151.1118  133.6724  156.2969 H   0  0  0  0  0  0  0  0  0  0  0  0
  147.7459  134.3388  157.3257 H   0  0  0  0  0  0  0  0  0  0  0  0
  147.1264  135.0291  159.6455 H   0  0  0  0  0  0  0  0  0  0  0  0
  148.8222  134.9701  160.1231 H   0  0  0  0  0  0  0  0  0  0  0  0
  147.9875  133.4934  159.6481 H   0  0  0  0  0  0  0  0  0  0  0  0
  149.3618  136.7527  158.3252 H   0  0  0  0  0  0  0  0  0  0  0  0
  147.6959  136.7854  157.7725 H   0  0  0  0  0  0  0  0  0  0  0  0
  152.7820  139.5046  157.4593 H   0  0  0  0  0  0  0  0  0  0  0  0
  153.9749  139.7696  159.4618 H   0  0  0  0  0  0  0  0  0  0  0  0
  153.1307  140.6261  160.7478 H   0  0  0  0  0  0  0  0  0  0  0  0
  154.3953  141.4435  159.8163 H   0  0  0  0  0  0  0  0  0  0  0  0
  148.4129  136.0535  155.6544 H   0  0  0  0  0  0  0  0  0  0  0  0
  149.0998  143.0692  155.7508 H   0  0  0  0  0  0  0  0  0  0  0  0
  1  2  1  0  0  0  0
  1 23  1  0  0  0  0
  1 24  1  0  0  0  0
  1 25  1  0  0  0  0
  2 21  1  0  0  0  0
  2  3  2  0  0  0  0
  3  4  1  0  0  0  0
  3 26  1  0  0  0  0
  4 19  2  0  0  0  0
  4  5  1  0  0  0  0
  5  6  2  0  0  0  0
  5 49  1  0  0  0  0
  6  7  1  0  0  0  0
  6 27  1  0  0  0  0
  7  8  1  0  0  0  0
  7 19  1  0  0  0  0
  8  9  1  0  0  0  0
  8 28  1  0  0  0  0
  8 29  1  0  0  0  0
  9 10  1  0  0  0  0
  9 11  1  0  0  0  0
  9 30  1  0  0  0  0
 10 31  1  0  0  0  0
 11 12  1  0  0  0  0
 11 32  1  0  0  0  0
 11 33  1  0  0  0  0
 12 18  1  0  0  0  0
 12 13  1  0  0  0  0
 12 48  1  0  0  0  0
 13 14  1  0  0  0  0
 13 34  1  0  0  0  0
 13 35  1  0  0  0  0
 14 15  1  0  0  0  0
 14 36  1  0  0  0  0
 14 37  1  0  0  0  0
 15 16  1  0  0  0  0
 16 17  1  0  0  0  0
 16 18  1  0  0  0  0
 16 38  1  0  0  0  0
 17 39  1  0  0  0  0
 17 40  1  0  0  0  0
 17 41  1  0  0  0  0
 18 42  1  0  0  0  0
 18 43  1  0  0  0  0
 19 20  1  0  0  0  0
 20 21  2  0  0  0  0
 20 44  1  0  0  0  0
 21 22  1  0  0  0  0
 22 45  1  0  0  0  0
 22 46  1  0  0  0  0
 22 47  1  0  0  0  0
M  CHG  1   5   1
M  CHG  1  12   1
M  END
> <s_m_source_file>
AV-unprocessed.smi

> <i_m_source_file_index>
1554

> <i_lp_mmshare_version>
43012

> <i_f3d_flags>
0

> <s_epik_input>
W0NIM11jKFtjSF0xKWMoW0NIM10pW2NIXWMoYzEyKW4oW2NIXW4yKVtDSDJdW0NASF0oW09IXSlbQ0gyXU4zW0NIMl1bQ0gyXU9bQ0BASF0oW0NIM10pW0NIMl0z

> <s_epik_cmdline>
J2VwaWtfcHl0aG9uJywgJy1waCcsICc3LjAnLCAnLXRuJywgJzgnLCAnLW1hJywgJzIwMCcsICctbWV0YWxfYmluZGluZycsICctaW1hZScsICc8aW5maWxlLm1hZT4nLCAnLW9tYWUnLCAnPG91dGZpbGUubWFlPic=

> <r_epik_Ionization_Penalty>
1.8848

> <r_epik_Ionization_Penalty_Charging>
1.88479

> <r_epik_Ionization_Penalty_Neutral>
1.42224e-05

> <r_epik_State_Penalty>
1.94551

> <r_epik_Charging_Adjusted_Penalty>
3.8303

> <i_epik_Tot_Q>
2

> <i_epik_Tot_abs_Q>
2

> <r_epik_Metal_State_Penalty>
5.95849

> <b_epik_Metal_Only>
0

> <s_lp_Force_Field>
OPLS_2005

> <r_lp_Energy>
29.8274

> <b_lp_Chiralities_Consistent>
1

> <s_lp_Variant>
AV-unprocessed.smi:1554-17

> <Gold.Version>
5.8.1

> <Gold.Id.Protein>
6NUR|6NUR_protein|mol2

> <Gold.PLP.Fitness>
48.2123

> <Gold.PLP.PLP>
-38.3769

> <Gold.PLP.part.hbond>
-4.0000

> <Gold.PLP.part.metal>
0.0000

> <Gold.PLP.part.buried>
-3.7304

> <Gold.PLP.part.nonpolar>
-30.9235

> <Gold.PLP.part.repulsive>
0.1337

> <Gold.PLP.ligand.clash>
0.0000

> <Gold.PLP.ligand.torsion>
1.0856

> <Gold.PLP.Chemscore.Hbond>
3.9840

> <Gold.PLP.Chemscore.CHOScore>
0.0000

> <Gold.PLP.Chemscore.Metal>
0.0000

> <Gold.Chemscore.Hbonds>
donor molecule, donor type, donor heavy atom, donor atom, acceptor molecule, acceptor atom, score
      L1  H     5    49       P1  8028  1.95
      L1  H    10    31       P1  7948  1.00
      P1  H  6896  6909       L1    15  1.00

> <Gold.PLP.Chemscore.Internal.Correction>
0.0546

> <Gold.Rescore>
     Score         DG    S(hbond)    S(metal)    S(lipo)     H(rot)  DE(clash)    DE(int)     intcor
     20.09     -21.29       2.92        0.00      97.97       2.11       0.12       1.07       ----

> <Gold.Chemscore.Fitness>
20.0916

> <Gold.Chemscore.DG>
-21.2883

> <Gold.Chemscore.ZeroCoef>
-5.4800

> <Gold.Chemscore.Hbond>
2.9199

> <Gold.Chemscore.Metal>
0.0000

> <Gold.Chemscore.Lipo>
97.9738

> <Gold.Chemscore.Internal_Hbond>
0.0000

> <Gold.Chemscore.DEClash>
0.1229

> <Gold.Chemscore.DEInternal>
1.0737

> <Gold.Chemscore.Rot>
2.1122

> <Gold.Chemscore.Internal.Correction>
   9.000000E+99

> <Gold.Chemscore.Hbonds>
donor molecule, donor type, donor heavy atom, donor atom, acceptor molecule, acceptor atom, score
      L1  H     5    49       P1  8028  0.93
      L1  H    10    31       P1  7948  0.93
      P1  H  6896  6909       L1    15  0.88

> <Gold.Chemscore.Hbond.Weighted>
-9.7526

> <Gold.Chemscore.Metal.Weighted>
-0.0000

> <Gold.Chemscore.Lipo.Weighted>
-11.4629

> <Gold.Chemscore.Internal_Hbond.Weighted>
0.0000

> <Gold.Chemscore.DEClash.Weighted>
0.1229

> <Gold.Chemscore.DEInternal.Weighted>
1.0737

> <Gold.Chemscore.Rot.Weighted>
5.4073

> <Gold.Chemscore.Internal.Correction.Weighted>
   9.000000E+99

> <Gold.Protein.RotatedTorsions>
[ 6907 6896 6895 6894 ] final    5.42 input  -60.11 | X-H torsion
[ 7974 7965 7964 7962 ] final  159.43 input  175.53 | X-H torsion
[ 8008 7997 7996 7995 ] final   31.85 input   59.86 | X-H torsion
[ 10167 10162 10161 10158 ] final  140.09 input  -65.29 | X-H torsion
[ 10718 10713 10712 10709 ] final  -62.04 input   66.30 | X-H torsion
[ 10763 10752 10751 10750 ] final  -80.66 input  -60.55 | X-H torsion
[ 11005 11000 10999 10996 ] final  -37.63 input  -57.11 | X-H torsion

> <Gold.Protein.ActiveResidues>
 VAL166  LYS551  ARG553  GLY616  TRP617  ASP618  TYR619  PRO620  LYS621  CYS622 
 ASP623  PHE694  ASN695  SER759  ASP760  ASP761  ALA762  ILE779  LEU786  VAL792 
 PHE793  MET794  SER795  GLU796  ALA797  LYS798  CYS799  TRP800  GLU811  SER814 

> <Gold.Protein.RotatedAtoms>
  151.6571  135.0994  160.0172 H   0  0  0  0  0  0  0  0  0  0  0  0  # atno 6907 bound_to 6896
  152.3967  133.6754  159.6291 H   0  0  0  0  0  0  0  0  0  0  0  0  # atno 6908 bound_to 6896
  150.7873  133.8778  159.3318 H   0  0  0  0  0  0  0  0  0  0  0  0  # atno 6909 bound_to 6896
  144.7791  139.7616  143.6267 H   0  0  0  0  0  0  0  0  0  0  0  0  # atno 7974 bound_to 7965
  155.1131  140.3241  155.4516 H   0  0  0  0  0  0  0  0  0  0  0  0  # atno 8008 bound_to 7997
  156.2685  140.2040  156.6202 H   0  0  0  0  0  0  0  0  0  0  0  0  # atno 8009 bound_to 7997
  154.6741  140.0533  157.0184 H   0  0  0  0  0  0  0  0  0  0  0  0  # atno 8010 bound_to 7997
  139.5059  144.6255  151.5948 H   0  0  0  0  0  0  0  0  0  0  0  0  # atno 10167 bound_to 10162
  156.0881  130.4205  150.1079 H   0  0  0  0  0  0  0  0  0  0  0  0  # atno 10718 bound_to 10713
  154.5540  135.5653  153.6947 H   0  0  0  0  0  0  0  0  0  0  0  0  # atno 10763 bound_to 10752
  152.9998  135.6257  154.2335 H   0  0  0  0  0  0  0  0  0  0  0  0  # atno 10764 bound_to 10752
  154.2271  135.2867  155.2883 H   0  0  0  0  0  0  0  0  0  0  0  0  # atno 10765 bound_to 10752
  140.9967  133.6976  156.1947 H   0  0  0  0  0  0  0  0  0  0  0  0  # atno 11005 bound_to 11000
  146.1988  139.5271  142.9757 LP  0  0  0  0  0  0  0  0  0  0  0  0  # atno 17320 bound_to 7965
  145.6101  141.0341  143.1971 LP  0  0  0  0  0  0  0  0  0  0  0  0  # atno 17321 bound_to 7965
  140.5970  143.9677  150.6361 LP  0  0  0  0  0  0  0  0  0  0  0  0  # atno 17342 bound_to 10162
  140.2877  143.3346  152.1092 LP  0  0  0  0  0  0  0  0  0  0  0  0  # atno 17343 bound_to 10162
  156.9095  130.9647  151.3565 LP  0  0  0  0  0  0  0  0  0  0  0  0  # atno 17370 bound_to 10713
  157.6022  130.8521  149.8820 LP  0  0  0  0  0  0  0  0  0  0  0  0  # atno 17371 bound_to 10713
  140.6955  134.4620  157.5588 LP  0  0  0  0  0  0  0  0  0  0  0  0  # atno 17394 bound_to 11000
  139.9018  134.8538  156.1865 LP  0  0  0  0  0  0  0  0  0  0  0  0  # atno 17395 bound_to 11000

$$$$
