#       Name:                AV-unprocessed.smi:1202
#       Creating user name   scv26
#       Creation time:       Fri Mar 27 04:05:33 2020


#       File generated by GOLD software.
#

@<TRIPOS>MOLECULE
AV-unprocessed.smi:1202
    51    52     1
SMALL
NO_CHARGES


@<TRIPOS>ATOM
      1 ****        -3.4186   4.4755   3.8693 C.3            1 S1                 0.0000
      2 ****        -3.0646   3.2329   3.1932 N.pl3          1 S1                -1.0000
      3 ****        -3.5098   2.9023   1.9494 C.2            1 S1                 0.0000
      4 ****        -4.2464   3.5137   1.1690 O.2            1 S1                 0.0000
      5 ****        -2.9658   1.5360   1.5124 C.3            1 S1                 0.0000
      6 ****        -1.4813   1.5466   1.4453 N.4            1 S1                 1.0000
      7 ****        -0.9501   2.2752   0.2621 C.3            1 S1                 0.0000
      8 ****         0.5859   2.3717   0.3091 C.3            1 S1                 0.0000
      9 ****         1.2472   0.9886   0.4395 C.3            1 S1                 0.0000
     10 ****         1.1056   0.2376  -0.8072 N.am           1 S1                 0.0000
     11 ****         1.8507  -0.8168  -1.1721 C.2            1 S1                 0.0000
     12 ****         2.7669  -1.2671  -0.4831 O.2            1 S1                 0.0000
     13 ****         1.5113  -1.4395  -2.5337 C.3            1 S1                 0.0000
     14 ****         1.8590  -2.8676  -2.6214 N.am           1 S1                 0.0000
     15 ****         3.0620  -3.1973  -3.2771 C.2            1 S1                 0.0000
     16 ****         3.4736  -4.4682  -3.4091 C.2            1 S1                 0.0000
     17 ****         2.6464  -5.5144  -2.8560 C.2            1 S1                 0.0000
     18 ****         1.4942  -5.2101  -2.2261 C.2            1 S1                 0.0000
     19 ****         1.0405  -3.8222  -2.0798 C.2            1 S1                 0.0000
     20 ****        -0.0103  -3.5343  -1.5054 O.2            1 S1                 0.0000
     21 ****         0.6333   0.2353   1.6363 C.3            1 S1                 0.0000
     22 ****        -0.9028   0.1841   1.5582 C.3            1 S1                 0.0000
     23 ****        -2.9335   4.5595   4.8416 H              1 S1                 0.0000
     24 ****        -4.4905   4.5600   4.0495 H              1 S1                 0.0000
     25 ****        -3.1228   5.3575   3.3005 H              1 S1                 0.0000
     26 ****        -3.3072   0.7948   2.2371 H              1 S1                 0.0000
     27 ****        -3.3856   1.2440   0.5484 H              1 S1                 0.0000
     28 ****        -1.2711   1.7701  -0.6502 H              1 S1                 0.0000
     29 ****        -1.3646   3.2828   0.2229 H              1 S1                 0.0000
     30 ****         0.9568   2.8869  -0.5780 H              1 S1                 0.0000
     31 ****         0.8758   2.9891   1.1605 H              1 S1                 0.0000
     32 ****         2.3128   1.1372   0.6243 H              1 S1                 0.0000
     33 ****         0.3832   0.5433  -1.4430 H              1 S1                 0.0000
     34 ****         0.4487  -1.3027  -2.7442 H              1 S1                 0.0000
     35 ****         2.0303  -0.8685  -3.3049 H              1 S1                 0.0000
     36 ****         3.6257  -2.3573  -3.6563 H              1 S1                 0.0000
     37 ****         4.4003  -4.7016  -3.9124 H              1 S1                 0.0000
     38 ****         2.9542  -6.5457  -2.9458 H              1 S1                 0.0000
     39 ****         0.8894  -6.0060  -1.8171 H              1 S1                 0.0000
     40 ****         1.0378  -0.7752   1.7056 H              1 S1                 0.0000
     41 ****         0.9239   0.7375   2.5601 H              1 S1                 0.0000
     42 ****        -1.2878  -0.3040   2.4543 H              1 S1                 0.0000
     43 ****        -1.2212  -0.4206   0.7076 H              1 S1                 0.0000
     44 ****        -1.1820   2.0557   2.2658 H              1 S1                 0.0000
     45 ****        -2.4635   2.5899   3.6678 LP             1 S1                 0.0000
     46 ****        -4.6153   4.4071   1.4257 LP             1 S1                 0.0000
     47 ****        -4.4739   3.1154   0.2804 LP             1 S1                 0.0000
     48 ****         2.9861  -0.8436   0.3959 LP             1 S1                 0.0000
     49 ****         3.2916  -2.0561  -0.8027 LP             1 S1                 0.0000
     50 ****        -0.2893  -2.5775  -1.4232 LP             1 S1                 0.0000
     51 ****        -0.5844  -4.2573  -1.1212 LP             1 S1                 0.0000
@<TRIPOS>BOND
    1    1    2 1     
    2    1   23 1     
    3    1   24 1     
    4    1   25 1     
    5    2    3 1     
    6    3    4 2     
    7    3    5 1     
    8    5    6 1     
    9    5   26 1     
   10    5   27 1     
   11    6   22 1     
   12    6    7 1     
   13    6   44 1     
   14    7    8 1     
   15    7   28 1     
   16    7   29 1     
   17    8    9 1     
   18    8   30 1     
   19    8   31 1     
   20    9   10 1     
   21    9   21 1     
   22    9   32 1     
   23   10   11 am    
   24   10   33 1     
   25   11   12 2     
   26   11   13 1     
   27   13   14 1     
   28   13   34 1     
   29   13   35 1     
   30   14   19 am    
   31   14   15 1     
   32   15   16 2     
   33   15   36 1     
   34   16   17 1     
   35   16   37 1     
   36   17   18 2     
   37   17   38 1     
   38   18   19 1     
   39   18   39 1     
   40   19   20 2     
   41   21   22 1     
   42   21   40 1     
   43   21   41 1     
   44   22   42 1     
   45   22   43 1     
   46    2   45 1     
   47    4   46 1     
   48    4   47 1     
   49   12   48 1     
   50   12   49 1     
   51   20   50 1     
   52   20   51 1     
@<TRIPOS>SUBSTRUCTURE
      1 S1             1
@<TRIPOS>SET
LONE_PAIRS      STATIC     ATOMS    <user>   **** ""
7 45 46 47 48 49 50 51
DONOR_HYDROGENS      STATIC     ATOMS    <user>   **** ""
2 44 33
ATOM$BLUE        STATIC     ATOMS    COLORGROUP SYSTEM
7 45 46 47 48 49 50 51
ATOM$RED        STATIC     ATOMS    COLORGROUP SYSTEM
2 44 33
