AV-unprocessed.smi:1807|AV-procd|sdf|7302|dock10
  -GOLD-   22720 8563D 1   1.00000     0.00000
 Structure written by MMmdl.
 44 45  0  0  0  0  0  0  0  0  1 V2000
  148.7372  140.6246  154.4790 C   0  0  0  0  0  0  0  0  0  0  0  0
  150.0752  140.6449  155.2374 C   0  0  1  0  0  0  0  0  0  0  0  0
  149.8629  140.7954  156.7580 C   0  0  0  0  0  0  0  0  0  0  0  0
  151.2009  140.8849  157.5089 C   0  0  0  0  0  0  0  0  0  0  0  0
  152.0980  139.6768  157.2007 C   0  0  0  0  0  0  0  0  0  0  0  0
  152.3131  139.5133  155.6858 C   0  0  0  0  0  0  0  0  0  0  0  0
  150.9820  139.4296  154.9117 C   0  0  1  0  0  0  0  0  0  0  0  0
  150.3178  138.1571  155.2038 N   0  0  0  0  0  0  0  0  0  0  0  0
  150.7820  136.9326  154.9104 C   0  0  0  0  0  0  0  0  0  0  0  0
  151.8570  136.7330  154.3419 O   0  0  0  0  0  0  0  0  0  0  0  0
  149.8831  135.7681  155.3349 C   0  0  0  0  0  0  0  0  0  0  0  0
  149.3027  135.0750  154.1929 N   0  0  0  0  0  0  0  0  0  0  0  0
  149.3835  133.6810  154.1135 C   0  0  0  0  0  0  0  0  0  0  0  0
  148.8346  132.9526  153.0235 C   0  0  0  0  0  0  0  0  0  0  0  0
  149.1320  131.6561  153.3343 C   0  0  0  0  0  0  0  0  0  0  0  0
  149.8121  131.6616  154.5370 N   0  0  0  0  0  0  0  0  0  0  0  0
  150.3437  130.5309  155.2769 C   0  0  0  0  0  0  0  0  0  0  0  0
  151.2161  129.6447  154.3846 C   0  0  0  0  0  0  0  0  0  0  0  0
  150.5919  128.8948  153.4731 N   0  0  0  0  0  0  0  0  0  0  0  0
  152.4385  129.6378  154.5135 O   0  0  0  0  0  0  0  0  0  0  0  0
  149.9643  132.9135  155.0229 N   0  0  0  0  0  0  0  0  0  0  0  0
  148.1007  139.8010  154.8032 H   0  0  0  0  0  0  0  0  0  0  0  0
  148.8973  140.5203  153.4055 H   0  0  0  0  0  0  0  0  0  0  0  0
  148.1832  141.5495  154.6404 H   0  0  0  0  0  0  0  0  0  0  0  0
  150.6076  141.5353  154.8996 H   0  0  0  0  0  0  0  0  0  0  0  0
  149.2719  141.6882  156.9643 H   0  0  0  0  0  0  0  0  0  0  0  0
  149.2853  139.9521  157.1391 H   0  0  0  0  0  0  0  0  0  0  0  0
  151.7169  141.8035  157.2267 H   0  0  0  0  0  0  0  0  0  0  0  0
  151.0210  140.9495  158.5823 H   0  0  0  0  0  0  0  0  0  0  0  0
  153.0600  139.7931  157.7002 H   0  0  0  0  0  0  0  0  0  0  0  0
  151.6474  138.7720  157.6104 H   0  0  0  0  0  0  0  0  0  0  0  0
  152.8878  140.3634  155.3157 H   0  0  0  0  0  0  0  0  0  0  0  0
  152.9213  138.6296  155.4880 H   0  0  0  0  0  0  0  0  0  0  0  0
  151.2284  139.4677  153.8492 H   0  0  0  0  0  0  0  0  0  0  0  0
  149.4247  138.2162  155.6708 H   0  0  0  0  0  0  0  0  0  0  0  0
  150.4728  135.0674  155.9276 H   0  0  0  0  0  0  0  0  0  0  0  0
  149.0822  136.1468  155.9720 H   0  0  0  0  0  0  0  0  0  0  0  0
  148.9228  135.6157  153.4289 H   0  0  0  0  0  0  0  0  0  0  0  0
  148.3106  133.3198  152.1536 H   0  0  0  0  0  0  0  0  0  0  0  0
  148.9218  130.7390  152.8043 H   0  0  0  0  0  0  0  0  0  0  0  0
  150.9356  130.8915  156.1199 H   0  0  0  0  0  0  0  0  0  0  0  0
  149.5093  129.9629  155.6911 H   0  0  0  0  0  0  0  0  0  0  0  0
  151.1246  128.2959  152.8592 H   0  0  0  0  0  0  0  0  0  0  0  0
  149.5853  128.9326  153.3999 H   0  0  0  0  0  0  0  0  0  0  0  0
  1  2  1  0  0  0  0
  1 22  1  0  0  0  0
  1 23  1  0  0  0  0
  1 24  1  0  0  0  0
  2  7  1  0  0  0  0
  2  3  1  0  0  0  0
  2 25  1  0  0  0  0
  3  4  1  0  0  0  0
  3 26  1  0  0  0  0
  3 27  1  0  0  0  0
  4  5  1  0  0  0  0
  4 28  1  0  0  0  0
  4 29  1  0  0  0  0
  5  6  1  0  0  0  0
  5 30  1  0  0  0  0
  5 31  1  0  0  0  0
  6  7  1  0  0  0  0
  6 32  1  0  0  0  0
  6 33  1  0  0  0  0
  7  8  1  0  0  0  0
  7 34  1  0  0  0  0
  8  9  1  0  0  0  0
  8 35  1  0  0  0  0
  9 10  2  0  0  0  0
  9 11  1  0  0  0  0
 11 12  1  0  0  0  0
 11 36  1  0  0  0  0
 11 37  1  0  0  0  0
 12 13  1  0  0  0  0
 12 38  1  0  0  0  0
 13 21  2  0  0  0  0
 13 14  1  0  0  0  0
 14 15  2  0  0  0  0
 14 39  1  0  0  0  0
 15 16  1  0  0  0  0
 15 40  1  0  0  0  0
 16 17  1  0  0  0  0
 16 21  1  0  0  0  0
 17 18  1  0  0  0  0
 17 41  1  0  0  0  0
 17 42  1  0  0  0  0
 18 19  1  0  0  0  0
 18 20  2  0  0  0  0
 19 43  1  0  0  0  0
 19 44  1  0  0  0  0
M  END
> <s_m_source_file>
AV-unprocessed.smi

> <i_m_source_file_index>
1807

> <i_lp_mmshare_version>
43012

> <i_f3d_flags>
0

> <s_epik_input>
W0NIM11bQ0BASF0xW0NIMl1bQ0gyXVtDSDJdW0NIMl1bQ0BIXTFbTkhdQyg9TylbQ0gyXVtOSF1jMltjSF1bY0hdbihuMilbQ0gyXUMoPU8pW05IMl0=

> <s_epik_cmdline>
J2VwaWtfcHl0aG9uJywgJy1waCcsICc3LjAnLCAnLXRuJywgJzgnLCAnLW1hJywgJzIwMCcsICctbWV0YWxfYmluZGluZycsICctaW1hZScsICc8aW5maWxlLm1hZT4nLCAnLW9tYWUnLCAnPG91dGZpbGUubWFlPic=

> <r_lp_tautomer_probability>
1

> <r_epik_Ionization_Penalty>
0.000167642

> <r_epik_Ionization_Penalty_Charging>
0

> <r_epik_Ionization_Penalty_Neutral>
0.000167642

> <r_epik_State_Penalty>
-0

> <r_epik_Charging_Adjusted_Penalty>
0

> <i_epik_Tot_Q>
0

> <i_epik_Tot_abs_Q>
0

> <r_epik_Metal_State_Penalty>
-0

> <b_epik_Metal_Only>
0

> <s_lp_Force_Field>
OPLS_2005

> <r_lp_Energy>
4.94833

> <b_lp_Chiralities_Consistent>
1

> <s_lp_Variant>
AV-unprocessed.smi:1807-2

> <Gold.Version>
5.8.1

> <Gold.Id.Protein>
6NUR|6NUR_protein|mol2

> <Gold.PLP.Fitness>
46.5599

> <Gold.PLP.PLP>
-37.0948

> <Gold.PLP.part.hbond>
-3.0000

> <Gold.PLP.part.metal>
0.0000

> <Gold.PLP.part.buried>
-1.7730

> <Gold.PLP.part.nonpolar>
-32.2015

> <Gold.PLP.part.repulsive>
0.7872

> <Gold.PLP.ligand.clash>
0.0000

> <Gold.PLP.ligand.torsion>
0.3650

> <Gold.PLP.Chemscore.Hbond>
3.0000

> <Gold.PLP.Chemscore.CHOScore>
0.3938

> <Gold.PLP.Chemscore.Metal>
0.0000

> <Gold.Chemscore.Hbonds>
donor molecule, donor type, donor heavy atom, donor atom, acceptor molecule, acceptor atom, score
      L1  H    12    38       P1  7948  1.00
      L1  H    19    43       P1 10737  1.00
      P1  H 10752 10764       L1    10  0.98
      L1  C    15    40       P1 10747  0.74

> <Gold.PLP.Chemscore.Internal.Correction>
0.0137

> <Gold.Rescore>
     Score         DG    S(hbond)    S(metal)    S(lipo)     H(rot)  DE(clash)    DE(int)     intcor
     15.41     -15.97       2.84        0.00      66.19       2.64       0.33       0.24       ----

> <Gold.Chemscore.Fitness>
15.4059

> <Gold.Chemscore.DG>
-15.9701

> <Gold.Chemscore.ZeroCoef>
-5.4800

> <Gold.Chemscore.Hbond>
2.8432

> <Gold.Chemscore.Metal>
0.0000

> <Gold.Chemscore.Lipo>
66.1898

> <Gold.Chemscore.Internal_Hbond>
0.0000

> <Gold.Chemscore.DEClash>
0.3273

> <Gold.Chemscore.DEInternal>
0.2369

> <Gold.Chemscore.Rot>
2.6369

> <Gold.Chemscore.Internal.Correction>
   9.000000E+99

> <Gold.Chemscore.Hbonds>
donor molecule, donor type, donor heavy atom, donor atom, acceptor molecule, acceptor atom, score
      L1  H    12    38       P1  7948  0.81
      L1  H    19    43       P1 10737  0.96
      P1  H 10752 10764       L1    10  0.92

> <Gold.Chemscore.Hbond.Weighted>
-9.4962

> <Gold.Chemscore.Metal.Weighted>
-0.0000

> <Gold.Chemscore.Lipo.Weighted>
-7.7442

> <Gold.Chemscore.Internal_Hbond.Weighted>
0.0000

> <Gold.Chemscore.DEClash.Weighted>
0.3273

> <Gold.Chemscore.DEInternal.Weighted>
0.2369

> <Gold.Chemscore.Rot.Weighted>
6.7504

> <Gold.Chemscore.Internal.Correction.Weighted>
   9.000000E+99

> <Gold.Protein.RotatedTorsions>
[ 6907 6896 6895 6894 ] final  -16.59 input  -60.11 | X-H torsion
[ 7974 7965 7964 7962 ] final  -73.61 input  175.53 | X-H torsion
[ 8008 7997 7996 7995 ] final   28.34 input   59.86 | X-H torsion
[ 10167 10162 10161 10158 ] final -136.27 input  -65.29 | X-H torsion
[ 10718 10713 10712 10709 ] final  -88.40 input   66.30 | X-H torsion
[ 10763 10752 10751 10750 ] final  -75.65 input  -60.55 | X-H torsion
[ 11005 11000 10999 10996 ] final -164.86 input  -57.11 | X-H torsion

> <Gold.Protein.ActiveResidues>
 VAL166  LYS551  ARG553  GLY616  TRP617  ASP618  TYR619  PRO620  LYS621  CYS622 
 ASP623  PHE694  ASN695  SER759  ASP760  ASP761  ALA762  ILE779  LEU786  VAL792 
 PHE793  MET794  SER795  GLU796  ALA797  LYS798  CYS799  TRP800  GLU811  SER814 

> <Gold.Protein.RotatedAtoms>
  151.3062  135.0782  159.9255 H   0  0  0  0  0  0  0  0  0  0  0  0  # atno 6907 bound_to 6896
  152.5287  133.9783  159.7804 H   0  0  0  0  0  0  0  0  0  0  0  0  # atno 6908 bound_to 6896
  151.0078  133.5942  159.2717 H   0  0  0  0  0  0  0  0  0  0  0  0  # atno 6909 bound_to 6896
  145.6499  140.9286  143.0990 H   0  0  0  0  0  0  0  0  0  0  0  0  # atno 7974 bound_to 7965
  155.0571  140.3186  155.4673 H   0  0  0  0  0  0  0  0  0  0  0  0  # atno 8008 bound_to 7997
  156.2821  140.2135  156.5642 H   0  0  0  0  0  0  0  0  0  0  0  0  # atno 8009 bound_to 7997
  154.7162  140.0493  157.0585 H   0  0  0  0  0  0  0  0  0  0  0  0  # atno 8010 bound_to 7997
  139.8695  143.6976  152.2641 H   0  0  0  0  0  0  0  0  0  0  0  0  # atno 10167 bound_to 10162
  155.9984  130.4834  150.5014 H   0  0  0  0  0  0  0  0  0  0  0  0  # atno 10718 bound_to 10713
  154.4893  135.5824  153.6447 H   0  0  0  0  0  0  0  0  0  0  0  0  # atno 10763 bound_to 10752
  152.9860  135.6109  154.3145 H   0  0  0  0  0  0  0  0  0  0  0  0  # atno 10764 bound_to 10752
  154.3043  135.2846  155.2575 H   0  0  0  0  0  0  0  0  0  0  0  0  # atno 10765 bound_to 10752
  140.5822  134.5130  157.5180 H   0  0  0  0  0  0  0  0  0  0  0  0  # atno 11005 bound_to 11000
  144.7126  139.8313  143.7409 LP  0  0  0  0  0  0  0  0  0  0  0  0  # atno 17320 bound_to 7965
  146.1212  139.4231  143.0227 LP  0  0  0  0  0  0  0  0  0  0  0  0  # atno 17321 bound_to 7965
  139.7298  144.7585  151.0821 LP  0  0  0  0  0  0  0  0  0  0  0  0  # atno 17342 bound_to 10162
  140.7763  143.5103  150.9661 LP  0  0  0  0  0  0  0  0  0  0  0  0  # atno 17343 bound_to 10162
  157.2997  131.0643  151.2076 LP  0  0  0  0  0  0  0  0  0  0  0  0  # atno 17370 bound_to 10713
  157.3060  130.6866  149.6189 LP  0  0  0  0  0  0  0  0  0  0  0  0  # atno 17371 bound_to 10713
  139.9312  134.7960  156.0926 LP  0  0  0  0  0  0  0  0  0  0  0  0  # atno 17394 bound_to 11000
  141.0989  133.6685  156.2709 LP  0  0  0  0  0  0  0  0  0  0  0  0  # atno 17395 bound_to 11000

$$$$
