AV-unprocessed.smi:1814|AV-procd|sdf|7349|dock8
  -GOLD-   22720 9 13D 1   1.00000     0.00000
 Structure written by MMmdl.
 31 32  0  0  0  0  0  0  0  0  1 V2000
  144.6079  136.6812  152.7642 O   0  0  0  0  0  0  0  0  0  0  0  0
  145.7631  136.3834  152.4586 C   0  0  0  0  0  0  0  0  0  0  0  0
  146.1321  135.2618  151.8152 N   0  0  0  0  0  0  0  0  0  0  0  0
  145.3067  134.2040  151.3514 C   0  0  0  0  0  0  0  0  0  0  0  0
  145.7335  133.1927  150.5859 N   0  0  0  0  0  0  0  0  0  0  0  0
  144.7067  132.2961  150.2805 C   0  0  0  0  0  0  0  0  0  0  0  0
  143.4954  132.6422  150.8261 C   0  0  0  0  0  0  0  0  0  0  0  0
  143.5965  134.1186  151.7478 S   0  0  0  0  0  0  0  0  0  0  0  0
  146.8235  137.1580  152.7310 N   0  0  0  0  0  0  0  0  0  0  0  0
  146.7718  138.4472  153.4145 C   0  0  2  0  0  0  0  0  0  0  0  0
  146.8024  139.6048  152.3960 C   0  0  0  0  0  0  0  0  0  0  0  0
  146.8121  140.9748  153.0970 C   0  0  0  0  0  0  0  0  0  0  0  0
  147.9552  141.1007  154.1221 C   0  0  2  0  0  0  0  0  0  0  0  0
  149.2001  141.1773  153.4554 O   0  0  0  0  0  0  0  0  0  0  0  0
  147.9600  139.9219  155.1136 C   0  0  0  0  0  0  0  0  0  0  0  0
  147.9499  138.5590  154.3990 C   0  0  0  0  0  0  0  0  0  0  0  0
  147.1181  135.1552  151.6285 H   0  0  0  0  0  0  0  0  0  0  0  0
  144.9273  131.4348  149.6674 H   0  0  0  0  0  0  0  0  0  0  0  0
  142.5541  132.1200  150.7414 H   0  0  0  0  0  0  0  0  0  0  0  0
  147.7353  136.8346  152.4430 H   0  0  0  0  0  0  0  0  0  0  0  0
  145.8453  138.5068  153.9889 H   0  0  0  0  0  0  0  0  0  0  0  0
  147.6847  139.5148  151.7608 H   0  0  0  0  0  0  0  0  0  0  0  0
  145.9395  139.5449  151.7315 H   0  0  0  0  0  0  0  0  0  0  0  0
  146.8762  141.7739  152.3575 H   0  0  0  0  0  0  0  0  0  0  0  0
  145.8595  141.1133  153.6103 H   0  0  0  0  0  0  0  0  0  0  0  0
  147.8351  142.0317  154.6768 H   0  0  0  0  0  0  0  0  0  0  0  0
  149.2996  140.4084  152.9149 H   0  0  0  0  0  0  0  0  0  0  0  0
  148.8214  139.9904  155.7789 H   0  0  0  0  0  0  0  0  0  0  0  0
  147.0779  139.9912  155.7515 H   0  0  0  0  0  0  0  0  0  0  0  0
  147.8951  137.7598  155.1391 H   0  0  0  0  0  0  0  0  0  0  0  0
  148.8923  138.4206  153.8670 H   0  0  0  0  0  0  0  0  0  0  0  0
  1  2  2  0  0  0  0
  2  3  1  0  0  0  0
  2  9  1  0  0  0  0
  3  4  1  0  0  0  0
  3 17  1  0  0  0  0
  4  8  1  0  0  0  0
  4  5  2  0  0  0  0
  5  6  1  0  0  0  0
  6  7  2  0  0  0  0
  6 18  1  0  0  0  0
  7  8  1  0  0  0  0
  7 19  1  0  0  0  0
  9 10  1  0  0  0  0
  9 20  1  0  0  0  0
 10 16  1  0  0  0  0
 10 11  1  0  0  0  0
 10 21  1  0  0  0  0
 11 12  1  0  0  0  0
 11 22  1  0  0  0  0
 11 23  1  0  0  0  0
 12 13  1  0  0  0  0
 12 24  1  0  0  0  0
 12 25  1  0  0  0  0
 13 14  1  0  0  0  0
 13 15  1  0  0  0  0
 13 26  1  0  0  0  0
 14 27  1  0  0  0  0
 15 16  1  0  0  0  0
 15 28  1  0  0  0  0
 15 29  1  0  0  0  0
 16 30  1  0  0  0  0
 16 31  1  0  0  0  0
M  END
> <s_m_source_file>
AV-unprocessed.smi

> <i_m_source_file_index>
1814

> <i_lp_mmshare_version>
43012

> <i_f3d_flags>
0

> <s_epik_input>
czFbY0hdW2NIXW5jMVtOSF1DKD1PKVtOSF1bQ0BASF0yW0NIMl1bQ0gyXVtDQEBIXShbT0hdKVtDSDJdW0NIMl0y

> <s_epik_cmdline>
J2VwaWtfcHl0aG9uJywgJy1waCcsICc3LjAnLCAnLXRuJywgJzgnLCAnLW1hJywgJzIwMCcsICctbWV0YWxfYmluZGluZycsICctaW1hZScsICc8aW5maWxlLm1hZT4nLCAnLW9tYWUnLCAnPG91dGZpbGUubWFlPic=

> <r_lp_tautomer_probability>
0.999

> <r_epik_Ionization_Penalty>
0.000428518

> <r_epik_Ionization_Penalty_Charging>
0

> <r_epik_Ionization_Penalty_Neutral>
0.000428518

> <r_epik_State_Penalty>
0.000177984

> <r_epik_Charging_Adjusted_Penalty>
0.000177984

> <i_epik_Tot_Q>
0

> <i_epik_Tot_abs_Q>
0

> <r_epik_Metal_State_Penalty>
-0

> <b_epik_Metal_Only>
0

> <s_lp_Force_Field>
OPLS_2005

> <r_lp_Energy>
9.0844

> <b_lp_Chiralities_Consistent>
1

> <s_lp_Variant>
AV-unprocessed.smi:1814-2

> <Gold.Version>
5.8.1

> <Gold.Id.Protein>
6NUR|6NUR_protein|mol2

> <Gold.PLP.Fitness>
37.5256

> <Gold.PLP.PLP>
-26.7132

> <Gold.PLP.part.hbond>
-4.8085

> <Gold.PLP.part.metal>
0.0000

> <Gold.PLP.part.buried>
-3.8832

> <Gold.PLP.part.nonpolar>
-19.4818

> <Gold.PLP.part.repulsive>
0.3989

> <Gold.PLP.ligand.clash>
0.0000

> <Gold.PLP.ligand.torsion>
0.3025

> <Gold.PLP.Chemscore.Hbond>
3.3003

> <Gold.PLP.Chemscore.CHOScore>
0.5046

> <Gold.PLP.Chemscore.Metal>
0.0000

> <Gold.Chemscore.Hbonds>
donor molecule, donor type, donor heavy atom, donor atom, acceptor molecule, acceptor atom, score
      L1  H     3    17       P1  7948  0.70
      L1  H     9    20       P1  7948  0.84
      L1  H    14    27       P1  7957  0.74
      P1  H  8011  8017       L1    14  1.00
      L1  C     7    19       P1 10952  0.49

> <Gold.PLP.Chemscore.Internal.Correction>
0.0028

> <Gold.Rescore>
     Score         DG    S(hbond)    S(metal)    S(lipo)     H(rot)  DE(clash)    DE(int)     intcor
     16.21     -18.02       2.81        0.00      59.78       1.50       0.35       1.46       ----

> <Gold.Chemscore.Fitness>
16.2094

> <Gold.Chemscore.DG>
-18.0193

> <Gold.Chemscore.ZeroCoef>
-5.4800

> <Gold.Chemscore.Hbond>
2.8103

> <Gold.Chemscore.Metal>
0.0000

> <Gold.Chemscore.Lipo>
59.7822

> <Gold.Chemscore.Internal_Hbond>
0.0000

> <Gold.Chemscore.DEClash>
0.3458

> <Gold.Chemscore.DEInternal>
1.4640

> <Gold.Chemscore.Rot>
1.5006

> <Gold.Chemscore.Internal.Correction>
   9.000000E+99

> <Gold.Chemscore.Hbonds>
donor molecule, donor type, donor heavy atom, donor atom, acceptor molecule, acceptor atom, score
      L1  H     3    17       P1  7948  0.63
      L1  H     9    20       P1  7948  0.84
      L1  H    14    27       P1  7957  0.74
      P1  H  8011  8017       L1    14  0.25

> <Gold.Chemscore.Hbond.Weighted>
-9.3863

> <Gold.Chemscore.Metal.Weighted>
-0.0000

> <Gold.Chemscore.Lipo.Weighted>
-6.9945

> <Gold.Chemscore.Internal_Hbond.Weighted>
0.0000

> <Gold.Chemscore.DEClash.Weighted>
0.3458

> <Gold.Chemscore.DEInternal.Weighted>
1.4640

> <Gold.Chemscore.Rot.Weighted>
3.8415

> <Gold.Chemscore.Internal.Correction.Weighted>
   9.000000E+99

> <Gold.Protein.RotatedTorsions>
[ 6907 6896 6895 6894 ] final -101.75 input  -60.11 | X-H torsion
[ 7974 7965 7964 7962 ] final -135.10 input  175.53 | X-H torsion
[ 8008 7997 7996 7995 ] final   43.18 input   59.86 | X-H torsion
[ 10167 10162 10161 10158 ] final  134.49 input  -65.29 | X-H torsion
[ 10718 10713 10712 10709 ] final  -37.09 input   66.30 | X-H torsion
[ 10763 10752 10751 10750 ] final -128.38 input  -60.55 | X-H torsion
[ 11005 11000 10999 10996 ] final  139.03 input  -57.11 | X-H torsion

> <Gold.Protein.ActiveResidues>
 VAL166  LYS551  ARG553  GLY616  TRP617  ASP618  TYR619  PRO620  LYS621  CYS622 
 ASP623  PHE694  ASN695  SER759  ASP760  ASP761  ALA762  ILE779  LEU786  VAL792 
 PHE793  MET794  SER795  GLU796  ALA797  LYS798  CYS799  TRP800  GLU811  SER814 

> <Gold.Protein.RotatedAtoms>
  150.7167  134.0687  159.3856 H   0  0  0  0  0  0  0  0  0  0  0  0  # atno 6907 bound_to 6896
  151.8668  135.0502  160.0484 H   0  0  0  0  0  0  0  0  0  0  0  0  # atno 6908 bound_to 6896
  152.2674  133.5316  159.5455 H   0  0  0  0  0  0  0  0  0  0  0  0  # atno 6909 bound_to 6896
  144.9043  140.6813  143.5065 H   0  0  0  0  0  0  0  0  0  0  0  0  # atno 7974 bound_to 7965
  155.2985  140.3383  155.4249 H   0  0  0  0  0  0  0  0  0  0  0  0  # atno 8008 bound_to 7997
  156.2012  140.1734  156.7934 H   0  0  0  0  0  0  0  0  0  0  0  0  # atno 8009 bound_to 7997
  154.5562  140.0696  156.8731 H   0  0  0  0  0  0  0  0  0  0  0  0  # atno 8010 bound_to 7997
  139.5254  144.6565  151.5147 H   0  0  0  0  0  0  0  0  0  0  0  0  # atno 10167 bound_to 10162
  156.3193  130.4263  149.7975 H   0  0  0  0  0  0  0  0  0  0  0  0  # atno 10718 bound_to 10713
  154.8756  135.3930  154.3748 H   0  0  0  0  0  0  0  0  0  0  0  0  # atno 10763 bound_to 10752
  153.4503  135.7028  153.6118 H   0  0  0  0  0  0  0  0  0  0  0  0  # atno 10764 bound_to 10752
  153.4661  135.3801  155.2334 H   0  0  0  0  0  0  0  0  0  0  0  0  # atno 10765 bound_to 10752
  140.0226  134.9390  157.0504 H   0  0  0  0  0  0  0  0  0  0  0  0  # atno 11005 bound_to 11000
  145.3562  139.1693  143.4408 LP  0  0  0  0  0  0  0  0  0  0  0  0  # atno 17320 bound_to 7965
  146.3125  140.3619  142.8665 LP  0  0  0  0  0  0  0  0  0  0  0  0  # atno 17321 bound_to 7965
  140.6393  143.8922  150.6676 LP  0  0  0  0  0  0  0  0  0  0  0  0  # atno 17342 bound_to 10162
  140.2251  143.3779  152.1611 LP  0  0  0  0  0  0  0  0  0  0  0  0  # atno 17343 bound_to 10162
  156.5289  130.8249  151.3230 LP  0  0  0  0  0  0  0  0  0  0  0  0  # atno 17370 bound_to 10713
  157.7408  130.9858  150.2404 LP  0  0  0  0  0  0  0  0  0  0  0  0  # atno 17371 bound_to 10713
  140.4362  134.1729  155.7171 LP  0  0  0  0  0  0  0  0  0  0  0  0  # atno 17394 bound_to 11000
  141.1783  133.8468  157.1346 LP  0  0  0  0  0  0  0  0  0  0  0  0  # atno 17395 bound_to 11000

$$$$
