AV-unprocessed.smi:2868|AV-procd|sdf|11027|dock4
  -GOLD-   2272015493D 1   1.00000     0.00000
 Structure written by MMmdl.
 49 50  0  0  0  0  0  0  0  0  1 V2000
  146.6335  137.1640  159.1742 C   0  0  0  0  0  0  0  0  0  0  0  0
  147.9043  136.7259  158.4254 C   0  0  0  0  0  0  0  0  0  0  0  0
  149.0663  136.6136  159.4349 C   0  0  0  0  0  0  0  0  0  0  0  0
  147.6404  135.3660  157.7450 C   0  0  0  0  0  0  0  0  0  0  0  0
  148.1863  137.7615  157.4242 N   0  0  0  0  0  0  0  0  0  0  0  0
  149.1206  137.7646  156.4534 C   0  0  0  0  0  0  0  0  0  0  0  0
  149.8942  136.8235  156.2730 O   0  0  0  0  0  0  0  0  0  0  0  0
  149.1279  138.8828  155.6832 N   0  0  0  0  0  0  0  0  0  0  0  0
  148.1460  139.9800  155.7236 C   0  0  0  0  0  0  0  0  0  0  0  0
  148.7865  141.1912  156.4249 C   0  0  0  0  0  0  0  0  0  0  0  0
  150.0957  141.6176  155.7256 C   0  0  0  0  0  0  0  0  0  0  0  0
  150.7649  142.6403  156.5232 N   0  0  0  0  0  0  0  0  0  0  0  0
  151.2676  142.4589  157.7543 C   0  0  0  0  0  0  0  0  0  0  0  0
  151.2115  141.3898  158.3615 O   0  0  0  0  0  0  0  0  0  0  0  0
  151.9435  143.6687  158.3993 C   0  0  0  0  0  0  0  0  0  0  0  0
  152.4100  143.3237  159.8019 C   0  0  0  0  0  0  0  0  0  0  0  0
  152.0097  144.0977  160.9110 C   0  0  0  0  0  0  0  0  0  0  0  0
  152.4714  143.7378  162.1917 C   0  0  0  0  0  0  0  0  0  0  0  0
  153.3153  142.6154  162.3094 C   0  0  0  0  0  0  0  0  0  0  0  0
  153.7045  141.8666  161.2551 N   0  0  0  0  0  0  0  0  0  0  0  0
  153.2583  142.2190  160.0303 C   0  0  0  0  0  0  0  0  0  0  0  0
  151.0304  140.4080  155.4891 C   0  0  0  0  0  0  0  0  0  0  0  0
  150.2742  139.2361  154.8372 C   0  0  0  0  0  0  0  0  0  0  0  0
  146.3507  136.4369  159.9363 H   0  0  0  0  0  0  0  0  0  0  0  0
  145.7873  137.2708  158.4943 H   0  0  0  0  0  0  0  0  0  0  0  0
  146.7763  138.1229  159.6744 H   0  0  0  0  0  0  0  0  0  0  0  0
  149.2869  137.5774  159.8953 H   0  0  0  0  0  0  0  0  0  0  0  0
  149.9830  136.2537  158.9679 H   0  0  0  0  0  0  0  0  0  0  0  0
  148.8230  135.9160  160.2369 H   0  0  0  0  0  0  0  0  0  0  0  0
  147.3267  134.6171  158.4732 H   0  0  0  0  0  0  0  0  0  0  0  0
  148.5292  134.9750  157.2500 H   0  0  0  0  0  0  0  0  0  0  0  0
  146.8524  135.4437  156.9952 H   0  0  0  0  0  0  0  0  0  0  0  0
  147.6006  138.5820  157.4778 H   0  0  0  0  0  0  0  0  0  0  0  0
  147.8678  140.2480  154.7032 H   0  0  0  0  0  0  0  0  0  0  0  0
  147.2089  139.7195  156.2152 H   0  0  0  0  0  0  0  0  0  0  0  0
  148.0841  142.0253  156.4428 H   0  0  0  0  0  0  0  0  0  0  0  0
  148.9875  140.9342  157.4663 H   0  0  0  0  0  0  0  0  0  0  0  0
  149.8285  142.0410  154.7554 H   0  0  0  0  0  0  0  0  0  0  0  0
  150.8587  143.5543  156.1048 H   0  0  0  0  0  0  0  0  0  0  0  0
  152.7901  143.9991  157.7957 H   0  0  0  0  0  0  0  0  0  0  0  0
  151.2403  144.5017  158.4370 H   0  0  0  0  0  0  0  0  0  0  0  0
  151.3633  144.9537  160.7835 H   0  0  0  0  0  0  0  0  0  0  0  0
  152.1861  144.3085  163.0631 H   0  0  0  0  0  0  0  0  0  0  0  0
  153.6877  142.3108  163.2763 H   0  0  0  0  0  0  0  0  0  0  0  0
  153.5896  141.6018  159.2082 H   0  0  0  0  0  0  0  0  0  0  0  0
  151.8730  140.6983  154.8607 H   0  0  0  0  0  0  0  0  0  0  0  0
  151.4535  140.0756  156.4384 H   0  0  0  0  0  0  0  0  0  0  0  0
  150.9540  138.3988  154.6741 H   0  0  0  0  0  0  0  0  0  0  0  0
  149.9206  139.5237  153.8459 H   0  0  0  0  0  0  0  0  0  0  0  0
  1  2  1  0  0  0  0
  1 24  1  0  0  0  0
  1 25  1  0  0  0  0
  1 26  1  0  0  0  0
  2  3  1  0  0  0  0
  2  4  1  0  0  0  0
  2  5  1  0  0  0  0
  3 27  1  0  0  0  0
  3 28  1  0  0  0  0
  3 29  1  0  0  0  0
  4 30  1  0  0  0  0
  4 31  1  0  0  0  0
  4 32  1  0  0  0  0
  5  6  1  0  0  0  0
  5 33  1  0  0  0  0
  6  7  2  0  0  0  0
  6  8  1  0  0  0  0
  8 23  1  0  0  0  0
  8  9  1  0  0  0  0
  9 10  1  0  0  0  0
  9 34  1  0  0  0  0
  9 35  1  0  0  0  0
 10 11  1  0  0  0  0
 10 36  1  0  0  0  0
 10 37  1  0  0  0  0
 11 12  1  0  0  0  0
 11 22  1  0  0  0  0
 11 38  1  0  0  0  0
 12 13  1  0  0  0  0
 12 39  1  0  0  0  0
 13 14  2  0  0  0  0
 13 15  1  0  0  0  0
 15 16  1  0  0  0  0
 15 40  1  0  0  0  0
 15 41  1  0  0  0  0
 16 21  1  0  0  0  0
 16 17  2  0  0  0  0
 17 18  1  0  0  0  0
 17 42  1  0  0  0  0
 18 19  2  0  0  0  0
 18 43  1  0  0  0  0
 19 20  1  0  0  0  0
 19 44  1  0  0  0  0
 20 21  2  0  0  0  0
 21 45  1  0  0  0  0
 22 23  1  0  0  0  0
 22 46  1  0  0  0  0
 22 47  1  0  0  0  0
 23 48  1  0  0  0  0
 23 49  1  0  0  0  0
M  END
> <s_m_source_file>
AV-unprocessed.smi

> <i_m_source_file_index>
2868

> <i_lp_mmshare_version>
43012

> <i_f3d_flags>
0

> <s_epik_input>
W0NIM11DKFtDSDNdKShbQ0gzXSlbTkhdQyg9TylOMVtDSDJdW0NIMl1bQ0hdKFtDSDJdW0NIMl0xKVtOSF1DKD1PKVtDSDJdYzJbY0hdW2NIXVtjSF1uW2NIXTI=

> <s_epik_cmdline>
J2VwaWtfcHl0aG9uJywgJy1waCcsICc3LjAnLCAnLXRuJywgJzgnLCAnLW1hJywgJzIwMCcsICctbWV0YWxfYmluZGluZycsICctaW1hZScsICc8aW5maWxlLm1hZT4nLCAnLW9tYWUnLCAnPG91dGZpbGUubWFlPic=

> <r_epik_Ionization_Penalty>
0.00419782

> <r_epik_Ionization_Penalty_Charging>
0

> <r_epik_Ionization_Penalty_Neutral>
0.00419782

> <r_epik_State_Penalty>
0.0029617

> <r_epik_Charging_Adjusted_Penalty>
0.0029617

> <i_epik_Tot_Q>
0

> <i_epik_Tot_abs_Q>
0

> <r_epik_Metal_State_Penalty>
-0

> <b_epik_Metal_Only>
0

> <s_lp_Force_Field>
OPLS_2005

> <r_lp_Energy>
29.348

> <b_lp_Chiralities_Consistent>
1

> <s_lp_Variant>
AV-unprocessed.smi:2868-1

> <Gold.Version>
5.8.1

> <Gold.Id.Protein>
6NUR|6NUR_protein|mol2

> <Gold.PLP.Fitness>
41.0328

> <Gold.PLP.PLP>
-41.0164

> <Gold.PLP.part.hbond>
-1.0000

> <Gold.PLP.part.metal>
0.0000

> <Gold.PLP.part.buried>
-5.1346

> <Gold.PLP.part.nonpolar>
-34.6319

> <Gold.PLP.part.repulsive>
0.1355

> <Gold.PLP.ligand.clash>
0.0000

> <Gold.PLP.ligand.torsion>
0.1889

> <Gold.PLP.Chemscore.Hbond>
0.1076

> <Gold.PLP.Chemscore.CHOScore>
0.0000

> <Gold.PLP.Chemscore.Metal>
0.0000

> <Gold.Chemscore.Hbonds>
donor molecule, donor type, donor heavy atom, donor atom, acceptor molecule, acceptor atom, score
      L1  H    12    39       P1  8028  0.10

> <Gold.PLP.Chemscore.Internal.Correction>
0.0712

> <Gold.Rescore>
     Score         DG    S(hbond)    S(metal)    S(lipo)     H(rot)  DE(clash)    DE(int)     intcor
     13.86     -16.37       0.69        0.00     106.56       1.52       0.07       2.44       ----

> <Gold.Chemscore.Fitness>
13.8558

> <Gold.Chemscore.DG>
-16.3682

> <Gold.Chemscore.ZeroCoef>
-5.4800

> <Gold.Chemscore.Hbond>
0.6920

> <Gold.Chemscore.Metal>
0.0000

> <Gold.Chemscore.Lipo>
106.5592

> <Gold.Chemscore.Internal_Hbond>
0.0000

> <Gold.Chemscore.DEClash>
0.0731

> <Gold.Chemscore.DEInternal>
2.4393

> <Gold.Chemscore.Rot>
1.5197

> <Gold.Chemscore.Internal.Correction>
   9.000000E+99

> <Gold.Chemscore.Hbonds>
donor molecule, donor type, donor heavy atom, donor atom, acceptor molecule, acceptor atom, score
      L1  H    12    39       P1  8028  0.10

> <Gold.Chemscore.Hbond.Weighted>
-2.3112

> <Gold.Chemscore.Metal.Weighted>
-0.0000

> <Gold.Chemscore.Lipo.Weighted>
-12.4674

> <Gold.Chemscore.Internal_Hbond.Weighted>
0.0000

> <Gold.Chemscore.DEClash.Weighted>
0.0731

> <Gold.Chemscore.DEInternal.Weighted>
2.4393

> <Gold.Chemscore.Rot.Weighted>
3.8904

> <Gold.Chemscore.Internal.Correction.Weighted>
   9.000000E+99

> <Gold.Protein.RotatedTorsions>
[ 6907 6896 6895 6894 ] final   -5.60 input  -60.11 | X-H torsion
[ 7974 7965 7964 7962 ] final    4.07 input  175.53 | X-H torsion
[ 8008 7997 7996 7995 ] final  130.52 input   59.86 | X-H torsion
[ 10167 10162 10161 10158 ] final   54.53 input  -65.29 | X-H torsion
[ 10718 10713 10712 10709 ] final  126.67 input   66.30 | X-H torsion
[ 10763 10752 10751 10750 ] final  163.09 input  -60.55 | X-H torsion
[ 11005 11000 10999 10996 ] final -110.04 input  -57.11 | X-H torsion

> <Gold.Protein.ActiveResidues>
 VAL166  LYS551  ARG553  GLY616  TRP617  ASP618  TYR619  PRO620  LYS621  CYS622 
 ASP623  PHE694  ASN695  SER759  ASP760  ASP761  ALA762  ILE779  LEU786  VAL792 
 PHE793  MET794  SER795  GLU796  ALA797  LYS798  CYS799  TRP800  GLU811  SER814 

> <Gold.Protein.RotatedAtoms>
  151.4790  135.1051  159.9772 H   0  0  0  0  0  0  0  0  0  0  0  0  # atno 6907 bound_to 6896
  152.4786  133.8196  159.7057 H   0  0  0  0  0  0  0  0  0  0  0  0  # atno 6908 bound_to 6896
  150.8842  133.7269  159.2949 H   0  0  0  0  0  0  0  0  0  0  0  0  # atno 6909 bound_to 6896
  146.2444  140.0589  142.8370 H   0  0  0  0  0  0  0  0  0  0  0  0  # atno 7974 bound_to 7965
  156.2956  140.2594  156.2776 H   0  0  0  0  0  0  0  0  0  0  0  0  # atno 8008 bound_to 7997
  154.9633  140.0392  157.2219 H   0  0  0  0  0  0  0  0  0  0  0  0  # atno 8009 bound_to 7997
  154.7926  140.2814  155.5985 H   0  0  0  0  0  0  0  0  0  0  0  0  # atno 8010 bound_to 7997
  140.2292  144.3706  150.6421 H   0  0  0  0  0  0  0  0  0  0  0  0  # atno 10167 bound_to 10162
  157.5399  131.1097  150.8875 H   0  0  0  0  0  0  0  0  0  0  0  0  # atno 10718 bound_to 10713
  154.2884  135.2761  155.2666 H   0  0  0  0  0  0  0  0  0  0  0  0  # atno 10763 bound_to 10752
  154.5156  135.5770  153.6643 H   0  0  0  0  0  0  0  0  0  0  0  0  # atno 10764 bound_to 10752
  152.9918  135.6192  154.3047 H   0  0  0  0  0  0  0  0  0  0  0  0  # atno 10765 bound_to 10752
  141.0814  133.9214  157.2281 H   0  0  0  0  0  0  0  0  0  0  0  0  # atno 11005 bound_to 11000
  145.0917  140.9289  143.4765 LP  0  0  0  0  0  0  0  0  0  0  0  0  # atno 17320 bound_to 7965
  145.0763  139.2993  143.5806 LP  0  0  0  0  0  0  0  0  0  0  0  0  # atno 17321 bound_to 7965
  140.6198  143.2175  151.6717 LP  0  0  0  0  0  0  0  0  0  0  0  0  # atno 17342 bound_to 10162
  139.5116  144.3503  152.0658 LP  0  0  0  0  0  0  0  0  0  0  0  0  # atno 17343 bound_to 10162
  156.9431  130.5392  149.5280 LP  0  0  0  0  0  0  0  0  0  0  0  0  # atno 17370 bound_to 10713
  156.0488  130.5561  150.8943 LP  0  0  0  0  0  0  0  0  0  0  0  0  # atno 17371 bound_to 10713
  139.9628  135.0150  156.9307 LP  0  0  0  0  0  0  0  0  0  0  0  0  # atno 17394 bound_to 11000
  140.5460  134.0673  155.7355 LP  0  0  0  0  0  0  0  0  0  0  0  0  # atno 17395 bound_to 11000

$$$$
