AV-unprocessed.smi:1699|AV-procd|sdf|6816|dock5
  -GOLD-   22720 7593D 1   1.00000     0.00000
 Structure written by MMmdl.
 37 38  0  0  0  0  0  0  0  0  1 V2000
  145.5472  135.4978  151.2212 C   0  0  0  0  0  0  0  0  0  0  0  0
  145.4647  133.9801  151.1998 C   0  0  0  0  0  0  0  0  0  0  0  0
  144.3694  133.3575  150.5638 C   0  0  0  0  0  0  0  0  0  0  0  0
  144.2954  131.9543  150.5428 C   0  0  0  0  0  0  0  0  0  0  0  0
  145.3270  131.2282  151.1622 C   0  0  0  0  0  0  0  0  0  0  0  0
  146.3771  131.8149  151.7719 N   0  0  0  0  0  0  0  0  0  0  0  0
  146.4642  133.1686  151.8010 C   0  0  0  0  0  0  0  0  0  0  0  0
  147.5399  133.8553  152.4320 N   0  0  0  0  0  0  0  0  0  0  0  0
  148.0956  133.6156  153.6330 C   0  0  0  0  0  0  0  0  0  0  0  0
  147.7714  132.7089  154.4006 O   0  0  0  0  0  0  0  0  0  0  0  0
  149.0749  134.4932  153.8953 N   0  0  0  0  0  0  0  0  0  0  0  0
  149.8938  134.5131  155.1049 C   0  0  1  0  0  0  0  0  0  0  0  0
  150.9648  133.4133  155.0113 C   0  0  0  0  0  0  0  0  0  0  0  0
  150.5064  135.9161  155.2771 C   0  0  2  0  0  0  0  0  0  0  0  0
  149.5323  137.0735  155.0506 C   0  0  0  0  0  0  0  0  0  0  0  0
  150.4305  138.2243  154.6232 C   0  0  0  0  0  0  0  0  0  0  0  0
  151.7613  137.5516  154.2767 C   0  0  0  0  0  0  0  0  0  0  0  0
  151.4844  136.1587  154.2768 O   0  0  0  0  0  0  0  0  0  0  0  0
  144.7052  135.9491  150.6953 H   0  0  0  0  0  0  0  0  0  0  0  0
  146.4639  135.8373  150.7384 H   0  0  0  0  0  0  0  0  0  0  0  0
  145.5383  135.8659  152.2475 H   0  0  0  0  0  0  0  0  0  0  0  0
  143.5930  133.9455  150.0967 H   0  0  0  0  0  0  0  0  0  0  0  0
  143.4701  131.4478  150.0645 H   0  0  0  0  0  0  0  0  0  0  0  0
  145.3094  130.1484  151.1694 H   0  0  0  0  0  0  0  0  0  0  0  0
  147.9334  134.6190  151.9031 H   0  0  0  0  0  0  0  0  0  0  0  0
  149.2688  135.2071  153.2085 H   0  0  0  0  0  0  0  0  0  0  0  0
  149.2647  134.3101  155.9737 H   0  0  0  0  0  0  0  0  0  0  0  0
  151.5678  133.3669  155.9180 H   0  0  0  0  0  0  0  0  0  0  0  0
  151.6388  133.5863  154.1715 H   0  0  0  0  0  0  0  0  0  0  0  0
  150.5097  132.4314  154.8758 H   0  0  0  0  0  0  0  0  0  0  0  0
  150.9752  136.0126  156.2588 H   0  0  0  0  0  0  0  0  0  0  0  0
  148.8413  136.8325  154.2414 H   0  0  0  0  0  0  0  0  0  0  0  0
  148.9422  137.3061  155.9374 H   0  0  0  0  0  0  0  0  0  0  0  0
  150.0079  138.7485  153.7655 H   0  0  0  0  0  0  0  0  0  0  0  0
  150.5635  138.9487  155.4275 H   0  0  0  0  0  0  0  0  0  0  0  0
  152.1551  137.8728  153.3121 H   0  0  0  0  0  0  0  0  0  0  0  0
  152.5104  137.7681  155.0397 H   0  0  0  0  0  0  0  0  0  0  0  0
  1  2  1  0  0  0  0
  1 19  1  0  0  0  0
  1 20  1  0  0  0  0
  1 21  1  0  0  0  0
  2  7  1  0  0  0  0
  2  3  2  0  0  0  0
  3  4  1  0  0  0  0
  3 22  1  0  0  0  0
  4  5  2  0  0  0  0
  4 23  1  0  0  0  0
  5  6  1  0  0  0  0
  5 24  1  0  0  0  0
  6  7  2  0  0  0  0
  7  8  1  0  0  0  0
  8  9  1  0  0  0  0
  8 25  1  0  0  0  0
  9 10  2  0  0  0  0
  9 11  1  0  0  0  0
 11 12  1  0  0  0  0
 11 26  1  0  0  0  0
 12 13  1  0  0  0  0
 12 14  1  0  0  0  0
 12 27  1  0  0  0  0
 13 28  1  0  0  0  0
 13 29  1  0  0  0  0
 13 30  1  0  0  0  0
 14 18  1  0  0  0  0
 14 15  1  0  0  0  0
 14 31  1  0  0  0  0
 15 16  1  0  0  0  0
 15 32  1  0  0  0  0
 15 33  1  0  0  0  0
 16 17  1  0  0  0  0
 16 34  1  0  0  0  0
 16 35  1  0  0  0  0
 17 18  1  0  0  0  0
 17 36  1  0  0  0  0
 17 37  1  0  0  0  0
M  END
> <s_m_source_file>
AV-unprocessed.smi

> <i_m_source_file_index>
1699

> <i_lp_mmshare_version>
43012

> <i_f3d_flags>
0

> <s_epik_input>
W0NIM11jMVtjSF1bY0hdW2NIXW5jMVtOSF1DKD1PKVtOSF1bQ0BIXShbQ0gzXSlbQ0BASF0yW0NIMl1bQ0gyXVtDSDJdTzI=

> <s_epik_cmdline>
J2VwaWtfcHl0aG9uJywgJy1waCcsICc3LjAnLCAnLXRuJywgJzgnLCAnLW1hJywgJzIwMCcsICctbWV0YWxfYmluZGluZycsICctaW1hZScsICc8aW5maWxlLm1hZT4nLCAnLW9tYWUnLCAnPG91dGZpbGUubWFlPic=

> <r_lp_tautomer_probability>
1

> <r_epik_Ionization_Penalty>
5.52788e-05

> <r_epik_Ionization_Penalty_Charging>
0

> <r_epik_Ionization_Penalty_Neutral>
5.52788e-05

> <r_epik_State_Penalty>
-0

> <r_epik_Charging_Adjusted_Penalty>
0

> <i_epik_Tot_Q>
0

> <i_epik_Tot_abs_Q>
0

> <r_epik_Metal_State_Penalty>
-0

> <b_epik_Metal_Only>
0

> <s_lp_Force_Field>
OPLS_2005

> <r_lp_Energy>
21.1958

> <b_lp_Chiralities_Consistent>
1

> <s_lp_Variant>
AV-unprocessed.smi:1699-2

> <Gold.Version>
5.8.1

> <Gold.Id.Protein>
6NUR|6NUR_protein|mol2

> <Gold.PLP.Fitness>
39.8758

> <Gold.PLP.PLP>
-32.4217

> <Gold.PLP.part.hbond>
-3.0000

> <Gold.PLP.part.metal>
0.0000

> <Gold.PLP.part.buried>
-6.2100

> <Gold.PLP.part.nonpolar>
-24.2101

> <Gold.PLP.part.repulsive>
0.7109

> <Gold.PLP.ligand.clash>
0.0000

> <Gold.PLP.ligand.torsion>
0.7844

> <Gold.PLP.Chemscore.Hbond>
3.0000

> <Gold.PLP.Chemscore.CHOScore>
0.0000

> <Gold.PLP.Chemscore.Metal>
0.0000

> <Gold.Chemscore.Hbonds>
donor molecule, donor type, donor heavy atom, donor atom, acceptor molecule, acceptor atom, score
      L1  H     8    25       P1  7948  0.95
      L1  H    11    26       P1  7948  0.75
      P1  H 10752 10764       L1    18  0.85

> <Gold.PLP.Chemscore.Internal.Correction>
0.0230

> <Gold.Rescore>
     Score         DG    S(hbond)    S(metal)    S(lipo)     H(rot)  DE(clash)    DE(int)     intcor
     15.51     -16.47       2.07        0.00      61.59       1.22       0.10       0.86       ----

> <Gold.Chemscore.Fitness>
15.5098

> <Gold.Chemscore.DG>
-16.4683

> <Gold.Chemscore.ZeroCoef>
-5.4800

> <Gold.Chemscore.Hbond>
2.0676

> <Gold.Chemscore.Metal>
0.0000

> <Gold.Chemscore.Lipo>
61.5886

> <Gold.Chemscore.Internal_Hbond>
0.0000

> <Gold.Chemscore.DEClash>
0.0980

> <Gold.Chemscore.DEInternal>
0.8606

> <Gold.Chemscore.Rot>
1.2200

> <Gold.Chemscore.Internal.Correction>
   9.000000E+99

> <Gold.Chemscore.Hbonds>
donor molecule, donor type, donor heavy atom, donor atom, acceptor molecule, acceptor atom, score
      L1  H     8    25       P1  7948  0.21
      L1  H    11    26       P1  7948  0.09
      P1  H 10752 10764       L1    18  0.21

> <Gold.Chemscore.Hbond.Weighted>
-6.9056

> <Gold.Chemscore.Metal.Weighted>
-0.0000

> <Gold.Chemscore.Lipo.Weighted>
-7.2059

> <Gold.Chemscore.Internal_Hbond.Weighted>
0.0000

> <Gold.Chemscore.DEClash.Weighted>
0.0980

> <Gold.Chemscore.DEInternal.Weighted>
0.8606

> <Gold.Chemscore.Rot.Weighted>
3.1232

> <Gold.Chemscore.Internal.Correction.Weighted>
   9.000000E+99

> <Gold.Protein.RotatedTorsions>
[ 6907 6896 6895 6894 ] final   89.94 input  -60.11 | X-H torsion
[ 7974 7965 7964 7962 ] final -117.26 input  175.53 | X-H torsion
[ 8008 7997 7996 7995 ] final  -87.73 input   59.86 | X-H torsion
[ 10167 10162 10161 10158 ] final -168.83 input  -65.29 | X-H torsion
[ 10718 10713 10712 10709 ] final  153.94 input   66.30 | X-H torsion
[ 10763 10752 10751 10750 ] final  -50.07 input  -60.55 | X-H torsion
[ 11005 11000 10999 10996 ] final    0.60 input  -57.11 | X-H torsion

> <Gold.Protein.ActiveResidues>
 VAL166  LYS551  ARG553  GLY616  TRP617  ASP618  TYR619  PRO620  LYS621  CYS622 
 ASP623  PHE694  ASN695  SER759  ASP760  ASP761  ALA762  ILE779  LEU786  VAL792 
 PHE793  MET794  SER795  GLU796  ALA797  LYS798  CYS799  TRP800  GLU811  SER814 

> <Gold.Protein.RotatedAtoms>
  152.5440  134.1888  159.8665 H   0  0  0  0  0  0  0  0  0  0  0  0  # atno 6907 bound_to 6896
  151.1885  133.4674  159.2602 H   0  0  0  0  0  0  0  0  0  0  0  0  # atno 6908 bound_to 6896
  151.1107  135.0037  159.8548 H   0  0  0  0  0  0  0  0  0  0  0  0  # atno 6909 bound_to 6896
  145.0872  140.8466  143.4004 H   0  0  0  0  0  0  0  0  0  0  0  0  # atno 7974 bound_to 7965
  154.6666  140.0562  157.0120 H   0  0  0  0  0  0  0  0  0  0  0  0  # atno 8008 bound_to 7997
  155.1150  140.3242  155.4493 H   0  0  0  0  0  0  0  0  0  0  0  0  # atno 8009 bound_to 7997
  156.2640  140.2007  156.6273 H   0  0  0  0  0  0  0  0  0  0  0  0  # atno 8010 bound_to 7997
  139.5960  144.1110  152.1690 H   0  0  0  0  0  0  0  0  0  0  0  0  # atno 10167 bound_to 10162
  157.2382  131.0753  151.1810 H   0  0  0  0  0  0  0  0  0  0  0  0  # atno 10718 bound_to 10713
  154.1044  135.6558  153.4874 H   0  0  0  0  0  0  0  0  0  0  0  0  # atno 10763 bound_to 10752
  153.0277  135.5232  154.7254 H   0  0  0  0  0  0  0  0  0  0  0  0  # atno 10764 bound_to 10752
  154.6416  135.2989  155.0066 H   0  0  0  0  0  0  0  0  0  0  0  0  # atno 10765 bound_to 10752
  140.6247  133.9629  155.8243 H   0  0  0  0  0  0  0  0  0  0  0  0  # atno 11005 bound_to 11000
  145.1108  139.2758  143.5638 LP  0  0  0  0  0  0  0  0  0  0  0  0  # atno 17320 bound_to 7965
  146.3531  140.0703  142.8623 LP  0  0  0  0  0  0  0  0  0  0  0  0  # atno 17321 bound_to 7965
  140.0695  144.5790  150.7202 LP  0  0  0  0  0  0  0  0  0  0  0  0  # atno 17342 bound_to 10162
  140.7212  143.2591  151.4271 LP  0  0  0  0  0  0  0  0  0  0  0  0  # atno 17343 bound_to 10162
  157.3407  130.7032  149.6380 LP  0  0  0  0  0  0  0  0  0  0  0  0  # atno 17370 bound_to 10713
  155.9671  130.4281  150.4772 LP  0  0  0  0  0  0  0  0  0  0  0  0  # atno 17371 bound_to 10713
  141.0717  134.0195  157.3516 LP  0  0  0  0  0  0  0  0  0  0  0  0  # atno 17394 bound_to 11000
  139.9139  135.0194  156.7804 LP  0  0  0  0  0  0  0  0  0  0  0  0  # atno 17395 bound_to 11000

$$$$
