AV-unprocessed.smi:1535|AV-procd|sdf|6173|dock2
  -GOLD-   22720 6323D 1   1.00000     0.00000
 Structure written by MMmdl.
 46 47  0  0  0  0  0  0  0  0  1 V2000
  153.6695  142.0973  162.0937 C   0  0  0  0  0  0  0  0  0  0  0  0
  153.0066  142.0205  160.7298 C   0  0  0  0  0  0  0  0  0  0  0  0
  153.1999  140.8677  159.9360 C   0  0  0  0  0  0  0  0  0  0  0  0
  152.5993  140.7559  158.6628 C   0  0  0  0  0  0  0  0  0  0  0  0
  152.6528  139.7332  157.7314 N   0  0  0  0  0  0  0  0  0  0  0  0
  151.8899  140.2192  156.7567 C   0  0  0  0  0  0  0  0  0  0  0  0
  151.3489  141.4379  156.9455 N   0  0  0  0  0  0  0  0  0  0  0  0
  150.4877  142.1597  156.0252 C   0  0  0  0  0  0  0  0  0  0  0  0
  149.1810  141.4013  155.7243 C   0  0  1  0  0  0  0  0  0  0  0  0
  148.2374  142.3013  155.1758 O   0  0  0  0  0  0  0  0  0  0  0  0
  149.4128  140.2535  154.7185 C   0  0  0  0  0  0  0  0  0  0  0  0
  148.3071  139.3032  154.5650 N   0  0  0  0  0  0  0  0  0  0  0  0
  147.3562  139.8078  153.5798 C   0  0  0  0  0  0  0  0  0  0  0  0
  148.7751  137.9605  154.2022 C   0  0  0  0  0  0  0  0  0  0  0  0
  149.8160  137.3425  155.1556 C   0  0  1  0  0  0  0  0  0  0  0  0
  149.4797  135.8788  155.4671 C   0  0  0  0  0  0  0  0  0  0  0  0
  151.1813  137.4559  154.6157 C   0  0  0  0  0  0  0  0  0  0  0  0
  152.2544  137.5447  154.1920 N   0  0  0  0  0  0  0  0  0  0  0  0
  151.7936  141.8378  158.2012 C   0  0  0  0  0  0  0  0  0  0  0  0
  151.5949  142.9905  158.9815 C   0  0  0  0  0  0  0  0  0  0  0  0
  152.2031  143.0863  160.2507 C   0  0  0  0  0  0  0  0  0  0  0  0
  151.9826  144.3357  161.0852 C   0  0  0  0  0  0  0  0  0  0  0  0
  154.2092  141.1788  162.3263 H   0  0  0  0  0  0  0  0  0  0  0  0
  152.9240  142.2525  162.8738 H   0  0  0  0  0  0  0  0  0  0  0  0
  154.3820  142.9218  162.1256 H   0  0  0  0  0  0  0  0  0  0  0  0
  153.8126  140.0560  160.2998 H   0  0  0  0  0  0  0  0  0  0  0  0
  151.7117  139.6567  155.8519 H   0  0  0  0  0  0  0  0  0  0  0  0
  150.2751  143.1456  156.4411 H   0  0  0  0  0  0  0  0  0  0  0  0
  151.0447  142.3259  155.1023 H   0  0  0  0  0  0  0  0  0  0  0  0
  148.7845  141.0263  156.6664 H   0  0  0  0  0  0  0  0  0  0  0  0
  148.5101  143.1832  155.3771 H   0  0  0  0  0  0  0  0  0  0  0  0
  149.6397  140.7051  153.7514 H   0  0  0  0  0  0  0  0  0  0  0  0
  150.3123  139.7043  155.0017 H   0  0  0  0  0  0  0  0  0  0  0  0
  146.4672  139.1807  153.5273 H   0  0  0  0  0  0  0  0  0  0  0  0
  147.8036  139.8545  152.5860 H   0  0  0  0  0  0  0  0  0  0  0  0
  147.0182  140.8100  153.8456 H   0  0  0  0  0  0  0  0  0  0  0  0
  147.9190  137.2893  154.1183 H   0  0  0  0  0  0  0  0  0  0  0  0
  149.2313  137.9810  153.2145 H   0  0  0  0  0  0  0  0  0  0  0  0
  149.8156  137.8823  156.1016 H   0  0  0  0  0  0  0  0  0  0  0  0
  150.2016  135.4528  156.1642 H   0  0  0  0  0  0  0  0  0  0  0  0
  149.4915  135.2698  154.5626 H   0  0  0  0  0  0  0  0  0  0  0  0
  148.4912  135.7895  155.9186 H   0  0  0  0  0  0  0  0  0  0  0  0
  150.9776  143.7932  158.6066 H   0  0  0  0  0  0  0  0  0  0  0  0
  151.3869  145.0737  160.5473 H   0  0  0  0  0  0  0  0  0  0  0  0
  152.9355  144.7991  161.3409 H   0  0  0  0  0  0  0  0  0  0  0  0
  151.4579  144.0888  162.0082 H   0  0  0  0  0  0  0  0  0  0  0  0
  1  2  1  0  0  0  0
  1 23  1  0  0  0  0
  1 24  1  0  0  0  0
  1 25  1  0  0  0  0
  2 21  1  0  0  0  0
  2  3  2  0  0  0  0
  3  4  1  0  0  0  0
  3 26  1  0  0  0  0
  4 19  2  0  0  0  0
  4  5  1  0  0  0  0
  5  6  2  0  0  0  0
  6  7  1  0  0  0  0
  6 27  1  0  0  0  0
  7  8  1  0  0  0  0
  7 19  1  0  0  0  0
  8  9  1  0  0  0  0
  8 28  1  0  0  0  0
  8 29  1  0  0  0  0
  9 10  1  0  0  0  0
  9 11  1  0  0  0  0
  9 30  1  0  0  0  0
 10 31  1  0  0  0  0
 11 12  1  0  0  0  0
 11 32  1  0  0  0  0
 11 33  1  0  0  0  0
 12 13  1  0  0  0  0
 12 14  1  0  0  0  0
 13 34  1  0  0  0  0
 13 35  1  0  0  0  0
 13 36  1  0  0  0  0
 14 15  1  0  0  0  0
 14 37  1  0  0  0  0
 14 38  1  0  0  0  0
 15 16  1  0  0  0  0
 15 17  1  0  0  0  0
 15 39  1  0  0  0  0
 16 40  1  0  0  0  0
 16 41  1  0  0  0  0
 16 42  1  0  0  0  0
 17 18  3  0  0  0  0
 19 20  1  0  0  0  0
 20 21  2  0  0  0  0
 20 43  1  0  0  0  0
 21 22  1  0  0  0  0
 22 44  1  0  0  0  0
 22 45  1  0  0  0  0
 22 46  1  0  0  0  0
M  END
> <s_m_source_file>
AV-unprocessed.smi

> <i_m_source_file_index>
1535

> <i_lp_mmshare_version>
43012

> <i_f3d_flags>
0

> <s_epik_input>
W0NIM11jKFtjSF0xKWMoW0NIM10pW2NIXWMoYzEyKW4oW2NIXW4yKVtDSDJdW0NASF0oW09IXSlbQ0gyXU4oW0NIM10pW0NIMl1bQ0BIXShbQ0gzXSlDI04=

> <s_epik_cmdline>
J2VwaWtfcHl0aG9uJywgJy1waCcsICc3LjAnLCAnLXRuJywgJzgnLCAnLW1hJywgJzIwMCcsICctbWV0YWxfYmluZGluZycsICctaW1hZScsICc8aW5maWxlLm1hZT4nLCAnLW9tYWUnLCAnPG91dGZpbGUubWFlPic=

> <r_epik_Ionization_Penalty>
0.098511

> <r_epik_Ionization_Penalty_Charging>
0

> <r_epik_Ionization_Penalty_Neutral>
0.098511

> <r_epik_State_Penalty>
0.0881608

> <r_epik_Charging_Adjusted_Penalty>
0.0881608

> <i_epik_Tot_Q>
0

> <i_epik_Tot_abs_Q>
0

> <r_epik_Metal_State_Penalty>
0.0128087

> <b_epik_Metal_Only>
0

> <s_lp_Force_Field>
OPLS_2005

> <r_lp_Energy>
24.0286

> <b_lp_Chiralities_Consistent>
1

> <s_lp_Variant>
AV-unprocessed.smi:1535-4

> <Gold.Version>
5.8.1

> <Gold.Id.Protein>
6NUR|6NUR_protein|mol2

> <Gold.PLP.Fitness>
49.4340

> <Gold.PLP.PLP>
-43.0529

> <Gold.PLP.part.hbond>
-3.0000

> <Gold.PLP.part.metal>
0.0000

> <Gold.PLP.part.buried>
-2.3551

> <Gold.PLP.part.nonpolar>
-37.9112

> <Gold.PLP.part.repulsive>
0.2682

> <Gold.PLP.ligand.clash>
0.0000

> <Gold.PLP.ligand.torsion>
1.1581

> <Gold.PLP.Chemscore.Hbond>
2.7840

> <Gold.PLP.Chemscore.CHOScore>
0.0000

> <Gold.PLP.Chemscore.Metal>
0.0000

> <Gold.Chemscore.Hbonds>
donor molecule, donor type, donor heavy atom, donor atom, acceptor molecule, acceptor atom, score
      L1  H    10    31       P1  8028  1.00
      P1  H  7997  8010       L1     5  0.94
      P1  H 10752 10763       L1    18  0.77

> <Gold.PLP.Chemscore.Internal.Correction>
0.3453

> <Gold.Rescore>
     Score         DG    S(hbond)    S(metal)    S(lipo)     H(rot)  DE(clash)    DE(int)     intcor
     17.46     -19.47       1.89        0.00     120.57       2.51       0.64       1.36       ----

> <Gold.Chemscore.Fitness>
17.4628

> <Gold.Chemscore.DG>
-19.4670

> <Gold.Chemscore.ZeroCoef>
-5.4800

> <Gold.Chemscore.Hbond>
1.8890

> <Gold.Chemscore.Metal>
0.0000

> <Gold.Chemscore.Lipo>
120.5697

> <Gold.Chemscore.Internal_Hbond>
0.0000

> <Gold.Chemscore.DEClash>
0.6414

> <Gold.Chemscore.DEInternal>
1.3628

> <Gold.Chemscore.Rot>
2.5113

> <Gold.Chemscore.Internal.Correction>
   9.000000E+99

> <Gold.Chemscore.Hbonds>
donor molecule, donor type, donor heavy atom, donor atom, acceptor molecule, acceptor atom, score
      L1  H    10    31       P1  8028  0.98
      P1  H  7997  8010       L1     5  0.06
      P1  H 10752 10763       L1    18  0.49

> <Gold.Chemscore.Hbond.Weighted>
-6.3093

> <Gold.Chemscore.Metal.Weighted>
-0.0000

> <Gold.Chemscore.Lipo.Weighted>
-14.1066

> <Gold.Chemscore.Internal_Hbond.Weighted>
0.0000

> <Gold.Chemscore.DEClash.Weighted>
0.6414

> <Gold.Chemscore.DEInternal.Weighted>
1.3628

> <Gold.Chemscore.Rot.Weighted>
6.4289

> <Gold.Chemscore.Internal.Correction.Weighted>
   9.000000E+99

> <Gold.Protein.RotatedTorsions>
[ 6907 6896 6895 6894 ] final -107.58 input  -60.11 | X-H torsion
[ 7974 7965 7964 7962 ] final   68.46 input  175.53 | X-H torsion
[ 8008 7997 7996 7995 ] final   40.40 input   59.86 | X-H torsion
[ 10167 10162 10161 10158 ] final  -78.55 input  -65.29 | X-H torsion
[ 10718 10713 10712 10709 ] final  168.96 input   66.30 | X-H torsion
[ 10763 10752 10751 10750 ] final   28.47 input  -60.55 | X-H torsion
[ 11005 11000 10999 10996 ] final  -64.94 input  -57.11 | X-H torsion

> <Gold.Protein.ActiveResidues>
 VAL166  LYS551  ARG553  GLY616  TRP617  ASP618  TYR619  PRO620  LYS621  CYS622 
 ASP623  PHE694  ASN695  SER759  ASP760  ASP761  ALA762  ILE779  LEU786  VAL792 
 PHE793  MET794  SER795  GLU796  ALA797  LYS798  CYS799  TRP800  GLU811  SER814 

> <Gold.Protein.RotatedAtoms>
  150.7452  133.9805  159.3574 H   0  0  0  0  0  0  0  0  0  0  0  0  # atno 6907 bound_to 6896
  151.7746  135.0775  160.0374 H   0  0  0  0  0  0  0  0  0  0  0  0  # atno 6908 bound_to 6896
  152.3316  133.5928  159.5849 H   0  0  0  0  0  0  0  0  0  0  0  0  # atno 6909 bound_to 6896
  145.8024  139.2989  143.1147 H   0  0  0  0  0  0  0  0  0  0  0  0  # atno 7974 bound_to 7965
  155.2524  140.3353  155.4281 H   0  0  0  0  0  0  0  0  0  0  0  0  # atno 8008 bound_to 7997
  156.2210  140.1809  156.7521 H   0  0  0  0  0  0  0  0  0  0  0  0  # atno 8009 bound_to 7997
  154.5825  140.0651  156.9109 H   0  0  0  0  0  0  0  0  0  0  0  0  # atno 8010 bound_to 7997
  140.4672  143.2437  151.8260 H   0  0  0  0  0  0  0  0  0  0  0  0  # atno 10167 bound_to 10162
  157.0295  131.0255  151.2749 H   0  0  0  0  0  0  0  0  0  0  0  0  # atno 10718 bound_to 10713
  153.0490  135.6512  154.0742 H   0  0  0  0  0  0  0  0  0  0  0  0  # atno 10763 bound_to 10752
  154.0434  135.2901  155.3353 H   0  0  0  0  0  0  0  0  0  0  0  0  # atno 10764 bound_to 10752
  154.6766  135.5336  153.8274 H   0  0  0  0  0  0  0  0  0  0  0  0  # atno 10765 bound_to 10752
  141.1440  133.6673  156.5910 H   0  0  0  0  0  0  0  0  0  0  0  0  # atno 11005 bound_to 11000
  145.9864  140.8639  143.0088 LP  0  0  0  0  0  0  0  0  0  0  0  0  # atno 17320 bound_to 7965
  144.6767  140.2153  143.7372 LP  0  0  0  0  0  0  0  0  0  0  0  0  # atno 17321 bound_to 7965
  139.4813  144.4936  151.9152 LP  0  0  0  0  0  0  0  0  0  0  0  0  # atno 17342 bound_to 10162
  140.4022  144.2478  150.5892 LP  0  0  0  0  0  0  0  0  0  0  0  0  # atno 17343 bound_to 10162
  157.5188  130.7985  149.7786 LP  0  0  0  0  0  0  0  0  0  0  0  0  # atno 17370 bound_to 10713
  156.0074  130.3849  150.2382 LP  0  0  0  0  0  0  0  0  0  0  0  0  # atno 17371 bound_to 10713
  140.3763  134.7562  157.4632 LP  0  0  0  0  0  0  0  0  0  0  0  0  # atno 17394 bound_to 11000
  140.0672  134.5913  155.8682 LP  0  0  0  0  0  0  0  0  0  0  0  0  # atno 17395 bound_to 11000

$$$$
