#       Name:                AV-unprocessed.smi:1251
#       Creating user name   scv26
#       Creation time:       Fri Mar 27 04:36:50 2020


#       File generated by GOLD software.
#

@<TRIPOS>MOLECULE
AV-unprocessed.smi:1251
    45    46     1
SMALL
NO_CHARGES


@<TRIPOS>ATOM
      1 ****        -7.0770   2.8634   1.2518 C.3            1 S1                 0.0000
      2 ****        -5.7200   2.1833   1.0398 C.3            1 S1                 0.0000
      3 ****        -5.0490   2.6039  -0.2751 C.3            1 S1                 0.0000
      4 ****        -3.7193   1.9556  -0.4731 C.2            1 S1                 0.0000
      5 ****        -3.5757   0.7676  -1.0734 N.2            1 S1                 0.0000
      6 ****        -2.2508   0.3571  -1.1177 N.2            1 S1                 0.0000
      7 ****        -1.4329   1.2429  -0.5328 C.2            1 S1                 0.0000
      8 ****        -0.0264   1.0731  -0.4338 N.am           1 S1                 0.0000
      9 ****         0.7251   0.0578  -0.8946 C.2            1 S1                 0.0000
     10 ****         0.2969  -0.9285  -1.4946 O.2            1 S1                 0.0000
     11 ****         2.0229   0.2512  -0.6150 N.am           1 S1                 0.0000
     12 ****         3.1120  -0.6621  -0.9556 C.3            1 S1                 0.0000
     13 ****         4.3097   0.1663  -1.4455 C.3            1 S1                 0.0000
     14 ****         3.4644  -1.5387   0.2648 C.3            1 S1                 0.0000
     15 ****         4.5651  -2.5715   0.0076 C.3            1 S1                 0.0000
     16 ****         4.2356  -3.6411   1.0226 C.3            1 S1                 0.0000
     17 ****         2.7132  -3.6482   0.9679 C.3            1 S1                 0.0000
     18 ****         2.3339  -2.3058   0.6809 O.3            1 S1                 0.0000
     19 ****        -2.2240   2.6643   0.1266 S.3            1 S1                 0.0000
     20 ****        -7.5289   2.5439   2.1912 H              1 S1                 0.0000
     21 ****        -7.7711   2.6174   0.4477 H              1 S1                 0.0000
     22 ****        -6.9728   3.9483   1.2852 H              1 S1                 0.0000
     23 ****        -5.0643   2.4237   1.8776 H              1 S1                 0.0000
     24 ****        -5.8534   1.1008   1.0531 H              1 S1                 0.0000
     25 ****        -5.6913   2.3533  -1.1207 H              1 S1                 0.0000
     26 ****        -4.9133   3.6857  -0.2977 H              1 S1                 0.0000
     27 ****         0.4663   1.8141   0.0421 H              1 S1                 0.0000
     28 ****         2.2789   1.0898  -0.1151 H              1 S1                 0.0000
     29 ****         2.8039  -1.3125  -1.7764 H              1 S1                 0.0000
     30 ****         5.1293  -0.4738  -1.7723 H              1 S1                 0.0000
     31 ****         4.6903   0.8191  -0.6592 H              1 S1                 0.0000
     32 ****         4.0313   0.7929  -2.2934 H              1 S1                 0.0000
     33 ****         3.7584  -0.9100   1.1071 H              1 S1                 0.0000
     34 ****         4.4829  -2.9808  -1.0003 H              1 S1                 0.0000
     35 ****         5.5687  -2.1635   0.1302 H              1 S1                 0.0000
     36 ****         4.6763  -4.6102   0.7867 H              1 S1                 0.0000
     37 ****         4.5773  -3.3384   2.0134 H              1 S1                 0.0000
     38 ****         2.3649  -4.2868   0.1552 H              1 S1                 0.0000
     39 ****         2.2627  -4.0024   1.8954 H              1 S1                 0.0000
     40 ****        -4.3362   0.2367  -1.4472 LP             1 S1                 0.0000
     41 ****        -1.9432  -0.4975  -1.5361 LP             1 S1                 0.0000
     42 ****        -0.6829  -1.0187  -1.6732 LP             1 S1                 0.0000
     43 ****         0.9289  -1.6394  -1.8033 LP             1 S1                 0.0000
     44 ****         1.6512  -2.3069  -0.0498 LP             1 S1                 0.0000
     45 ****         1.9417  -1.8928   1.5029 LP             1 S1                 0.0000
@<TRIPOS>BOND
    1    1    2 1     
    2    1   20 1     
    3    1   21 1     
    4    1   22 1     
    5    2    3 1     
    6    2   23 1     
    7    2   24 1     
    8    3    4 1     
    9    3   25 1     
   10    3   26 1     
   11    4   19 1     
   12    4    5 2     
   13    5    6 1     
   14    6    7 2     
   15    7    8 1     
   16    7   19 1     
   17    8    9 am    
   18    8   27 1     
   19    9   10 2     
   20    9   11 am    
   21   11   12 1     
   22   11   28 1     
   23   12   13 1     
   24   12   14 1     
   25   12   29 1     
   26   13   30 1     
   27   13   31 1     
   28   13   32 1     
   29   14   18 1     
   30   14   15 1     
   31   14   33 1     
   32   15   16 1     
   33   15   34 1     
   34   15   35 1     
   35   16   17 1     
   36   16   36 1     
   37   16   37 1     
   38   17   18 1     
   39   17   38 1     
   40   17   39 1     
   41    5   40 1     
   42    6   41 1     
   43   10   42 1     
   44   10   43 1     
   45   18   44 1     
   46   18   45 1     
@<TRIPOS>SUBSTRUCTURE
      1 S1             1
@<TRIPOS>SET
LONE_PAIRS      STATIC     ATOMS    <user>   **** ""
6 40 41 42 43 44 45
DONOR_HYDROGENS      STATIC     ATOMS    <user>   **** ""
2 27 28
ATOM$BLUE        STATIC     ATOMS    COLORGROUP SYSTEM
6 40 41 42 43 44 45
ATOM$RED        STATIC     ATOMS    COLORGROUP SYSTEM
2 27 28
