AV-unprocessed.smi:3209|AV-procd|sdf|12271|dock5
  -GOLD-   2272018103D 1   1.00000     0.00000
 Structure written by MMmdl.
 37 39  0  0  0  0  0  0  0  0  2 V2000
  153.2142  138.0569  156.5767 C   0  0  0  0  0  0  0  0  0  0  0  0
  152.0747  138.6808  155.8461 C   0  0  0  0  0  0  0  0  0  0  0  0
  151.5724  139.8817  156.1451 N   0  0  0  0  0  0  0  0  0  0  0  0
  150.5074  140.2424  155.3137 C   0  0  0  0  0  0  0  0  0  0  0  0
  149.8206  141.5598  155.5095 C   0  0  0  0  0  0  0  0  0  0  0  0
  149.2269  141.7024  156.9175 C   0  0  0  0  0  0  0  0  0  0  0  0
  149.7653  142.8956  157.6009 N   0  3  0  0  0  0  0  0  0  0  0  0
  151.2391  142.9210  157.7246 C   0  0  1  0  0  0  0  0  0  0  0  0
  151.9028  144.1735  157.1115 C   0  0  0  0  0  0  0  0  0  0  0  0
  152.7785  144.6925  158.2690 C   0  0  1  0  0  0  0  0  0  0  0  0
  151.8747  145.3661  159.3164 C   0  0  0  0  0  0  0  0  0  0  0  0
  151.1477  144.1676  159.9528 C   0  0  0  0  0  0  0  0  0  0  0  0
  151.7324  142.9602  159.1873 C   0  0  2  0  0  0  0  0  0  0  0  0
  153.1775  143.4055  158.9857 C   0  0  0  0  0  0  0  0  0  0  0  0
  150.2103  139.2898  154.3709 C   0  0  0  0  0  0  0  0  0  0  0  0
  151.2578  137.9033  154.4959 S   0  0  0  0  0  0  0  0  0  0  0  0
  153.4482  138.6218  157.4796 H   0  0  0  0  0  0  0  0  0  0  0  0
  154.0975  138.0342  155.9387 H   0  0  0  0  0  0  0  0  0  0  0  0
  152.9605  137.0355  156.8607 H   0  0  0  0  0  0  0  0  0  0  0  0
  150.5243  142.3729  155.3268 H   0  0  0  0  0  0  0  0  0  0  0  0
  149.0288  141.6775  154.7686 H   0  0  0  0  0  0  0  0  0  0  0  0
  148.1408  141.7834  156.8569 H   0  0  0  0  0  0  0  0  0  0  0  0
  149.4517  140.8134  157.5079 H   0  0  0  0  0  0  0  0  0  0  0  0
  149.4688  143.7238  157.1043 H   0  0  0  0  0  0  0  0  0  0  0  0
  151.6410  142.0242  157.2491 H   0  0  0  0  0  0  0  0  0  0  0  0
  152.5150  143.8970  156.2521 H   0  0  0  0  0  0  0  0  0  0  0  0
  151.1854  144.9252  156.7793 H   0  0  0  0  0  0  0  0  0  0  0  0
  153.6101  145.3183  157.9436 H   0  0  0  0  0  0  0  0  0  0  0  0
  152.4716  145.8919  160.0631 H   0  0  0  0  0  0  0  0  0  0  0  0
  151.1859  146.0862  158.8730 H   0  0  0  0  0  0  0  0  0  0  0  0
  151.3900  144.1003  161.0143 H   0  0  0  0  0  0  0  0  0  0  0  0
  150.0634  144.2447  159.8709 H   0  0  0  0  0  0  0  0  0  0  0  0
  151.6173  142.0118  159.7129 H   0  0  0  0  0  0  0  0  0  0  0  0
  153.7608  142.7258  158.3619 H   0  0  0  0  0  0  0  0  0  0  0  0
  153.7128  143.5791  159.9211 H   0  0  0  0  0  0  0  0  0  0  0  0
  149.4425  139.3179  153.6117 H   0  0  0  0  0  0  0  0  0  0  0  0
  149.3731  142.9206  158.5313 H   0  0  0  0  0  0  0  0  0  0  0  0
  1  2  1  0  0  0  0
  1 17  1  0  0  0  0
  1 18  1  0  0  0  0
  1 19  1  0  0  0  0
  2 16  1  0  0  0  0
  2  3  2  0  0  0  0
  3  4  1  0  0  0  0
  4  5  1  0  0  0  0
  4 15  2  0  0  0  0
  5  6  1  0  0  0  0
  5 20  1  0  0  0  0
  5 21  1  0  0  0  0
  6  7  1  0  0  0  0
  6 22  1  0  0  0  0
  6 23  1  0  0  0  0
  7  8  1  0  0  0  0
  7 24  1  0  0  0  0
  7 37  1  0  0  0  0
  8 13  1  0  0  0  0
  8  9  1  0  0  0  0
  8 25  1  0  0  0  0
  9 10  1  0  0  0  0
  9 26  1  0  0  0  0
  9 27  1  0  0  0  0
 10 14  1  0  0  0  0
 10 11  1  0  0  0  0
 10 28  1  0  0  0  0
 11 12  1  0  0  0  0
 11 29  1  0  0  0  0
 11 30  1  0  0  0  0
 12 13  1  0  0  0  0
 12 31  1  0  0  0  0
 12 32  1  0  0  0  0
 13 14  1  0  0  0  0
 13 33  1  0  0  0  0
 14 34  1  0  0  0  0
 14 35  1  0  0  0  0
 15 16  1  0  0  0  0
 15 36  1  0  0  0  0
M  CHG  1   7   1
M  END
> <s_m_source_file>
AV-unprocessed.smi

> <i_m_source_file_index>
3209

> <i_lp_mmshare_version>
43012

> <i_f3d_flags>
0

> <s_epik_input>
W0NIM11jMW5jKFtjSF1zMSlbQ0gyXVtDSDJdW05IXVtDQEhdKFtDSDJdW0NASF0yMylbQ0BIXShbQ0gyXTMpW0NIMl1bQ0gyXTI=

> <s_epik_cmdline>
J2VwaWtfcHl0aG9uJywgJy1waCcsICc3LjAnLCAnLXRuJywgJzgnLCAnLW1hJywgJzIwMCcsICctbWV0YWxfYmluZGluZycsICctaW1hZScsICc8aW5maWxlLm1hZT4nLCAnLW9tYWUnLCAnPG91dGZpbGUubWFlPic=

> <r_lp_tautomer_probability>
1

> <r_epik_Ionization_Penalty>
0.000342479

> <r_epik_Ionization_Penalty_Charging>
0.000317129

> <r_epik_Ionization_Penalty_Neutral>
2.535e-05

> <r_epik_State_Penalty>
-0

> <r_epik_Charging_Adjusted_Penalty>
0.000317129

> <i_epik_Tot_Q>
1

> <i_epik_Tot_abs_Q>
1

> <r_epik_Metal_State_Penalty>
-0

> <b_epik_Metal_Only>
0

> <s_lp_Force_Field>
OPLS_2005

> <r_lp_Energy>
49.0881

> <b_lp_Chiralities_Consistent>
1

> <s_lp_Variant>
AV-unprocessed.smi:3209-4

> <Gold.Version>
5.8.1

> <Gold.Id.Protein>
6NUR|6NUR_protein|mol2

> <Gold.PLP.Fitness>
47.8190

> <Gold.PLP.PLP>
-41.0507

> <Gold.PLP.part.hbond>
-1.0000

> <Gold.PLP.part.metal>
0.0000

> <Gold.PLP.part.buried>
-3.0578

> <Gold.PLP.part.nonpolar>
-37.0746

> <Gold.PLP.part.repulsive>
0.0306

> <Gold.PLP.ligand.clash>
0.0000

> <Gold.PLP.ligand.torsion>
1.1231

> <Gold.PLP.Chemscore.Hbond>
2.0000

> <Gold.PLP.Chemscore.CHOScore>
0.9995

> <Gold.PLP.Chemscore.Metal>
0.0000

> <Gold.Chemscore.Hbonds>
donor molecule, donor type, donor heavy atom, donor atom, acceptor molecule, acceptor atom, score
      L1  H     7    24       P1  8028  2.00
      L1  C    15    36       P1  7957  0.92

> <Gold.PLP.Chemscore.Internal.Correction>
0.0159

> <Gold.Rescore>
     Score         DG    S(hbond)    S(metal)    S(lipo)     H(rot)  DE(clash)    DE(int)     intcor
     19.12     -20.32       0.94        0.00     128.62       1.31       0.07       1.13       ----

> <Gold.Chemscore.Fitness>
19.1228

> <Gold.Chemscore.DG>
-20.3201

> <Gold.Chemscore.ZeroCoef>
-5.4800

> <Gold.Chemscore.Hbond>
0.9423

> <Gold.Chemscore.Metal>
0.0000

> <Gold.Chemscore.Lipo>
128.6192

> <Gold.Chemscore.Internal_Hbond>
0.0000

> <Gold.Chemscore.DEClash>
0.0665

> <Gold.Chemscore.DEInternal>
1.1307

> <Gold.Chemscore.Rot>
1.3108

> <Gold.Chemscore.Internal.Correction>
   9.000000E+99

> <Gold.Chemscore.Hbonds>
donor molecule, donor type, donor heavy atom, donor atom, acceptor molecule, acceptor atom, score
      L1  H     7    24       P1  8028  0.78

> <Gold.Chemscore.Hbond.Weighted>
-3.1474

> <Gold.Chemscore.Metal.Weighted>
-0.0000

> <Gold.Chemscore.Lipo.Weighted>
-15.0485

> <Gold.Chemscore.Internal_Hbond.Weighted>
0.0000

> <Gold.Chemscore.DEClash.Weighted>
0.0665

> <Gold.Chemscore.DEInternal.Weighted>
1.1307

> <Gold.Chemscore.Rot.Weighted>
3.3558

> <Gold.Chemscore.Internal.Correction.Weighted>
   9.000000E+99

> <Gold.Protein.RotatedTorsions>
[ 6907 6896 6895 6894 ] final  146.39 input  -60.11 | X-H torsion
[ 7974 7965 7964 7962 ] final  -20.99 input  175.53 | X-H torsion
[ 8008 7997 7996 7995 ] final   44.65 input   59.86 | X-H torsion
[ 10167 10162 10161 10158 ] final -156.84 input  -65.29 | X-H torsion
[ 10718 10713 10712 10709 ] final -162.08 input   66.30 | X-H torsion
[ 10763 10752 10751 10750 ] final   98.50 input  -60.55 | X-H torsion
[ 11005 11000 10999 10996 ] final   18.50 input  -57.11 | X-H torsion

> <Gold.Protein.ActiveResidues>
 VAL166  LYS551  ARG553  GLY616  TRP617  ASP618  TYR619  PRO620  LYS621  CYS622 
 ASP623  PHE694  ASN695  SER759  ASP760  ASP761  ALA762  ILE779  LEU786  VAL792 
 PHE793  MET794  SER795  GLU796  ALA797  LYS798  CYS799  TRP800  GLU811  SER814 

> <Gold.Protein.RotatedAtoms>
  152.1685  133.4628  159.4896 H   0  0  0  0  0  0  0  0  0  0  0  0  # atno 6907 bound_to 6896
  150.6916  134.1982  159.4321 H   0  0  0  0  0  0  0  0  0  0  0  0  # atno 6908 bound_to 6896
  151.9888  134.9990  160.0611 H   0  0  0  0  0  0  0  0  0  0  0  0  # atno 6909 bound_to 6896
  146.1758  140.4279  142.8514 H   0  0  0  0  0  0  0  0  0  0  0  0  # atno 7974 bound_to 7965
  155.3227  140.3398  155.4241 H   0  0  0  0  0  0  0  0  0  0  0  0  # atno 8008 bound_to 7997
  156.1901  140.1694  156.8146 H   0  0  0  0  0  0  0  0  0  0  0  0  # atno 8009 bound_to 7997
  154.5431  140.0720  156.8528 H   0  0  0  0  0  0  0  0  0  0  0  0  # atno 8010 bound_to 7997
  139.6818  143.9568  152.2340 H   0  0  0  0  0  0  0  0  0  0  0  0  # atno 10167 bound_to 10162
  156.6053  130.8828  151.2923 H   0  0  0  0  0  0  0  0  0  0  0  0  # atno 10718 bound_to 10713
  153.2899  135.4146  155.1157 H   0  0  0  0  0  0  0  0  0  0  0  0  # atno 10763 bound_to 10752
  154.8517  135.3515  154.5996 H   0  0  0  0  0  0  0  0  0  0  0  0  # atno 10764 bound_to 10752
  153.6418  135.7056  153.5297 H   0  0  0  0  0  0  0  0  0  0  0  0  # atno 10765 bound_to 10752
  140.4241  134.1488  155.7675 H   0  0  0  0  0  0  0  0  0  0  0  0  # atno 11005 bound_to 11000
  144.8233  140.6587  143.6338 LP  0  0  0  0  0  0  0  0  0  0  0  0  # atno 17320 bound_to 7965
  145.4216  139.1563  143.4071 LP  0  0  0  0  0  0  0  0  0  0  0  0  # atno 17321 bound_to 7965
  139.9360  144.6711  150.8314 LP  0  0  0  0  0  0  0  0  0  0  0  0  # atno 17342 bound_to 10162
  140.7654  143.3276  151.2481 LP  0  0  0  0  0  0  0  0  0  0  0  0  # atno 17343 bound_to 10162
  157.7269  130.9635  150.1674 LP  0  0  0  0  0  0  0  0  0  0  0  0  # atno 17370 bound_to 10713
  156.2435  130.3693  149.8311 LP  0  0  0  0  0  0  0  0  0  0  0  0  # atno 17371 bound_to 10713
  141.1772  133.8489  157.1381 LP  0  0  0  0  0  0  0  0  0  0  0  0  # atno 17394 bound_to 11000
  140.0179  134.9959  157.0532 LP  0  0  0  0  0  0  0  0  0  0  0  0  # atno 17395 bound_to 11000

$$$$
