AV-unprocessed.smi:273|AV-procd|sdf|2057|dock7
  -GOLD-   2262021303D 1   1.00000     0.00000
 Structure written by MMmdl.
 59 62  0  0  0  0  0  0  0  0  1 V2000
  145.5317  134.8858  151.4506 C   0  0  0  0  0  0  0  0  0  0  0  0
  146.3240  133.6860  151.9863 C   0  0  0  0  0  0  0  0  0  0  0  0
  146.6955  133.8736  153.3837 N   0  0  0  0  0  0  0  0  0  0  0  0
  147.9409  133.7704  153.8737 C   0  0  0  0  0  0  0  0  0  0  0  0
  148.9113  133.4833  153.1730 O   0  0  0  0  0  0  0  0  0  0  0  0
  148.1032  134.0387  155.3818 C   0  0  0  0  0  0  0  0  0  0  0  0
  147.7149  135.4821  155.7738 C   0  0  0  0  0  0  0  0  0  0  0  0
  148.7872  136.5213  155.3962 C   0  0  0  0  0  0  0  0  0  0  0  0
  150.0976  136.1359  155.9185 N   0  0  0  0  0  0  0  0  0  0  0  0
  151.0145  137.1374  155.9385 C   0  0  0  0  0  0  0  0  0  0  0  0
  151.6758  137.4751  154.7984 N   0  0  0  0  0  0  0  0  0  0  0  0
  152.5742  138.4641  154.8043 C   0  0  0  0  0  0  0  0  0  0  0  0
  152.9613  139.2333  155.8231 N   0  0  0  0  0  0  0  0  0  0  0  0
  152.3063  138.8980  156.9708 C   0  0  0  0  0  0  0  0  0  0  0  0
  151.3297  137.8721  157.1171 C   0  0  0  0  0  0  0  0  0  0  0  0
  150.9016  137.8150  158.4388 N   0  0  0  0  0  0  0  0  0  0  0  0
  151.5769  138.7589  159.0357 C   0  0  0  0  0  0  0  0  0  0  0  0
  152.4369  139.4654  158.2260 N   0  0  0  0  0  0  0  0  0  0  0  0
  153.3098  140.5575  158.6231 C   0  0  0  0  0  0  0  0  0  0  0  0
  152.7575  141.3996  159.8025 C   0  0  1  0  0  0  0  0  0  0  0  0
  153.5352  141.1086  161.1122 C   0  0  0  0  0  0  0  0  0  0  0  0
  154.9308  141.0763  160.9002 O   0  0  0  0  0  0  0  0  0  0  0  0
  152.7641  142.9101  159.4374 C   0  0  1  0  0  0  0  0  0  0  0  0
  151.7770  143.3114  158.3533 C   0  0  0  0  0  0  0  0  0  0  0  0
  151.6874  144.8228  158.5317 C   0  0  0  0  0  0  0  0  0  0  0  0
  151.8828  145.0575  159.9207 O   0  0  0  0  0  0  0  0  0  0  0  0
  152.3300  143.8644  160.5564 C   0  0  0  0  0  0  0  0  0  0  0  0
  150.5583  134.8044  155.5205 C   0  0  0  0  0  0  0  0  0  0  0  0
  149.5260  133.7250  155.8968 C   0  0  0  0  0  0  0  0  0  0  0  0
  145.2330  134.7218  150.4152 H   0  0  0  0  0  0  0  0  0  0  0  0
  146.1248  135.8002  151.4824 H   0  0  0  0  0  0  0  0  0  0  0  0
  144.6265  135.0523  152.0350 H   0  0  0  0  0  0  0  0  0  0  0  0
  145.7172  132.7833  151.9134 H   0  0  0  0  0  0  0  0  0  0  0  0
  147.2117  133.5130  151.3757 H   0  0  0  0  0  0  0  0  0  0  0  0
  145.9529  134.1116  154.0251 H   0  0  0  0  0  0  0  0  0  0  0  0
  147.4164  133.3661  155.8985 H   0  0  0  0  0  0  0  0  0  0  0  0
  146.7621  135.7566  155.3192 H   0  0  0  0  0  0  0  0  0  0  0  0
  147.5530  135.5219  156.8517 H   0  0  0  0  0  0  0  0  0  0  0  0
  148.8565  136.6235  154.3131 H   0  0  0  0  0  0  0  0  0  0  0  0
  148.4802  137.4962  155.7727 H   0  0  0  0  0  0  0  0  0  0  0  0
  153.0494  138.6691  153.8563 H   0  0  0  0  0  0  0  0  0  0  0  0
  151.4615  138.9690  160.0891 H   0  0  0  0  0  0  0  0  0  0  0  0
  154.2854  140.1451  158.8832 H   0  0  0  0  0  0  0  0  0  0  0  0
  153.4611  141.1785  157.7404 H   0  0  0  0  0  0  0  0  0  0  0  0
  151.7213  141.0942  159.9564 H   0  0  0  0  0  0  0  0  0  0  0  0
  153.3646  141.8810  161.8608 H   0  0  0  0  0  0  0  0  0  0  0  0
  153.2102  140.1664  161.5544 H   0  0  0  0  0  0  0  0  0  0  0  0
  155.3269  141.7791  161.3924 H   0  0  0  0  0  0  0  0  0  0  0  0
  153.7649  143.1959  159.1093 H   0  0  0  0  0  0  0  0  0  0  0  0
  152.0999  143.0365  157.3491 H   0  0  0  0  0  0  0  0  0  0  0  0
  150.8033  142.8544  158.5370 H   0  0  0  0  0  0  0  0  0  0  0  0
  152.4875  145.3190  157.9810 H   0  0  0  0  0  0  0  0  0  0  0  0
  150.7358  145.2283  158.1870 H   0  0  0  0  0  0  0  0  0  0  0  0
  151.4939  143.4466  161.1188 H   0  0  0  0  0  0  0  0  0  0  0  0
  153.1358  144.0809  161.2579 H   0  0  0  0  0  0  0  0  0  0  0  0
  150.7509  134.7922  154.4476 H   0  0  0  0  0  0  0  0  0  0  0  0
  151.5046  134.5776  156.0137 H   0  0  0  0  0  0  0  0  0  0  0  0
  149.4931  133.6358  156.9832 H   0  0  0  0  0  0  0  0  0  0  0  0
  149.8594  132.7540  155.5289 H   0  0  0  0  0  0  0  0  0  0  0  0
  1  2  1  0  0  0  0
  1 30  1  0  0  0  0
  1 31  1  0  0  0  0
  1 32  1  0  0  0  0
  2  3  1  0  0  0  0
  2 33  1  0  0  0  0
  2 34  1  0  0  0  0
  3  4  1  0  0  0  0
  3 35  1  0  0  0  0
  4  5  2  0  0  0  0
  4  6  1  0  0  0  0
  6 29  1  0  0  0  0
  6  7  1  0  0  0  0
  6 36  1  0  0  0  0
  7  8  1  0  0  0  0
  7 37  1  0  0  0  0
  7 38  1  0  0  0  0
  8  9  1  0  0  0  0
  8 39  1  0  0  0  0
  8 40  1  0  0  0  0
  9 10  1  0  0  0  0
  9 28  1  0  0  0  0
 10 15  1  0  0  0  0
 10 11  2  0  0  0  0
 11 12  1  0  0  0  0
 12 13  2  0  0  0  0
 12 41  1  0  0  0  0
 13 14  1  0  0  0  0
 14 18  1  0  0  0  0
 14 15  2  0  0  0  0
 15 16  1  0  0  0  0
 16 17  2  0  0  0  0
 17 18  1  0  0  0  0
 17 42  1  0  0  0  0
 18 19  1  0  0  0  0
 19 20  1  0  0  0  0
 19 43  1  0  0  0  0
 19 44  1  0  0  0  0
 20 21  1  0  0  0  0
 20 23  1  0  0  0  0
 20 45  1  0  0  0  0
 21 22  1  0  0  0  0
 21 46  1  0  0  0  0
 21 47  1  0  0  0  0
 22 48  1  0  0  0  0
 23 27  1  0  0  0  0
 23 24  1  0  0  0  0
 23 49  1  0  0  0  0
 24 25  1  0  0  0  0
 24 50  1  0  0  0  0
 24 51  1  0  0  0  0
 25 26  1  0  0  0  0
 25 52  1  0  0  0  0
 25 53  1  0  0  0  0
 26 27  1  0  0  0  0
 27 54  1  0  0  0  0
 27 55  1  0  0  0  0
 28 29  1  0  0  0  0
 28 56  1  0  0  0  0
 28 57  1  0  0  0  0
 29 58  1  0  0  0  0
 29 59  1  0  0  0  0
M  END
> <s_m_source_file>
AV-unprocessed.smi

> <i_m_source_file_index>
273

> <i_lp_mmshare_version>
43012

> <i_f3d_flags>
0

> <s_epik_input>
W0NIM11bQ0gyXVtOSF1DKD1PKVtDSF0xW0NIMl1bQ0gyXU4oW0NIMl1bQ0gyXTEpYyhuW2NIXW4yKWMoYzIzKW5bY0hdbjNbQ0gyXVtDQEhdKFtDSDJdW09IXSlbQ0BASF00W0NIMl1bQ0gyXU9bQ0gyXTQ=

> <s_epik_cmdline>
J2VwaWtfcHl0aG9uJywgJy1waCcsICc3LjAnLCAnLXRuJywgJzgnLCAnLW1hJywgJzIwMCcsICctbWV0YWxfYmluZGluZycsICctaW1hZScsICc8aW5maWxlLm1hZT4nLCAnLW9tYWUnLCAnPG91dGZpbGUubWFlPic=

> <r_lp_tautomer_probability>
1

> <r_epik_Ionization_Penalty>
0.00226556

> <r_epik_Ionization_Penalty_Charging>
0

> <r_epik_Ionization_Penalty_Neutral>
0.00226556

> <r_epik_State_Penalty>
0.00139883

> <r_epik_Charging_Adjusted_Penalty>
0.00139883

> <i_epik_Tot_Q>
0

> <i_epik_Tot_abs_Q>
0

> <r_epik_Metal_State_Penalty>
-0

> <b_epik_Metal_Only>
0

> <s_lp_Force_Field>
OPLS_2005

> <r_lp_Energy>
41.2023

> <b_lp_Chiralities_Consistent>
1

> <s_lp_Variant>
AV-unprocessed.smi:273-4

> <Gold.Version>
5.8.1

> <Gold.Id.Protein>
6NUR|6NUR_protein|mol2

> <Gold.PLP.Fitness>
47.7253

> <Gold.PLP.PLP>
-44.6751

> <Gold.PLP.part.hbond>
-3.0000

> <Gold.PLP.part.metal>
0.0000

> <Gold.PLP.part.buried>
-6.6449

> <Gold.PLP.part.nonpolar>
-35.4813

> <Gold.PLP.part.repulsive>
0.4785

> <Gold.PLP.ligand.clash>
0.0000

> <Gold.PLP.ligand.torsion>
1.6536

> <Gold.PLP.Chemscore.Hbond>
1.9199

> <Gold.PLP.Chemscore.CHOScore>
0.0000

> <Gold.PLP.Chemscore.Metal>
0.0000

> <Gold.Chemscore.Hbonds>
donor molecule, donor type, donor heavy atom, donor atom, acceptor molecule, acceptor atom, score
      P1  H  7997  8008       L1    13  1.00
      P1  H 10752 10763       L1    11  0.44

> <Gold.PLP.Chemscore.Internal.Correction>
0.5978

> <Gold.Rescore>
     Score         DG    S(hbond)    S(metal)    S(lipo)     H(rot)  DE(clash)    DE(int)     intcor
     11.46     -13.50       1.41        0.00      98.91       3.22       0.23       1.81       ----

> <Gold.Chemscore.Fitness>
11.4579

> <Gold.Chemscore.DG>
-13.4988

> <Gold.Chemscore.ZeroCoef>
-5.4800

> <Gold.Chemscore.Hbond>
1.4075

> <Gold.Chemscore.Metal>
0.0000

> <Gold.Chemscore.Lipo>
98.9086

> <Gold.Chemscore.Internal_Hbond>
0.0000

> <Gold.Chemscore.DEClash>
0.2319

> <Gold.Chemscore.DEInternal>
1.8090

> <Gold.Chemscore.Rot>
3.2244

> <Gold.Chemscore.Internal.Correction>
   9.000000E+99

> <Gold.Chemscore.Hbonds>
donor molecule, donor type, donor heavy atom, donor atom, acceptor molecule, acceptor atom, score
      P1  H  7997  8008       L1    13  0.74
      P1  H 10752 10763       L1    11  0.05

> <Gold.Chemscore.Hbond.Weighted>
-4.7010

> <Gold.Chemscore.Metal.Weighted>
-0.0000

> <Gold.Chemscore.Lipo.Weighted>
-11.5723

> <Gold.Chemscore.Internal_Hbond.Weighted>
0.0000

> <Gold.Chemscore.DEClash.Weighted>
0.2319

> <Gold.Chemscore.DEInternal.Weighted>
1.8090

> <Gold.Chemscore.Rot.Weighted>
8.2545

> <Gold.Chemscore.Internal.Correction.Weighted>
   9.000000E+99

> <Gold.Protein.RotatedTorsions>
[ 6907 6896 6895 6894 ] final  130.39 input  -60.11 | X-H torsion
[ 7974 7965 7964 7962 ] final  -60.15 input  175.53 | X-H torsion
[ 8008 7997 7996 7995 ] final  -34.67 input   59.86 | X-H torsion
[ 10167 10162 10161 10158 ] final   18.91 input  -65.29 | X-H torsion
[ 10718 10713 10712 10709 ] final -170.40 input   66.30 | X-H torsion
[ 10763 10752 10751 10750 ] final   53.17 input  -60.55 | X-H torsion
[ 11005 11000 10999 10996 ] final -101.56 input  -57.11 | X-H torsion

> <Gold.Protein.ActiveResidues>
 VAL166  LYS551  ARG553  GLY616  TRP617  ASP618  TYR619  PRO620  LYS621  CYS622 
 ASP623  PHE694  ASN695  SER759  ASP760  ASP761  ALA762  ILE779  LEU786  VAL792 
 PHE793  MET794  SER795  GLU796  ALA797  LYS798  CYS799  TRP800  GLU811  SER814 

> <Gold.Protein.RotatedAtoms>
  152.3531  133.6203  159.5958 H   0  0  0  0  0  0  0  0  0  0  0  0  # atno 6907 bound_to 6896
  150.7550  133.9543  159.3504 H   0  0  0  0  0  0  0  0  0  0  0  0  # atno 6908 bound_to 6896
  151.7392  135.0859  160.0364 H   0  0  0  0  0  0  0  0  0  0  0  0  # atno 6909 bound_to 6896
  145.8190  140.8552  143.0142 H   0  0  0  0  0  0  0  0  0  0  0  0  # atno 7974 bound_to 7965
  154.4114  140.1677  156.2088 H   0  0  0  0  0  0  0  0  0  0  0  0  # atno 8008 bound_to 7997
  155.9462  140.3404  155.6345 H   0  0  0  0  0  0  0  0  0  0  0  0  # atno 8009 bound_to 7997
  155.6927  140.0735  157.2432 H   0  0  0  0  0  0  0  0  0  0  0  0  # atno 8010 bound_to 7997
  140.5618  143.9322  150.6648 H   0  0  0  0  0  0  0  0  0  0  0  0  # atno 10167 bound_to 10162
  156.7257  130.9287  151.3101 H   0  0  0  0  0  0  0  0  0  0  0  0  # atno 10718 bound_to 10713
  152.9793  135.5788  154.4698 H   0  0  0  0  0  0  0  0  0  0  0  0  # atno 10763 bound_to 10752
  154.4263  135.2772  155.1944 H   0  0  0  0  0  0  0  0  0  0  0  0  # atno 10764 bound_to 10752
  154.3672  135.6176  153.5775 H   0  0  0  0  0  0  0  0  0  0  0  0  # atno 10765 bound_to 10752
  141.1226  133.8487  157.1247 H   0  0  0  0  0  0  0  0  0  0  0  0  # atno 11005 bound_to 11000
  144.6749  140.0505  143.7479 LP  0  0  0  0  0  0  0  0  0  0  0  0  # atno 17320 bound_to 7965
  145.9696  139.2860  143.1107 LP  0  0  0  0  0  0  0  0  0  0  0  0  # atno 17321 bound_to 7965
  140.2775  143.3412  152.1181 LP  0  0  0  0  0  0  0  0  0  0  0  0  # atno 17342 bound_to 10162
  139.5074  144.6831  151.5957 LP  0  0  0  0  0  0  0  0  0  0  0  0  # atno 17343 bound_to 10162
  157.6880  130.9204  150.0437 LP  0  0  0  0  0  0  0  0  0  0  0  0  # atno 17370 bound_to 10713
  156.1564  130.3643  149.9363 LP  0  0  0  0  0  0  0  0  0  0  0  0  # atno 17371 bound_to 10713
  140.0196  134.9952  157.0564 LP  0  0  0  0  0  0  0  0  0  0  0  0  # atno 17394 bound_to 11000
  140.4462  134.1629  155.7177 LP  0  0  0  0  0  0  0  0  0  0  0  0  # atno 17395 bound_to 11000

$$$$
