AV-unprocessed.smi:2027|AV-procd|sdf|8212|dock6
  -GOLD-   2272010473D 1   1.00000     0.00000
 Structure written by MMmdl.
 50 52  0  0  0  0  0  0  0  0  2 V2000
  153.3737  142.9632  162.9286 C   0  0  0  0  0  0  0  0  0  0  0  0
  152.9514  142.7286  161.4887 C   0  0  0  0  0  0  0  0  0  0  0  0
  152.2644  143.7527  160.7988 C   0  0  0  0  0  0  0  0  0  0  0  0
  151.8579  143.5762  159.4584 C   0  0  0  0  0  0  0  0  0  0  0  0
  151.1851  144.4311  158.6025 N   0  0  0  0  0  0  0  0  0  0  0  0
  151.1057  143.6969  157.4968 C   0  0  0  0  0  0  0  0  0  0  0  0
  151.6419  142.4617  157.5373 N   0  0  0  0  0  0  0  0  0  0  0  0
  151.6767  141.4847  156.4639 C   0  0  0  0  0  0  0  0  0  0  0  0
  150.3928  141.4972  155.6127 C   0  0  1  0  0  0  0  0  0  0  0  0
  150.4146  140.4036  154.7154 O   0  0  0  0  0  0  0  0  0  0  0  0
  149.1277  141.3915  156.4872 C   0  0  0  0  0  0  0  0  0  0  0  0
  147.9637  142.0854  155.8787 N   0  3  1  0  0  0  0  0  0  0  0  0
  147.6492  141.5626  154.5277 C   0  0  0  0  0  0  0  0  0  0  0  0
  146.7758  142.1210  156.7710 C   0  0  0  0  0  0  0  0  0  0  0  0
  145.6601  142.9293  156.1666 C   0  0  0  0  0  0  0  0  0  0  0  0
  144.8480  142.5899  155.0469 C   0  0  0  0  0  0  0  0  0  0  0  0
  143.9446  143.5147  154.7681 N   0  0  0  0  0  0  0  0  0  0  0  0
  144.1525  144.4774  155.6895 N   0  0  0  0  0  0  0  0  0  0  0  0
  143.3232  145.6635  155.6831 C   0  0  0  0  0  0  0  0  0  0  0  0
  145.1831  144.1531  156.5450 C   0  0  0  0  0  0  0  0  0  0  0  0
  152.1593  142.3365  158.8220 C   0  0  0  0  0  0  0  0  0  0  0  0
  152.8415  141.3095  159.4976 C   0  0  0  0  0  0  0  0  0  0  0  0
  153.2407  141.5028  160.8368 C   0  0  0  0  0  0  0  0  0  0  0  0
  153.9778  140.3885  161.5585 C   0  0  0  0  0  0  0  0  0  0  0  0
  153.0782  143.9543  163.2741 H   0  0  0  0  0  0  0  0  0  0  0  0
  154.4566  142.8850  163.0268 H   0  0  0  0  0  0  0  0  0  0  0  0
  152.9115  142.2280  163.5878 H   0  0  0  0  0  0  0  0  0  0  0  0
  152.0445  144.6868  161.2948 H   0  0  0  0  0  0  0  0  0  0  0  0
  150.6264  144.0778  156.6066 H   0  0  0  0  0  0  0  0  0  0  0  0
  152.5509  141.6805  155.8409 H   0  0  0  0  0  0  0  0  0  0  0  0
  151.8246  140.4997  156.9082 H   0  0  0  0  0  0  0  0  0  0  0  0
  150.3735  142.4142  155.0242 H   0  0  0  0  0  0  0  0  0  0  0  0
  149.5999  139.9303  154.7982 H   0  0  0  0  0  0  0  0  0  0  0  0
  148.8996  140.3342  156.6347 H   0  0  0  0  0  0  0  0  0  0  0  0
  149.3098  141.8012  157.4821 H   0  0  0  0  0  0  0  0  0  0  0  0
  147.3237  140.5228  154.5775 H   0  0  0  0  0  0  0  0  0  0  0  0
  148.5242  141.6160  153.8791 H   0  0  0  0  0  0  0  0  0  0  0  0
  146.8617  142.1448  154.0495 H   0  0  0  0  0  0  0  0  0  0  0  0
  146.4572  141.0998  156.9858 H   0  0  0  0  0  0  0  0  0  0  0  0
  147.0484  142.5486  157.7352 H   0  0  0  0  0  0  0  0  0  0  0  0
  144.8854  141.6999  154.4360 H   0  0  0  0  0  0  0  0  0  0  0  0
  143.7339  146.4107  156.3628 H   0  0  0  0  0  0  0  0  0  0  0  0
  142.3134  145.4072  156.0052 H   0  0  0  0  0  0  0  0  0  0  0  0
  143.2832  146.0846  154.6778 H   0  0  0  0  0  0  0  0  0  0  0  0
  145.4857  144.8108  157.3468 H   0  0  0  0  0  0  0  0  0  0  0  0
  153.0570  140.3814  158.9892 H   0  0  0  0  0  0  0  0  0  0  0  0
  154.1198  139.5215  160.9128 H   0  0  0  0  0  0  0  0  0  0  0  0
  153.4166  140.0642  162.4352 H   0  0  0  0  0  0  0  0  0  0  0  0
  154.9617  140.7283  161.8829 H   0  0  0  0  0  0  0  0  0  0  0  0
  148.2597  143.0424  155.7467 H   0  0  0  0  0  0  0  0  0  0  0  0
  1  2  1  0  0  0  0
  1 25  1  0  0  0  0
  1 26  1  0  0  0  0
  1 27  1  0  0  0  0
  2 23  1  0  0  0  0
  2  3  2  0  0  0  0
  3  4  1  0  0  0  0
  3 28  1  0  0  0  0
  4 21  2  0  0  0  0
  4  5  1  0  0  0  0
  5  6  2  0  0  0  0
  6  7  1  0  0  0  0
  6 29  1  0  0  0  0
  7  8  1  0  0  0  0
  7 21  1  0  0  0  0
  8  9  1  0  0  0  0
  8 30  1  0  0  0  0
  8 31  1  0  0  0  0
  9 10  1  0  0  0  0
  9 11  1  0  0  0  0
  9 32  1  0  0  0  0
 10 33  1  0  0  0  0
 11 12  1  0  0  0  0
 11 34  1  0  0  0  0
 11 35  1  0  0  0  0
 12 13  1  0  0  0  0
 12 14  1  0  0  0  0
 12 50  1  0  0  0  0
 13 36  1  0  0  0  0
 13 37  1  0  0  0  0
 13 38  1  0  0  0  0
 14 15  1  0  0  0  0
 14 39  1  0  0  0  0
 14 40  1  0  0  0  0
 15 20  2  0  0  0  0
 15 16  1  0  0  0  0
 16 17  2  0  0  0  0
 16 41  1  0  0  0  0
 17 18  1  0  0  0  0
 18 19  1  0  0  0  0
 18 20  1  0  0  0  0
 19 42  1  0  0  0  0
 19 43  1  0  0  0  0
 19 44  1  0  0  0  0
 20 45  1  0  0  0  0
 21 22  1  0  0  0  0
 22 23  2  0  0  0  0
 22 46  1  0  0  0  0
 23 24  1  0  0  0  0
 24 47  1  0  0  0  0
 24 48  1  0  0  0  0
 24 49  1  0  0  0  0
M  CHG  1  12   1
M  END
> <s_m_source_file>
AV-unprocessed.smi

> <i_m_source_file_index>
2027

> <i_lp_mmshare_version>
43012

> <i_f3d_flags>
0

> <s_epik_input>
W0NIM11jKFtjSF0xKWMoW0NIM10pW2NIXWMoYzEyKW4oW2NIXW4yKVtDSDJdW0NASF0oW09IXSlbQ0gyXU4oW0NIM10pW0NIMl1jM1tjSF1ubihbQ0gzXSlbY0hdMw==

> <s_epik_cmdline>
J2VwaWtfcHl0aG9uJywgJy1waCcsICc3LjAnLCAnLXRuJywgJzgnLCAnLW1hJywgJzIwMCcsICctbWV0YWxfYmluZGluZycsICctaW1hZScsICc8aW5maWxlLm1hZT4nLCAnLW9tYWUnLCAnPG91dGZpbGUubWFlPic=

> <r_lp_tautomer_probability>
1

> <r_epik_Ionization_Penalty>
0.646578

> <r_epik_Ionization_Penalty_Charging>
0.559419

> <r_epik_Ionization_Penalty_Neutral>
0.087159

> <r_epik_State_Penalty>
0.661677

> <r_epik_Charging_Adjusted_Penalty>
1.2211

> <i_epik_Tot_Q>
1

> <i_epik_Tot_abs_Q>
1

> <r_epik_Metal_State_Penalty>
0.649174

> <b_epik_Metal_Only>
0

> <s_lp_Force_Field>
OPLS_2005

> <r_lp_Energy>
9.42611

> <b_lp_Chiralities_Consistent>
1

> <s_lp_Variant>
AV-unprocessed.smi:2027-4

> <Gold.Version>
5.8.1

> <Gold.Id.Protein>
6NUR|6NUR_protein|mol2

> <Gold.PLP.Fitness>
60.7713

> <Gold.PLP.PLP>
-46.5143

> <Gold.PLP.part.hbond>
-2.0000

> <Gold.PLP.part.metal>
0.0000

> <Gold.PLP.part.buried>
-6.1563

> <Gold.PLP.part.nonpolar>
-37.1307

> <Gold.PLP.part.repulsive>
0.3333

> <Gold.PLP.ligand.clash>
0.0000

> <Gold.PLP.ligand.torsion>
0.8656

> <Gold.PLP.Chemscore.Hbond>
3.0000

> <Gold.PLP.Chemscore.CHOScore>
2.2331

> <Gold.PLP.Chemscore.Metal>
0.0000

> <Gold.Chemscore.Hbonds>
donor molecule, donor type, donor heavy atom, donor atom, acceptor molecule, acceptor atom, score
      L1  H    12    50       P1  8028  2.00
      P1  H  7989  7998       L1    10  1.00
      L1  C     6    29       P1  8028  1.00
      L1  C    16    41       P1 10175  0.88
      L1  C    20    45       P1  8029  0.44

> <Gold.PLP.Chemscore.Internal.Correction>
0.2890

> <Gold.Rescore>
     Score         DG    S(hbond)    S(metal)    S(lipo)     H(rot)  DE(clash)    DE(int)     intcor
     16.21     -20.48       1.79        0.00     131.93       2.50       1.60       2.66       ----

> <Gold.Chemscore.Fitness>
16.2109

> <Gold.Chemscore.DG>
-20.4758

> <Gold.Chemscore.ZeroCoef>
-5.4800

> <Gold.Chemscore.Hbond>
1.7880

> <Gold.Chemscore.Metal>
0.0000

> <Gold.Chemscore.Lipo>
131.9316

> <Gold.Chemscore.Internal_Hbond>
0.0000

> <Gold.Chemscore.DEClash>
1.6025

> <Gold.Chemscore.DEInternal>
2.6624

> <Gold.Chemscore.Rot>
2.5047

> <Gold.Chemscore.Internal.Correction>
   9.000000E+99

> <Gold.Chemscore.Hbonds>
donor molecule, donor type, donor heavy atom, donor atom, acceptor molecule, acceptor atom, score
      L1  H    12    50       P1  8028  0.93
      P1  H  7989  7998       L1    10  0.43

> <Gold.Chemscore.Hbond.Weighted>
-5.9718

> <Gold.Chemscore.Metal.Weighted>
-0.0000

> <Gold.Chemscore.Lipo.Weighted>
-15.4360

> <Gold.Chemscore.Internal_Hbond.Weighted>
0.0000

> <Gold.Chemscore.DEClash.Weighted>
1.6025

> <Gold.Chemscore.DEInternal.Weighted>
2.6624

> <Gold.Chemscore.Rot.Weighted>
6.4120

> <Gold.Chemscore.Internal.Correction.Weighted>
   9.000000E+99

> <Gold.Protein.RotatedTorsions>
[ 6907 6896 6895 6894 ] final  -57.74 input  -60.11 | X-H torsion
[ 7974 7965 7964 7962 ] final -124.45 input  175.53 | X-H torsion
[ 8008 7997 7996 7995 ] final   72.73 input   59.86 | X-H torsion
[ 10167 10162 10161 10158 ] final   84.03 input  -65.29 | X-H torsion
[ 10718 10713 10712 10709 ] final   -5.44 input   66.30 | X-H torsion
[ 10763 10752 10751 10750 ] final -156.17 input  -60.55 | X-H torsion
[ 11005 11000 10999 10996 ] final  101.74 input  -57.11 | X-H torsion

> <Gold.Protein.ActiveResidues>
 VAL166  LYS551  ARG553  GLY616  TRP617  ASP618  TYR619  PRO620  LYS621  CYS622 
 ASP623  PHE694  ASN695  SER759  ASP760  ASP761  ALA762  ILE779  LEU786  VAL792 
 PHE793  MET794  SER795  GLU796  ALA797  LYS798  CYS799  TRP800  GLU811  SER814 

> <Gold.Protein.RotatedAtoms>
  150.8062  134.7188  159.6645 H   0  0  0  0  0  0  0  0  0  0  0  0  # atno 6907 bound_to 6896
  152.4181  134.6002  160.0008 H   0  0  0  0  0  0  0  0  0  0  0  0  # atno 6908 bound_to 6896
  151.6225  133.3301  159.3127 H   0  0  0  0  0  0  0  0  0  0  0  0  # atno 6909 bound_to 6896
  145.0079  140.7880  143.4456 H   0  0  0  0  0  0  0  0  0  0  0  0  # atno 7974 bound_to 7965
  155.7732  140.3484  155.5258 H   0  0  0  0  0  0  0  0  0  0  0  0  # atno 8008 bound_to 7997
  155.8801  140.1000  157.1512 H   0  0  0  0  0  0  0  0  0  0  0  0  # atno 8009 bound_to 7997
  154.4024  140.1324  156.4173 H   0  0  0  0  0  0  0  0  0  0  0  0  # atno 8010 bound_to 7997
  139.9122  144.6264  150.8525 H   0  0  0  0  0  0  0  0  0  0  0  0  # atno 10167 bound_to 10162
  156.7465  130.5226  149.5813 H   0  0  0  0  0  0  0  0  0  0  0  0  # atno 10718 bound_to 10713
  154.7733  135.3151  154.8145 H   0  0  0  0  0  0  0  0  0  0  0  0  # atno 10763 bound_to 10752
  153.8875  135.6829  153.4767 H   0  0  0  0  0  0  0  0  0  0  0  0  # atno 10764 bound_to 10752
  153.1351  135.4763  154.9344 H   0  0  0  0  0  0  0  0  0  0  0  0  # atno 10765 bound_to 10752
  139.8774  134.9196  156.4953 H   0  0  0  0  0  0  0  0  0  0  0  0  # atno 11005 bound_to 11000
  145.2063  139.2227  143.5167 LP  0  0  0  0  0  0  0  0  0  0  0  0  # atno 17320 bound_to 7965
  146.3464  140.1891  142.8589 LP  0  0  0  0  0  0  0  0  0  0  0  0  # atno 17321 bound_to 7965
  140.7682  143.3357  151.2314 LP  0  0  0  0  0  0  0  0  0  0  0  0  # atno 17342 bound_to 10162
  139.6933  143.9656  152.2870 LP  0  0  0  0  0  0  0  0  0  0  0  0  # atno 17343 bound_to 10162
  156.1429  130.6257  151.0492 LP  0  0  0  0  0  0  0  0  0  0  0  0  # atno 17370 bound_to 10713
  157.6796  131.0841  150.7406 LP  0  0  0  0  0  0  0  0  0  0  0  0  # atno 17371 bound_to 10713
  140.8629  133.8046  155.9283 LP  0  0  0  0  0  0  0  0  0  0  0  0  # atno 17394 bound_to 11000
  140.9031  134.2353  157.5030 LP  0  0  0  0  0  0  0  0  0  0  0  0  # atno 17395 bound_to 11000

$$$$
