#       Name:                AV-unprocessed.smi:20
#       Creating user name   scv26
#       Creation time:       Thu Mar 26 15:28:49 2020


#       File generated by GOLD software.
#

@<TRIPOS>MOLECULE
AV-unprocessed.smi:20
    66    70     1
SMALL
NO_CHARGES


@<TRIPOS>ATOM
      1 ****        -1.0070   4.6052  -4.3214 O.2            1 S1                 0.0000
      2 ****        -1.1885   4.6662  -3.1076 C.2            1 S1                 0.0000
      3 ****        -2.5173   4.3612  -2.4360 C.3            1 S1                 0.0000
      4 ****        -2.1384   4.2049  -0.9472 C.3            1 S1                 0.0000
      5 ****        -3.2383   4.7577  -0.0126 C.3            1 S1                 0.0000
      6 ****        -2.9044   4.5012   1.4653 C.3            1 S1                 0.0000
      7 ****        -2.6501   3.0091   1.7211 C.3            1 S1                 0.0000
      8 ****        -1.6364   2.4915   0.8022 N.pl3          1 S1                 0.0000
      9 ****        -1.0006   1.3560   1.1914 C.ar           1 S1                 0.0000
     10 ****        -0.3648   1.3811   2.3920 N.ar           1 S1                 0.0000
     11 ****         0.2888   0.3055   2.8387 C.ar           1 S1                 0.0000
     12 ****         0.4321  -0.8845   2.2549 N.ar           1 S1                 0.0000
     13 ****        -0.2053  -0.9220   1.0504 C.ar           1 S1                 0.0000
     14 ****        -0.9383   0.1398   0.4450 C.ar           1 S1                 0.0000
     15 ****        -1.4498  -0.2896  -0.7763 N.2            1 S1                 0.0000
     16 ****        -1.0380  -1.5225  -0.8880 C.2            1 S1                 0.0000
     17 ****        -0.2800  -1.9807   0.1640 N.pl3          1 S1                 0.0000
     18 ****         0.3040  -3.3023   0.3097 C.3            1 S1                 0.0000
     19 ****         1.8363  -3.3195   0.0845 C.3            1 S1                 0.0000
     20 ****         2.2461  -2.6869  -1.2674 C.3            1 S1                 0.0000
     21 ****         1.7107  -3.4077  -2.3586 O.3            1 S1                 0.0000
     22 ****         2.4232  -4.7407   0.2764 C.3            1 S1                 0.0000
     23 ****         3.9373  -4.8250   0.1957 C.3            1 S1                 0.0000
     24 ****         4.2210  -6.1616   0.8713 C.3            1 S1                 0.0000
     25 ****         3.2199  -6.3029   1.8720 O.3            1 S1                 0.0000
     26 ****         2.1857  -5.3455   1.6651 C.3            1 S1                 0.0000
     27 ****        -1.8929   2.7082  -0.6214 C.3            1 S1                 0.0000
     28 ****        -0.8138   5.0031  -0.8482 C.3            1 S1                 0.0000
     29 ****        -0.2792   5.0038  -2.1962 N.am           1 S1                 0.0000
     30 ****        -3.1878   5.2064  -2.5963 H              1 S1                 0.0000
     31 ****        -2.9862   3.4699  -2.8545 H              1 S1                 0.0000
     32 ****        -3.3832   5.8256  -0.1805 H              1 S1                 0.0000
     33 ****        -4.1898   4.2802  -0.2502 H              1 S1                 0.0000
     34 ****        -2.0228   5.0763   1.7508 H              1 S1                 0.0000
     35 ****        -3.7192   4.8521   2.0990 H              1 S1                 0.0000
     36 ****        -2.3605   2.8713   2.7631 H              1 S1                 0.0000
     37 ****        -3.5713   2.4437   1.5749 H              1 S1                 0.0000
     38 ****         0.7655   0.4142   3.8020 H              1 S1                 0.0000
     39 ****        -1.2738  -2.1338  -1.7471 H              1 S1                 0.0000
     40 ****         0.0571  -3.6609   1.3090 H              1 S1                 0.0000
     41 ****        -0.1896  -3.9783  -0.3897 H              1 S1                 0.0000
     42 ****         2.2756  -2.6890   0.8590 H              1 S1                 0.0000
     43 ****         1.9102  -1.6519  -1.3323 H              1 S1                 0.0000
     44 ****         3.3307  -2.6539  -1.3680 H              1 S1                 0.0000
     45 ****         1.9937  -2.9944  -3.1601 H              1 S1                 0.0000
     46 ****         2.0002  -5.4158  -0.4696 H              1 S1                 0.0000
     47 ****         4.3183  -4.7872  -0.8251 H              1 S1                 0.0000
     48 ****         4.3964  -4.0144   0.7637 H              1 S1                 0.0000
     49 ****         4.1157  -6.9786   0.1565 H              1 S1                 0.0000
     50 ****         5.2233  -6.2108   1.2977 H              1 S1                 0.0000
     51 ****         2.2695  -4.5823   2.4403 H              1 S1                 0.0000
     52 ****         1.2027  -5.8084   1.7544 H              1 S1                 0.0000
     53 ****        -2.7681   2.1215  -0.9037 H              1 S1                 0.0000
     54 ****        -1.0538   2.3384  -1.2122 H              1 S1                 0.0000
     55 ****        -0.9891   6.0374  -0.5488 H              1 S1                 0.0000
     56 ****        -0.1026   4.5697  -0.1443 H              1 S1                 0.0000
     57 ****         0.6773   5.2488  -2.4077 H              1 S1                 0.0000
     58 ****        -0.1086   4.8207  -4.7041 LP             1 S1                 0.0000
     59 ****        -1.7577   4.3401  -4.9265 LP             1 S1                 0.0000
     60 ****        -0.3865   2.2130   2.9465 LP             1 S1                 0.0000
     61 ****         0.9408  -1.6498   2.6492 LP             1 S1                 0.0000
     62 ****        -2.0078   0.2304  -1.4230 LP             1 S1                 0.0000
     63 ****         0.7119  -3.4003  -2.3099 LP             1 S1                 0.0000
     64 ****         2.0387  -4.3520  -2.3322 LP             1 S1                 0.0000
     65 ****         3.6294  -6.1585   2.7728 LP             1 S1                 0.0000
     66 ****         2.8328  -7.2238   1.8255 LP             1 S1                 0.0000
@<TRIPOS>BOND
    1    1    2 2     
    2    2   29 am    
    3    2    3 1     
    4    3    4 1     
    5    3   30 1     
    6    3   31 1     
    7    4   27 1     
    8    4    5 1     
    9    4   28 1     
   10    5    6 1     
   11    5   32 1     
   12    5   33 1     
   13    6    7 1     
   14    6   34 1     
   15    6   35 1     
   16    7    8 1     
   17    7   36 1     
   18    7   37 1     
   19    8    9 1     
   20    8   27 1     
   21    9   14 ar    
   22    9   10 ar    
   23   10   11 ar    
   24   11   12 ar    
   25   11   38 1     
   26   12   13 ar    
   27   13   17 1     
   28   13   14 ar    
   29   14   15 1     
   30   15   16 2     
   31   16   17 1     
   32   16   39 1     
   33   17   18 1     
   34   18   19 1     
   35   18   40 1     
   36   18   41 1     
   37   19   20 1     
   38   19   22 1     
   39   19   42 1     
   40   20   21 1     
   41   20   43 1     
   42   20   44 1     
   43   21   45 1     
   44   22   26 1     
   45   22   23 1     
   46   22   46 1     
   47   23   24 1     
   48   23   47 1     
   49   23   48 1     
   50   24   25 1     
   51   24   49 1     
   52   24   50 1     
   53   25   26 1     
   54   26   51 1     
   55   26   52 1     
   56   27   53 1     
   57   27   54 1     
   58   28   29 1     
   59   28   55 1     
   60   28   56 1     
   61   29   57 1     
   62    1   58 1     
   63    1   59 1     
   64   10   60 1     
   65   12   61 1     
   66   15   62 1     
   67   21   63 1     
   68   21   64 1     
   69   25   65 1     
   70   25   66 1     
@<TRIPOS>SUBSTRUCTURE
      1 S1             1
@<TRIPOS>SET
LONE_PAIRS      STATIC     ATOMS    <user>   **** ""
9 58 59 60 61 62 63 64 65 66
DONOR_HYDROGENS      STATIC     ATOMS    <user>   **** ""
2 45 57
ATOM$BLUE        STATIC     ATOMS    COLORGROUP SYSTEM
9 58 59 60 61 62 63 64 65 66
ATOM$RED        STATIC     ATOMS    COLORGROUP SYSTEM
2 45 57
