AV-unprocessed.smi:2358|AV-procd|sdf|9404|dock5
  -GOLD-   2272013 33D 1   1.00000     0.00000
 Structure written by MMmdl.
 45 47  0  0  0  0  0  0  0  0  1 V2000
  153.7867  143.3143  164.1285 C   0  0  0  0  0  0  0  0  0  0  0  0
  153.6652  142.6503  162.7724 C   0  0  0  0  0  0  0  0  0  0  0  0
  154.5753  141.6450  162.3896 C   0  0  0  0  0  0  0  0  0  0  0  0
  154.4572  141.0289  161.1287 C   0  0  0  0  0  0  0  0  0  0  0  0
  155.4350  139.9448  160.7252 C   0  0  0  0  0  0  0  0  0  0  0  0
  153.4261  141.4224  160.2515 C   0  0  0  0  0  0  0  0  0  0  0  0
  152.5092  142.4289  160.6174 C   0  0  0  0  0  0  0  0  0  0  0  0
  151.5356  142.7504  159.6959 O   0  0  0  0  0  0  0  0  0  0  0  0
  151.8373  142.6005  158.3148 C   0  0  0  0  0  0  0  0  0  0  0  0
  150.7715  141.6979  157.6687 C   0  0  1  0  0  0  0  0  0  0  0  0
  149.5414  142.0013  158.2972 O   0  0  0  0  0  0  0  0  0  0  0  0
  150.6176  141.9735  156.1558 C   0  0  0  0  0  0  0  0  0  0  0  0
  149.4679  141.2608  155.5850 N   0  0  0  0  0  0  0  0  0  0  0  0
  148.2400  141.7439  156.0055 N   0  0  0  0  0  0  0  0  0  0  0  0
  147.1395  141.2177  155.5738 C   0  0  0  0  0  0  0  0  0  0  0  0
  145.8231  141.6755  155.9705 N   0  0  0  0  0  0  0  0  0  0  0  0
  145.7020  142.6296  156.9787 C   0  0  0  0  0  0  0  0  0  0  0  0
  144.3512  142.8552  157.1247 C   0  0  0  0  0  0  0  0  0  0  0  0
  143.6363  142.0611  156.2284 N   0  0  0  0  0  0  0  0  0  0  0  0
  144.5747  141.3871  155.5752 C   0  0  0  0  0  0  0  0  0  0  0  0
  147.1825  140.1063  154.6390 C   0  0  0  0  0  0  0  0  0  0  0  0
  148.3847  139.6452  154.2311 C   0  0  0  0  0  0  0  0  0  0  0  0
  149.6384  140.2321  154.7029 C   0  0  0  0  0  0  0  0  0  0  0  0
  150.7453  139.8398  154.3355 O   0  0  0  0  0  0  0  0  0  0  0  0
  152.6383  143.0420  161.8892 C   0  0  0  0  0  0  0  0  0  0  0  0
  154.4555  142.7567  164.7848 H   0  0  0  0  0  0  0  0  0  0  0  0
  152.8111  143.3737  164.6122 H   0  0  0  0  0  0  0  0  0  0  0  0
  154.1782  144.3256  164.0189 H   0  0  0  0  0  0  0  0  0  0  0  0
  155.3650  141.3436  163.0626 H   0  0  0  0  0  0  0  0  0  0  0  0
  155.3320  139.6899  159.6701 H   0  0  0  0  0  0  0  0  0  0  0  0
  155.2605  139.0439  161.3137 H   0  0  0  0  0  0  0  0  0  0  0  0
  156.4601  140.2744  160.8960 H   0  0  0  0  0  0  0  0  0  0  0  0
  153.3333  140.9493  159.2847 H   0  0  0  0  0  0  0  0  0  0  0  0
  151.8935  143.5641  157.8047 H   0  0  0  0  0  0  0  0  0  0  0  0
  152.8155  142.1240  158.2354 H   0  0  0  0  0  0  0  0  0  0  0  0
  151.0310  140.6515  157.8364 H   0  0  0  0  0  0  0  0  0  0  0  0
  149.6941  142.6650  158.9526 H   0  0  0  0  0  0  0  0  0  0  0  0
  150.5798  143.0452  155.9501 H   0  0  0  0  0  0  0  0  0  0  0  0
  151.5090  141.6261  155.6304 H   0  0  0  0  0  0  0  0  0  0  0  0
  146.5430  143.0640  157.5002 H   0  0  0  0  0  0  0  0  0  0  0  0
  143.8418  143.5246  157.8023 H   0  0  0  0  0  0  0  0  0  0  0  0
  144.3387  140.6748  154.7986 H   0  0  0  0  0  0  0  0  0  0  0  0
  146.2752  139.6517  154.2716 H   0  0  0  0  0  0  0  0  0  0  0  0
  148.4237  138.8196  153.5357 H   0  0  0  0  0  0  0  0  0  0  0  0
  151.9587  143.8166  162.2105 H   0  0  0  0  0  0  0  0  0  0  0  0
  1  2  1  0  0  0  0
  1 26  1  0  0  0  0
  1 27  1  0  0  0  0
  1 28  1  0  0  0  0
  2 25  1  0  0  0  0
  2  3  2  0  0  0  0
  3  4  1  0  0  0  0
  3 29  1  0  0  0  0
  4  5  1  0  0  0  0
  4  6  2  0  0  0  0
  5 30  1  0  0  0  0
  5 31  1  0  0  0  0
  5 32  1  0  0  0  0
  6  7  1  0  0  0  0
  6 33  1  0  0  0  0
  7  8  1  0  0  0  0
  7 25  2  0  0  0  0
  8  9  1  0  0  0  0
  9 10  1  0  0  0  0
  9 34  1  0  0  0  0
  9 35  1  0  0  0  0
 10 11  1  0  0  0  0
 10 12  1  0  0  0  0
 10 36  1  0  0  0  0
 11 37  1  0  0  0  0
 12 13  1  0  0  0  0
 12 38  1  0  0  0  0
 12 39  1  0  0  0  0
 13 23  1  0  0  0  0
 13 14  1  0  0  0  0
 14 15  2  0  0  0  0
 15 16  1  0  0  0  0
 15 21  1  0  0  0  0
 16 20  1  0  0  0  0
 16 17  1  0  0  0  0
 17 18  2  0  0  0  0
 17 40  1  0  0  0  0
 18 19  1  0  0  0  0
 18 41  1  0  0  0  0
 19 20  2  0  0  0  0
 20 42  1  0  0  0  0
 21 22  2  0  0  0  0
 21 43  1  0  0  0  0
 22 23  1  0  0  0  0
 22 44  1  0  0  0  0
 23 24  2  0  0  0  0
 25 45  1  0  0  0  0
M  END
> <s_m_source_file>
AV-unprocessed.smi

> <i_m_source_file_index>
2358

> <i_lp_mmshare_version>
43012

> <i_f3d_flags>
0

> <s_epik_input>
W0NIM11jMVtjSF1jKFtDSDNdKVtjSF1jKFtjSF0xKU9bQ0gyXVtDQEhdKFtPSF0pW0NIMl1uMm5jKFtjSF1bY0hdYzI9TyktbjNbY0hdW2NIXW5bY0hdMw==

> <s_epik_cmdline>
J2VwaWtfcHl0aG9uJywgJy1waCcsICc3LjAnLCAnLXRuJywgJzgnLCAnLW1hJywgJzIwMCcsICctbWV0YWxfYmluZGluZycsICctaW1hZScsICc8aW5maWxlLm1hZT4nLCAnLW9tYWUnLCAnPG91dGZpbGUubWFlPic=

> <r_lp_tautomer_probability>
1

> <r_epik_Ionization_Penalty>
0.03707

> <r_epik_Ionization_Penalty_Charging>
0.0370699

> <r_epik_Ionization_Penalty_Neutral>
1.17174e-07

> <r_epik_State_Penalty>
0.0310055

> <r_epik_Charging_Adjusted_Penalty>
0.0680754

> <i_epik_Tot_Q>
0

> <i_epik_Tot_abs_Q>
0

> <r_epik_Metal_State_Penalty>
0.0291724

> <b_epik_Metal_Only>
0

> <s_lp_Force_Field>
OPLS_2005

> <r_lp_Energy>
35.3101

> <b_lp_Chiralities_Consistent>
1

> <s_lp_Variant>
AV-unprocessed.smi:2358-2

> <Gold.Version>
5.8.1

> <Gold.Id.Protein>
6NUR|6NUR_protein|mol2

> <Gold.PLP.Fitness>
49.3458

> <Gold.PLP.PLP>
-45.5203

> <Gold.PLP.part.hbond>
-1.0000

> <Gold.PLP.part.metal>
0.0000

> <Gold.PLP.part.buried>
-4.4581

> <Gold.PLP.part.nonpolar>
-42.1458

> <Gold.PLP.part.repulsive>
2.6520

> <Gold.PLP.ligand.clash>
0.0000

> <Gold.PLP.ligand.torsion>
1.1478

> <Gold.PLP.Chemscore.Hbond>
1.0000

> <Gold.PLP.Chemscore.CHOScore>
1.0190

> <Gold.PLP.Chemscore.Metal>
0.0000

> <Gold.Chemscore.Hbonds>
donor molecule, donor type, donor heavy atom, donor atom, acceptor molecule, acceptor atom, score
      P1  H  7989  7998       L1    24  1.00
      L1  C    20    42       P1 10175  1.00

> <Gold.PLP.Chemscore.Internal.Correction>
0.0641

> <Gold.Rescore>
     Score         DG    S(hbond)    S(metal)    S(lipo)     H(rot)  DE(clash)    DE(int)     intcor
     11.73     -14.93       0.96        0.00     110.33       2.60       0.57       2.63       ----

> <Gold.Chemscore.Fitness>
11.7295

> <Gold.Chemscore.DG>
-14.9343

> <Gold.Chemscore.ZeroCoef>
-5.4800

> <Gold.Chemscore.Hbond>
0.9574

> <Gold.Chemscore.Metal>
0.0000

> <Gold.Chemscore.Lipo>
110.3324

> <Gold.Chemscore.Internal_Hbond>
0.0000

> <Gold.Chemscore.DEClash>
0.5736

> <Gold.Chemscore.DEInternal>
2.6313

> <Gold.Chemscore.Rot>
2.5986

> <Gold.Chemscore.Internal.Correction>
   9.000000E+99

> <Gold.Chemscore.Hbonds>
donor molecule, donor type, donor heavy atom, donor atom, acceptor molecule, acceptor atom, score
      P1  H  7989  7998       L1    24  0.93

> <Gold.Chemscore.Hbond.Weighted>
-3.1978

> <Gold.Chemscore.Metal.Weighted>
-0.0000

> <Gold.Chemscore.Lipo.Weighted>
-12.9089

> <Gold.Chemscore.Internal_Hbond.Weighted>
0.0000

> <Gold.Chemscore.DEClash.Weighted>
0.5736

> <Gold.Chemscore.DEInternal.Weighted>
2.6313

> <Gold.Chemscore.Rot.Weighted>
6.6524

> <Gold.Chemscore.Internal.Correction.Weighted>
   9.000000E+99

> <Gold.Protein.RotatedTorsions>
[ 6907 6896 6895 6894 ] final  -76.14 input  -60.11 | X-H torsion
[ 7974 7965 7964 7962 ] final  -27.94 input  175.53 | X-H torsion
[ 8008 7997 7996 7995 ] final  -81.72 input   59.86 | X-H torsion
[ 10167 10162 10161 10158 ] final  -58.05 input  -65.29 | X-H torsion
[ 10718 10713 10712 10709 ] final  -62.21 input   66.30 | X-H torsion
[ 10763 10752 10751 10750 ] final   54.25 input  -60.55 | X-H torsion
[ 11005 11000 10999 10996 ] final  162.37 input  -57.11 | X-H torsion

> <Gold.Protein.ActiveResidues>
 VAL166  LYS551  ARG553  GLY616  TRP617  ASP618  TYR619  PRO620  LYS621  CYS622 
 ASP623  PHE694  ASN695  SER759  ASP760  ASP761  ALA762  ILE779  LEU786  VAL792 
 PHE793  MET794  SER795  GLU796  ALA797  LYS798  CYS799  TRP800  GLU811  SER814 

> <Gold.Protein.RotatedAtoms>
  150.7036  134.4616  159.5383 H   0  0  0  0  0  0  0  0  0  0  0  0  # atno 6907 bound_to 6896
  152.2289  134.8338  160.0485 H   0  0  0  0  0  0  0  0  0  0  0  0  # atno 6908 bound_to 6896
  151.9161  133.3538  159.3917 H   0  0  0  0  0  0  0  0  0  0  0  0  # atno 6909 bound_to 6896
  146.1323  140.5218  142.8688 H   0  0  0  0  0  0  0  0  0  0  0  0  # atno 7974 bound_to 7965
  154.6012  140.0643  156.9371 H   0  0  0  0  0  0  0  0  0  0  0  0  # atno 8008 bound_to 7997
  155.2129  140.3324  155.4308 H   0  0  0  0  0  0  0  0  0  0  0  0  # atno 8009 bound_to 7997
  156.2319  140.1845  156.7203 H   0  0  0  0  0  0  0  0  0  0  0  0  # atno 8010 bound_to 7997
  140.6221  143.2423  151.5455 H   0  0  0  0  0  0  0  0  0  0  0  0  # atno 10167 bound_to 10162
  156.0870  130.4206  150.1103 H   0  0  0  0  0  0  0  0  0  0  0  0  # atno 10718 bound_to 10713
  152.9803  135.5751  154.4873 H   0  0  0  0  0  0  0  0  0  0  0  0  # atno 10763 bound_to 10752
  154.4413  135.2776  155.1848 H   0  0  0  0  0  0  0  0  0  0  0  0  # atno 10764 bound_to 10752
  154.3515  135.6208  153.5698 H   0  0  0  0  0  0  0  0  0  0  0  0  # atno 10765 bound_to 10752
  140.2251  134.8167  157.3260 H   0  0  0  0  0  0  0  0  0  0  0  0  # atno 11005 bound_to 11000
  144.7703  140.5622  143.6675 LP  0  0  0  0  0  0  0  0  0  0  0  0  # atno 17320 bound_to 7965
  145.5234  139.1476  143.3539 LP  0  0  0  0  0  0  0  0  0  0  0  0  # atno 17321 bound_to 7965
  139.5448  144.2551  152.1420 LP  0  0  0  0  0  0  0  0  0  0  0  0  # atno 17342 bound_to 10162
  140.1774  144.4877  150.6546 LP  0  0  0  0  0  0  0  0  0  0  0  0  # atno 17343 bound_to 10162
  156.9122  130.9655  151.3561 LP  0  0  0  0  0  0  0  0  0  0  0  0  # atno 17370 bound_to 10713
  157.6007  130.8511  149.8798 LP  0  0  0  0  0  0  0  0  0  0  0  0  # atno 17371 bound_to 10713
  140.1809  134.4491  155.7773 LP  0  0  0  0  0  0  0  0  0  0  0  0  # atno 17394 bound_to 11000
  141.2221  133.6983  156.7867 LP  0  0  0  0  0  0  0  0  0  0  0  0  # atno 17395 bound_to 11000

$$$$
