#       Name:                AV-unprocessed.smi:1291
#       Creating user name   scv26
#       Creation time:       Fri Mar 27 04:54:23 2020


#       File generated by GOLD software.
#

@<TRIPOS>MOLECULE
AV-unprocessed.smi:1291
    50    52     1
SMALL
NO_CHARGES


@<TRIPOS>ATOM
      1 ****        -0.3397   1.9366  -3.9249 O.3            1 S1                 0.0000
      2 ****        -1.6990   1.9561  -3.5474 C.3            1 S1                 0.0000
      3 ****        -1.9017   2.4776  -2.1580 C.2            1 S1                 0.0000
      4 ****        -2.2241   3.7511  -1.9283 N.2            1 S1                 0.0000
      5 ****        -2.2827   3.8070  -0.5497 C.ar           1 S1                 0.0000
      6 ****        -2.5730   4.8873   0.3141 C.ar           1 S1                 0.0000
      7 ****        -2.5685   4.7042   1.7124 C.ar           1 S1                 0.0000
      8 ****        -2.2737   3.4415   2.2661 C.ar           1 S1                 0.0000
      9 ****        -1.9828   2.3516   1.4233 C.ar           1 S1                 0.0000
     10 ****        -1.9906   2.5390   0.0278 C.ar           1 S1                 0.0000
     11 ****        -1.7559   1.6983  -1.0559 N.pl3          1 S1                 0.0000
     12 ****        -1.4149   0.2850  -0.9798 C.3            1 S1                 0.0000
     13 ****         0.1123   0.0480  -1.0312 C.3            1 S1                 0.0000
     14 ****         0.4064  -0.6992  -2.1951 O.3            1 S1                 0.0000
     15 ****         0.6269  -0.7303   0.1905 C.3            1 S1                 0.0000
     16 ****         2.0319  -0.5515   0.3010 O.3            1 S1                 0.0000
     17 ****         2.5975  -1.1555   1.4564 C.3            1 S1                 0.0000
     18 ****         2.5856  -2.6753   1.4037 C.ar           1 S1                 0.0000
     19 ****         3.1458  -3.3367   0.2905 C.ar           1 S1                 0.0000
     20 ****         3.1470  -4.7436   0.2267 C.ar           1 S1                 0.0000
     21 ****         2.5907  -5.4963   1.2786 C.ar           1 S1                 0.0000
     22 ****         2.0361  -4.8411   2.3947 C.ar           1 S1                 0.0000
     23 ****         2.0337  -3.4338   2.4604 C.ar           1 S1                 0.0000
     24 ****         1.4938  -2.8195   3.5405 F              1 S1                 0.0000
     25 ****        -0.2768   1.5994  -4.8052 H              1 S1                 0.0000
     26 ****        -2.2430   2.5892  -4.2494 H              1 S1                 0.0000
     27 ****        -2.1203   0.9562  -3.6439 H              1 S1                 0.0000
     28 ****        -2.7980   5.8590  -0.1003 H              1 S1                 0.0000
     29 ****        -2.7911   5.5369   2.3633 H              1 S1                 0.0000
     30 ****        -2.2710   3.3101   3.3383 H              1 S1                 0.0000
     31 ****        -1.7552   1.3845   1.8461 H              1 S1                 0.0000
     32 ****        -1.8358  -0.1129  -0.0560 H              1 S1                 0.0000
     33 ****        -1.9375  -0.2511  -1.7723 H              1 S1                 0.0000
     34 ****         0.6363   1.0032  -1.0948 H              1 S1                 0.0000
     35 ****        -0.0160  -1.5414  -2.1258 H              1 S1                 0.0000
     36 ****         0.1654  -0.3317   1.0954 H              1 S1                 0.0000
     37 ****         0.3538  -1.7847   0.1256 H              1 S1                 0.0000
     38 ****         3.6363  -0.8328   1.5275 H              1 S1                 0.0000
     39 ****         2.1012  -0.7822   2.3530 H              1 S1                 0.0000
     40 ****         3.5733  -2.7636  -0.5194 H              1 S1                 0.0000
     41 ****         3.5745  -5.2450  -0.6290 H              1 S1                 0.0000
     42 ****         2.5900  -6.5753   1.2300 H              1 S1                 0.0000
     43 ****         1.6110  -5.4186   3.2023 H              1 S1                 0.0000
     44 ****         0.1750   1.3484  -3.3011 LP             1 S1                 0.0000
     45 ****         0.0327   2.8641  -3.8919 LP             1 S1                 0.0000
     46 ****        -2.3837   4.4837  -2.5901 LP             1 S1                 0.0000
     47 ****         1.3955  -0.8235  -2.2751 LP             1 S1                 0.0000
     48 ****         0.0650  -0.2160  -3.0013 LP             1 S1                 0.0000
     49 ****         2.2235   0.4295   0.3321 LP             1 S1                 0.0000
     50 ****         2.4651  -0.9502  -0.5074 LP             1 S1                 0.0000
@<TRIPOS>BOND
    1    1    2 1     
    2    1   25 1     
    3    2    3 1     
    4    2   26 1     
    5    2   27 1     
    6    3   11 1     
    7    3    4 2     
    8    4    5 1     
    9    5   10 ar    
   10    5    6 ar    
   11    6    7 ar    
   12    6   28 1     
   13    7    8 ar    
   14    7   29 1     
   15    8    9 ar    
   16    8   30 1     
   17    9   10 ar    
   18    9   31 1     
   19   10   11 1     
   20   11   12 1     
   21   12   13 1     
   22   12   32 1     
   23   12   33 1     
   24   13   14 1     
   25   13   15 1     
   26   13   34 1     
   27   14   35 1     
   28   15   16 1     
   29   15   36 1     
   30   15   37 1     
   31   16   17 1     
   32   17   18 1     
   33   17   38 1     
   34   17   39 1     
   35   18   23 ar    
   36   18   19 ar    
   37   19   20 ar    
   38   19   40 1     
   39   20   21 ar    
   40   20   41 1     
   41   21   22 ar    
   42   21   42 1     
   43   22   23 ar    
   44   22   43 1     
   45   23   24 1     
   46    1   44 1     
   47    1   45 1     
   48    4   46 1     
   49   14   47 1     
   50   14   48 1     
   51   16   49 1     
   52   16   50 1     
@<TRIPOS>SUBSTRUCTURE
      1 S1             1
@<TRIPOS>SET
LONE_PAIRS      STATIC     ATOMS    <user>   **** ""
7 44 45 46 47 48 49 50
DONOR_HYDROGENS      STATIC     ATOMS    <user>   **** ""
2 25 35
ATOM$BLUE        STATIC     ATOMS    COLORGROUP SYSTEM
7 44 45 46 47 48 49 50
ATOM$RED        STATIC     ATOMS    COLORGROUP SYSTEM
2 25 35
