AV-unprocessed.smi:87|AV-procd|sdf|823|dock2
  -GOLD-   2262017233D 1   1.00000     0.00000
 Structure written by MMmdl.
 58 60  0  0  0  0  0  0  0  0  1 V2000
  148.2786  131.5490  161.4942 C   0  0  0  0  0  0  0  0  0  0  0  0
  149.0427  130.5139  160.6557 C   0  0  0  0  0  0  0  0  0  0  0  0
  149.3592  130.9598  159.2076 C   0  0  0  0  0  0  0  0  0  0  0  0
  148.0681  131.0723  158.3625 C   0  0  0  0  0  0  0  0  0  0  0  0
  147.2626  129.7678  158.2647 C   0  0  0  0  0  0  0  0  0  0  0  0
  150.3641  129.9917  158.5315 C   0  0  0  0  0  0  0  0  0  0  0  0
  151.1031  130.5689  157.4030 N   0  0  0  0  0  0  0  0  0  0  0  0
  152.1051  129.7629  156.7001 C   0  0  0  0  0  0  0  0  0  0  0  0
  152.8257  130.5417  155.5916 C   0  0  0  0  0  0  0  0  0  0  0  0
  153.5910  129.6611  154.6970 C   0  0  0  0  0  0  0  0  0  0  0  0
  154.1932  128.9685  153.9927 N   0  0  0  0  0  0  0  0  0  0  0  0
  150.5355  131.6085  156.7338 C   0  0  0  0  0  0  0  0  0  0  0  0
  150.4860  132.8301  157.3311 N   0  0  0  0  0  0  0  0  0  0  0  0
  149.9600  133.8784  156.6923 C   0  0  0  0  0  0  0  0  0  0  0  0
  149.4280  133.9286  155.4706 N   0  0  0  0  0  0  0  0  0  0  0  0
  149.4544  132.7052  154.8701 C   0  0  0  0  0  0  0  0  0  0  0  0
  149.9847  131.5038  155.4228 C   0  0  0  0  0  0  0  0  0  0  0  0
  149.8233  130.4622  154.5154 N   0  0  0  0  0  0  0  0  0  0  0  0
  149.2565  131.0192  153.4810 C   0  0  0  0  0  0  0  0  0  0  0  0
  148.9809  132.3605  153.6161 N   0  0  0  0  0  0  0  0  0  0  0  0
  148.3635  133.2245  152.6246 C   0  0  0  0  0  0  0  0  0  0  0  0
  146.8977  133.6065  152.9390 C   0  0  1  0  0  0  0  0  0  0  0  0
  146.9270  134.9834  153.2571 O   0  0  0  0  0  0  0  0  0  0  0  0
  145.8981  133.4334  151.7724 C   0  0  1  0  0  0  0  0  0  0  0  0
  145.8330  132.0399  151.1394 C   0  0  0  0  0  0  0  0  0  0  0  0
  144.4150  131.9376  150.5985 C   0  0  0  0  0  0  0  0  0  0  0  0
  143.6888  133.1158  151.2465 C   0  0  0  0  0  0  0  0  0  0  0  0
  144.5714  133.5587  152.2655 O   0  0  0  0  0  0  0  0  0  0  0  0
  148.1987  131.2163  162.5292 H   0  0  0  0  0  0  0  0  0  0  0  0
  147.2643  131.7068  161.1302 H   0  0  0  0  0  0  0  0  0  0  0  0
  148.7921  132.5108  161.4965 H   0  0  0  0  0  0  0  0  0  0  0  0
  149.9705  130.3113  161.1866 H   0  0  0  0  0  0  0  0  0  0  0  0
  148.4943  129.5713  160.6440 H   0  0  0  0  0  0  0  0  0  0  0  0
  149.8035  131.9545  159.2524 H   0  0  0  0  0  0  0  0  0  0  0  0
  147.4336  131.8675  158.7555 H   0  0  0  0  0  0  0  0  0  0  0  0
  148.3154  131.3651  157.3436 H   0  0  0  0  0  0  0  0  0  0  0  0
  146.4260  129.8865  157.5759 H   0  0  0  0  0  0  0  0  0  0  0  0
  146.8472  129.4669  159.2256 H   0  0  0  0  0  0  0  0  0  0  0  0
  147.8807  128.9498  157.8932 H   0  0  0  0  0  0  0  0  0  0  0  0
  151.0338  129.6067  159.2974 H   0  0  0  0  0  0  0  0  0  0  0  0
  149.8488  129.1144  158.1457 H   0  0  0  0  0  0  0  0  0  0  0  0
  152.8270  129.3702  157.4169 H   0  0  0  0  0  0  0  0  0  0  0  0
  151.6208  128.9001  156.2408 H   0  0  0  0  0  0  0  0  0  0  0  0
  152.1082  131.0923  154.9829 H   0  0  0  0  0  0  0  0  0  0  0  0
  153.5249  131.2650  156.0109 H   0  0  0  0  0  0  0  0  0  0  0  0
  149.9677  134.8103  157.2382 H   0  0  0  0  0  0  0  0  0  0  0  0
  149.0095  130.4594  152.5905 H   0  0  0  0  0  0  0  0  0  0  0  0
  148.9775  134.1247  152.5665 H   0  0  0  0  0  0  0  0  0  0  0  0
  148.4285  132.7451  151.6468 H   0  0  0  0  0  0  0  0  0  0  0  0
  146.5453  133.0632  153.8160 H   0  0  0  0  0  0  0  0  0  0  0  0
  147.8012  135.3080  153.1051 H   0  0  0  0  0  0  0  0  0  0  0  0
  146.0724  134.1816  150.9962 H   0  0  0  0  0  0  0  0  0  0  0  0
  146.5805  131.8996  150.3592 H   0  0  0  0  0  0  0  0  0  0  0  0
  145.9839  131.2710  151.8984 H   0  0  0  0  0  0  0  0  0  0  0  0
  144.3887  132.0160  149.5112 H   0  0  0  0  0  0  0  0  0  0  0  0
  143.9638  130.9851  150.8785 H   0  0  0  0  0  0  0  0  0  0  0  0
  143.5396  133.9209  150.5254 H   0  0  0  0  0  0  0  0  0  0  0  0
  142.7173  132.8391  151.6560 H   0  0  0  0  0  0  0  0  0  0  0  0
  1  2  1  0  0  0  0
  1 29  1  0  0  0  0
  1 30  1  0  0  0  0
  1 31  1  0  0  0  0
  2  3  1  0  0  0  0
  2 32  1  0  0  0  0
  2 33  1  0  0  0  0
  3  4  1  0  0  0  0
  3  6  1  0  0  0  0
  3 34  1  0  0  0  0
  4  5  1  0  0  0  0
  4 35  1  0  0  0  0
  4 36  1  0  0  0  0
  5 37  1  0  0  0  0
  5 38  1  0  0  0  0
  5 39  1  0  0  0  0
  6  7  1  0  0  0  0
  6 40  1  0  0  0  0
  6 41  1  0  0  0  0
  7  8  1  0  0  0  0
  7 12  1  0  0  0  0
  8  9  1  0  0  0  0
  8 42  1  0  0  0  0
  8 43  1  0  0  0  0
  9 10  1  0  0  0  0
  9 44  1  0  0  0  0
  9 45  1  0  0  0  0
 10 11  3  0  0  0  0
 12 17  1  0  0  0  0
 12 13  2  0  0  0  0
 13 14  1  0  0  0  0
 14 15  2  0  0  0  0
 14 46  1  0  0  0  0
 15 16  1  0  0  0  0
 16 20  1  0  0  0  0
 16 17  2  0  0  0  0
 17 18  1  0  0  0  0
 18 19  2  0  0  0  0
 19 20  1  0  0  0  0
 19 47  1  0  0  0  0
 20 21  1  0  0  0  0
 21 22  1  0  0  0  0
 21 48  1  0  0  0  0
 21 49  1  0  0  0  0
 22 23  1  0  0  0  0
 22 24  1  0  0  0  0
 22 50  1  0  0  0  0
 23 51  1  0  0  0  0
 24 28  1  0  0  0  0
 24 25  1  0  0  0  0
 24 52  1  0  0  0  0
 25 26  1  0  0  0  0
 25 53  1  0  0  0  0
 25 54  1  0  0  0  0
 26 27  1  0  0  0  0
 26 55  1  0  0  0  0
 26 56  1  0  0  0  0
 27 28  1  0  0  0  0
 27 57  1  0  0  0  0
 27 58  1  0  0  0  0
M  END
> <s_m_source_file>
AV-unprocessed.smi

> <i_m_source_file_index>
87

> <i_lp_mmshare_version>
43012

> <i_f3d_flags>
0

> <s_epik_input>
W0NIM11bQ0gyXVtDSF0oW0NIMl1bQ0gzXSlbQ0gyXU4oW0NIMl1bQ0gyXUMjTiljKG5bY0hdbjEpYyhjMTIpbltjSF1uMltDSDJdW0NASF0oW09IXSlbQ0BASF0zW0NIMl1bQ0gyXVtDSDJdTzM=

> <s_epik_cmdline>
J2VwaWtfcHl0aG9uJywgJy1waCcsICc3LjAnLCAnLXRuJywgJzgnLCAnLW1hJywgJzIwMCcsICctbWV0YWxfYmluZGluZycsICctaW1hZScsICc8aW5maWxlLm1hZT4nLCAnLW9tYWUnLCAnPG91dGZpbGUubWFlPic=

> <r_lp_tautomer_probability>
1

> <r_epik_Ionization_Penalty>
0.000348566

> <r_epik_Ionization_Penalty_Charging>
0

> <r_epik_Ionization_Penalty_Neutral>
0.000348566

> <r_epik_State_Penalty>
-0

> <r_epik_Charging_Adjusted_Penalty>
0

> <i_epik_Tot_Q>
0

> <i_epik_Tot_abs_Q>
0

> <r_epik_Metal_State_Penalty>
-0

> <b_epik_Metal_Only>
0

> <s_lp_Force_Field>
OPLS_2005

> <r_lp_Energy>
38.5026

> <b_lp_Chiralities_Consistent>
1

> <s_lp_Variant>
AV-unprocessed.smi:87-4

> <Gold.Version>
5.8.1

> <Gold.Id.Protein>
6NUR|6NUR_protein|mol2

> <Gold.PLP.Fitness>
44.8574

> <Gold.PLP.PLP>
-39.8983

> <Gold.PLP.part.hbond>
-2.0000

> <Gold.PLP.part.metal>
0.0000

> <Gold.PLP.part.buried>
-5.6609

> <Gold.PLP.part.nonpolar>
-32.1922

> <Gold.PLP.part.repulsive>
0.2661

> <Gold.PLP.ligand.clash>
0.0000

> <Gold.PLP.ligand.torsion>
2.7492

> <Gold.PLP.Chemscore.Hbond>
2.0000

> <Gold.PLP.Chemscore.CHOScore>
1.0000

> <Gold.PLP.Chemscore.Metal>
0.0000

> <Gold.Chemscore.Hbonds>
donor molecule, donor type, donor heavy atom, donor atom, acceptor molecule, acceptor atom, score
      L1  H    23    51       P1  7948  0.90
      P1  H  6896  6907       L1    13  0.89
      L1  C    19    47       P1 10747  0.94

> <Gold.PLP.Chemscore.Internal.Correction>
1.4575

> <Gold.Rescore>
     Score         DG    S(hbond)    S(metal)    S(lipo)     H(rot)  DE(clash)    DE(int)     intcor
      8.08     -12.26       1.91        0.00      77.00       3.37       0.01       4.17       ----

> <Gold.Chemscore.Fitness>
8.0828

> <Gold.Chemscore.DG>
-12.2607

> <Gold.Chemscore.ZeroCoef>
-5.4800

> <Gold.Chemscore.Hbond>
1.9136

> <Gold.Chemscore.Metal>
0.0000

> <Gold.Chemscore.Lipo>
77.0021

> <Gold.Chemscore.Internal_Hbond>
0.0000

> <Gold.Chemscore.DEClash>
0.0069

> <Gold.Chemscore.DEInternal>
4.1710

> <Gold.Chemscore.Rot>
3.3672

> <Gold.Chemscore.Internal.Correction>
   9.000000E+99

> <Gold.Chemscore.Hbonds>
donor molecule, donor type, donor heavy atom, donor atom, acceptor molecule, acceptor atom, score
      L1  H    23    51       P1  7948  0.88
      P1  H  6896  6907       L1    13  0.52

> <Gold.Chemscore.Hbond.Weighted>
-6.3915

> <Gold.Chemscore.Metal.Weighted>
-0.0000

> <Gold.Chemscore.Lipo.Weighted>
-9.0092

> <Gold.Chemscore.Internal_Hbond.Weighted>
0.0000

> <Gold.Chemscore.DEClash.Weighted>
0.0069

> <Gold.Chemscore.DEInternal.Weighted>
4.1710

> <Gold.Chemscore.Rot.Weighted>
8.6201

> <Gold.Chemscore.Internal.Correction.Weighted>
   9.000000E+99

> <Gold.Protein.RotatedTorsions>
[ 6907 6896 6895 6894 ] final -142.72 input  -60.11 | X-H torsion
[ 7974 7965 7964 7962 ] final  136.16 input  175.53 | X-H torsion
[ 8008 7997 7996 7995 ] final  127.78 input   59.86 | X-H torsion
[ 10167 10162 10161 10158 ] final   72.39 input  -65.29 | X-H torsion
[ 10718 10713 10712 10709 ] final -135.99 input   66.30 | X-H torsion
[ 10763 10752 10751 10750 ] final  -94.04 input  -60.55 | X-H torsion
[ 11005 11000 10999 10996 ] final   -1.66 input  -57.11 | X-H torsion

> <Gold.Protein.ActiveResidues>
 VAL166  LYS551  ARG553  GLY616  TRP617  ASP618  TYR619  PRO620  LYS621  CYS622 
 ASP623  PHE694  ASN695  SER759  ASP760  ASP761  ALA762  ILE779  LEU786  VAL792 
 PHE793  MET794  SER795  GLU796  ALA797  LYS798  CYS799  TRP800  GLU811  SER814 

> <Gold.Protein.RotatedAtoms>
  151.0908  133.5317  159.2614 H   0  0  0  0  0  0  0  0  0  0  0  0  # atno 6907 bound_to 6896
  151.2185  135.0508  159.8950 H   0  0  0  0  0  0  0  0  0  0  0  0  # atno 6908 bound_to 6896
  152.5434  134.0714  159.8249 H   0  0  0  0  0  0  0  0  0  0  0  0  # atno 6909 bound_to 6896
  144.9592  139.4730  143.5488 H   0  0  0  0  0  0  0  0  0  0  0  0  # atno 7974 bound_to 7965
  156.2899  140.2660  156.2329 H   0  0  0  0  0  0  0  0  0  0  0  0  # atno 8008 bound_to 7997
  155.0054  140.0387  157.2396 H   0  0  0  0  0  0  0  0  0  0  0  0  # atno 8009 bound_to 7997
  154.7564  140.2752  155.6255 H   0  0  0  0  0  0  0  0  0  0  0  0  # atno 8010 bound_to 7997
  140.0358  144.5429  150.7472 H   0  0  0  0  0  0  0  0  0  0  0  0  # atno 10167 bound_to 10162
  156.2722  130.7272  151.1242 H   0  0  0  0  0  0  0  0  0  0  0  0  # atno 10718 bound_to 10713
  154.7017  135.5172  153.8536 H   0  0  0  0  0  0  0  0  0  0  0  0  # atno 10763 bound_to 10752
  153.0709  135.6601  154.0259 H   0  0  0  0  0  0  0  0  0  0  0  0  # atno 10764 bound_to 10752
  154.0117  135.3001  155.3371 H   0  0  0  0  0  0  0  0  0  0  0  0  # atno 10765 bound_to 10752
  140.6498  133.9414  155.8373 H   0  0  0  0  0  0  0  0  0  0  0  0  # atno 11005 bound_to 11000
  146.3347  139.8730  142.8837 LP  0  0  0  0  0  0  0  0  0  0  0  0  # atno 17320 bound_to 7965
  145.2726  141.0113  143.3763 LP  0  0  0  0  0  0  0  0  0  0  0  0  # atno 17321 bound_to 7965
  140.7282  143.2659  151.4046 LP  0  0  0  0  0  0  0  0  0  0  0  0  # atno 17342 bound_to 10162
  139.6046  144.1224  152.2235 LP  0  0  0  0  0  0  0  0  0  0  0  0  # atno 17343 bound_to 10162
  157.7287  131.0629  150.5806 LP  0  0  0  0  0  0  0  0  0  0  0  0  # atno 17370 bound_to 10713
  156.5903  130.4327  149.5939 LP  0  0  0  0  0  0  0  0  0  0  0  0  # atno 17371 bound_to 10713
  141.0545  134.0436  157.3740 LP  0  0  0  0  0  0  0  0  0  0  0  0  # atno 17394 bound_to 11000
  139.9050  135.0177  156.7443 LP  0  0  0  0  0  0  0  0  0  0  0  0  # atno 17395 bound_to 11000

$$$$
