#       Name:                AV-unprocessed.smi:1550
#       Creating user name   scv26
#       Creation time:       Fri Mar 27 06:40:16 2020


#       File generated by GOLD software.
#

@<TRIPOS>MOLECULE
AV-unprocessed.smi:1550
    51    52     1
SMALL
NO_CHARGES


@<TRIPOS>ATOM
      1 ****        -1.4622  -2.8905   2.2268 C.3            1 S1                 0.0000
      2 ****        -1.0443  -2.0883   0.9857 C.3            1 S1                 0.0000
      3 ****         0.3801  -2.0565   0.9558 O.3            1 S1                 0.0000
      4 ****         0.9588  -1.5970  -0.2608 C.3            1 S1                 0.0000
      5 ****         2.4860  -1.6503  -0.1284 C.3            1 S1                 0.0000
      6 ****         3.1886  -1.4393  -1.4840 C.3            1 S1                 0.0000
      7 ****         4.7106  -1.4047  -1.3031 C.3            1 S1                 0.0000
      8 ****         5.0805  -0.3668  -0.2382 C.3            1 S1                 0.0000
      9 ****         4.2803  -0.6152   1.0501 C.3            1 S1                 0.0000
     10 ****         2.8857  -0.6099   0.7616 O.3            1 S1                 0.0000
     11 ****        -1.6072  -0.6583   1.0301 C.2            1 S1                 0.0000
     12 ****        -1.3772   0.0540   2.0074 O.2            1 S1                 0.0000
     13 ****        -2.3340  -0.2882  -0.0426 N.am           1 S1                 0.0000
     14 ****        -2.9190   0.9561  -0.3278 C.2            1 S1                 0.0000
     15 ****        -2.5277   2.1363   0.2198 C.2            1 S1                 0.0000
     16 ****        -3.1628   3.3962  -0.1284 C.2            1 S1                 0.0000
     17 ****        -2.6751   4.7178   0.4450 C.3            1 S1                 0.0000
     18 ****        -2.9160   5.7279  -0.3920 F              1 S1                 0.0000
     19 ****        -3.3004   4.9721   1.5936 F              1 S1                 0.0000
     20 ****        -1.3646   4.6782   0.6867 F              1 S1                 0.0000
     21 ****        -4.1441   3.3392  -1.0478 C.2            1 S1                 0.0000
     22 ****        -4.5524   2.1299  -1.6152 N.am           1 S1                 0.0000
     23 ****        -4.0031   0.9297  -1.3233 C.2            1 S1                 0.0000
     24 ****        -4.4112  -0.0917  -1.8751 O.2            1 S1                 0.0000
     25 ****        -5.3013   2.1704  -2.2914 H              1 S1                 0.0000
     26 ****        -2.5477  -2.9432   2.3180 H              1 S1                 0.0000
     27 ****        -1.0693  -2.4472   3.1427 H              1 S1                 0.0000
     28 ****        -1.0869  -3.9125   2.1701 H              1 S1                 0.0000
     29 ****        -1.4128  -2.6091   0.0995 H              1 S1                 0.0000
     30 ****         0.6340  -2.2482  -1.0737 H              1 S1                 0.0000
     31 ****         0.6428  -0.5829  -0.5082 H              1 S1                 0.0000
     32 ****         2.7735  -2.6196   0.2832 H              1 S1                 0.0000
     33 ****         2.9151  -2.2321  -2.1808 H              1 S1                 0.0000
     34 ****         2.8536  -0.5016  -1.9297 H              1 S1                 0.0000
     35 ****         5.0672  -2.3890  -0.9968 H              1 S1                 0.0000
     36 ****         5.2018  -1.1720  -2.2481 H              1 S1                 0.0000
     37 ****         6.1505  -0.4006  -0.0320 H              1 S1                 0.0000
     38 ****         4.8644   0.6348  -0.6121 H              1 S1                 0.0000
     39 ****         4.5640  -1.5630   1.5101 H              1 S1                 0.0000
     40 ****         4.4912   0.1675   1.7787 H              1 S1                 0.0000
     41 ****        -2.5157  -1.0065  -0.7289 H              1 S1                 0.0000
     42 ****        -1.7119   2.1749   0.9236 H              1 S1                 0.0000
     43 ****        -4.6797   4.1999  -1.4202 H              1 S1                 0.0000
     44 ****         0.7123  -2.9847   1.1234 LP             1 S1                 0.0000
     45 ****         0.6900  -1.4537   1.6910 LP             1 S1                 0.0000
     46 ****         2.3842  -0.7175   1.6201 LP             1 S1                 0.0000
     47 ****         2.6514   0.2693   0.3466 LP             1 S1                 0.0000
     48 ****        -0.8278  -0.2986   2.7649 LP             1 S1                 0.0000
     49 ****        -1.7398   0.9852   2.0438 LP             1 S1                 0.0000
     50 ****        -4.0011  -0.9768  -1.6551 LP             1 S1                 0.0000
     51 ****        -5.1530  -0.0366  -2.5435 LP             1 S1                 0.0000
@<TRIPOS>BOND
    1    1    2 1     
    2    1   26 1     
    3    1   27 1     
    4    1   28 1     
    5    2    3 1     
    6    2   11 1     
    7    2   29 1     
    8    3    4 1     
    9    4    5 1     
   10    4   30 1     
   11    4   31 1     
   12    5   10 1     
   13    5    6 1     
   14    5   32 1     
   15    6    7 1     
   16    6   33 1     
   17    6   34 1     
   18    7    8 1     
   19    7   35 1     
   20    7   36 1     
   21    8    9 1     
   22    8   37 1     
   23    8   38 1     
   24    9   10 1     
   25    9   39 1     
   26    9   40 1     
   27   11   12 2     
   28   11   13 am    
   29   13   14 1     
   30   13   41 1     
   31   14   23 1     
   32   14   15 2     
   33   15   16 1     
   34   15   42 1     
   35   16   17 1     
   36   16   21 2     
   37   17   18 1     
   38   17   19 1     
   39   17   20 1     
   40   21   22 1     
   41   21   43 1     
   42   22   25 1     
   43   22   23 am    
   44   23   24 2     
   45    3   44 1     
   46    3   45 1     
   47   10   46 1     
   48   10   47 1     
   49   12   48 1     
   50   12   49 1     
   51   24   50 1     
   52   24   51 1     
@<TRIPOS>SUBSTRUCTURE
      1 S1             1
@<TRIPOS>SET
LONE_PAIRS      STATIC     ATOMS    <user>   **** ""
8 44 45 46 47 48 49 50 51
DONOR_HYDROGENS      STATIC     ATOMS    <user>   **** ""
2 41 25
ATOM$BLUE        STATIC     ATOMS    COLORGROUP SYSTEM
8 44 45 46 47 48 49 50 51
ATOM$RED        STATIC     ATOMS    COLORGROUP SYSTEM
2 41 25
