AV-unprocessed.smi:1115|AV-procd|sdf|4805|dock1
  -GOLD-   22720 3353D 1   1.00000     0.00000
 Structure written by MMmdl.
 51 52  0  0  0  0  0  0  0  0  2 V2000
  152.2012  144.0931  161.1193 C   0  0  0  0  0  0  0  0  0  0  0  0
  152.1259  144.0571  159.6641 N   0  0  0  0  0  0  0  0  0  0  0  0
  152.2498  145.2937  158.8991 C   0  0  0  0  0  0  0  0  0  0  0  0
  152.0056  142.8211  158.9885 C   0  0  0  0  0  0  0  0  0  0  0  0
  151.3774  142.7285  157.7214 C   0  0  0  0  0  0  0  0  0  0  0  0
  151.2818  141.4749  157.0871 C   0  0  0  0  0  0  0  0  0  0  0  0
  151.8231  140.3377  157.7291 C   0  0  0  0  0  0  0  0  0  0  0  0
  151.7702  139.0181  157.2043 N   0  0  0  0  0  0  0  0  0  0  0  0
  150.9518  138.5258  156.2588 C   0  0  0  0  0  0  0  0  0  0  0  0
  150.1122  139.1746  155.6351 O   0  0  0  0  0  0  0  0  0  0  0  0
  151.1825  137.2215  156.0500 N   0  0  0  0  0  0  0  0  0  0  0  0
  150.4697  136.3741  155.0935 C   0  0  0  0  0  0  0  0  0  0  0  0
  149.0550  135.9238  155.5718 C   0  0  0  0  0  0  0  0  0  0  0  0
  149.2198  135.1130  156.8850 C   0  0  0  0  0  0  0  0  0  0  0  0
  148.1856  137.1655  155.8868 C   0  0  0  0  0  0  0  0  0  0  0  0
  148.4271  135.0730  154.4925 N   0  3  0  0  0  0  0  0  0  0  0  0
  149.1006  133.7738  154.2011 C   0  0  0  0  0  0  0  0  0  0  0  0
  148.4525  133.0737  152.9931 C   0  0  0  0  0  0  0  0  0  0  0  0
  147.0632  132.8917  153.2198 O   0  0  0  0  0  0  0  0  0  0  0  0
  146.3973  134.1337  153.3881 C   0  0  0  0  0  0  0  0  0  0  0  0
  146.9586  134.8466  154.6283 C   0  0  0  0  0  0  0  0  0  0  0  0
  152.4163  140.5248  158.9927 C   0  0  0  0  0  0  0  0  0  0  0  0
  152.5119  141.7241  159.6029 N   0  0  0  0  0  0  0  0  0  0  0  0
  153.0604  143.5224  161.4727 H   0  0  0  0  0  0  0  0  0  0  0  0
  151.2965  143.6745  161.5607 H   0  0  0  0  0  0  0  0  0  0  0  0
  152.3071  145.1140  161.4865 H   0  0  0  0  0  0  0  0  0  0  0  0
  153.1385  145.2652  158.2677 H   0  0  0  0  0  0  0  0  0  0  0  0
  152.3334  146.1615  159.5536 H   0  0  0  0  0  0  0  0  0  0  0  0
  151.3765  145.4399  158.2628 H   0  0  0  0  0  0  0  0  0  0  0  0
  150.9621  143.5921  157.2245 H   0  0  0  0  0  0  0  0  0  0  0  0
  150.7831  141.4122  156.1326 H   0  0  0  0  0  0  0  0  0  0  0  0
  152.4694  138.3840  157.5625 H   0  0  0  0  0  0  0  0  0  0  0  0
  151.8990  136.7750  156.6041 H   0  0  0  0  0  0  0  0  0  0  0  0
  150.4062  136.9741  154.1882 H   0  0  0  0  0  0  0  0  0  0  0  0
  151.0680  135.5009  154.8272 H   0  0  0  0  0  0  0  0  0  0  0  0
  149.7504  135.6754  157.6524 H   0  0  0  0  0  0  0  0  0  0  0  0
  149.7761  134.1898  156.7177 H   0  0  0  0  0  0  0  0  0  0  0  0
  148.2618  134.8577  157.3376 H   0  0  0  0  0  0  0  0  0  0  0  0
  148.5844  137.7242  156.7341 H   0  0  0  0  0  0  0  0  0  0  0  0
  147.1631  136.8900  156.1452 H   0  0  0  0  0  0  0  0  0  0  0  0
  148.1415  137.8603  155.0481 H   0  0  0  0  0  0  0  0  0  0  0  0
  150.1514  133.9118  153.9530 H   0  0  0  0  0  0  0  0  0  0  0  0
  149.0542  133.1239  155.0756 H   0  0  0  0  0  0  0  0  0  0  0  0
  148.6110  133.6495  152.0796 H   0  0  0  0  0  0  0  0  0  0  0  0
  148.9127  132.0982  152.8350 H   0  0  0  0  0  0  0  0  0  0  0  0
  146.5085  134.7514  152.4953 H   0  0  0  0  0  0  0  0  0  0  0  0
  145.3308  133.9457  153.5142 H   0  0  0  0  0  0  0  0  0  0  0  0
  146.7516  134.2362  155.5079 H   0  0  0  0  0  0  0  0  0  0  0  0
  146.4143  135.7797  154.7521 H   0  0  0  0  0  0  0  0  0  0  0  0
  152.8335  139.6871  159.5323 H   0  0  0  0  0  0  0  0  0  0  0  0
  148.5396  135.6138  153.6465 H   0  0  0  0  0  0  0  0  0  0  0  0
  1  2  1  0  0  0  0
  1 24  1  0  0  0  0
  1 25  1  0  0  0  0
  1 26  1  0  0  0  0
  2  3  1  0  0  0  0
  2  4  1  0  0  0  0
  3 27  1  0  0  0  0
  3 28  1  0  0  0  0
  3 29  1  0  0  0  0
  4 23  1  0  0  0  0
  4  5  2  0  0  0  0
  5  6  1  0  0  0  0
  5 30  1  0  0  0  0
  6  7  2  0  0  0  0
  6 31  1  0  0  0  0
  7  8  1  0  0  0  0
  7 22  1  0  0  0  0
  8  9  1  0  0  0  0
  8 32  1  0  0  0  0
  9 10  2  0  0  0  0
  9 11  1  0  0  0  0
 11 12  1  0  0  0  0
 11 33  1  0  0  0  0
 12 13  1  0  0  0  0
 12 34  1  0  0  0  0
 12 35  1  0  0  0  0
 13 14  1  0  0  0  0
 13 15  1  0  0  0  0
 13 16  1  0  0  0  0
 14 36  1  0  0  0  0
 14 37  1  0  0  0  0
 14 38  1  0  0  0  0
 15 39  1  0  0  0  0
 15 40  1  0  0  0  0
 15 41  1  0  0  0  0
 16 21  1  0  0  0  0
 16 17  1  0  0  0  0
 16 51  1  0  0  0  0
 17 18  1  0  0  0  0
 17 42  1  0  0  0  0
 17 43  1  0  0  0  0
 18 19  1  0  0  0  0
 18 44  1  0  0  0  0
 18 45  1  0  0  0  0
 19 20  1  0  0  0  0
 20 21  1  0  0  0  0
 20 46  1  0  0  0  0
 20 47  1  0  0  0  0
 21 48  1  0  0  0  0
 21 49  1  0  0  0  0
 22 23  2  0  0  0  0
 22 50  1  0  0  0  0
M  CHG  1  16   1
M  END
> <s_m_source_file>
AV-unprocessed.smi

> <i_m_source_file_index>
1115

> <i_lp_mmshare_version>
43012

> <i_f3d_flags>
0

> <s_epik_input>
W0NIM11OKFtDSDNdKWMxW2NIXVtjSF1jKFtjSF1uMSlbTkhdQyg9TylbTkhdW0NIMl1DKFtDSDNdKShbQ0gzXSlOMltDSDJdW0NIMl1PW0NIMl1bQ0gyXTI=

> <s_epik_cmdline>
J2VwaWtfcHl0aG9uJywgJy1waCcsICc3LjAnLCAnLXRuJywgJzgnLCAnLW1hJywgJzIwMCcsICctbWV0YWxfYmluZGluZycsICctaW1hZScsICc8aW5maWxlLm1hZT4nLCAnLW9tYWUnLCAnPG91dGZpbGUubWFlPic=

> <r_epik_Ionization_Penalty>
1.14783

> <r_epik_Ionization_Penalty_Charging>
0.602531

> <r_epik_Ionization_Penalty_Neutral>
0.545303

> <r_epik_State_Penalty>
1.19446

> <r_epik_Charging_Adjusted_Penalty>
1.79699

> <i_epik_Tot_Q>
1

> <i_epik_Tot_abs_Q>
1

> <r_epik_Metal_State_Penalty>
0.937982

> <b_epik_Metal_Only>
0

> <s_lp_Force_Field>
OPLS_2005

> <r_lp_Energy>
30.1641

> <b_lp_Chiralities_Consistent>
1

> <s_lp_Variant>
AV-unprocessed.smi:1115-4

> <Gold.Version>
5.8.1

> <Gold.Id.Protein>
6NUR|6NUR_protein|mol2

> <Gold.PLP.Fitness>
42.2338

> <Gold.PLP.PLP>
-37.6649

> <Gold.PLP.part.hbond>
-1.0000

> <Gold.PLP.part.metal>
0.0000

> <Gold.PLP.part.buried>
-6.8418

> <Gold.PLP.part.nonpolar>
-29.9389

> <Gold.PLP.part.repulsive>
0.2857

> <Gold.PLP.ligand.clash>
0.0000

> <Gold.PLP.ligand.torsion>
0.7643

> <Gold.PLP.Chemscore.Hbond>
2.0000

> <Gold.PLP.Chemscore.CHOScore>
0.0000

> <Gold.PLP.Chemscore.Metal>
0.0000

> <Gold.Chemscore.Hbonds>
donor molecule, donor type, donor heavy atom, donor atom, acceptor molecule, acceptor atom, score
      L1  H    16    51       P1  7948  2.00

> <Gold.PLP.Chemscore.Internal.Correction>
0.0975

> <Gold.Rescore>
     Score         DG    S(hbond)    S(metal)    S(lipo)     H(rot)  DE(clash)    DE(int)     intcor
     12.04     -15.14       0.97        0.00      86.97       1.46       0.02       3.08       ----

> <Gold.Chemscore.Fitness>
12.0433

> <Gold.Chemscore.DG>
-15.1421

> <Gold.Chemscore.ZeroCoef>
-5.4800

> <Gold.Chemscore.Hbond>
0.9691

> <Gold.Chemscore.Metal>
0.0000

> <Gold.Chemscore.Lipo>
86.9678

> <Gold.Chemscore.Internal_Hbond>
0.0000

> <Gold.Chemscore.DEClash>
0.0234

> <Gold.Chemscore.DEInternal>
3.0753

> <Gold.Chemscore.Rot>
1.4648

> <Gold.Chemscore.Internal.Correction>
   9.000000E+99

> <Gold.Chemscore.Hbonds>
donor molecule, donor type, donor heavy atom, donor atom, acceptor molecule, acceptor atom, score
      L1  H    16    51       P1  7948  0.99

> <Gold.Chemscore.Hbond.Weighted>
-3.2367

> <Gold.Chemscore.Metal.Weighted>
-0.0000

> <Gold.Chemscore.Lipo.Weighted>
-10.1752

> <Gold.Chemscore.Internal_Hbond.Weighted>
0.0000

> <Gold.Chemscore.DEClash.Weighted>
0.0234

> <Gold.Chemscore.DEInternal.Weighted>
3.0753

> <Gold.Chemscore.Rot.Weighted>
3.7499

> <Gold.Chemscore.Internal.Correction.Weighted>
   9.000000E+99

> <Gold.Protein.RotatedTorsions>
[ 6907 6896 6895 6894 ] final  -77.69 input  -60.11 | X-H torsion
[ 7974 7965 7964 7962 ] final  115.84 input  175.53 | X-H torsion
[ 8008 7997 7996 7995 ] final  -40.15 input   59.86 | X-H torsion
[ 10167 10162 10161 10158 ] final -164.82 input  -65.29 | X-H torsion
[ 10718 10713 10712 10709 ] final   -2.79 input   66.30 | X-H torsion
[ 10763 10752 10751 10750 ] final   -1.70 input  -60.55 | X-H torsion
[ 11005 11000 10999 10996 ] final   15.56 input  -57.11 | X-H torsion

> <Gold.Protein.ActiveResidues>
 VAL166  LYS551  ARG553  GLY616  TRP617  ASP618  TYR619  PRO620  LYS621  CYS622 
 ASP623  PHE694  ASN695  SER759  ASP760  ASP761  ALA762  ILE779  LEU786  VAL792 
 PHE793  MET794  SER795  GLU796  ALA797  LYS798  CYS799  TRP800  GLU811  SER814 

> <Gold.Protein.RotatedAtoms>
  150.6992  134.4385  159.5280 H   0  0  0  0  0  0  0  0  0  0  0  0  # atno 6907 bound_to 6896
  152.2099  134.8508  160.0507 H   0  0  0  0  0  0  0  0  0  0  0  0  # atno 6908 bound_to 6896
  151.9398  133.3599  159.3998 H   0  0  0  0  0  0  0  0  0  0  0  0  # atno 6909 bound_to 6896
  145.1870  139.3020  143.4388 H   0  0  0  0  0  0  0  0  0  0  0  0  # atno 7974 bound_to 7965
  154.4015  140.1533  156.2980 H   0  0  0  0  0  0  0  0  0  0  0  0  # atno 8008 bound_to 7997
  155.8726  140.3448  155.5810 H   0  0  0  0  0  0  0  0  0  0  0  0  # atno 8009 bound_to 7997
  155.7757  140.0836  157.2076 H   0  0  0  0  0  0  0  0  0  0  0  0  # atno 8010 bound_to 7997
  139.6224  144.0598  152.1945 H   0  0  0  0  0  0  0  0  0  0  0  0  # atno 10167 bound_to 10162
  156.7856  130.5345  149.5744 H   0  0  0  0  0  0  0  0  0  0  0  0  # atno 10718 bound_to 10713
  153.3483  135.6984  153.6809 H   0  0  0  0  0  0  0  0  0  0  0  0  # atno 10763 bound_to 10752
  153.5546  135.3547  155.2774 H   0  0  0  0  0  0  0  0  0  0  0  0  # atno 10764 bound_to 10752
  154.8649  135.4235  154.2712 H   0  0  0  0  0  0  0  0  0  0  0  0  # atno 10765 bound_to 10752
  140.4570  134.1166  155.7710 H   0  0  0  0  0  0  0  0  0  0  0  0  # atno 11005 bound_to 11000
  146.3443  140.2070  142.8589 LP  0  0  0  0  0  0  0  0  0  0  0  0  # atno 17320 bound_to 7965
  145.0079  140.8688  143.5242 LP  0  0  0  0  0  0  0  0  0  0  0  0  # atno 17321 bound_to 7965
  140.0243  144.6129  150.7540 LP  0  0  0  0  0  0  0  0  0  0  0  0  # atno 17342 bound_to 10162
  140.7390  143.2786  151.3667 LP  0  0  0  0  0  0  0  0  0  0  0  0  # atno 17343 bound_to 10162
  156.1191  130.6096  151.0166 LP  0  0  0  0  0  0  0  0  0  0  0  0  # atno 17370 bound_to 10713
  157.6625  131.0878  150.7804 LP  0  0  0  0  0  0  0  0  0  0  0  0  # atno 17371 bound_to 10713
  141.1638  133.8741  157.1772 LP  0  0  0  0  0  0  0  0  0  0  0  0  # atno 17394 bound_to 11000
  139.9970  135.0043  157.0104 LP  0  0  0  0  0  0  0  0  0  0  0  0  # atno 17395 bound_to 11000

$$$$
