#       Name:                AV-unprocessed.smi:72
#       Creating user name   scv26
#       Creation time:       Thu Mar 26 17:03:32 2020


#       File generated by GOLD software.
#

@<TRIPOS>MOLECULE
AV-unprocessed.smi:72
    41    42     1
SMALL
NO_CHARGES


@<TRIPOS>ATOM
      1 ****        -4.1078   2.8824   1.8267 N.2            1 S1                 0.0000
      2 ****        -3.1313   2.3248   1.2573 C.2            1 S1                 0.0000
      3 ****        -2.0250   1.8200   2.0409 N.2            1 S1                 0.0000
      4 ****        -1.0400   1.2611   1.4074 C.2            1 S1                 0.0000
      5 ****        -1.0296   1.1414  -0.0451 N.am           1 S1                 0.0000
      6 ****         0.1188   0.4854  -0.7924 C.3            1 S1                 0.0000
      7 ****         1.2751   0.5039  -0.0010 O.3            1 S1                 0.0000
      8 ****         1.6267  -0.8249   0.3651 C.3            1 S1                 0.0000
      9 ****         3.1172  -0.9153   0.7392 C.3            1 S1                 0.0000
     10 ****         3.9592  -0.8316  -0.3925 O.3            1 S1                 0.0000
     11 ****         1.1496  -1.6698  -0.8163 C.3            1 S1                 0.0000
     12 ****         1.0126  -3.0420  -0.4963 O.3            1 S1                 0.0000
     13 ****        -0.1681  -0.9893  -1.1763 C.3            1 S1                 0.0000
     14 ****        -1.2696  -1.5537  -0.4796 O.3            1 S1                 0.0000
     15 ****        -2.1360   1.6335  -0.7868 C.2            1 S1                 0.0000
     16 ****        -2.1191   1.4982  -2.0105 O.2            1 S1                 0.0000
     17 ****        -3.1665   2.2197  -0.1156 N.pl3          1 S1                -1.0000
     18 ****         0.3133   1.1239  -1.6557 H              1 S1                 0.0000
     19 ****         1.0338  -1.0782   1.2458 H              1 S1                 0.0000
     20 ****         1.8330  -1.5682  -1.6598 H              1 S1                 0.0000
     21 ****        -0.3731  -1.0525  -2.2454 H              1 S1                 0.0000
     22 ****        -4.8113   3.1882   1.1702 H              1 S1                 0.0000
     23 ****        -0.1715   0.8493   1.9208 H              1 S1                 0.0000
     24 ****         3.3811  -0.1323   1.4505 H              1 S1                 0.0000
     25 ****         3.3135  -1.8694   1.2288 H              1 S1                 0.0000
     26 ****         4.8563  -0.9052  -0.1050 H              1 S1                 0.0000
     27 ****         0.5915  -3.4761  -1.2222 H              1 S1                 0.0000
     28 ****        -2.0335  -1.0237  -0.6519 H              1 S1                 0.0000
     29 ****        -4.1778   3.0076   2.8163 LP             1 S1                 0.0000
     30 ****        -2.0195   1.8991   3.0377 LP             1 S1                 0.0000
     31 ****         1.1044   1.0420   0.8244 LP             1 S1                 0.0000
     32 ****         2.0254   0.9158  -0.5182 LP             1 S1                 0.0000
     33 ****         3.8227   0.0469  -0.8502 LP             1 S1                 0.0000
     34 ****         3.7463  -1.5746  -1.0270 LP             1 S1                 0.0000
     35 ****         0.4547  -3.1429   0.3275 LP             1 S1                 0.0000
     36 ****         1.9146  -3.4441  -0.3393 LP             1 S1                 0.0000
     37 ****        -1.0795  -1.5636   0.5021 LP             1 S1                 0.0000
     38 ****        -1.4279  -2.4884  -0.7979 LP             1 S1                 0.0000
     39 ****        -1.3413   1.0524  -2.4536 LP             1 S1                 0.0000
     40 ****        -2.8832   1.8340  -2.5613 LP             1 S1                 0.0000
     41 ****        -3.9520   2.5753  -0.6220 LP             1 S1                 0.0000
@<TRIPOS>BOND
    1    1    2 2     
    2    1   22 1     
    3    2   17 1     
    4    2    3 1     
    5    3    4 2     
    6    4    5 1     
    7    4   23 1     
    8    5    6 1     
    9    5   15 am    
   10    6   18 1     
   11    6   13 1     
   12    6    7 1     
   13    7    8 1     
   14    8   19 1     
   15    8    9 1     
   16    8   11 1     
   17    9   10 1     
   18    9   24 1     
   19    9   25 1     
   20   10   26 1     
   21   11   20 1     
   22   11   12 1     
   23   11   13 1     
   24   12   27 1     
   25   13   21 1     
   26   13   14 1     
   27   14   28 1     
   28   15   16 2     
   29   15   17 1     
   30    1   29 1     
   31    3   30 1     
   32    7   31 1     
   33    7   32 1     
   34   10   33 1     
   35   10   34 1     
   36   12   35 1     
   37   12   36 1     
   38   14   37 1     
   39   14   38 1     
   40   16   39 1     
   41   16   40 1     
   42   17   41 1     
@<TRIPOS>SUBSTRUCTURE
      1 S1             1
@<TRIPOS>SET
LONE_PAIRS      STATIC     ATOMS    <user>   **** ""
13 29 30 31 32 33 34 35 36 37 38 39 40 41
DONOR_HYDROGENS      STATIC     ATOMS    <user>   **** ""
4 22 26 27 28
ATOM$BLUE        STATIC     ATOMS    COLORGROUP SYSTEM
13 29 30 31 32 33 34 35 36 37 38 39 40 41
ATOM$RED        STATIC     ATOMS    COLORGROUP SYSTEM
4 22 26 27 28
