AV-unprocessed.smi:1769|AV-procd|sdf|7154|dock7
  -GOLD-   22720 8393D 1   1.00000     0.00000
 Structure written by MMmdl.
 42 43  0  0  0  0  0  0  0  0  2 V2000
  151.2077  137.6490  154.4679 C   0  0  0  0  0  0  0  0  0  0  0  0
  150.9691  139.1287  154.7770 C   0  0  0  0  0  0  0  0  0  0  0  0
  151.9456  139.8780  154.8132 O   0  0  0  0  0  0  0  0  0  0  0  0
  149.7057  139.5633  155.0011 N   0  0  0  0  0  0  0  0  0  0  0  0
  149.3135  140.9597  155.2322 C   0  0  0  0  0  0  0  0  0  0  0  0
  148.5478  141.4694  153.9976 C   0  0  0  0  0  0  0  0  0  0  0  0
  147.3400  140.5653  153.6826 C   0  0  0  0  0  0  0  0  0  0  0  0
  147.7454  139.0742  153.6155 C   0  0  2  0  0  0  0  0  0  0  0  0
  146.5246  138.1630  153.4432 C   0  0  0  0  0  0  0  0  0  0  0  0
  145.5878  138.2231  154.2405 O   0  0  0  0  0  0  0  0  0  0  0  0
  146.5647  137.2974  152.4171 N   0  0  0  0  0  0  0  0  0  0  0  0
  145.5602  136.2768  152.1274 C   0  0  0  0  0  0  0  0  0  0  0  0
  146.1717  134.8640  152.0375 C   0  0  0  0  0  0  0  0  0  0  0  0
  145.4725  133.9596  151.0365 C   0  0  0  0  0  0  0  0  0  0  0  0
  146.0797  132.7609  150.5990 C   0  0  0  0  0  0  0  0  0  0  0  0
  145.3881  131.9228  149.7000 C   0  0  0  0  0  0  0  0  0  0  0  0
  144.1062  132.3043  149.2544 C   0  0  0  0  0  0  0  0  0  0  0  0
  143.5598  133.4609  149.6897 N   0  3  0  0  0  0  0  0  0  0  0  0
  144.1888  134.2900  150.5511 C   0  0  0  0  0  0  0  0  0  0  0  0
  148.5355  138.6855  154.8851 C   0  0  0  0  0  0  0  0  0  0  0  0
  150.8435  137.0193  155.2801 H   0  0  0  0  0  0  0  0  0  0  0  0
  152.2726  137.4485  154.3443 H   0  0  0  0  0  0  0  0  0  0  0  0
  150.7055  137.3626  153.5436 H   0  0  0  0  0  0  0  0  0  0  0  0
  148.6724  141.0094  156.1137 H   0  0  0  0  0  0  0  0  0  0  0  0
  150.1528  141.6195  155.4471 H   0  0  0  0  0  0  0  0  0  0  0  0
  148.2135  142.4942  154.1600 H   0  0  0  0  0  0  0  0  0  0  0  0
  149.2197  141.4955  153.1386 H   0  0  0  0  0  0  0  0  0  0  0  0
  146.5844  140.7113  154.4564 H   0  0  0  0  0  0  0  0  0  0  0  0
  146.8815  140.8760  152.7430 H   0  0  0  0  0  0  0  0  0  0  0  0
  148.4002  138.9397  152.7520 H   0  0  0  0  0  0  0  0  0  0  0  0
  147.3722  137.3236  151.8107 H   0  0  0  0  0  0  0  0  0  0  0  0
  144.7677  136.2957  152.8773 H   0  0  0  0  0  0  0  0  0  0  0  0
  145.0839  136.5285  151.1796 H   0  0  0  0  0  0  0  0  0  0  0  0
  147.2247  134.9391  151.7639 H   0  0  0  0  0  0  0  0  0  0  0  0
  146.1489  134.3921  153.0207 H   0  0  0  0  0  0  0  0  0  0  0  0
  147.0573  132.4761  150.9597 H   0  0  0  0  0  0  0  0  0  0  0  0
  145.8330  130.9980  149.3626 H   0  0  0  0  0  0  0  0  0  0  0  0
  143.5050  131.7236  148.5703 H   0  0  0  0  0  0  0  0  0  0  0  0
  143.6443  135.1789  150.8343 H   0  0  0  0  0  0  0  0  0  0  0  0
  148.8095  137.6299  154.8528 H   0  0  0  0  0  0  0  0  0  0  0  0
  147.9148  138.7999  155.7756 H   0  0  0  0  0  0  0  0  0  0  0  0
  142.6300  133.7174  149.3572 H   0  0  0  0  0  0  0  0  0  0  0  0
  1  2  1  0  0  0  0
  1 21  1  0  0  0  0
  1 22  1  0  0  0  0
  1 23  1  0  0  0  0
  2  3  2  0  0  0  0
  2  4  1  0  0  0  0
  4 20  1  0  0  0  0
  4  5  1  0  0  0  0
  5  6  1  0  0  0  0
  5 24  1  0  0  0  0
  5 25  1  0  0  0  0
  6  7  1  0  0  0  0
  6 26  1  0  0  0  0
  6 27  1  0  0  0  0
  7  8  1  0  0  0  0
  7 28  1  0  0  0  0
  7 29  1  0  0  0  0
  8  9  1  0  0  0  0
  8 20  1  0  0  0  0
  8 30  1  0  0  0  0
  9 10  2  0  0  0  0
  9 11  1  0  0  0  0
 11 12  1  0  0  0  0
 11 31  1  0  0  0  0
 12 13  1  0  0  0  0
 12 32  1  0  0  0  0
 12 33  1  0  0  0  0
 13 14  1  0  0  0  0
 13 34  1  0  0  0  0
 13 35  1  0  0  0  0
 14 19  1  0  0  0  0
 14 15  2  0  0  0  0
 15 16  1  0  0  0  0
 15 36  1  0  0  0  0
 16 17  2  0  0  0  0
 16 37  1  0  0  0  0
 17 18  1  0  0  0  0
 17 38  1  0  0  0  0
 18 19  2  0  0  0  0
 18 42  1  0  0  0  0
 19 39  1  0  0  0  0
 20 40  1  0  0  0  0
 20 41  1  0  0  0  0
M  CHG  1  18   1
M  END
> <s_m_source_file>
AV-unprocessed.smi

> <i_m_source_file_index>
1769

> <i_lp_mmshare_version>
43012

> <i_f3d_flags>
0

> <s_epik_input>
W0NIM11DKD1PKU4xW0NIMl1bQ0gyXVtDSDJdW0NASF0oW0NIMl0xKUMoPU8pW05IXVtDSDJdW0NIMl1jMltjSF1bY0hdW2NIXW5bY0hdMg==

> <s_epik_cmdline>
J2VwaWtfcHl0aG9uJywgJy1waCcsICc3LjAnLCAnLXRuJywgJzgnLCAnLW1hJywgJzIwMCcsICctbWV0YWxfYmluZGluZycsICctaW1hZScsICc8aW5maWxlLm1hZT4nLCAnLW9tYWUnLCAnPG91dGZpbGUubWFlPic=

> <r_epik_Ionization_Penalty>
2.25127

> <r_epik_Ionization_Penalty_Charging>
2.25127

> <r_epik_Ionization_Penalty_Neutral>
1.02261e-06

> <r_epik_State_Penalty>
2.39841

> <r_epik_Charging_Adjusted_Penalty>
4.64968

> <i_epik_Tot_Q>
1

> <i_epik_Tot_abs_Q>
1

> <r_epik_Metal_State_Penalty>
2.41159

> <b_epik_Metal_Only>
0

> <s_lp_Force_Field>
OPLS_2005

> <r_lp_Energy>
29.6354

> <b_lp_Chiralities_Consistent>
1

> <s_lp_Variant>
AV-unprocessed.smi:1769-4

> <Gold.Version>
5.8.1

> <Gold.Id.Protein>
6NUR|6NUR_protein|mol2

> <Gold.PLP.Fitness>
49.0091

> <Gold.PLP.PLP>
-39.8366

> <Gold.PLP.part.hbond>
-3.0000

> <Gold.PLP.part.metal>
0.0000

> <Gold.PLP.part.buried>
-3.5109

> <Gold.PLP.part.nonpolar>
-35.5581

> <Gold.PLP.part.repulsive>
0.3252

> <Gold.PLP.ligand.clash>
0.0000

> <Gold.PLP.ligand.torsion>
0.5398

> <Gold.PLP.Chemscore.Hbond>
3.4080

> <Gold.PLP.Chemscore.CHOScore>
0.0000

> <Gold.PLP.Chemscore.Metal>
0.0000

> <Gold.Chemscore.Hbonds>
donor molecule, donor type, donor heavy atom, donor atom, acceptor molecule, acceptor atom, score
      L1  H    11    31       P1  7948  0.61
      L1  H    18    42       P1 10186  2.00
      P1  H  7989  7998       L1     3  0.91

> <Gold.PLP.Chemscore.Internal.Correction>
0.0280

> <Gold.Rescore>
     Score         DG    S(hbond)    S(metal)    S(lipo)     H(rot)  DE(clash)    DE(int)     intcor
     17.96     -18.56       2.15        0.00      85.78       1.61       0.03       0.57       ----

> <Gold.Chemscore.Fitness>
17.9602

> <Gold.Chemscore.DG>
-18.5625

> <Gold.Chemscore.ZeroCoef>
-5.4800

> <Gold.Chemscore.Hbond>
2.1462

> <Gold.Chemscore.Metal>
0.0000

> <Gold.Chemscore.Lipo>
85.7765

> <Gold.Chemscore.Internal_Hbond>
0.0000

> <Gold.Chemscore.DEClash>
0.0329

> <Gold.Chemscore.DEInternal>
0.5694

> <Gold.Chemscore.Rot>
1.6100

> <Gold.Chemscore.Internal.Correction>
   9.000000E+99

> <Gold.Chemscore.Hbonds>
donor molecule, donor type, donor heavy atom, donor atom, acceptor molecule, acceptor atom, score
      L1  H    11    31       P1  7948  0.60
      L1  H    18    42       P1 10186  0.98
      P1  H  7989  7998       L1     3  0.31

> <Gold.Chemscore.Hbond.Weighted>
-7.1683

> <Gold.Chemscore.Metal.Weighted>
-0.0000

> <Gold.Chemscore.Lipo.Weighted>
-10.0358

> <Gold.Chemscore.Internal_Hbond.Weighted>
0.0000

> <Gold.Chemscore.DEClash.Weighted>
0.0329

> <Gold.Chemscore.DEInternal.Weighted>
0.5694

> <Gold.Chemscore.Rot.Weighted>
4.1216

> <Gold.Chemscore.Internal.Correction.Weighted>
   9.000000E+99

> <Gold.Protein.RotatedTorsions>
[ 6907 6896 6895 6894 ] final  -92.14 input  -60.11 | X-H torsion
[ 7974 7965 7964 7962 ] final -112.12 input  175.53 | X-H torsion
[ 8008 7997 7996 7995 ] final -142.34 input   59.86 | X-H torsion
[ 10167 10162 10161 10158 ] final  -92.21 input  -65.29 | X-H torsion
[ 10718 10713 10712 10709 ] final  156.56 input   66.30 | X-H torsion
[ 10763 10752 10751 10750 ] final -130.22 input  -60.55 | X-H torsion
[ 11005 11000 10999 10996 ] final -128.84 input  -57.11 | X-H torsion

> <Gold.Protein.ActiveResidues>
 VAL166  LYS551  ARG553  GLY616  TRP617  ASP618  TYR619  PRO620  LYS621  CYS622 
 ASP623  PHE694  ASN695  SER759  ASP760  ASP761  ALA762  ILE779  LEU786  VAL792 
 PHE793  MET794  SER795  GLU796  ALA797  LYS798  CYS799  TRP800  GLU811  SER814 

> <Gold.Protein.RotatedAtoms>
  150.6902  134.2168  159.4380 H   0  0  0  0  0  0  0  0  0  0  0  0  # atno 6907 bound_to 6896
  152.0126  134.9865  160.0578 H   0  0  0  0  0  0  0  0  0  0  0  0  # atno 6908 bound_to 6896
  152.1474  133.4466  159.4833 H   0  0  0  0  0  0  0  0  0  0  0  0  # atno 6909 bound_to 6896
  145.1478  140.8813  143.3664 H   0  0  0  0  0  0  0  0  0  0  0  0  # atno 7974 bound_to 7965
  155.4926  140.0569  157.2951 H   0  0  0  0  0  0  0  0  0  0  0  0  # atno 8008 bound_to 7997
  154.4617  140.1999  156.0177 H   0  0  0  0  0  0  0  0  0  0  0  0  # atno 8009 bound_to 7997
  156.0902  140.3234  155.7810 H   0  0  0  0  0  0  0  0  0  0  0  0  # atno 8010 bound_to 7997
  140.3371  143.2962  151.9877 H   0  0  0  0  0  0  0  0  0  0  0  0  # atno 10167 bound_to 10162
  157.2033  131.0681  151.2012 H   0  0  0  0  0  0  0  0  0  0  0  0  # atno 10718 bound_to 10713
  154.8756  135.3870  154.4047 H   0  0  0  0  0  0  0  0  0  0  0  0  # atno 10763 bound_to 10752
  153.4768  135.7030  153.5966 H   0  0  0  0  0  0  0  0  0  0  0  0  # atno 10764 bound_to 10752
  153.4399  135.3858  155.2189 H   0  0  0  0  0  0  0  0  0  0  0  0  # atno 10765 bound_to 10752
  140.9482  134.1101  157.4087 H   0  0  0  0  0  0  0  0  0  0  0  0  # atno 11005 bound_to 11000
  145.0463  139.3218  143.5951 LP  0  0  0  0  0  0  0  0  0  0  0  0  # atno 17320 bound_to 7965
  146.3498  139.9855  142.8691 LP  0  0  0  0  0  0  0  0  0  0  0  0  # atno 17321 bound_to 7965
  139.4846  144.6188  151.7296 LP  0  0  0  0  0  0  0  0  0  0  0  0  # atno 17342 bound_to 10162
  140.5344  144.0680  150.6065 LP  0  0  0  0  0  0  0  0  0  0  0  0  # atno 17343 bound_to 10162
  157.3745  130.7198  149.6587 LP  0  0  0  0  0  0  0  0  0  0  0  0  # atno 17370 bound_to 10713
  155.9698  130.4189  150.4352 LP  0  0  0  0  0  0  0  0  0  0  0  0  # atno 17371 bound_to 10713
  139.8839  135.0058  156.6336 LP  0  0  0  0  0  0  0  0  0  0  0  0  # atno 17394 bound_to 11000
  140.7640  133.8794  155.8440 LP  0  0  0  0  0  0  0  0  0  0  0  0  # atno 17395 bound_to 11000

$$$$
