AV-unprocessed.smi:1700|AV-procd|sdf|6819|dock10
  -GOLD-   22720 7593D 1   1.00000     0.00000
 Structure written by MMmdl.
 34 35  0  0  0  0  0  0  0  0  1 V2000
  147.7560  133.0049  152.4313 C   0  0  0  0  0  0  0  0  0  0  0  0
  146.4018  132.9718  151.7414 C   0  0  0  0  0  0  0  0  0  0  0  0
  145.8135  131.7263  151.4350 C   0  0  0  0  0  0  0  0  0  0  0  0
  144.5619  131.6973  150.7966 C   0  0  0  0  0  0  0  0  0  0  0  0
  143.9474  132.9232  150.4898 C   0  0  0  0  0  0  0  0  0  0  0  0
  144.5023  134.1179  150.7787 N   0  0  0  0  0  0  0  0  0  0  0  0
  145.7104  134.1639  151.3948 C   0  0  0  0  0  0  0  0  0  0  0  0
  146.3577  135.3882  151.7256 N   0  0  0  0  0  0  0  0  0  0  0  0
  145.8114  136.5230  152.1975 C   0  0  0  0  0  0  0  0  0  0  0  0
  144.6193  136.6870  152.4592 O   0  0  0  0  0  0  0  0  0  0  0  0
  146.7389  137.4781  152.3558 N   0  0  0  0  0  0  0  0  0  0  0  0
  146.4752  138.8241  152.8519 C   0  0  0  0  0  0  0  0  0  0  0  0
  147.7772  139.6119  153.0699 C   0  0  2  0  0  0  0  0  0  0  0  0
  148.6749  139.0245  154.1568 C   0  0  0  0  0  0  0  0  0  0  0  0
  149.4848  140.2332  154.5658 C   0  0  0  0  0  0  0  0  0  0  0  0
  148.4421  141.3454  154.4962 C   0  0  0  0  0  0  0  0  0  0  0  0
  147.4951  140.9384  153.5109 O   0  0  0  0  0  0  0  0  0  0  0  0
  148.1349  131.9982  152.6108 H   0  0  0  0  0  0  0  0  0  0  0  0
  147.6817  133.5114  153.3940 H   0  0  0  0  0  0  0  0  0  0  0  0
  148.4855  133.5325  151.8163 H   0  0  0  0  0  0  0  0  0  0  0  0
  146.3132  130.8017  151.6848 H   0  0  0  0  0  0  0  0  0  0  0  0
  144.0856  130.7602  150.5484 H   0  0  0  0  0  0  0  0  0  0  0  0
  142.9857  132.9462  149.9989 H   0  0  0  0  0  0  0  0  0  0  0  0
  147.3547  135.4040  151.5716 H   0  0  0  0  0  0  0  0  0  0  0  0
  147.6968  137.2588  152.1248 H   0  0  0  0  0  0  0  0  0  0  0  0
  145.8408  139.3398  152.1307 H   0  0  0  0  0  0  0  0  0  0  0  0
  145.9057  138.7711  153.7814 H   0  0  0  0  0  0  0  0  0  0  0  0
  148.3470  139.6788  152.1415 H   0  0  0  0  0  0  0  0  0  0  0  0
  148.0805  138.6704  155.0004 H   0  0  0  0  0  0  0  0  0  0  0  0
  149.2895  138.1977  153.7991 H   0  0  0  0  0  0  0  0  0  0  0  0
  149.9393  140.1339  155.5520 H   0  0  0  0  0  0  0  0  0  0  0  0
  150.2780  140.4145  153.8392 H   0  0  0  0  0  0  0  0  0  0  0  0
  147.9253  141.4436  155.4515 H   0  0  0  0  0  0  0  0  0  0  0  0
  148.8832  142.3114  154.2494 H   0  0  0  0  0  0  0  0  0  0  0  0
  1  2  1  0  0  0  0
  1 18  1  0  0  0  0
  1 19  1  0  0  0  0
  1 20  1  0  0  0  0
  2  7  1  0  0  0  0
  2  3  2  0  0  0  0
  3  4  1  0  0  0  0
  3 21  1  0  0  0  0
  4  5  2  0  0  0  0
  4 22  1  0  0  0  0
  5  6  1  0  0  0  0
  5 23  1  0  0  0  0
  6  7  2  0  0  0  0
  7  8  1  0  0  0  0
  8  9  1  0  0  0  0
  8 24  1  0  0  0  0
  9 10  2  0  0  0  0
  9 11  1  0  0  0  0
 11 12  1  0  0  0  0
 11 25  1  0  0  0  0
 12 13  1  0  0  0  0
 12 26  1  0  0  0  0
 12 27  1  0  0  0  0
 13 17  1  0  0  0  0
 13 14  1  0  0  0  0
 13 28  1  0  0  0  0
 14 15  1  0  0  0  0
 14 29  1  0  0  0  0
 14 30  1  0  0  0  0
 15 16  1  0  0  0  0
 15 31  1  0  0  0  0
 15 32  1  0  0  0  0
 16 17  1  0  0  0  0
 16 33  1  0  0  0  0
 16 34  1  0  0  0  0
M  END
> <s_m_source_file>
AV-unprocessed.smi

> <i_m_source_file_index>
1700

> <i_lp_mmshare_version>
43012

> <i_f3d_flags>
0

> <s_epik_input>
W0NIM11jMVtjSF1bY0hdW2NIXW5jMVtOSF1DKD1PKVtOSF1bQ0gyXVtDQEBIXTJbQ0gyXVtDSDJdW0NIMl1PMg==

> <s_epik_cmdline>
J2VwaWtfcHl0aG9uJywgJy1waCcsICc3LjAnLCAnLXRuJywgJzgnLCAnLW1hJywgJzIwMCcsICctbWV0YWxfYmluZGluZycsICctaW1hZScsICc8aW5maWxlLm1hZT4nLCAnLW9tYWUnLCAnPG91dGZpbGUubWFlPic=

> <r_lp_tautomer_probability>
1

> <r_epik_Ionization_Penalty>
5.57253e-05

> <r_epik_Ionization_Penalty_Charging>
0

> <r_epik_Ionization_Penalty_Neutral>
5.57253e-05

> <r_epik_State_Penalty>
-0

> <r_epik_Charging_Adjusted_Penalty>
0

> <i_epik_Tot_Q>
0

> <i_epik_Tot_abs_Q>
0

> <r_epik_Metal_State_Penalty>
-0

> <b_epik_Metal_Only>
0

> <s_lp_Force_Field>
OPLS_2005

> <r_lp_Energy>
19.3296

> <b_lp_Chiralities_Consistent>
1

> <s_lp_Variant>
AV-unprocessed.smi:1700-1

> <Gold.Version>
5.8.1

> <Gold.Id.Protein>
6NUR|6NUR_protein|mol2

> <Gold.PLP.Fitness>
38.2593

> <Gold.PLP.PLP>
-29.9443

> <Gold.PLP.part.hbond>
-2.0000

> <Gold.PLP.part.metal>
0.0000

> <Gold.PLP.part.buried>
-0.6706

> <Gold.PLP.part.nonpolar>
-28.1206

> <Gold.PLP.part.repulsive>
0.6441

> <Gold.PLP.ligand.clash>
0.0000

> <Gold.PLP.ligand.torsion>
0.3313

> <Gold.PLP.Chemscore.Hbond>
1.9920

> <Gold.PLP.Chemscore.CHOScore>
1.0000

> <Gold.PLP.Chemscore.Metal>
0.0000

> <Gold.Chemscore.Hbonds>
donor molecule, donor type, donor heavy atom, donor atom, acceptor molecule, acceptor atom, score
      L1  H     8    24       P1  7948  0.99
      L1  H    11    25       P1  7948  1.00
      L1  C     5    23       P1 10186  1.00

> <Gold.PLP.Chemscore.Internal.Correction>
0.0016

> <Gold.Rescore>
     Score         DG    S(hbond)    S(metal)    S(lipo)     H(rot)  DE(clash)    DE(int)     intcor
     16.21     -17.10       1.93        0.00      71.18       1.23       0.51       0.39       ----

> <Gold.Chemscore.Fitness>
16.2050

> <Gold.Chemscore.DG>
-17.1028

> <Gold.Chemscore.ZeroCoef>
-5.4800

> <Gold.Chemscore.Hbond>
1.9321

> <Gold.Chemscore.Metal>
0.0000

> <Gold.Chemscore.Lipo>
71.1778

> <Gold.Chemscore.Internal_Hbond>
0.0000

> <Gold.Chemscore.DEClash>
0.5070

> <Gold.Chemscore.DEInternal>
0.3908

> <Gold.Chemscore.Rot>
1.2337

> <Gold.Chemscore.Internal.Correction>
   9.000000E+99

> <Gold.Chemscore.Hbonds>
donor molecule, donor type, donor heavy atom, donor atom, acceptor molecule, acceptor atom, score
      L1  H     8    24       P1  7948  0.89
      L1  H    11    25       P1  7948  0.97

> <Gold.Chemscore.Hbond.Weighted>
-6.4531

> <Gold.Chemscore.Metal.Weighted>
-0.0000

> <Gold.Chemscore.Lipo.Weighted>
-8.3278

> <Gold.Chemscore.Internal_Hbond.Weighted>
0.0000

> <Gold.Chemscore.DEClash.Weighted>
0.5070

> <Gold.Chemscore.DEInternal.Weighted>
0.3908

> <Gold.Chemscore.Rot.Weighted>
3.1582

> <Gold.Chemscore.Internal.Correction.Weighted>
   9.000000E+99

> <Gold.Protein.RotatedTorsions>
[ 6907 6896 6895 6894 ] final -142.98 input  -60.11 | X-H torsion
[ 7974 7965 7964 7962 ] final  172.18 input  175.53 | X-H torsion
[ 8008 7997 7996 7995 ] final  -33.93 input   59.86 | X-H torsion
[ 10167 10162 10161 10158 ] final   92.53 input  -65.29 | X-H torsion
[ 10718 10713 10712 10709 ] final  -86.94 input   66.30 | X-H torsion
[ 10763 10752 10751 10750 ] final  -74.50 input  -60.55 | X-H torsion
[ 11005 11000 10999 10996 ] final   10.13 input  -57.11 | X-H torsion

> <Gold.Protein.ActiveResidues>
 VAL166  LYS551  ARG553  GLY616  TRP617  ASP618  TYR619  PRO620  LYS621  CYS622 
 ASP623  PHE694  ASN695  SER759  ASP760  ASP761  ALA762  ILE779  LEU786  VAL792 
 PHE793  MET794  SER795  GLU796  ALA797  LYS798  CYS799  TRP800  GLU811  SER814 

> <Gold.Protein.RotatedAtoms>
  151.0944  133.5291  159.2612 H   0  0  0  0  0  0  0  0  0  0  0  0  # atno 6907 bound_to 6896
  151.2146  135.0494  159.8935 H   0  0  0  0  0  0  0  0  0  0  0  0  # atno 6908 bound_to 6896
  152.5437  134.0754  159.8266 H   0  0  0  0  0  0  0  0  0  0  0  0  # atno 6909 bound_to 6896
  144.7275  139.9461  143.6430 H   0  0  0  0  0  0  0  0  0  0  0  0  # atno 7974 bound_to 7965
  154.4135  140.1697  156.1968 H   0  0  0  0  0  0  0  0  0  0  0  0  # atno 8008 bound_to 7997
  155.9558  140.3397  155.6423 H   0  0  0  0  0  0  0  0  0  0  0  0  # atno 8009 bound_to 7997
  155.6812  140.0723  157.2474 H   0  0  0  0  0  0  0  0  0  0  0  0  # atno 8010 bound_to 7997
  139.8267  144.6706  150.9450 H   0  0  0  0  0  0  0  0  0  0  0  0  # atno 10167 bound_to 10162
  155.9987  130.4782  150.4792 H   0  0  0  0  0  0  0  0  0  0  0  0  # atno 10718 bound_to 10713
  154.4740  135.5862  153.6342 H   0  0  0  0  0  0  0  0  0  0  0  0  # atno 10763 bound_to 10752
  152.9838  135.6073  154.3331 H   0  0  0  0  0  0  0  0  0  0  0  0  # atno 10764 bound_to 10752
  154.3215  135.2843  155.2496 H   0  0  0  0  0  0  0  0  0  0  0  0  # atno 10765 bound_to 10752
  140.5180  134.0587  155.7836 H   0  0  0  0  0  0  0  0  0  0  0  0  # atno 11005 bound_to 11000
  146.0748  139.3736  143.0501 LP  0  0  0  0  0  0  0  0  0  0  0  0  # atno 17320 bound_to 7965
  145.7920  140.9810  143.1044 LP  0  0  0  0  0  0  0  0  0  0  0  0  # atno 17321 bound_to 7965
  140.7809  143.4039  151.1103 LP  0  0  0  0  0  0  0  0  0  0  0  0  # atno 17342 bound_to 10162
  139.7696  143.8514  152.3118 LP  0  0  0  0  0  0  0  0  0  0  0  0  # atno 17343 bound_to 10162
  157.2799  131.0604  151.2204 LP  0  0  0  0  0  0  0  0  0  0  0  0  # atno 17370 bound_to 10713
  157.3255  130.6958  149.6293 LP  0  0  0  0  0  0  0  0  0  0  0  0  # atno 17371 bound_to 10713
  141.1350  133.9238  157.2454 LP  0  0  0  0  0  0  0  0  0  0  0  0  # atno 17394 bound_to 11000
  139.9622  135.0151  156.9290 LP  0  0  0  0  0  0  0  0  0  0  0  0  # atno 17395 bound_to 11000

$$$$
