AV-unprocessed.smi:1554|AV-procd|sdf|6249|dock6
  -GOLD-   22720 6433D 1   1.00000     0.00000
 Structure written by MMmdl.
 48 50  0  0  0  0  0  0  0  0  2 V2000
  151.0472  142.1145  157.2327 C   0  0  0  0  0  0  0  0  0  0  0  0
  150.1982  141.3092  156.2649 C   0  0  0  0  0  0  0  0  0  0  0  0
  149.0451  141.9033  155.7040 C   0  0  0  0  0  0  0  0  0  0  0  0
  148.2264  141.1873  154.8037 C   0  0  0  0  0  0  0  0  0  0  0  0
  147.0681  141.5637  154.1454 N   0  0  0  0  0  0  0  0  0  0  0  0
  146.7803  140.4635  153.4563 C   0  0  0  0  0  0  0  0  0  0  0  0
  147.6140  139.4144  153.5952 N   0  0  0  0  0  0  0  0  0  0  0  0
  147.5077  138.1147  152.9577 C   0  0  0  0  0  0  0  0  0  0  0  0
  146.1719  137.9399  152.2108 C   0  0  1  0  0  0  0  0  0  0  0  0
  146.4101  137.9843  150.8170 O   0  0  0  0  0  0  0  0  0  0  0  0
  145.4913  136.6012  152.5582 C   0  0  0  0  0  0  0  0  0  0  0  0
  146.2762  135.4229  152.0998 N   0  3  1  0  0  0  0  0  0  0  0  0
  146.4192  134.3671  153.1318 C   0  0  0  0  0  0  0  0  0  0  0  0
  145.1346  133.5272  153.2488 C   0  0  0  0  0  0  0  0  0  0  0  0
  144.8213  132.9642  151.9806 O   0  0  0  0  0  0  0  0  0  0  0  0
  144.5680  133.9556  150.9909 C   0  0  2  0  0  0  0  0  0  0  0  0
  144.1760  133.2442  149.6912 C   0  0  0  0  0  0  0  0  0  0  0  0
  145.8282  134.8310  150.8121 C   0  0  0  0  0  0  0  0  0  0  0  0
  148.5960  139.8497  154.4779 C   0  0  0  0  0  0  0  0  0  0  0  0
  149.7423  139.2482  155.0268 C   0  0  0  0  0  0  0  0  0  0  0  0
  150.5493  139.9780  155.9244 C   0  0  0  0  0  0  0  0  0  0  0  0
  151.7838  139.3190  156.5141 C   0  0  0  0  0  0  0  0  0  0  0  0
  150.6320  143.1097  157.3941 H   0  0  0  0  0  0  0  0  0  0  0  0
  152.0595  142.2336  156.8457 H   0  0  0  0  0  0  0  0  0  0  0  0
  151.1017  141.6140  158.1996 H   0  0  0  0  0  0  0  0  0  0  0  0
  148.7783  142.9175  155.9626 H   0  0  0  0  0  0  0  0  0  0  0  0
  145.9098  140.4151  152.8182 H   0  0  0  0  0  0  0  0  0  0  0  0
  148.3504  137.9853  152.2768 H   0  0  0  0  0  0  0  0  0  0  0  0
  147.6104  137.3519  153.7307 H   0  0  0  0  0  0  0  0  0  0  0  0
  145.5215  138.7743  152.4696 H   0  0  0  0  0  0  0  0  0  0  0  0
  145.6716  138.4022  150.3991 H   0  0  0  0  0  0  0  0  0  0  0  0
  145.3621  136.5544  153.6408 H   0  0  0  0  0  0  0  0  0  0  0  0
  144.4873  136.5677  152.1356 H   0  0  0  0  0  0  0  0  0  0  0  0
  147.2482  133.7180  152.8463 H   0  0  0  0  0  0  0  0  0  0  0  0
  146.6905  134.8010  154.0949 H   0  0  0  0  0  0  0  0  0  0  0  0
  145.2800  132.7187  153.9654 H   0  0  0  0  0  0  0  0  0  0  0  0
  144.2996  134.1270  153.6141 H   0  0  0  0  0  0  0  0  0  0  0  0
  143.7234  134.5685  151.3081 H   0  0  0  0  0  0  0  0  0  0  0  0
  143.9535  133.9633  148.9025 H   0  0  0  0  0  0  0  0  0  0  0  0
  143.2892  132.6268  149.8362 H   0  0  0  0  0  0  0  0  0  0  0  0
  144.9778  132.5961  149.3364 H   0  0  0  0  0  0  0  0  0  0  0  0
  145.6561  135.6000  150.0606 H   0  0  0  0  0  0  0  0  0  0  0  0
  146.6428  134.2150  150.4288 H   0  0  0  0  0  0  0  0  0  0  0  0
  149.9976  138.2335  154.7600 H   0  0  0  0  0  0  0  0  0  0  0  0
  151.9387  138.3221  156.1002 H   0  0  0  0  0  0  0  0  0  0  0  0
  151.6837  139.2219  157.5953 H   0  0  0  0  0  0  0  0  0  0  0  0
  152.6745  139.9100  156.3000 H   0  0  0  0  0  0  0  0  0  0  0  0
  147.2075  135.7827  151.9438 H   0  0  0  0  0  0  0  0  0  0  0  0
  1  2  1  0  0  0  0
  1 23  1  0  0  0  0
  1 24  1  0  0  0  0
  1 25  1  0  0  0  0
  2 21  1  0  0  0  0
  2  3  2  0  0  0  0
  3  4  1  0  0  0  0
  3 26  1  0  0  0  0
  4 19  2  0  0  0  0
  4  5  1  0  0  0  0
  5  6  2  0  0  0  0
  6  7  1  0  0  0  0
  6 27  1  0  0  0  0
  7  8  1  0  0  0  0
  7 19  1  0  0  0  0
  8  9  1  0  0  0  0
  8 28  1  0  0  0  0
  8 29  1  0  0  0  0
  9 10  1  0  0  0  0
  9 11  1  0  0  0  0
  9 30  1  0  0  0  0
 10 31  1  0  0  0  0
 11 12  1  0  0  0  0
 11 32  1  0  0  0  0
 11 33  1  0  0  0  0
 12 18  1  0  0  0  0
 12 13  1  0  0  0  0
 12 48  1  0  0  0  0
 13 14  1  0  0  0  0
 13 34  1  0  0  0  0
 13 35  1  0  0  0  0
 14 15  1  0  0  0  0
 14 36  1  0  0  0  0
 14 37  1  0  0  0  0
 15 16  1  0  0  0  0
 16 17  1  0  0  0  0
 16 18  1  0  0  0  0
 16 38  1  0  0  0  0
 17 39  1  0  0  0  0
 17 40  1  0  0  0  0
 17 41  1  0  0  0  0
 18 42  1  0  0  0  0
 18 43  1  0  0  0  0
 19 20  1  0  0  0  0
 20 21  2  0  0  0  0
 20 44  1  0  0  0  0
 21 22  1  0  0  0  0
 22 45  1  0  0  0  0
 22 46  1  0  0  0  0
 22 47  1  0  0  0  0
M  CHG  1  12   1
M  END
> <s_m_source_file>
AV-unprocessed.smi

> <i_m_source_file_index>
1554

> <i_lp_mmshare_version>
43012

> <i_f3d_flags>
0

> <s_epik_input>
W0NIM11jKFtjSF0xKWMoW0NIM10pW2NIXWMoYzEyKW4oW2NIXW4yKVtDSDJdW0NASF0oW09IXSlbQ0gyXU4zW0NIMl1bQ0gyXU9bQ0BASF0oW0NIM10pW0NIMl0z

> <s_epik_cmdline>
J2VwaWtfcHl0aG9uJywgJy1waCcsICc3LjAnLCAnLXRuJywgJzgnLCAnLW1hJywgJzIwMCcsICctbWV0YWxfYmluZGluZycsICctaW1hZScsICc8aW5maWxlLm1hZT4nLCAnLW9tYWUnLCAnPG91dGZpbGUubWFlPic=

> <r_epik_Ionization_Penalty>
0.695251

> <r_epik_Ionization_Penalty_Charging>
0.608065

> <r_epik_Ionization_Penalty_Neutral>
0.0871863

> <r_epik_State_Penalty>
0.731955

> <r_epik_Charging_Adjusted_Penalty>
1.34002

> <i_epik_Tot_Q>
1

> <i_epik_Tot_abs_Q>
1

> <r_epik_Metal_State_Penalty>
0.652186

> <b_epik_Metal_Only>
0

> <s_lp_Force_Field>
OPLS_2005

> <r_lp_Energy>
22.2934

> <b_lp_Chiralities_Consistent>
1

> <s_lp_Variant>
AV-unprocessed.smi:1554-10

> <Gold.Version>
5.8.1

> <Gold.Id.Protein>
6NUR|6NUR_protein|mol2

> <Gold.PLP.Fitness>
47.9347

> <Gold.PLP.PLP>
-35.5991

> <Gold.PLP.part.hbond>
-3.0200

> <Gold.PLP.part.metal>
0.0000

> <Gold.PLP.part.buried>
6.5624

> <Gold.PLP.part.nonpolar>
-38.8830

> <Gold.PLP.part.repulsive>
0.2926

> <Gold.PLP.ligand.clash>
0.0000

> <Gold.PLP.ligand.torsion>
1.3605

> <Gold.PLP.Chemscore.Hbond>
3.9920

> <Gold.PLP.Chemscore.CHOScore>
1.0000

> <Gold.PLP.Chemscore.Metal>
0.0000

> <Gold.Chemscore.Hbonds>
donor molecule, donor type, donor heavy atom, donor atom, acceptor molecule, acceptor atom, score
      L1  H    10    31       P1 10171  1.00
      L1  H    12    48       P1  7948  2.00
      P1  H  7954  7966       L1    10  1.00
      L1  C     6    27       P1 10175  1.00

> <Gold.PLP.Chemscore.Internal.Correction>
0.0808

> <Gold.Rescore>
     Score         DG    S(hbond)    S(metal)    S(lipo)     H(rot)  DE(clash)    DE(int)     intcor
     18.00     -21.27       2.93        0.00      96.36       2.05       1.85       1.42       ----

> <Gold.Chemscore.Fitness>
18.0017

> <Gold.Chemscore.DG>
-21.2718

> <Gold.Chemscore.ZeroCoef>
-5.4800

> <Gold.Chemscore.Hbond>
2.9273

> <Gold.Chemscore.Metal>
0.0000

> <Gold.Chemscore.Lipo>
96.3613

> <Gold.Chemscore.Internal_Hbond>
0.0000

> <Gold.Chemscore.DEClash>
1.8537

> <Gold.Chemscore.DEInternal>
1.4163

> <Gold.Chemscore.Rot>
2.0546

> <Gold.Chemscore.Internal.Correction>
   9.000000E+99

> <Gold.Chemscore.Hbonds>
donor molecule, donor type, donor heavy atom, donor atom, acceptor molecule, acceptor atom, score
      L1  H    10    31       P1 10171  0.99
      L1  H    12    48       P1  7948  1.00
      P1  H  7954  7966       L1    10  0.92

> <Gold.Chemscore.Hbond.Weighted>
-9.7772

> <Gold.Chemscore.Metal.Weighted>
-0.0000

> <Gold.Chemscore.Lipo.Weighted>
-11.2743

> <Gold.Chemscore.Internal_Hbond.Weighted>
0.0000

> <Gold.Chemscore.DEClash.Weighted>
1.8537

> <Gold.Chemscore.DEInternal.Weighted>
1.4163

> <Gold.Chemscore.Rot.Weighted>
5.2597

> <Gold.Chemscore.Internal.Correction.Weighted>
   9.000000E+99

> <Gold.Protein.RotatedTorsions>
[ 6907 6896 6895 6894 ] final  119.53 input  -60.11 | X-H torsion
[ 7974 7965 7964 7962 ] final  139.55 input  175.53 | X-H torsion
[ 8008 7997 7996 7995 ] final -143.38 input   59.86 | X-H torsion
[ 10167 10162 10161 10158 ] final   28.36 input  -65.29 | X-H torsion
[ 10718 10713 10712 10709 ] final   99.08 input   66.30 | X-H torsion
[ 10763 10752 10751 10750 ] final   11.02 input  -60.55 | X-H torsion
[ 11005 11000 10999 10996 ] final  -81.49 input  -57.11 | X-H torsion

> <Gold.Protein.ActiveResidues>
 VAL166  LYS551  ARG553  GLY616  TRP617  ASP618  TYR619  PRO620  LYS621  CYS622 
 ASP623  PHE694  ASN695  SER759  ASP760  ASP761  ALA762  ILE779  LEU786  VAL792 
 PHE793  MET794  SER795  GLU796  ALA797  LYS798  CYS799  TRP800  GLU811  SER814 

> <Gold.Protein.RotatedAtoms>
  152.4465  133.7546  159.6712 H   0  0  0  0  0  0  0  0  0  0  0  0  # atno 6907 bound_to 6896
  150.8366  133.7993  159.3083 H   0  0  0  0  0  0  0  0  0  0  0  0  # atno 6908 bound_to 6896
  151.5631  135.1067  160.0029 H   0  0  0  0  0  0  0  0  0  0  0  0  # atno 6909 bound_to 6896
  144.9269  139.5097  143.5636 H   0  0  0  0  0  0  0  0  0  0  0  0  # atno 7974 bound_to 7965
  155.5096  140.0582  157.2925 H   0  0  0  0  0  0  0  0  0  0  0  0  # atno 8008 bound_to 7997
  154.4557  140.1971  156.0336 H   0  0  0  0  0  0  0  0  0  0  0  0  # atno 8009 bound_to 7997
  156.0793  140.3249  155.7678 H   0  0  0  0  0  0  0  0  0  0  0  0  # atno 8010 bound_to 7997
  140.4859  144.0543  150.6280 H   0  0  0  0  0  0  0  0  0  0  0  0  # atno 10167 bound_to 10162
  157.6883  131.0659  150.4894 H   0  0  0  0  0  0  0  0  0  0  0  0  # atno 10718 bound_to 10713
  153.1970  135.6850  153.8279 H   0  0  0  0  0  0  0  0  0  0  0  0  # atno 10763 bound_to 10752
  153.7558  135.3217  155.3330 H   0  0  0  0  0  0  0  0  0  0  0  0  # atno 10764 bound_to 10752
  154.8150  135.4692  154.0719 H   0  0  0  0  0  0  0  0  0  0  0  0  # atno 10765 bound_to 10752
  141.1666  133.7199  156.8430 H   0  0  0  0  0  0  0  0  0  0  0  0  # atno 11005 bound_to 11000
  146.3230  139.8190  142.8930 LP  0  0  0  0  0  0  0  0  0  0  0  0  # atno 17320 bound_to 7965
  145.3205  141.0243  143.3503 LP  0  0  0  0  0  0  0  0  0  0  0  0  # atno 17321 bound_to 7965
  140.3799  143.2808  152.0183 LP  0  0  0  0  0  0  0  0  0  0  0  0  # atno 17342 bound_to 10162
  139.4842  144.6163  151.7339 LP  0  0  0  0  0  0  0  0  0  0  0  0  # atno 17343 bound_to 10162
  156.5221  130.4164  149.6245 LP  0  0  0  0  0  0  0  0  0  0  0  0  # atno 17370 bound_to 10713
  156.3144  130.7247  151.2146 LP  0  0  0  0  0  0  0  0  0  0  0  0  # atno 17371 bound_to 10713
  140.1970  134.8925  157.3125 LP  0  0  0  0  0  0  0  0  0  0  0  0  # atno 17394 bound_to 11000
  140.2229  134.4002  155.7557 LP  0  0  0  0  0  0  0  0  0  0  0  0  # atno 17395 bound_to 11000

$$$$
