#       Name:                AV-unprocessed.smi:1757
#       Creating user name   scv26
#       Creation time:       Fri Mar 27 08:29:37 2020


#       File generated by GOLD software.
#

@<TRIPOS>MOLECULE
AV-unprocessed.smi:1757
    44    45     1
SMALL
NO_CHARGES


@<TRIPOS>ATOM
      1 ****        -5.4039  -2.6877  -0.1052 C.3            1 S1                 0.0000
      2 ****        -3.9576  -2.3805  -0.0905 N.4            1 S1                 1.0000
      3 ****        -3.5386  -1.6948   1.1572 C.3            1 S1                 0.0000
      4 ****        -2.0128  -1.5063   1.1986 C.3            1 S1                 0.0000
      5 ****        -1.5141  -0.7432  -0.0398 C.3            1 S1                 0.0000
      6 ****        -0.0550  -0.6756  -0.0292 N.am           1 S1                 0.0000
      7 ****         0.6797   0.4455  -0.0689 C.2            1 S1                 0.0000
      8 ****         0.1930   1.5747  -0.1229 O.2            1 S1                 0.0000
      9 ****         1.9937   0.1561  -0.0618 N.am           1 S1                 0.0000
     10 ****         3.0912   1.0325  -0.0587 C.2            1 S1                 0.0000
     11 ****         3.0404   2.3326   0.3324 C.2            1 S1                 0.0000
     12 ****         4.2185   3.1850   0.3253 C.2            1 S1                 0.0000
     13 ****         4.1701   4.6472   0.7392 C.3            1 S1                 0.0000
     14 ****         4.9541   4.8501   1.7976 F              1 S1                 0.0000
     15 ****         4.6094   5.4221  -0.2524 F              1 S1                 0.0000
     16 ****         2.9330   5.0310   1.0546 F              1 S1                 0.0000
     17 ****         5.3685   2.6167  -0.0798 C.2            1 S1                 0.0000
     18 ****         5.4315   1.2769  -0.4694 N.am           1 S1                 0.0000
     19 ****         4.3700   0.4399  -0.4844 C.2            1 S1                 0.0000
     20 ****         4.5064  -0.7311  -0.8375 O.2            1 S1                 0.0000
     21 ****        -1.9983  -1.4496  -1.3173 C.3            1 S1                 0.0000
     22 ****        -3.5242  -1.6421  -1.3030 C.3            1 S1                 0.0000
     23 ****         6.3333   0.9236  -0.7548 H              1 S1                 0.0000
     24 ****        -5.9983  -1.7732  -0.0893 H              1 S1                 0.0000
     25 ****        -5.6782  -3.2899   0.7615 H              1 S1                 0.0000
     26 ****        -5.6686  -3.2532  -0.9992 H              1 S1                 0.0000
     27 ****        -4.0386  -0.7273   1.2289 H              1 S1                 0.0000
     28 ****        -3.8553  -2.2804   2.0211 H              1 S1                 0.0000
     29 ****        -1.7324  -0.9703   2.1063 H              1 S1                 0.0000
     30 ****        -1.5290  -2.4828   1.2542 H              1 S1                 0.0000
     31 ****        -1.9454   0.2595  -0.0173 H              1 S1                 0.0000
     32 ****         0.4379  -1.5560   0.0091 H              1 S1                 0.0000
     33 ****         2.2397  -0.8225  -0.1023 H              1 S1                 0.0000
     34 ****         2.1171   2.7641   0.6828 H              1 S1                 0.0000
     35 ****         6.3133   3.1375  -0.1356 H              1 S1                 0.0000
     36 ****        -1.7079  -0.8731  -2.1966 H              1 S1                 0.0000
     37 ****        -1.5124  -2.4221  -1.4110 H              1 S1                 0.0000
     38 ****        -3.8291  -2.1917  -2.1944 H              1 S1                 0.0000
     39 ****        -4.0252  -0.6733  -1.3403 H              1 S1                 0.0000
     40 ****        -3.4768  -3.2688  -0.1068 H              1 S1                 0.0000
     41 ****        -0.8001   1.6909  -0.1392 LP             1 S1                 0.0000
     42 ****         0.7907   2.3760  -0.1505 LP             1 S1                 0.0000
     43 ****         3.7175  -1.3456  -0.8471 LP             1 S1                 0.0000
     44 ****         5.4061  -1.0681  -1.1148 LP             1 S1                 0.0000
@<TRIPOS>BOND
    1    1    2 1     
    2    1   24 1     
    3    1   25 1     
    4    1   26 1     
    5    2   22 1     
    6    2    3 1     
    7    2   40 1     
    8    3    4 1     
    9    3   27 1     
   10    3   28 1     
   11    4    5 1     
   12    4   29 1     
   13    4   30 1     
   14    5    6 1     
   15    5   21 1     
   16    5   31 1     
   17    6    7 am    
   18    6   32 1     
   19    7    8 2     
   20    7    9 am    
   21    9   10 1     
   22    9   33 1     
   23   10   19 1     
   24   10   11 2     
   25   11   12 1     
   26   11   34 1     
   27   12   13 1     
   28   12   17 2     
   29   13   14 1     
   30   13   15 1     
   31   13   16 1     
   32   17   18 1     
   33   17   35 1     
   34   18   23 1     
   35   18   19 am    
   36   19   20 2     
   37   21   22 1     
   38   21   36 1     
   39   21   37 1     
   40   22   38 1     
   41   22   39 1     
   42    8   41 1     
   43    8   42 1     
   44   20   43 1     
   45   20   44 1     
@<TRIPOS>SUBSTRUCTURE
      1 S1             1
@<TRIPOS>SET
LONE_PAIRS      STATIC     ATOMS    <user>   **** ""
4 41 42 43 44
DONOR_HYDROGENS      STATIC     ATOMS    <user>   **** ""
4 40 32 33 23
ATOM$BLUE        STATIC     ATOMS    COLORGROUP SYSTEM
4 41 42 43 44
ATOM$RED        STATIC     ATOMS    COLORGROUP SYSTEM
4 40 32 33 23
