AV-unprocessed.smi:1492|AV-procd|sdf|6046|dock1
  -GOLD-   22720 6163D 1   1.00000     0.00000
 Structure written by MMmdl.
 52 53  0  0  0  0  0  0  0  0  3 V2000
  147.0458  134.4082  157.4288 C   0  0  0  0  0  0  0  0  0  0  0  0
  146.8206  134.1752  155.9233 C   0  0  0  0  0  0  0  0  0  0  0  0
  147.5710  135.1221  154.9262 C   0  0  1  0  0  0  0  0  0  0  0  0
  147.1839  136.5879  155.2422 C   0  0  0  0  0  0  0  0  0  0  0  0
  149.1111  134.9648  155.1285 C   0  0  0  0  0  0  0  0  0  0  0  0
  149.8507  136.0130  154.4360 N   0  0  0  0  0  0  0  0  0  0  0  0
  150.9077  136.6906  154.9060 C   0  0  0  0  0  0  0  0  0  0  0  0
  151.5402  136.3644  155.9092 O   0  0  0  0  0  0  0  0  0  0  0  0
  151.2511  137.9804  154.1585 C   0  0  0  0  0  0  0  0  0  0  0  0
  151.1107  139.2412  155.0130 C   0  0  0  0  0  0  0  0  0  0  0  0
  150.0319  140.0748  154.9637 C   0  0  0  0  0  0  0  0  0  0  0  0
  148.8748  139.8800  153.9997 C   0  0  0  0  0  0  0  0  0  0  0  0
  149.9168  141.1641  155.8437 N   0  0  0  0  0  0  0  0  0  0  0  0
  150.8226  141.3620  156.7240 C   0  0  0  0  0  0  0  0  0  0  0  0
  150.6801  142.5246  157.6827 C   0  0  0  0  0  0  0  0  0  0  0  0
  151.9392  140.5698  156.8679 N   0  5  0  0  0  0  0  0  0  0  0  0
  152.1449  139.5203  156.0238 C   0  0  0  0  0  0  0  0  0  0  0  0
  153.1431  138.8057  156.0993 O   0  0  0  0  0  0  0  0  0  0  0  0
  147.2012  134.7624  153.5020 N   0  3  0  0  0  0  0  0  0  0  0  0
  147.4206  133.3411  153.1006 C   0  0  0  0  0  0  0  0  0  0  0  0
  147.1225  133.1271  151.6046 C   0  0  0  0  0  0  0  0  0  0  0  0
  145.8099  133.5685  151.2920 O   0  0  0  0  0  0  0  0  0  0  0  0
  145.6513  134.9528  151.5619 C   0  0  0  0  0  0  0  0  0  0  0  0
  145.8407  135.1911  153.0665 C   0  0  0  0  0  0  0  0  0  0  0  0
  146.3996  133.7503  158.0101 H   0  0  0  0  0  0  0  0  0  0  0  0
  146.8159  135.4303  157.7269 H   0  0  0  0  0  0  0  0  0  0  0  0
  148.0695  134.1856  157.7286 H   0  0  0  0  0  0  0  0  0  0  0  0
  147.0787  133.1370  155.7081 H   0  0  0  0  0  0  0  0  0  0  0  0
  145.7455  134.2556  155.7619 H   0  0  0  0  0  0  0  0  0  0  0  0
  147.4122  136.8483  156.2751 H   0  0  0  0  0  0  0  0  0  0  0  0
  146.1196  136.7699  155.0943 H   0  0  0  0  0  0  0  0  0  0  0  0
  147.7322  137.3012  154.6270 H   0  0  0  0  0  0  0  0  0  0  0  0
  149.3836  134.9251  156.1823 H   0  0  0  0  0  0  0  0  0  0  0  0
  149.4527  134.0066  154.7387 H   0  0  0  0  0  0  0  0  0  0  0  0
  149.4295  136.3608  153.5862 H   0  0  0  0  0  0  0  0  0  0  0  0
  152.2666  137.9150  153.7646 H   0  0  0  0  0  0  0  0  0  0  0  0
  150.6088  138.0424  153.2809 H   0  0  0  0  0  0  0  0  0  0  0  0
  149.2192  139.9701  152.9694 H   0  0  0  0  0  0  0  0  0  0  0  0
  148.0985  140.6293  154.1587 H   0  0  0  0  0  0  0  0  0  0  0  0
  148.4206  138.8981  154.1309 H   0  0  0  0  0  0  0  0  0  0  0  0
  151.6367  143.0302  157.8203 H   0  0  0  0  0  0  0  0  0  0  0  0
  150.3335  142.1690  158.6534 H   0  0  0  0  0  0  0  0  0  0  0  0
  149.9619  143.2550  157.3075 H   0  0  0  0  0  0  0  0  0  0  0  0
  148.4528  133.0328  153.2567 H   0  0  0  0  0  0  0  0  0  0  0  0
  146.7890  132.6840  153.6989 H   0  0  0  0  0  0  0  0  0  0  0  0
  147.8473  133.6487  150.9808 H   0  0  0  0  0  0  0  0  0  0  0  0
  147.2049  132.0687  151.3569 H   0  0  0  0  0  0  0  0  0  0  0  0
  146.3550  135.5456  150.9759 H   0  0  0  0  0  0  0  0  0  0  0  0
  144.6494  135.2570  151.2584 H   0  0  0  0  0  0  0  0  0  0  0  0
  145.0764  134.6325  153.6069 H   0  0  0  0  0  0  0  0  0  0  0  0
  145.6645  136.2451  153.2653 H   0  0  0  0  0  0  0  0  0  0  0  0
  147.8445  135.2918  152.9298 H   0  0  0  0  0  0  0  0  0  0  0  0
  1  2  1  0  0  0  0
  1 25  1  0  0  0  0
  1 26  1  0  0  0  0
  1 27  1  0  0  0  0
  2  3  1  0  0  0  0
  2 28  1  0  0  0  0
  2 29  1  0  0  0  0
  3  4  1  0  0  0  0
  3  5  1  0  0  0  0
  3 19  1  0  0  0  0
  4 30  1  0  0  0  0
  4 31  1  0  0  0  0
  4 32  1  0  0  0  0
  5  6  1  0  0  0  0
  5 33  1  0  0  0  0
  5 34  1  0  0  0  0
  6  7  1  0  0  0  0
  6 35  1  0  0  0  0
  7  8  2  0  0  0  0
  7  9  1  0  0  0  0
  9 10  1  0  0  0  0
  9 36  1  0  0  0  0
  9 37  1  0  0  0  0
 10 17  1  0  0  0  0
 10 11  2  0  0  0  0
 11 12  1  0  0  0  0
 11 13  1  0  0  0  0
 12 38  1  0  0  0  0
 12 39  1  0  0  0  0
 12 40  1  0  0  0  0
 13 14  2  0  0  0  0
 14 15  1  0  0  0  0
 14 16  1  0  0  0  0
 15 41  1  0  0  0  0
 15 42  1  0  0  0  0
 15 43  1  0  0  0  0
 16 17  1  0  0  0  0
 17 18  2  0  0  0  0
 19 24  1  0  0  0  0
 19 20  1  0  0  0  0
 19 52  1  0  0  0  0
 20 21  1  0  0  0  0
 20 44  1  0  0  0  0
 20 45  1  0  0  0  0
 21 22  1  0  0  0  0
 21 46  1  0  0  0  0
 21 47  1  0  0  0  0
 22 23  1  0  0  0  0
 23 24  1  0  0  0  0
 23 48  1  0  0  0  0
 23 49  1  0  0  0  0
 24 50  1  0  0  0  0
 24 51  1  0  0  0  0
M  CHG  1  16  -1
M  CHG  1  19   1
M  END
> <s_m_source_file>
AV-unprocessed.smi

> <i_m_source_file_index>
1492

> <i_lp_mmshare_version>
43012

> <i_f3d_flags>
0

> <s_epik_input>
W0NIMl0xW0NIMl1PW0NIMl1bQ0gyXU4xW0NAQF0oW0NIM10pKFtDSDJdW0NIM10pW0NIMl1bTkhdQyg9TylbQ0gyXWMyYyhbQ0gzXSluYyhbQ0gzXSlbbkhdYzI9Tw==

> <s_epik_cmdline>
J2VwaWtfcHl0aG9uJywgJy1waCcsICc3LjAnLCAnLXRuJywgJzgnLCAnLW1hJywgJzIwMCcsICctbWV0YWxfYmluZGluZycsICctaW1hZScsICc8aW5maWxlLm1hZT4nLCAnLW9tYWUnLCAnPG91dGZpbGUubWFlPic=

> <r_lp_tautomer_probability>
0.839158

> <r_epik_Ionization_Penalty>
6.90614

> <r_epik_Ionization_Penalty_Charging>
0.570079

> <r_epik_Ionization_Penalty_Neutral>
6.33607

> <r_epik_State_Penalty>
4.81716

> <r_epik_Charging_Adjusted_Penalty>
5.38724

> <i_epik_Tot_Q>
0

> <i_epik_Tot_abs_Q>
2

> <r_epik_Metal_State_Penalty>
1.25629

> <b_epik_Metal_Only>
1

> <s_lp_Force_Field>
OPLS_2005

> <r_lp_Energy>
28.2979

> <b_lp_Chiralities_Consistent>
1

> <s_lp_Variant>
AV-unprocessed.smi:1492-11

> <Gold.Version>
5.8.1

> <Gold.Id.Protein>
6NUR|6NUR_protein|mol2

> <Gold.PLP.Fitness>
48.0218

> <Gold.PLP.PLP>
-34.2985

> <Gold.PLP.part.hbond>
-4.6679

> <Gold.PLP.part.metal>
0.0000

> <Gold.PLP.part.buried>
-0.6468

> <Gold.PLP.part.nonpolar>
-27.9940

> <Gold.PLP.part.repulsive>
0.3134

> <Gold.PLP.ligand.clash>
0.0000

> <Gold.PLP.ligand.torsion>
0.6391

> <Gold.PLP.Chemscore.Hbond>
4.9440

> <Gold.PLP.Chemscore.CHOScore>
0.0000

> <Gold.PLP.Chemscore.Metal>
0.0000

> <Gold.Chemscore.Hbonds>
donor molecule, donor type, donor heavy atom, donor atom, acceptor molecule, acceptor atom, score
      L1  H     6    35       P1  7948  1.00
      L1  H    19    52       P1  7948  2.00
      P1  H  7997  8010       L1    18  0.90
      P1  H 10752 10764       L1     8  1.00

> <Gold.PLP.Chemscore.Internal.Correction>
0.1696

> <Gold.Rescore>
     Score         DG    S(hbond)    S(metal)    S(lipo)     H(rot)  DE(clash)    DE(int)     intcor
     17.86     -18.86       3.47        0.00      61.89       2.12       0.01       0.98       ----

> <Gold.Chemscore.Fitness>
17.8616

> <Gold.Chemscore.DG>
-18.8585

> <Gold.Chemscore.ZeroCoef>
-5.4800

> <Gold.Chemscore.Hbond>
3.4650

> <Gold.Chemscore.Metal>
0.0000

> <Gold.Chemscore.Lipo>
61.8918

> <Gold.Chemscore.Internal_Hbond>
0.0000

> <Gold.Chemscore.DEClash>
0.0123

> <Gold.Chemscore.DEInternal>
0.9846

> <Gold.Chemscore.Rot>
2.1235

> <Gold.Chemscore.Internal.Correction>
   9.000000E+99

> <Gold.Chemscore.Hbonds>
donor molecule, donor type, donor heavy atom, donor atom, acceptor molecule, acceptor atom, score
      L1  H     6    35       P1  7948  0.72
      L1  H    19    52       P1  7948  1.00
      P1  H  7997  8010       L1    18  0.18
      P1  H 10752 10764       L1     8  0.24

> <Gold.Chemscore.Hbond.Weighted>
-11.5732

> <Gold.Chemscore.Metal.Weighted>
-0.0000

> <Gold.Chemscore.Lipo.Weighted>
-7.2413

> <Gold.Chemscore.Internal_Hbond.Weighted>
0.0000

> <Gold.Chemscore.DEClash.Weighted>
0.0123

> <Gold.Chemscore.DEInternal.Weighted>
0.9846

> <Gold.Chemscore.Rot.Weighted>
5.4360

> <Gold.Chemscore.Internal.Correction.Weighted>
   9.000000E+99

> <Gold.Protein.RotatedTorsions>
[ 6907 6896 6895 6894 ] final  -41.24 input  -60.11 | X-H torsion
[ 7974 7965 7964 7962 ] final   91.65 input  175.53 | X-H torsion
[ 8008 7997 7996 7995 ] final   79.76 input   59.86 | X-H torsion
[ 10167 10162 10161 10158 ] final -167.88 input  -65.29 | X-H torsion
[ 10718 10713 10712 10709 ] final  167.22 input   66.30 | X-H torsion
[ 10763 10752 10751 10750 ] final  -30.39 input  -60.55 | X-H torsion
[ 11005 11000 10999 10996 ] final -154.24 input  -57.11 | X-H torsion

> <Gold.Protein.ActiveResidues>
 VAL166  LYS551  ARG553  GLY616  TRP617  ASP618  TYR619  PRO620  LYS621  CYS622 
 ASP623  PHE694  ASN695  SER759  ASP760  ASP761  ALA762  ILE779  LEU786  VAL792 
 PHE793  MET794  SER795  GLU796  ALA797  LYS798  CYS799  TRP800  GLU811  SER814 

> <Gold.Protein.RotatedAtoms>
  150.9691  134.9066  159.7776 H   0  0  0  0  0  0  0  0  0  0  0  0  # atno 6907 bound_to 6896
  152.5184  134.3566  159.9280 H   0  0  0  0  0  0  0  0  0  0  0  0  # atno 6908 bound_to 6896
  151.3576  133.3861  159.2721 H   0  0  0  0  0  0  0  0  0  0  0  0  # atno 6909 bound_to 6896
  145.5028  139.2276  143.2768 H   0  0  0  0  0  0  0  0  0  0  0  0  # atno 7974 bound_to 7965
  155.8741  140.3447  155.5842 H   0  0  0  0  0  0  0  0  0  0  0  0  # atno 8008 bound_to 7997
  155.7794  140.0856  157.2086 H   0  0  0  0  0  0  0  0  0  0  0  0  # atno 8009 bound_to 7997
  154.4019  140.1503  156.3022 H   0  0  0  0  0  0  0  0  0  0  0  0  # atno 8010 bound_to 7997
  139.6021  144.0989  152.1754 H   0  0  0  0  0  0  0  0  0  0  0  0  # atno 10167 bound_to 10162
  157.0546  131.0323  151.2668 H   0  0  0  0  0  0  0  0  0  0  0  0  # atno 10718 bound_to 10713
  153.7802  135.6906  153.4890 H   0  0  0  0  0  0  0  0  0  0  0  0  # atno 10763 bound_to 10752
  153.1817  135.4504  155.0035 H   0  0  0  0  0  0  0  0  0  0  0  0  # atno 10764 bound_to 10752
  154.8085  135.3367  154.7305 H   0  0  0  0  0  0  0  0  0  0  0  0  # atno 10765 bound_to 10752
  140.6995  134.3953  157.5211 H   0  0  0  0  0  0  0  0  0  0  0  0  # atno 11005 bound_to 11000
  146.2215  140.5829  142.9015 LP  0  0  0  0  0  0  0  0  0  0  0  0  # atno 17320 bound_to 7965
  144.7771  140.5762  143.6631 LP  0  0  0  0  0  0  0  0  0  0  0  0  # atno 17321 bound_to 7965
  140.0588  144.5873  150.7279 LP  0  0  0  0  0  0  0  0  0  0  0  0  # atno 17342 bound_to 10162
  140.7257  143.2634  151.4127 LP  0  0  0  0  0  0  0  0  0  0  0  0  # atno 17343 bound_to 10162
  157.5003  130.7876  149.7598 LP  0  0  0  0  0  0  0  0  0  0  0  0  # atno 17370 bound_to 10713
  155.9997  130.3887  150.2655 LP  0  0  0  0  0  0  0  0  0  0  0  0  # atno 17371 bound_to 10713
  139.8901  134.8814  156.2388 LP  0  0  0  0  0  0  0  0  0  0  0  0  # atno 17394 bound_to 11000
  141.0175  133.7060  156.1214 LP  0  0  0  0  0  0  0  0  0  0  0  0  # atno 17395 bound_to 11000

$$$$
