#       Name:                AV-unprocessed.smi:2845
#       Creating user name   scv26
#       Creation time:       Fri Mar 27 15:39:58 2020


#       File generated by GOLD software.
#

@<TRIPOS>MOLECULE
AV-unprocessed.smi:2845
    47    49     1
SMALL
NO_CHARGES


@<TRIPOS>ATOM
      1 ****        -1.7835   4.0362  -2.0105 C.3            1 S1                 0.0000
      2 ****        -1.3589   3.0388  -0.9461 C.ar           1 S1                 0.0000
      3 ****        -1.5437   3.3819   0.4128 C.ar           1 S1                 0.0000
      4 ****        -1.1471   2.4478   1.3626 C.ar           1 S1                 0.0000
      5 ****        -1.1950   2.4818   2.7585 N.pl3          1 S1                 1.0000
      6 ****        -0.6893   1.3203   3.2598 C.2            1 S1                 0.0000
      7 ****        -0.3165   0.5478   2.2037 N.pl3          1 S1                 0.0000
      8 ****         0.2783  -0.7936   2.1703 C.3            1 S1                 0.0000
      9 ****         1.8068  -0.7574   1.9546 C.3            1 S1                 0.0000
     10 ****         2.4224  -0.1355   3.0641 O.3            1 S1                 0.0000
     11 ****         2.4351  -2.1519   1.7525 C.3            1 S1                 0.0000
     12 ****         1.8610  -2.8777   0.6317 N.pl3          1 S1                 0.0000
     13 ****         1.4306  -4.1401   0.5431 C.2            1 S1                 0.0000
     14 ****         0.9664  -4.4696  -0.6559 N.2            1 S1                 0.0000
     15 ****         1.1717  -3.2827  -1.2968 C.2            1 S1                 0.0000
     16 ****         0.6851  -3.0355  -3.0328 S.o            1 S1                 0.0000
     17 ****        -1.1031  -2.7120  -2.6640 C.3            1 S1                 0.0000
     18 ****         1.2972  -1.6982  -3.4558 O.2            1 S1                 0.0000
     19 ****         1.7224  -2.3016  -0.5865 N.2            1 S1                 0.0000
     20 ****        -0.5843   1.2091   1.0006 C.ar           1 S1                 0.0000
     21 ****        -0.3939   0.8555  -0.3330 C.ar           1 S1                 0.0000
     22 ****        -0.7902   1.7917  -1.3139 C.ar           1 S1                 0.0000
     23 ****        -0.5933   1.4337  -2.7771 C.3            1 S1                 0.0000
     24 ****        -2.1897   4.9457  -1.5666 H              1 S1                 0.0000
     25 ****        -2.5531   3.6062  -2.6520 H              1 S1                 0.0000
     26 ****        -0.9333   4.3200  -2.6314 H              1 S1                 0.0000
     27 ****        -1.9755   4.3297   0.6997 H              1 S1                 0.0000
     28 ****        -0.5998   1.0599   4.3048 H              1 S1                 0.0000
     29 ****         0.0377  -1.2898   3.1116 H              1 S1                 0.0000
     30 ****        -0.2270  -1.3611   1.3882 H              1 S1                 0.0000
     31 ****         2.0344  -0.1446   1.0815 H              1 S1                 0.0000
     32 ****         2.1096   0.7543   3.1200 H              1 S1                 0.0000
     33 ****         3.5090  -2.0634   1.5832 H              1 S1                 0.0000
     34 ****         2.3062  -2.7553   2.6524 H              1 S1                 0.0000
     35 ****         1.4478  -4.8291   1.3748 H              1 S1                 0.0000
     36 ****        -1.5052  -3.4817  -2.0049 H              1 S1                 0.0000
     37 ****        -1.6820  -2.7114  -3.5872 H              1 S1                 0.0000
     38 ****        -1.2222  -1.7431  -2.1794 H              1 S1                 0.0000
     39 ****         0.0405  -0.0924  -0.6133 H              1 S1                 0.0000
     40 ****        -0.1465   0.4460  -2.8890 H              1 S1                 0.0000
     41 ****         0.0671   2.1527  -3.2623 H              1 S1                 0.0000
     42 ****        -1.5482   1.4282  -3.3028 H              1 S1                 0.0000
     43 ****        -1.5481   3.2394   3.3292 H              1 S1                 0.0000
     44 ****         3.4152  -0.1373   2.9441 LP             1 S1                 0.0000
     45 ****         2.1870  -0.6292   3.9013 LP             1 S1                 0.0000
     46 ****         0.5815  -5.3301  -0.9896 LP             1 S1                 0.0000
     47 ****         1.9701  -1.3773  -0.8770 LP             1 S1                 0.0000
@<TRIPOS>BOND
    1    1    2 1     
    2    1   24 1     
    3    1   25 1     
    4    1   26 1     
    5    2   22 ar    
    6    2    3 ar    
    7    3    4 ar    
    8    3   27 1     
    9    4   20 ar    
   10    4    5 1     
   11    5    6 2     
   12    5   43 1     
   13    6    7 1     
   14    6   28 1     
   15    7    8 1     
   16    7   20 1     
   17    8    9 1     
   18    8   29 1     
   19    8   30 1     
   20    9   10 1     
   21    9   11 1     
   22    9   31 1     
   23   10   32 1     
   24   11   12 1     
   25   11   33 1     
   26   11   34 1     
   27   12   19 1     
   28   12   13 1     
   29   13   14 2     
   30   13   35 1     
   31   14   15 1     
   32   15   16 1     
   33   15   19 2     
   34   16   17 1     
   35   16   18 2     
   36   17   36 1     
   37   17   37 1     
   38   17   38 1     
   39   20   21 ar    
   40   21   22 ar    
   41   21   39 1     
   42   22   23 1     
   43   23   40 1     
   44   23   41 1     
   45   23   42 1     
   46   10   44 1     
   47   10   45 1     
   48   14   46 1     
   49   19   47 1     
@<TRIPOS>SUBSTRUCTURE
      1 S1             1
@<TRIPOS>SET
LONE_PAIRS      STATIC     ATOMS    <user>   **** ""
5 44 45 46 18 47
DONOR_HYDROGENS      STATIC     ATOMS    <user>   **** ""
2 43 32
ATOM$BLUE        STATIC     ATOMS    COLORGROUP SYSTEM
5 44 45 46 18 47
ATOM$RED        STATIC     ATOMS    COLORGROUP SYSTEM
2 43 32
