AV-unprocessed.smi:72|AV-procd|sdf|686|dock10
  -GOLD-   2262017 03D 1   1.00000     0.00000
 Structure written by MMmdl.
 29 30  0  0  0  0  0  0  0  0  1 V2000
  154.4550  139.0595  160.4370 N   0  0  0  0  0  0  0  0  0  0  0  0
  153.5282  139.0084  159.5487 C   0  0  0  0  0  0  0  0  0  0  0  0
  153.3928  139.8893  158.4649 N   0  0  0  0  0  0  0  0  0  0  0  0
  152.3990  139.7197  157.6481 C   0  0  0  0  0  0  0  0  0  0  0  0
  151.4239  138.6541  157.8239 N   0  0  0  0  0  0  0  0  0  0  0  0
  150.2724  138.4881  156.8547 C   0  0  1  0  0  0  0  0  0  0  0  0
  149.8385  139.7542  156.4645 O   0  0  0  0  0  0  0  0  0  0  0  0
  149.4311  139.7065  155.1052 C   0  0  1  0  0  0  0  0  0  0  0  0
  149.4722  141.1167  154.4972 C   0  0  0  0  0  0  0  0  0  0  0  0
  148.8767  141.1099  153.2172 O   0  0  0  0  0  0  0  0  0  0  0  0
  150.4460  138.7418  154.4838 C   0  0  2  0  0  0  0  0  0  0  0  0
  149.9138  138.1448  153.3187 O   0  0  0  0  0  0  0  0  0  0  0  0
  150.6463  137.7002  155.5782 C   0  0  1  0  0  0  0  0  0  0  0  0
  151.9700  137.1966  155.5576 O   0  0  0  0  0  0  0  0  0  0  0  0
  151.5582  137.7441  158.9004 C   0  0  0  0  0  0  0  0  0  0  0  0
  150.7830  136.8044  159.0751 O   0  0  0  0  0  0  0  0  0  0  0  0
  152.6059  137.9681  159.7227 N   0  0  0  0  0  0  0  0  0  0  0  0
  149.4582  138.0178  157.4079 H   0  0  0  0  0  0  0  0  0  0  0  0
  148.4281  139.2778  155.0487 H   0  0  0  0  0  0  0  0  0  0  0  0
  151.3792  139.2631  154.2629 H   0  0  0  0  0  0  0  0  0  0  0  0
  149.9370  136.8771  155.4781 H   0  0  0  0  0  0  0  0  0  0  0  0
  154.3322  138.3150  161.1082 H   0  0  0  0  0  0  0  0  0  0  0  0
  152.2323  140.3565  156.7780 H   0  0  0  0  0  0  0  0  0  0  0  0
  148.9789  141.8430  155.1437 H   0  0  0  0  0  0  0  0  0  0  0  0
  150.5057  141.4416  154.3742 H   0  0  0  0  0  0  0  0  0  0  0  0
  149.2016  140.3628  152.7383 H   0  0  0  0  0  0  0  0  0  0  0  0
  149.8660  138.8034  152.6426 H   0  0  0  0  0  0  0  0  0  0  0  0
  152.4641  137.6288  156.2374 H   0  0  0  0  0  0  0  0  0  0  0  0
  152.7308  137.3413  160.5040 H   0  0  0  0  0  0  0  0  0  0  0  0
  1  2  2  0  0  0  0
  1 22  1  0  0  0  0
  2 17  1  0  0  0  0
  2  3  1  0  0  0  0
  3  4  2  0  0  0  0
  4  5  1  0  0  0  0
  4 23  1  0  0  0  0
  5  6  1  0  0  0  0
  5 15  1  0  0  0  0
  6 18  1  0  0  0  0
  6 13  1  0  0  0  0
  6  7  1  0  0  0  0
  7  8  1  0  0  0  0
  8 19  1  0  0  0  0
  8  9  1  0  0  0  0
  8 11  1  0  0  0  0
  9 10  1  0  0  0  0
  9 24  1  0  0  0  0
  9 25  1  0  0  0  0
 10 26  1  0  0  0  0
 11 20  1  0  0  0  0
 11 12  1  0  0  0  0
 11 13  1  0  0  0  0
 12 27  1  0  0  0  0
 13 21  1  0  0  0  0
 13 14  1  0  0  0  0
 14 28  1  0  0  0  0
 15 16  2  0  0  0  0
 15 17  1  0  0  0  0
 17 29  1  0  0  0  0
M  END
> <s_m_source_file>
AV-unprocessed.smi

> <i_m_source_file_index>
72

> <i_lp_mmshare_version>
43012

> <i_f3d_flags>
0

> <s_epik_input>
W05IMl1jMW5bY0hdbihjKD1PKW4xKVtDQEBIXTJPW0NASF0oW0NIMl1bT0hdKVtDQEBIXShbT0hdKVtDQEhdMltPSF0=

> <s_epik_cmdline>
J2VwaWtfcHl0aG9uJywgJy1waCcsICc3LjAnLCAnLXRuJywgJzgnLCAnLW1hJywgJzIwMCcsICctbWV0YWxfYmluZGluZycsICctaW1hZScsICc8aW5maWxlLm1hZT4nLCAnLW9tYWUnLCAnPG91dGZpbGUubWFlPic=

> <r_lp_tautomer_probability>
7.17554e-07

> <r_epik_Ionization_Penalty>
0.0066451

> <r_epik_Ionization_Penalty_Charging>
0.00663793

> <r_epik_Ionization_Penalty_Neutral>
7.17052e-06

> <r_epik_State_Penalty>
0.419231

> <r_epik_Charging_Adjusted_Penalty>
0.425868

> <i_epik_Tot_Q>
0

> <i_epik_Tot_abs_Q>
0

> <r_epik_Metal_State_Penalty>
1.44144

> <b_epik_Metal_Only>
0

> <s_epik_Chemistry_Notes>
This compound contains an acetal/aminal-like group ( X-CH(R)-Y where X, Y are N, S, or O) that may be acid/base labile, releasing an aldehyde.

> <s_lp_Force_Field>
OPLS_2005

> <r_lp_Energy>
42.1084

> <b_lp_Chiralities_Consistent>
1

> <s_lp_Variant>
AV-unprocessed.smi:72-24

> <Gold.Version>
5.8.1

> <Gold.Id.Protein>
6NUR|6NUR_protein|mol2

> <Gold.PLP.Fitness>
37.0391

> <Gold.PLP.PLP>
-21.4414

> <Gold.PLP.part.hbond>
-7.7876

> <Gold.PLP.part.metal>
0.0000

> <Gold.PLP.part.buried>
-0.4969

> <Gold.PLP.part.nonpolar>
-12.0986

> <Gold.PLP.part.repulsive>
0.1051

> <Gold.PLP.ligand.clash>
0.0000

> <Gold.PLP.ligand.torsion>
0.7436

> <Gold.PLP.Chemscore.Hbond>
5.6535

> <Gold.PLP.Chemscore.CHOScore>
0.0000

> <Gold.PLP.Chemscore.Metal>
0.0000

> <Gold.Chemscore.Hbonds>
donor molecule, donor type, donor heavy atom, donor atom, acceptor molecule, acceptor atom, score
      L1  H    10    26       P1  7957  0.70
      L1  H    12    27       P1  7957  1.00
      P1  H  6896  6908       L1    16  1.00
      P1  H  7997  8008       L1     3  0.90
      P1  H  8011  8017       L1    10  0.90
      P1  H 10752 10765       L1    14  0.81

> <Gold.PLP.Chemscore.Internal.Correction>
0.1245

> <Gold.Rescore>
     Score         DG    S(hbond)    S(metal)    S(lipo)     H(rot)  DE(clash)    DE(int)     intcor
      9.47     -10.27       3.64        0.00      25.81       4.06       0.02       0.78       ----

> <Gold.Chemscore.Fitness>
9.4717

> <Gold.Chemscore.DG>
-10.2681

> <Gold.Chemscore.ZeroCoef>
-5.4800

> <Gold.Chemscore.Hbond>
3.6413

> <Gold.Chemscore.Metal>
0.0000

> <Gold.Chemscore.Lipo>
25.8109

> <Gold.Chemscore.Internal_Hbond>
0.0000

> <Gold.Chemscore.DEClash>
0.0207

> <Gold.Chemscore.DEInternal>
0.7757

> <Gold.Chemscore.Rot>
4.0600

> <Gold.Chemscore.Internal.Correction>
   9.000000E+99

> <Gold.Chemscore.Hbonds>
donor molecule, donor type, donor heavy atom, donor atom, acceptor molecule, acceptor atom, score
      L1  H    10    26       P1  7957  0.72
      L1  H    12    27       P1  7957  0.60
      P1  H  6896  6908       L1    16  0.99
      P1  H  7997  8008       L1     3  0.17
      P1  H  8011  8017       L1    10  0.08
      P1  H 10752 10765       L1    14  0.67

> <Gold.Chemscore.Hbond.Weighted>
-12.1618

> <Gold.Chemscore.Metal.Weighted>
-0.0000

> <Gold.Chemscore.Lipo.Weighted>
-3.0199

> <Gold.Chemscore.Internal_Hbond.Weighted>
0.0000

> <Gold.Chemscore.DEClash.Weighted>
0.0207

> <Gold.Chemscore.DEInternal.Weighted>
0.7757

> <Gold.Chemscore.Rot.Weighted>
10.3936

> <Gold.Chemscore.Internal.Correction.Weighted>
   9.000000E+99

> <Gold.Protein.RotatedTorsions>
[ 6907 6896 6895 6894 ] final -149.18 input  -60.11 | X-H torsion
[ 7974 7965 7964 7962 ] final   94.67 input  175.53 | X-H torsion
[ 8008 7997 7996 7995 ] final  -98.89 input   59.86 | X-H torsion
[ 10167 10162 10161 10158 ] final   97.97 input  -65.29 | X-H torsion
[ 10718 10713 10712 10709 ] final   10.37 input   66.30 | X-H torsion
[ 10763 10752 10751 10750 ] final -176.76 input  -60.55 | X-H torsion
[ 11005 11000 10999 10996 ] final -155.27 input  -57.11 | X-H torsion

> <Gold.Protein.ActiveResidues>
 VAL166  LYS551  ARG553  GLY616  TRP617  ASP618  TYR619  PRO620  LYS621  CYS622 
 ASP623  PHE694  ASN695  SER759  ASP760  ASP761  ALA762  ILE779  LEU786  VAL792 
 PHE793  MET794  SER795  GLU796  ALA797  LYS798  CYS799  TRP800  GLU811  SER814 

> <Gold.Protein.RotatedAtoms>
  151.1805  133.4728  159.2593 H   0  0  0  0  0  0  0  0  0  0  0  0  # atno 6907 bound_to 6896
  151.1264  135.0107  159.8572 H   0  0  0  0  0  0  0  0  0  0  0  0  # atno 6908 bound_to 6896
  152.5458  134.1711  159.8650 H   0  0  0  0  0  0  0  0  0  0  0  0  # atno 6909 bound_to 6896
  145.4624  139.2286  143.2980 H   0  0  0  0  0  0  0  0  0  0  0  0  # atno 7974 bound_to 7965
  154.8074  140.0452  157.1317 H   0  0  0  0  0  0  0  0  0  0  0  0  # atno 8008 bound_to 7997
  154.9408  140.3052  155.5101 H   0  0  0  0  0  0  0  0  0  0  0  0  # atno 8009 bound_to 7997
  156.2968  140.2306  156.4477 H   0  0  0  0  0  0  0  0  0  0  0  0  # atno 8010 bound_to 7997
  139.7752  144.6908  151.0100 H   0  0  0  0  0  0  0  0  0  0  0  0  # atno 10167 bound_to 10162
  156.9799  130.6001  149.5676 H   0  0  0  0  0  0  0  0  0  0  0  0  # atno 10718 bound_to 10713
  154.5684  135.2826  155.0851 H   0  0  0  0  0  0  0  0  0  0  0  0  # atno 10763 bound_to 10752
  154.2233  135.6387  153.5155 H   0  0  0  0  0  0  0  0  0  0  0  0  # atno 10764 bound_to 10752
  153.0050  135.5519  154.6300 H   0  0  0  0  0  0  0  0  0  0  0  0  # atno 10765 bound_to 10752
  140.6882  134.4070  157.5221 H   0  0  0  0  0  0  0  0  0  0  0  0  # atno 11005 bound_to 11000
  146.2443  140.5394  142.8920 LP  0  0  0  0  0  0  0  0  0  0  0  0  # atno 17320 bound_to 7965
  144.7995  140.6186  143.6488 LP  0  0  0  0  0  0  0  0  0  0  0  0  # atno 17321 bound_to 7965
  140.7816  143.4544  151.0367 LP  0  0  0  0  0  0  0  0  0  0  0  0  # atno 17342 bound_to 10162
  139.8226  143.7799  152.3177 LP  0  0  0  0  0  0  0  0  0  0  0  0  # atno 17343 bound_to 10162
  156.0248  130.5342  150.8377 LP  0  0  0  0  0  0  0  0  0  0  0  0  # atno 17370 bound_to 10713
  157.5533  131.0944  150.9664 LP  0  0  0  0  0  0  0  0  0  0  0  0  # atno 17371 bound_to 10713
  139.8931  134.8738  156.2239 LP  0  0  0  0  0  0  0  0  0  0  0  0  # atno 17394 bound_to 11000
  141.0262  133.7013  156.1352 LP  0  0  0  0  0  0  0  0  0  0  0  0  # atno 17395 bound_to 11000

$$$$
