#       Name:                AV-unprocessed.smi:1878
#       Creating user name   scv26
#       Creation time:       Fri Mar 27 09:35:34 2020


#       File generated by GOLD software.
#

@<TRIPOS>MOLECULE
AV-unprocessed.smi:1878
    39    40     1
SMALL
NO_CHARGES


@<TRIPOS>ATOM
      1 ****         3.5641  -0.7784   0.0305 O.2            1 S1                 0.0000
      2 ****         2.8456  -1.7782   0.0189 C.2            1 S1                 0.0000
      3 ****         3.4153  -2.9902   0.0143 N.am           1 S1                 0.0000
      4 ****         4.8512  -3.2450   0.0183 C.3            1 S1                 0.0000
      5 ****         5.1471  -4.7517   0.0177 C.3            1 S1                 0.0000
      6 ****         6.4660  -4.9419   0.0185 F              1 S1                 0.0000
      7 ****         4.6312  -5.3268   1.1043 F              1 S1                 0.0000
      8 ****         4.6327  -5.3260  -1.0700 F              1 S1                 0.0000
      9 ****         1.4893  -1.8310   0.0092 N.pl3          1 S1                -1.0000
     10 ****         0.6335  -0.7861   0.0130 C.ar           1 S1                 0.0000
     11 ****        -0.7488  -1.0886   0.0192 C.ar           1 S1                 0.0000
     12 ****        -1.7204  -0.0682   0.0212 C.ar           1 S1                 0.0000
     13 ****        -1.3031   1.2795   0.0198 C.ar           1 S1                 0.0000
     14 ****        -2.1815   2.3720   0.0202 N.3            1 S1                 0.0000
     15 ****        -3.1025   2.4231   1.1436 C.3            1 S1                 0.0000
     16 ****        -4.2015   3.4043   0.7279 C.3            1 S1                 0.0000
     17 ****        -4.1404   3.4386  -0.8038 C.3            1 S1                 0.0000
     18 ****        -3.0008   2.4858  -1.1746 C.3            1 S1                 0.0000
     19 ****         0.0172   1.5500   0.0114 N.pl3          1 S1                 1.0000
     20 ****         0.9723   0.5949   0.0078 C.ar           1 S1                 0.0000
     21 ****         2.8075  -3.7962   0.0063 H              1 S1                 0.0000
     22 ****         5.3026  -2.7777  -0.8583 H              1 S1                 0.0000
     23 ****         5.2985  -2.7791   0.8977 H              1 S1                 0.0000
     24 ****        -1.0739  -2.1193   0.0210 H              1 S1                 0.0000
     25 ****        -2.7689  -0.3266   0.0214 H              1 S1                 0.0000
     26 ****        -3.5333   1.4400   1.3371 H              1 S1                 0.0000
     27 ****        -2.5952   2.7517   2.0512 H              1 S1                 0.0000
     28 ****        -5.1788   3.0937   1.0985 H              1 S1                 0.0000
     29 ****        -3.9944   4.3971   1.1293 H              1 S1                 0.0000
     30 ****        -5.0815   3.1353  -1.2636 H              1 S1                 0.0000
     31 ****        -3.9156   4.4502  -1.1439 H              1 S1                 0.0000
     32 ****        -2.4181   2.8662  -2.0142 H              1 S1                 0.0000
     33 ****        -3.4026   1.5118  -1.4579 H              1 S1                 0.0000
     34 ****         1.9753   0.9905   0.0004 H              1 S1                 0.0000
     35 ****         0.3123   2.5263   0.0079 H              1 S1                 0.0000
     36 ****         4.5591  -0.8778   0.0363 LP             1 S1                 0.0000
     37 ****         3.1526   0.1330   0.0341 LP             1 S1                 0.0000
     38 ****         1.0790  -2.7429  -0.0020 LP             1 S1                 0.0000
     39 ****        -1.5317   3.1300   0.0767 LP             1 S1                 0.0000
@<TRIPOS>BOND
    1    1    2 2     
    2    2    3 am    
    3    2    9 1     
    4    3    4 1     
    5    3   21 1     
    6    4    5 1     
    7    4   22 1     
    8    4   23 1     
    9    5    6 1     
   10    5    7 1     
   11    5    8 1     
   12    9   10 1     
   13   10   20 ar    
   14   10   11 ar    
   15   11   12 ar    
   16   11   24 1     
   17   12   13 ar    
   18   12   25 1     
   19   13   14 1     
   20   13   19 ar    
   21   14   18 1     
   22   14   15 1     
   23   15   16 1     
   24   15   26 1     
   25   15   27 1     
   26   16   17 1     
   27   16   28 1     
   28   16   29 1     
   29   17   18 1     
   30   17   30 1     
   31   17   31 1     
   32   18   32 1     
   33   18   33 1     
   34   19   20 ar    
   35   19   35 1     
   36   20   34 1     
   37    1   36 1     
   38    1   37 1     
   39    9   38 1     
   40   14   39 1     
@<TRIPOS>SUBSTRUCTURE
      1 S1             1
@<TRIPOS>SET
LONE_PAIRS      STATIC     ATOMS    <user>   **** ""
4 36 37 38 39
DONOR_HYDROGENS      STATIC     ATOMS    <user>   **** ""
2 21 35
ATOM$BLUE        STATIC     ATOMS    COLORGROUP SYSTEM
4 36 37 38 39
ATOM$RED        STATIC     ATOMS    COLORGROUP SYSTEM
2 21 35
