AV-unprocessed.smi:3340|AV-procd|sdf|12880|dock6
  -GOLD-   2272019283D 1   1.00000     0.00000
 Structure written by MMmdl.
 42 43  0  0  0  0  0  0  0  0  2 V2000
  151.6972  145.5308  159.5641 C   0  0  0  0  0  0  0  0  0  0  0  0
  152.1717  144.1563  160.0411 C   0  0  0  0  0  0  0  0  0  0  0  0
  152.5018  144.0380  161.2212 O   0  0  0  0  0  0  0  0  0  0  0  0
  152.2147  143.1263  159.1619 N   0  0  0  0  0  0  0  0  0  0  0  0
  151.7736  143.2546  157.7644 C   0  0  0  0  0  0  0  0  0  0  0  0
  150.5649  142.3260  157.5304 C   0  0  0  0  0  0  0  0  0  0  0  0
  150.9599  140.9398  157.8456 N   0  0  0  0  0  0  0  0  0  0  0  0
  151.1196  139.9283  156.9557 C   0  0  0  0  0  0  0  0  0  0  0  0
  151.5733  138.8263  157.2651 O   0  0  0  0  0  0  0  0  0  0  0  0
  150.6880  140.2059  155.7113 N   0  0  0  0  0  0  0  0  0  0  0  0
  150.7013  139.3271  154.5378 C   0  0  1  0  0  0  0  0  0  0  0  0
  152.0239  138.5484  154.4380 C   0  0  0  0  0  0  0  0  0  0  0  0
  149.4694  138.3955  154.4618 C   0  0  0  0  0  0  0  0  0  0  0  0
  148.2102  139.1267  154.2909 N   0  0  0  0  0  0  0  0  0  0  0  0
  147.6883  140.0874  155.1187 C   0  0  0  0  0  0  0  0  0  0  0  0
  146.5017  140.4836  154.5576 C   0  0  0  0  0  0  0  0  0  0  0  0
  146.3486  139.7469  153.4136 N   0  3  0  0  0  0  0  0  0  0  0  0
  147.3876  138.9203  153.2546 C   0  0  0  0  0  0  0  0  0  0  0  0
  151.3862  140.8204  159.2482 C   0  0  0  0  0  0  0  0  0  0  0  0
  152.5983  141.7428  159.4856 C   0  0  0  0  0  0  0  0  0  0  0  0
  152.3436  145.9099  158.7724 H   0  0  0  0  0  0  0  0  0  0  0  0
  151.7192  146.2501  160.3836 H   0  0  0  0  0  0  0  0  0  0  0  0
  150.6728  145.4803  159.1945 H   0  0  0  0  0  0  0  0  0  0  0  0
  151.5020  144.2772  157.4987 H   0  0  0  0  0  0  0  0  0  0  0  0
  152.5958  142.9810  157.1012 H   0  0  0  0  0  0  0  0  0  0  0  0
  149.7385  142.6174  158.1806 H   0  0  0  0  0  0  0  0  0  0  0  0
  150.1987  142.4645  156.5136 H   0  0  0  0  0  0  0  0  0  0  0  0
  150.3192  141.1337  155.5596 H   0  0  0  0  0  0  0  0  0  0  0  0
  150.6623  139.9948  153.6766 H   0  0  0  0  0  0  0  0  0  0  0  0
  152.0782  137.9927  153.5018 H   0  0  0  0  0  0  0  0  0  0  0  0
  152.1343  137.8305  155.2511 H   0  0  0  0  0  0  0  0  0  0  0  0
  152.8807  139.2223  154.4693 H   0  0  0  0  0  0  0  0  0  0  0  0
  149.5678  137.7110  153.6179 H   0  0  0  0  0  0  0  0  0  0  0  0
  149.3810  137.7722  155.3519 H   0  0  0  0  0  0  0  0  0  0  0  0
  148.1892  140.4103  156.0203 H   0  0  0  0  0  0  0  0  0  0  0  0
  145.7739  141.2147  154.8784 H   0  0  0  0  0  0  0  0  0  0  0  0
  147.5346  138.2255  152.4470 H   0  0  0  0  0  0  0  0  0  0  0  0
  150.5607  141.1076  159.9011 H   0  0  0  0  0  0  0  0  0  0  0  0
  151.6410  139.7971  159.5266 H   0  0  0  0  0  0  0  0  0  0  0  0
  153.4294  141.4444  158.8446 H   0  0  0  0  0  0  0  0  0  0  0  0
  152.9545  141.6143  160.5064 H   0  0  0  0  0  0  0  0  0  0  0  0
  145.5628  139.8144  152.7787 H   0  0  0  0  0  0  0  0  0  0  0  0
  1  2  1  0  0  0  0
  1 21  1  0  0  0  0
  1 22  1  0  0  0  0
  1 23  1  0  0  0  0
  2  3  2  0  0  0  0
  2  4  1  0  0  0  0
  4 20  1  0  0  0  0
  4  5  1  0  0  0  0
  5  6  1  0  0  0  0
  5 24  1  0  0  0  0
  5 25  1  0  0  0  0
  6  7  1  0  0  0  0
  6 26  1  0  0  0  0
  6 27  1  0  0  0  0
  7  8  1  0  0  0  0
  7 19  1  0  0  0  0
  8  9  2  0  0  0  0
  8 10  1  0  0  0  0
 10 11  1  0  0  0  0
 10 28  1  0  0  0  0
 11 12  1  0  0  0  0
 11 13  1  0  0  0  0
 11 29  1  0  0  0  0
 12 30  1  0  0  0  0
 12 31  1  0  0  0  0
 12 32  1  0  0  0  0
 13 14  1  0  0  0  0
 13 33  1  0  0  0  0
 13 34  1  0  0  0  0
 14 18  1  0  0  0  0
 14 15  1  0  0  0  0
 15 16  2  0  0  0  0
 15 35  1  0  0  0  0
 16 17  1  0  0  0  0
 16 36  1  0  0  0  0
 17 18  2  0  0  0  0
 17 42  1  0  0  0  0
 18 37  1  0  0  0  0
 19 20  1  0  0  0  0
 19 38  1  0  0  0  0
 19 39  1  0  0  0  0
 20 40  1  0  0  0  0
 20 41  1  0  0  0  0
M  CHG  1  17   1
M  END
> <s_m_source_file>
AV-unprocessed.smi

> <i_m_source_file_index>
3340

> <i_lp_mmshare_version>
43012

> <i_f3d_flags>
0

> <s_epik_input>
W0NIM11DKD1PKU4xW0NIMl1bQ0gyXU4oW0NIMl1bQ0gyXTEpQyg9TylbTkhdW0NASF0oW0NIM10pW0NIMl1uMltjSF1bY0hdbltjSF0y

> <s_epik_cmdline>
J2VwaWtfcHl0aG9uJywgJy1waCcsICc3LjAnLCAnLXRuJywgJzgnLCAnLW1hJywgJzIwMCcsICctbWV0YWxfYmluZGluZycsICctaW1hZScsICc8aW5maWxlLm1hZT4nLCAnLW9tYWUnLCAnPG91dGZpbGUubWFlPic=

> <r_lp_tautomer_probability>
1

> <r_epik_Ionization_Penalty>
0.254791

> <r_epik_Ionization_Penalty_Charging>
0

> <r_epik_Ionization_Penalty_Neutral>
0.254791

> <r_epik_State_Penalty>
0.246235

> <r_epik_Charging_Adjusted_Penalty>
0.246235

> <i_epik_Tot_Q>
1

> <i_epik_Tot_abs_Q>
1

> <r_epik_Metal_State_Penalty>
0.536161

> <b_epik_Metal_Only>
0

> <s_lp_Force_Field>
OPLS_2005

> <r_lp_Energy>
52.654

> <b_lp_Chiralities_Consistent>
1

> <s_lp_Variant>
AV-unprocessed.smi:3340-2

> <Gold.Version>
5.8.1

> <Gold.Id.Protein>
6NUR|6NUR_protein|mol2

> <Gold.PLP.Fitness>
45.6455

> <Gold.PLP.PLP>
-37.5953

> <Gold.PLP.part.hbond>
-1.0000

> <Gold.PLP.part.metal>
0.0000

> <Gold.PLP.part.buried>
-1.4253

> <Gold.PLP.part.nonpolar>
-33.6092

> <Gold.PLP.part.repulsive>
0.2301

> <Gold.PLP.ligand.clash>
0.0000

> <Gold.PLP.ligand.torsion>
0.3512

> <Gold.PLP.Chemscore.Hbond>
1.8880

> <Gold.PLP.Chemscore.CHOScore>
1.0038

> <Gold.PLP.Chemscore.Metal>
0.0000

> <Gold.Chemscore.Hbonds>
donor molecule, donor type, donor heavy atom, donor atom, acceptor molecule, acceptor atom, score
      L1  H    17    42       P1 10175  1.92
      L1  C    18    37       P1  7948  1.00

> <Gold.PLP.Chemscore.Internal.Correction>
0.0773

> <Gold.Rescore>
     Score         DG    S(hbond)    S(metal)    S(lipo)     H(rot)  DE(clash)    DE(int)     intcor
     11.29     -13.11       0.98        0.00      74.38       1.70       0.33       1.49       ----

> <Gold.Chemscore.Fitness>
11.2940

> <Gold.Chemscore.DG>
-13.1107

> <Gold.Chemscore.ZeroCoef>
-5.4800

> <Gold.Chemscore.Hbond>
0.9803

> <Gold.Chemscore.Metal>
0.0000

> <Gold.Chemscore.Lipo>
74.3757

> <Gold.Chemscore.Internal_Hbond>
0.0000

> <Gold.Chemscore.DEClash>
0.3272

> <Gold.Chemscore.DEInternal>
1.4896

> <Gold.Chemscore.Rot>
1.6975

> <Gold.Chemscore.Internal.Correction>
   9.000000E+99

> <Gold.Chemscore.Hbonds>
donor molecule, donor type, donor heavy atom, donor atom, acceptor molecule, acceptor atom, score
      L1  H    17    42       P1 10175  0.88

> <Gold.Chemscore.Hbond.Weighted>
-3.2743

> <Gold.Chemscore.Metal.Weighted>
-0.0000

> <Gold.Chemscore.Lipo.Weighted>
-8.7020

> <Gold.Chemscore.Internal_Hbond.Weighted>
0.0000

> <Gold.Chemscore.DEClash.Weighted>
0.3272

> <Gold.Chemscore.DEInternal.Weighted>
1.4896

> <Gold.Chemscore.Rot.Weighted>
4.3455

> <Gold.Chemscore.Internal.Correction.Weighted>
   9.000000E+99

> <Gold.Protein.RotatedTorsions>
[ 6907 6896 6895 6894 ] final  133.42 input  -60.11 | X-H torsion
[ 7974 7965 7964 7962 ] final   -4.83 input  175.53 | X-H torsion
[ 8008 7997 7996 7995 ] final -139.29 input   59.86 | X-H torsion
[ 10167 10162 10161 10158 ] final  -20.96 input  -65.29 | X-H torsion
[ 10718 10713 10712 10709 ] final -113.32 input   66.30 | X-H torsion
[ 10763 10752 10751 10750 ] final  101.34 input  -60.55 | X-H torsion
[ 11005 11000 10999 10996 ] final  -77.02 input  -57.11 | X-H torsion

> <Gold.Protein.ActiveResidues>
 VAL166  LYS551  ARG553  GLY616  TRP617  ASP618  TYR619  PRO620  LYS621  CYS622 
 ASP623  PHE694  ASN695  SER759  ASP760  ASP761  ALA762  ILE779  LEU786  VAL792 
 PHE793  MET794  SER795  GLU796  ALA797  LYS798  CYS799  TRP800  GLU811  SER814 

> <Gold.Protein.RotatedAtoms>
  152.3221  133.5865  159.5751 H   0  0  0  0  0  0  0  0  0  0  0  0  # atno 6907 bound_to 6896
  150.7377  133.9996  159.3642 H   0  0  0  0  0  0  0  0  0  0  0  0  # atno 6908 bound_to 6896
  151.7879  135.0744  160.0434 H   0  0  0  0  0  0  0  0  0  0  0  0  # atno 6909 bound_to 6896
  146.2365  140.1930  142.8333 H   0  0  0  0  0  0  0  0  0  0  0  0  # atno 7974 bound_to 7965
  155.4424  140.0533  157.3009 H   0  0  0  0  0  0  0  0  0  0  0  0  # atno 8008 bound_to 7997
  154.4812  140.2082  155.9716 H   0  0  0  0  0  0  0  0  0  0  0  0  # atno 8009 bound_to 7997
  156.1208  140.3188  155.8211 H   0  0  0  0  0  0  0  0  0  0  0  0  # atno 8010 bound_to 7997
  140.7279  143.4672  151.0296 H   0  0  0  0  0  0  0  0  0  0  0  0  # atno 10167 bound_to 10162
  156.0760  130.5967  150.8627 H   0  0  0  0  0  0  0  0  0  0  0  0  # atno 10718 bound_to 10713
  153.3255  135.4048  155.1452 H   0  0  0  0  0  0  0  0  0  0  0  0  # atno 10763 bound_to 10752
  154.8611  135.3598  154.5540 H   0  0  0  0  0  0  0  0  0  0  0  0  # atno 10764 bound_to 10752
  153.5976  135.7072  153.5457 H   0  0  0  0  0  0  0  0  0  0  0  0  # atno 10765 bound_to 10752
  141.1658  133.7006  156.7758 H   0  0  0  0  0  0  0  0  0  0  0  0  # atno 11005 bound_to 11000
  144.9842  140.8488  143.5378 LP  0  0  0  0  0  0  0  0  0  0  0  0  # atno 17320 bound_to 7965
  145.1928  139.2292  143.5234 LP  0  0  0  0  0  0  0  0  0  0  0  0  # atno 17321 bound_to 7965
  139.8362  143.7625  152.3180 LP  0  0  0  0  0  0  0  0  0  0  0  0  # atno 17342 bound_to 10162
  139.7758  144.7461  151.0159 LP  0  0  0  0  0  0  0  0  0  0  0  0  # atno 17343 bound_to 10162
  157.5855  131.0945  150.9203 LP  0  0  0  0  0  0  0  0  0  0  0  0  # atno 17370 bound_to 10713
  156.9390  130.5377  149.5280 LP  0  0  0  0  0  0  0  0  0  0  0  0  # atno 17371 bound_to 10713
  140.2431  134.8598  157.3593 LP  0  0  0  0  0  0  0  0  0  0  0  0  # atno 17394 bound_to 11000
  140.1776  134.4530  155.7792 LP  0  0  0  0  0  0  0  0  0  0  0  0  # atno 17395 bound_to 11000

$$$$
