AV-unprocessed.smi:3306|AV-procd|sdf|12704|dock7
  -GOLD-   2272019 43D 1   1.00000     0.00000
 Structure written by MMmdl.
 44 45  0  0  0  0  0  0  0  0  2 V2000
  146.1373  135.6280  154.0811 C   0  0  0  0  0  0  0  0  0  0  0  0
  146.2128  137.1280  153.7238 C   0  0  0  0  0  0  0  0  0  0  0  0
  145.6226  137.3198  152.3107 C   0  0  0  0  0  0  0  0  0  0  0  0
  147.5988  137.6923  153.8319 N   0  3  2  0  0  0  0  0  0  0  0  0
  148.2617  137.4342  155.1441 C   0  0  0  0  0  0  0  0  0  0  0  0
  149.7139  137.9387  155.1642 C   0  0  0  0  0  0  0  0  0  0  0  0
  149.7937  139.4348  154.8365 C   0  0  1  0  0  0  0  0  0  0  0  0
  151.1987  139.8160  154.7820 N   0  0  0  0  0  0  0  0  0  0  0  0
  151.6691  140.3657  156.0468 C   0  0  0  0  0  0  0  0  0  0  0  0
  150.8095  141.5659  156.4799 C   0  0  0  0  0  0  0  0  0  0  0  0
  151.4543  142.4074  157.5693 C   0  0  0  0  0  0  0  0  0  0  0  0
  151.6049  143.8007  157.4018 C   0  0  0  0  0  0  0  0  0  0  0  0
  152.2235  144.5380  158.4301 C   0  0  0  0  0  0  0  0  0  0  0  0
  152.6667  143.8575  159.5804 C   0  0  0  0  0  0  0  0  0  0  0  0
  152.4705  142.4640  159.6515 C   0  0  0  0  0  0  0  0  0  0  0  0
  151.8793  141.7477  158.6710 N   0  0  0  0  0  0  0  0  0  0  0  0
  149.1030  139.6773  153.4843 C   0  0  0  0  0  0  0  0  0  0  0  0
  147.6612  139.1440  153.4922 C   0  0  0  0  0  0  0  0  0  0  0  0
  145.1446  135.2254  153.8765 H   0  0  0  0  0  0  0  0  0  0  0  0
  146.3197  135.4464  155.1402 H   0  0  0  0  0  0  0  0  0  0  0  0
  146.8528  135.0425  153.5025 H   0  0  0  0  0  0  0  0  0  0  0  0
  145.5763  137.6627  154.4309 H   0  0  0  0  0  0  0  0  0  0  0  0
  144.6645  136.8081  152.2138 H   0  0  0  0  0  0  0  0  0  0  0  0
  146.2868  136.9171  151.5451 H   0  0  0  0  0  0  0  0  0  0  0  0
  145.4264  138.3646  152.0752 H   0  0  0  0  0  0  0  0  0  0  0  0
  147.6864  137.9034  155.9437 H   0  0  0  0  0  0  0  0  0  0  0  0
  148.3003  136.3677  155.3589 H   0  0  0  0  0  0  0  0  0  0  0  0
  150.1528  137.7469  156.1443 H   0  0  0  0  0  0  0  0  0  0  0  0
  150.3027  137.3656  154.4455 H   0  0  0  0  0  0  0  0  0  0  0  0
  149.2900  139.9955  155.6255 H   0  0  0  0  0  0  0  0  0  0  0  0
  151.7619  139.0103  154.5484 H   0  0  0  0  0  0  0  0  0  0  0  0
  151.6532  139.6075  156.8293 H   0  0  0  0  0  0  0  0  0  0  0  0
  152.7049  140.6859  155.9284 H   0  0  0  0  0  0  0  0  0  0  0  0
  150.6234  142.2045  155.6156 H   0  0  0  0  0  0  0  0  0  0  0  0
  149.8289  141.2250  156.8156 H   0  0  0  0  0  0  0  0  0  0  0  0
  151.2577  144.2937  156.5057 H   0  0  0  0  0  0  0  0  0  0  0  0
  152.3568  145.6057  158.3375 H   0  0  0  0  0  0  0  0  0  0  0  0
  153.1454  144.3903  160.3886 H   0  0  0  0  0  0  0  0  0  0  0  0
  152.7986  141.9095  160.5183 H   0  0  0  0  0  0  0  0  0  0  0  0
  149.0843  140.7398  153.2435 H   0  0  0  0  0  0  0  0  0  0  0  0
  149.6653  139.1906  152.6856 H   0  0  0  0  0  0  0  0  0  0  0  0
  147.2450  139.3330  152.5050 H   0  0  0  0  0  0  0  0  0  0  0  0
  147.0579  139.7106  154.2033 H   0  0  0  0  0  0  0  0  0  0  0  0
  148.1546  137.2107  153.1394 H   0  0  0  0  0  0  0  0  0  0  0  0
  1  2  1  0  0  0  0
  1 19  1  0  0  0  0
  1 20  1  0  0  0  0
  1 21  1  0  0  0  0
  2  3  1  0  0  0  0
  2  4  1  0  0  0  0
  2 22  1  0  0  0  0
  3 23  1  0  0  0  0
  3 24  1  0  0  0  0
  3 25  1  0  0  0  0
  4 18  1  0  0  0  0
  4  5  1  0  0  0  0
  4 44  1  0  0  0  0
  5  6  1  0  0  0  0
  5 26  1  0  0  0  0
  5 27  1  0  0  0  0
  6  7  1  0  0  0  0
  6 28  1  0  0  0  0
  6 29  1  0  0  0  0
  7  8  1  0  0  0  0
  7 17  1  0  0  0  0
  7 30  1  0  0  0  0
  8  9  1  0  0  0  0
  8 31  1  0  0  0  0
  9 10  1  0  0  0  0
  9 32  1  0  0  0  0
  9 33  1  0  0  0  0
 10 11  1  0  0  0  0
 10 34  1  0  0  0  0
 10 35  1  0  0  0  0
 11 16  1  0  0  0  0
 11 12  2  0  0  0  0
 12 13  1  0  0  0  0
 12 36  1  0  0  0  0
 13 14  2  0  0  0  0
 13 37  1  0  0  0  0
 14 15  1  0  0  0  0
 14 38  1  0  0  0  0
 15 16  2  0  0  0  0
 15 39  1  0  0  0  0
 17 18  1  0  0  0  0
 17 40  1  0  0  0  0
 17 41  1  0  0  0  0
 18 42  1  0  0  0  0
 18 43  1  0  0  0  0
M  CHG  1   4   1
M  END
> <s_m_source_file>
AV-unprocessed.smi

> <i_m_source_file_index>
3306

> <i_lp_mmshare_version>
43012

> <i_f3d_flags>
0

> <s_epik_input>
W0NIM11bQ0hdKFtDSDNdKU4xW0NIMl1bQ0gyXVtDSF0oW0NIMl1bQ0gyXTEpW05IXVtDSDJdW0NIMl1jMltjSF1bY0hdW2NIXVtjSF1uMg==

> <s_epik_cmdline>
J2VwaWtfcHl0aG9uJywgJy1waCcsICc3LjAnLCAnLXRuJywgJzgnLCAnLW1hJywgJzIwMCcsICctbWV0YWxfYmluZGluZycsICctaW1hZScsICc8aW5maWxlLm1hZT4nLCAnLW9tYWUnLCAnPG91dGZpbGUubWFlPic=

> <r_epik_Ionization_Penalty>
2.29993

> <r_epik_Ionization_Penalty_Charging>
0.000386008

> <r_epik_Ionization_Penalty_Neutral>
2.29954

> <r_epik_State_Penalty>
2.40593

> <r_epik_Charging_Adjusted_Penalty>
2.40631

> <i_epik_Tot_Q>
1

> <i_epik_Tot_abs_Q>
1

> <r_epik_Metal_State_Penalty>
2.31593

> <b_epik_Metal_Only>
0

> <s_lp_Force_Field>
OPLS_2005

> <r_lp_Energy>
25.7367

> <b_lp_Chiralities_Consistent>
1

> <s_lp_Variant>
AV-unprocessed.smi:3306-4

> <Gold.Version>
5.8.1

> <Gold.Id.Protein>
6NUR|6NUR_protein|mol2

> <Gold.PLP.Fitness>
41.7231

> <Gold.PLP.PLP>
-33.8843

> <Gold.PLP.part.hbond>
-2.0000

> <Gold.PLP.part.metal>
0.0000

> <Gold.PLP.part.buried>
0.4069

> <Gold.PLP.part.nonpolar>
-32.7051

> <Gold.PLP.part.repulsive>
0.0025

> <Gold.PLP.ligand.clash>
0.0000

> <Gold.PLP.ligand.torsion>
0.6052

> <Gold.PLP.Chemscore.Hbond>
3.0000

> <Gold.PLP.Chemscore.CHOScore>
0.0000

> <Gold.PLP.Chemscore.Metal>
0.0000

> <Gold.Chemscore.Hbonds>
donor molecule, donor type, donor heavy atom, donor atom, acceptor molecule, acceptor atom, score
      L1  H     4    44       P1  7948  2.00
      P1  H  7989  7998       L1     8  1.00

> <Gold.PLP.Chemscore.Internal.Correction>
0.0492

> <Gold.Rescore>
     Score         DG    S(hbond)    S(metal)    S(lipo)     H(rot)  DE(clash)    DE(int)     intcor
     16.39     -18.83       1.25        0.00     109.19       1.41       1.70       0.74       ----

> <Gold.Chemscore.Fitness>
16.3879

> <Gold.Chemscore.DG>
-18.8302

> <Gold.Chemscore.ZeroCoef>
-5.4800

> <Gold.Chemscore.Hbond>
1.2511

> <Gold.Chemscore.Metal>
0.0000

> <Gold.Chemscore.Lipo>
109.1920

> <Gold.Chemscore.Internal_Hbond>
0.0000

> <Gold.Chemscore.DEClash>
1.7005

> <Gold.Chemscore.DEInternal>
0.7417

> <Gold.Chemscore.Rot>
1.4078

> <Gold.Chemscore.Internal.Correction>
   9.000000E+99

> <Gold.Chemscore.Hbonds>
donor molecule, donor type, donor heavy atom, donor atom, acceptor molecule, acceptor atom, score
      L1  H     4    44       P1  7948  1.00
      P1  H  7989  7998       L1     8  0.18

> <Gold.Chemscore.Hbond.Weighted>
-4.1788

> <Gold.Chemscore.Metal.Weighted>
-0.0000

> <Gold.Chemscore.Lipo.Weighted>
-12.7755

> <Gold.Chemscore.Internal_Hbond.Weighted>
0.0000

> <Gold.Chemscore.DEClash.Weighted>
1.7005

> <Gold.Chemscore.DEInternal.Weighted>
0.7417

> <Gold.Chemscore.Rot.Weighted>
3.6041

> <Gold.Chemscore.Internal.Correction.Weighted>
   9.000000E+99

> <Gold.Protein.RotatedTorsions>
[ 6907 6896 6895 6894 ] final  140.54 input  -60.11 | X-H torsion
[ 7974 7965 7964 7962 ] final  -86.58 input  175.53 | X-H torsion
[ 8008 7997 7996 7995 ] final  107.26 input   59.86 | X-H torsion
[ 10167 10162 10161 10158 ] final -129.89 input  -65.29 | X-H torsion
[ 10718 10713 10712 10709 ] final  -29.75 input   66.30 | X-H torsion
[ 10763 10752 10751 10750 ] final   52.06 input  -60.55 | X-H torsion
[ 11005 11000 10999 10996 ] final  144.35 input  -57.11 | X-H torsion

> <Gold.Protein.ActiveResidues>
 VAL166  LYS551  ARG553  GLY616  TRP617  ASP618  TYR619  PRO620  LYS621  CYS622 
 ASP623  PHE694  ASN695  SER759  ASP760  ASP761  ALA762  ILE779  LEU786  VAL792 
 PHE793  MET794  SER795  GLU796  ALA797  LYS798  CYS799  TRP800  GLU811  SER814 

> <Gold.Protein.RotatedAtoms>
  152.2418  133.5142  159.5274 H   0  0  0  0  0  0  0  0  0  0  0  0  # atno 6907 bound_to 6896
  150.7067  134.1078  159.3998 H   0  0  0  0  0  0  0  0  0  0  0  0  # atno 6908 bound_to 6896
  151.8999  135.0382  160.0556 H   0  0  0  0  0  0  0  0  0  0  0  0  # atno 6909 bound_to 6896
  145.4780  140.9558  143.1880 H   0  0  0  0  0  0  0  0  0  0  0  0  # atno 7974 bound_to 7965
  156.1809  140.3098  155.9147 H   0  0  0  0  0  0  0  0  0  0  0  0  # atno 8008 bound_to 7997
  155.3385  140.0464  157.3061 H   0  0  0  0  0  0  0  0  0  0  0  0  # atno 8009 bound_to 7997
  154.5342  140.2240  155.8762 H   0  0  0  0  0  0  0  0  0  0  0  0  # atno 8010 bound_to 7997
  139.9351  143.6227  152.2519 H   0  0  0  0  0  0  0  0  0  0  0  0  # atno 10167 bound_to 10162
  156.4085  130.4403  149.7269 H   0  0  0  0  0  0  0  0  0  0  0  0  # atno 10718 bound_to 10713
  152.9787  135.5825  154.4516 H   0  0  0  0  0  0  0  0  0  0  0  0  # atno 10763 bound_to 10752
  154.4104  135.2770  155.2042 H   0  0  0  0  0  0  0  0  0  0  0  0  # atno 10764 bound_to 10752
  154.3834  135.6141  153.5857 H   0  0  0  0  0  0  0  0  0  0  0  0  # atno 10765 bound_to 10752
  140.0626  134.9196  157.1209 H   0  0  0  0  0  0  0  0  0  0  0  0  # atno 11005 bound_to 11000
  144.7905  139.6337  143.7115 LP  0  0  0  0  0  0  0  0  0  0  0  0  # atno 17320 bound_to 7965
  146.2357  139.5901  142.9525 LP  0  0  0  0  0  0  0  0  0  0  0  0  # atno 17321 bound_to 7965
  139.6750  144.7659  151.1712 LP  0  0  0  0  0  0  0  0  0  0  0  0  # atno 17342 bound_to 10162
  140.7627  143.5808  150.8897 LP  0  0  0  0  0  0  0  0  0  0  0  0  # atno 17343 bound_to 10162
  156.4257  130.7791  151.2809 LP  0  0  0  0  0  0  0  0  0  0  0  0  # atno 17370 bound_to 10713
  157.7506  131.0169  150.3564 LP  0  0  0  0  0  0  0  0  0  0  0  0  # atno 17371 bound_to 10713
  140.3748  134.2351  155.7175 LP  0  0  0  0  0  0  0  0  0  0  0  0  # atno 17394 bound_to 11000
  141.1979  133.8048  157.0606 LP  0  0  0  0  0  0  0  0  0  0  0  0  # atno 17395 bound_to 11000

$$$$
