AV-unprocessed.smi:2335|AV-procd|sdf|9326|dock9
  -GOLD-   2272012543D 1   1.00000     0.00000
 Structure written by MMmdl.
 41 42  0  0  0  0  0  0  0  0  2 V2000
  144.4908  134.3499  162.7845 C   0  0  0  0  0  0  0  0  0  0  0  0
  145.8858  133.7252  162.6739 C   0  0  0  0  0  0  0  0  0  0  0  0
  146.8316  134.5713  161.8889 C   0  0  0  0  0  0  0  0  0  0  0  0
  147.1200  135.8332  162.2182 N   0  0  0  0  0  0  0  0  0  0  0  0
  148.0496  136.3986  161.3576 N   0  0  0  0  0  0  0  0  0  0  0  0
  148.4537  135.5581  160.3946 C   0  0  0  0  0  0  0  0  0  0  0  0
  149.3564  135.9071  159.4634 N   0  5  0  0  0  0  0  0  0  0  0  0
  149.3513  137.1591  158.9529 C   0  0  0  0  0  0  0  0  0  0  0  0
  148.4553  137.9964  159.0805 O   0  0  0  0  0  0  0  0  0  0  0  0
  150.4507  137.4549  158.2459 N   0  0  0  0  0  0  0  0  0  0  0  0
  150.7183  138.7149  157.5548 C   0  0  1  0  0  0  0  0  0  0  0  0
  150.7968  139.8733  158.5291 C   0  0  0  0  0  0  0  0  0  0  0  0
  151.6368  140.9087  157.7729 C   0  0  0  0  0  0  0  0  0  0  0  0
  150.7657  141.8387  156.9110 C   0  0  0  0  0  0  0  0  0  0  0  0
  152.5451  141.7187  158.7106 C   0  0  0  0  0  0  0  0  0  0  0  0
  152.4598  140.1534  156.8856 O   0  0  0  0  0  0  0  0  0  0  0  0
  152.0974  138.7724  156.8599 C   0  0  0  0  0  0  0  0  0  0  0  0
  153.2163  138.0137  157.6035 C   0  0  0  0  0  0  0  0  0  0  0  0
  152.0314  138.3349  155.3879 C   0  0  0  0  0  0  0  0  0  0  0  0
  147.7118  133.9619  160.4975 S   0  0  0  0  0  0  0  0  0  0  0  0
  143.8242  133.7122  163.3652 H   0  0  0  0  0  0  0  0  0  0  0  0
  144.0442  134.4921  161.8000 H   0  0  0  0  0  0  0  0  0  0  0  0
  144.5343  135.3225  163.2757 H   0  0  0  0  0  0  0  0  0  0  0  0
  146.3022  133.5687  163.6694 H   0  0  0  0  0  0  0  0  0  0  0  0
  145.8189  132.7424  162.2055 H   0  0  0  0  0  0  0  0  0  0  0  0
  151.1561  136.7369  158.1705 H   0  0  0  0  0  0  0  0  0  0  0  0
  149.9239  138.9303  156.8374 H   0  0  0  0  0  0  0  0  0  0  0  0
  149.8155  140.2473  158.8230 H   0  0  0  0  0  0  0  0  0  0  0  0
  151.3119  139.5595  159.4387 H   0  0  0  0  0  0  0  0  0  0  0  0
  150.0903  142.4313  157.5288 H   0  0  0  0  0  0  0  0  0  0  0  0
  150.1580  141.2753  156.2025 H   0  0  0  0  0  0  0  0  0  0  0  0
  151.3807  142.5307  156.3350 H   0  0  0  0  0  0  0  0  0  0  0  0
  151.9582  142.2973  159.4242 H   0  0  0  0  0  0  0  0  0  0  0  0
  153.1691  142.4152  158.1496 H   0  0  0  0  0  0  0  0  0  0  0  0
  153.2108  141.0665  159.2769 H   0  0  0  0  0  0  0  0  0  0  0  0
  153.0470  136.9365  157.5916 H   0  0  0  0  0  0  0  0  0  0  0  0
  153.2918  138.3277  158.6448 H   0  0  0  0  0  0  0  0  0  0  0  0
  154.1854  138.1944  157.1379 H   0  0  0  0  0  0  0  0  0  0  0  0
  151.7774  137.2786  155.2993 H   0  0  0  0  0  0  0  0  0  0  0  0
  152.9892  138.4859  154.8894 H   0  0  0  0  0  0  0  0  0  0  0  0
  151.2822  138.9053  154.8386 H   0  0  0  0  0  0  0  0  0  0  0  0
  1  2  1  0  0  0  0
  1 21  1  0  0  0  0
  1 22  1  0  0  0  0
  1 23  1  0  0  0  0
  2  3  1  0  0  0  0
  2 24  1  0  0  0  0
  2 25  1  0  0  0  0
  3 20  1  0  0  0  0
  3  4  2  0  0  0  0
  4  5  1  0  0  0  0
  5  6  2  0  0  0  0
  6  7  1  0  0  0  0
  6 20  1  0  0  0  0
  7  8  1  0  0  0  0
  8  9  2  0  0  0  0
  8 10  1  0  0  0  0
 10 11  1  0  0  0  0
 10 26  1  0  0  0  0
 11 17  1  0  0  0  0
 11 12  1  0  0  0  0
 11 27  1  0  0  0  0
 12 13  1  0  0  0  0
 12 28  1  0  0  0  0
 12 29  1  0  0  0  0
 13 14  1  0  0  0  0
 13 15  1  0  0  0  0
 13 16  1  0  0  0  0
 14 30  1  0  0  0  0
 14 31  1  0  0  0  0
 14 32  1  0  0  0  0
 15 33  1  0  0  0  0
 15 34  1  0  0  0  0
 15 35  1  0  0  0  0
 16 17  1  0  0  0  0
 17 18  1  0  0  0  0
 17 19  1  0  0  0  0
 18 36  1  0  0  0  0
 18 37  1  0  0  0  0
 18 38  1  0  0  0  0
 19 39  1  0  0  0  0
 19 40  1  0  0  0  0
 19 41  1  0  0  0  0
M  CHG  1   7  -1
M  END
> <s_m_source_file>
AV-unprocessed.smi

> <i_m_source_file_index>
2335

> <i_lp_mmshare_version>
43012

> <i_f3d_flags>
0

> <s_epik_input>
W0NIM11bQ0gyXWMxbm5jKHMxKVtOSF1DKD1PKVtOSF1bQ0BASF0oQyhPMikoW0NIM10pW0NIM10pW0NIMl1DMihbQ0gzXSlbQ0gzXQ==

> <s_epik_cmdline>
J2VwaWtfcHl0aG9uJywgJy1waCcsICc3LjAnLCAnLXRuJywgJzgnLCAnLW1hJywgJzIwMCcsICctbWV0YWxfYmluZGluZycsICctaW1hZScsICc8aW5maWxlLm1hZT4nLCAnLW9tYWUnLCAnPG91dGZpbGUubWFlPic=

> <r_lp_tautomer_probability>
1

> <r_epik_Ionization_Penalty>
4.33319

> <r_epik_Ionization_Penalty_Charging>
4.17028

> <r_epik_Ionization_Penalty_Neutral>
0.162913

> <r_epik_State_Penalty>
4.16976

> <r_epik_Charging_Adjusted_Penalty>
8.34004

> <i_epik_Tot_Q>
-1

> <i_epik_Tot_abs_Q>
1

> <r_epik_Metal_State_Penalty>
0.677358

> <b_epik_Metal_Only>
1

> <s_lp_Force_Field>
OPLS_2005

> <r_lp_Energy>
10.6877

> <b_lp_Chiralities_Consistent>
1

> <s_lp_Variant>
AV-unprocessed.smi:2335-4

> <Gold.Version>
5.8.1

> <Gold.Id.Protein>
6NUR|6NUR_protein|mol2

> <Gold.PLP.Fitness>
42.3118

> <Gold.PLP.PLP>
-30.9169

> <Gold.PLP.part.hbond>
-4.1481

> <Gold.PLP.part.metal>
0.0000

> <Gold.PLP.part.buried>
-3.8809

> <Gold.PLP.part.nonpolar>
-22.9017

> <Gold.PLP.part.repulsive>
0.1105

> <Gold.PLP.ligand.clash>
0.0000

> <Gold.PLP.ligand.torsion>
0.3280

> <Gold.PLP.Chemscore.Hbond>
4.0094

> <Gold.PLP.Chemscore.CHOScore>
0.0000

> <Gold.PLP.Chemscore.Metal>
0.0000

> <Gold.Chemscore.Hbonds>
donor molecule, donor type, donor heavy atom, donor atom, acceptor molecule, acceptor atom, score
      P1  H  6896  6907       L1     7  2.00
      P1  H  6931  6943       L1     5  0.67
      P1  H  7997  8009       L1    16  1.00

> <Gold.PLP.Chemscore.Internal.Correction>
0.0229

> <Gold.Rescore>
     Score         DG    S(hbond)    S(metal)    S(lipo)     H(rot)  DE(clash)    DE(int)     intcor
     19.11     -20.57       2.86        0.00      73.34       1.19       0.19       1.27       ----

> <Gold.Chemscore.Fitness>
19.1090

> <Gold.Chemscore.DG>
-20.5719

> <Gold.Chemscore.ZeroCoef>
-5.4800

> <Gold.Chemscore.Hbond>
2.8649

> <Gold.Chemscore.Metal>
0.0000

> <Gold.Chemscore.Lipo>
73.3354

> <Gold.Chemscore.Internal_Hbond>
0.0000

> <Gold.Chemscore.DEClash>
0.1947

> <Gold.Chemscore.DEInternal>
1.2682

> <Gold.Chemscore.Rot>
1.1942

> <Gold.Chemscore.Internal.Correction>
   9.000000E+99

> <Gold.Chemscore.Hbonds>
donor molecule, donor type, donor heavy atom, donor atom, acceptor molecule, acceptor atom, score
      P1  H  6896  6907       L1     7  0.49
      P1  H  6931  6943       L1     5  0.65
      P1  H  6934  6947       L1     9  0.01
      P1  H  7997  8009       L1    16  0.43

> <Gold.Chemscore.Hbond.Weighted>
-9.5689

> <Gold.Chemscore.Metal.Weighted>
-0.0000

> <Gold.Chemscore.Lipo.Weighted>
-8.5802

> <Gold.Chemscore.Internal_Hbond.Weighted>
0.0000

> <Gold.Chemscore.DEClash.Weighted>
0.1947

> <Gold.Chemscore.DEInternal.Weighted>
1.2682

> <Gold.Chemscore.Rot.Weighted>
3.0573

> <Gold.Chemscore.Internal.Correction.Weighted>
   9.000000E+99

> <Gold.Protein.RotatedTorsions>
[ 6907 6896 6895 6894 ] final  -70.51 input  -60.11 | X-H torsion
[ 7974 7965 7964 7962 ] final   57.20 input  175.53 | X-H torsion
[ 8008 7997 7996 7995 ] final -166.14 input   59.86 | X-H torsion
[ 10167 10162 10161 10158 ] final  142.46 input  -65.29 | X-H torsion
[ 10718 10713 10712 10709 ] final  -41.94 input   66.30 | X-H torsion
[ 10763 10752 10751 10750 ] final  -35.28 input  -60.55 | X-H torsion
[ 11005 11000 10999 10996 ] final  -94.00 input  -57.11 | X-H torsion

> <Gold.Protein.ActiveResidues>
 VAL166  LYS551  ARG553  GLY616  TRP617  ASP618  TYR619  PRO620  LYS621  CYS622 
 ASP623  PHE694  ASN695  SER759  ASP760  ASP761  ALA762  ILE779  LEU786  VAL792 
 PHE793  MET794  SER795  GLU796  ALA797  LYS798  CYS799  TRP800  GLU811  SER814 

> <Gold.Protein.RotatedAtoms>
  150.7254  134.5443  159.5762 H   0  0  0  0  0  0  0  0  0  0  0  0  # atno 6907 bound_to 6896
  152.2946  134.7679  160.0380 H   0  0  0  0  0  0  0  0  0  0  0  0  # atno 6908 bound_to 6896
  151.8281  133.3369  159.3641 H   0  0  0  0  0  0  0  0  0  0  0  0  # atno 6909 bound_to 6896
  145.9316  139.3812  143.0418 H   0  0  0  0  0  0  0  0  0  0  0  0  # atno 7974 bound_to 7965
  155.8596  140.0976  157.1622 H   0  0  0  0  0  0  0  0  0  0  0  0  # atno 8008 bound_to 7997
  154.3990  140.1367  156.4007 H   0  0  0  0  0  0  0  0  0  0  0  0  # atno 8009 bound_to 7997
  155.7871  140.3457  155.5331 H   0  0  0  0  0  0  0  0  0  0  0  0  # atno 8010 bound_to 7997
  139.4993  144.6105  151.6282 H   0  0  0  0  0  0  0  0  0  0  0  0  # atno 10167 bound_to 10162
  156.2650  130.4201  149.8500 H   0  0  0  0  0  0  0  0  0  0  0  0  # atno 10718 bound_to 10713
  153.8606  135.6840  153.4783 H   0  0  0  0  0  0  0  0  0  0  0  0  # atno 10763 bound_to 10752
  153.1344  135.4684  154.9397 H   0  0  0  0  0  0  0  0  0  0  0  0  # atno 10764 bound_to 10752
  154.7760  135.3253  154.8040 H   0  0  0  0  0  0  0  0  0  0  0  0  # atno 10765 bound_to 10752
  141.1482  133.7926  157.0238 H   0  0  0  0  0  0  0  0  0  0  0  0  # atno 11005 bound_to 11000
  145.8419  140.9576  143.0795 LP  0  0  0  0  0  0  0  0  0  0  0  0  # atno 17320 bound_to 7965
  144.6765  140.0295  143.7483 LP  0  0  0  0  0  0  0  0  0  0  0  0  # atno 17321 bound_to 7965
  140.5779  143.9997  150.6251 LP  0  0  0  0  0  0  0  0  0  0  0  0  # atno 17342 bound_to 10162
  140.3137  143.3182  152.0854 LP  0  0  0  0  0  0  0  0  0  0  0  0  # atno 17343 bound_to 10162
  156.6002  130.8543  151.3430 LP  0  0  0  0  0  0  0  0  0  0  0  0  # atno 17370 bound_to 10713
  157.7264  130.9629  150.1655 LP  0  0  0  0  0  0  0  0  0  0  0  0  # atno 17371 bound_to 10713
  140.0798  134.9654  157.1606 LP  0  0  0  0  0  0  0  0  0  0  0  0  # atno 17394 bound_to 11000
  140.3592  134.2513  155.7189 LP  0  0  0  0  0  0  0  0  0  0  0  0  # atno 17395 bound_to 11000

$$$$
