AV-unprocessed.smi:35|AV-procd|sdf|263|dock6
  -GOLD-   2262016 33D 1   1.00000     0.00000
 Structure written by MMmdl.
 28 29  0  0  0  0  0  0  0  0  2 V2000
  151.8707  134.1120  156.7828 O   0  0  0  0  0  0  0  0  0  0  0  0
  151.5931  135.1588  156.2004 C   0  0  0  0  0  0  0  0  0  0  0  0
  152.4714  136.1956  156.0809 N   0  5  0  0  0  0  0  0  0  0  0  0
  152.1619  137.3520  155.4242 C   0  0  0  0  0  0  0  0  0  0  0  0
  152.9436  138.2983  155.3275 O   0  0  0  0  0  0  0  0  0  0  0  0
  150.8805  137.4824  154.8188 N   0  0  0  0  0  0  0  0  0  0  0  0
  150.5455  138.7762  154.0956 C   0  0  2  0  0  0  0  0  0  0  0  0
  151.0604  139.8606  154.8135 O   0  0  0  0  0  0  0  0  0  0  0  0
  150.0386  140.4232  155.6310 C   0  0  1  0  0  0  0  0  0  0  0  0
  150.4200  141.8330  156.1147 C   0  0  0  0  0  0  0  0  0  0  0  0
  149.3786  142.3729  156.9007 O   0  0  0  0  0  0  0  0  0  0  0  0
  148.8196  140.3422  154.7071 C   0  0  1  0  0  0  0  0  0  0  0  0
  148.8186  141.4232  153.7881 O   0  0  0  0  0  0  0  0  0  0  0  0
  149.0167  138.9885  154.0252 C   0  0  1  0  0  0  0  0  0  0  0  0
  148.5055  138.9635  152.7055 O   0  0  0  0  0  0  0  0  0  0  0  0
  149.9583  136.4548  154.9501 C   0  0  0  0  0  0  0  0  0  0  0  0
  150.2692  135.3188  155.6064 C   0  0  0  0  0  0  0  0  0  0  0  0
  148.8546  133.9349  155.7090 Br  0  0  0  0  0  0  0  0  0  0  0  0
  151.0435  138.7034  153.1270 H   0  0  0  0  0  0  0  0  0  0  0  0
  149.8561  139.7726  156.4883 H   0  0  0  0  0  0  0  0  0  0  0  0
  151.3530  141.8227  156.6790 H   0  0  0  0  0  0  0  0  0  0  0  0
  150.5618  142.4966  155.2613 H   0  0  0  0  0  0  0  0  0  0  0  0
  148.9582  143.0619  156.4091 H   0  0  0  0  0  0  0  0  0  0  0  0
  147.8848  140.3740  155.2676 H   0  0  0  0  0  0  0  0  0  0  0  0
  148.9920  141.0758  152.9262 H   0  0  0  0  0  0  0  0  0  0  0  0
  148.5170  138.2177  154.6142 H   0  0  0  0  0  0  0  0  0  0  0  0
  148.5099  138.0657  152.4074 H   0  0  0  0  0  0  0  0  0  0  0  0
  148.9682  136.5444  154.5307 H   0  0  0  0  0  0  0  0  0  0  0  0
  1  2  2  0  0  0  0
  2 17  1  0  0  0  0
  2  3  1  0  0  0  0
  3  4  1  0  0  0  0
  4  5  2  0  0  0  0
  4  6  1  0  0  0  0
  6  7  1  0  0  0  0
  6 16  1  0  0  0  0
  7 14  1  0  0  0  0
  7  8  1  0  0  0  0
  7 19  1  0  0  0  0
  8  9  1  0  0  0  0
  9 10  1  0  0  0  0
  9 12  1  0  0  0  0
  9 20  1  0  0  0  0
 10 11  1  0  0  0  0
 10 21  1  0  0  0  0
 10 22  1  0  0  0  0
 11 23  1  0  0  0  0
 12 13  1  0  0  0  0
 12 14  1  0  0  0  0
 12 24  1  0  0  0  0
 13 25  1  0  0  0  0
 14 15  1  0  0  0  0
 14 26  1  0  0  0  0
 15 27  1  0  0  0  0
 16 17  2  0  0  0  0
 16 28  1  0  0  0  0
 17 18  1  0  0  0  0
M  CHG  1   3  -1
M  END
> <s_m_source_file>
AV-unprocessed.smi

> <i_m_source_file_index>
35

> <i_lp_mmshare_version>
43012

> <i_f3d_flags>
0

> <s_epik_input>
Tz1jMVtuSF1jKD1PKW4oW2NIXWMxQnIpW0NAQEhdMk9bQ0BASF0oW0NIMl1bT0hdKVtDQEBIXShbT0hdKVtDQEhdMltPSF0=

> <s_epik_cmdline>
J2VwaWtfcHl0aG9uJywgJy1waCcsICc3LjAnLCAnLXRuJywgJzgnLCAnLW1hJywgJzIwMCcsICctbWV0YWxfYmluZGluZycsICctaW1hZScsICc8aW5maWxlLm1hZT4nLCAnLW9tYWUnLCAnPG91dGZpbGUubWFlPic=

> <r_epik_Ionization_Penalty>
1.06112

> <r_epik_Ionization_Penalty_Charging>
2.1796e-09

> <r_epik_Ionization_Penalty_Neutral>
1.06112

> <r_epik_State_Penalty>
1.11484

> <r_epik_Charging_Adjusted_Penalty>
1.11484

> <i_epik_Tot_Q>
-1

> <i_epik_Tot_abs_Q>
1

> <r_epik_Metal_State_Penalty>
0.0032876

> <b_epik_Metal_Only>
0

> <s_epik_Chemistry_Notes>
This compound contains an acetal/aminal-like group ( X-CH(R)-Y where X, Y are N, S, or O) that may be acid/base labile, releasing an aldehyde.

> <s_lp_Force_Field>
OPLS_2005

> <r_lp_Energy>
42.0638

> <b_lp_Chiralities_Consistent>
1

> <s_lp_Variant>
AV-unprocessed.smi:35-17

> <Gold.Version>
5.8.1

> <Gold.Id.Protein>
6NUR|6NUR_protein|mol2

> <Gold.PLP.Fitness>
46.1816

> <Gold.PLP.PLP>
-28.6697

> <Gold.PLP.part.hbond>
-8.1059

> <Gold.PLP.part.metal>
0.0000

> <Gold.PLP.part.buried>
-3.3298

> <Gold.PLP.part.nonpolar>
-17.1533

> <Gold.PLP.part.repulsive>
0.0896

> <Gold.PLP.ligand.clash>
0.0000

> <Gold.PLP.ligand.torsion>
0.5864

> <Gold.PLP.Chemscore.Hbond>
6.1602

> <Gold.PLP.Chemscore.CHOScore>
0.0611

> <Gold.PLP.Chemscore.Metal>
0.0000

> <Gold.Chemscore.Hbonds>
donor molecule, donor type, donor heavy atom, donor atom, acceptor molecule, acceptor atom, score
      L1  H    11    23       P1  8028  1.00
      L1  H    13    25       P1  7957  0.75
      L1  H    15    27       P1  7948  1.00
      P1  H  7989  7998       L1     8  1.00
      P1  H 10752 10764       L1     3  1.10
      L1  C    16    28       P1  7948  0.41

> <Gold.PLP.Chemscore.Internal.Correction>
0.0210

> <Gold.Rescore>
     Score         DG    S(hbond)    S(metal)    S(lipo)     H(rot)  DE(clash)    DE(int)     intcor
     10.98     -13.37       3.85        0.00      36.94       3.63       0.11       2.29       ----

> <Gold.Chemscore.Fitness>
10.9781

> <Gold.Chemscore.DG>
-13.3743

> <Gold.Chemscore.ZeroCoef>
-5.4800

> <Gold.Chemscore.Hbond>
3.8490

> <Gold.Chemscore.Metal>
0.0000

> <Gold.Chemscore.Lipo>
36.9354

> <Gold.Chemscore.Internal_Hbond>
0.0000

> <Gold.Chemscore.DEClash>
0.1087

> <Gold.Chemscore.DEInternal>
2.2874

> <Gold.Chemscore.Rot>
3.6261

> <Gold.Chemscore.Internal.Correction>
   9.000000E+99

> <Gold.Chemscore.Hbonds>
donor molecule, donor type, donor heavy atom, donor atom, acceptor molecule, acceptor atom, score
      L1  H    11    23       P1  8028  0.97
      L1  H    13    25       P1  7957  0.75
      L1  H    15    27       P1  7948  0.99
      P1  H  7989  7998       L1     8  0.24
      P1  H  7997  8008       L1     5  0.02
      P1  H 10752 10764       L1     3  0.03

> <Gold.Chemscore.Hbond.Weighted>
-12.8556

> <Gold.Chemscore.Metal.Weighted>
-0.0000

> <Gold.Chemscore.Lipo.Weighted>
-4.3214

> <Gold.Chemscore.Internal_Hbond.Weighted>
0.0000

> <Gold.Chemscore.DEClash.Weighted>
0.1087

> <Gold.Chemscore.DEInternal.Weighted>
2.2874

> <Gold.Chemscore.Rot.Weighted>
9.2828

> <Gold.Chemscore.Internal.Correction.Weighted>
   9.000000E+99

> <Gold.Protein.RotatedTorsions>
[ 6907 6896 6895 6894 ] final -145.72 input  -60.11 | X-H torsion
[ 7974 7965 7964 7962 ] final -174.78 input  175.53 | X-H torsion
[ 8008 7997 7996 7995 ] final  -14.96 input   59.86 | X-H torsion
[ 10167 10162 10161 10158 ] final -176.15 input  -65.29 | X-H torsion
[ 10718 10713 10712 10709 ] final  167.09 input   66.30 | X-H torsion
[ 10763 10752 10751 10750 ] final   -8.24 input  -60.55 | X-H torsion
[ 11005 11000 10999 10996 ] final   48.30 input  -57.11 | X-H torsion

> <Gold.Protein.ActiveResidues>
 VAL166  LYS551  ARG553  GLY616  TRP617  ASP618  TYR619  PRO620  LYS621  CYS622 
 ASP623  PHE694  ASN695  SER759  ASP760  ASP761  ALA762  ILE779  LEU786  VAL792 
 PHE793  MET794  SER795  GLU796  ALA797  LYS798  CYS799  TRP800  GLU811  SER814 

> <Gold.Protein.RotatedAtoms>
  151.1316  133.5032  159.2598 H   0  0  0  0  0  0  0  0  0  0  0  0  # atno 6907 bound_to 6896
  151.1751  135.0335  159.8778 H   0  0  0  0  0  0  0  0  0  0  0  0  # atno 6908 bound_to 6896
  152.5460  134.1175  159.8438 H   0  0  0  0  0  0  0  0  0  0  0  0  # atno 6909 bound_to 6896
  144.7130  140.1421  143.6391 H   0  0  0  0  0  0  0  0  0  0  0  0  # atno 7974 bound_to 7965
  154.5168  140.2209  155.9050 H   0  0  0  0  0  0  0  0  0  0  0  0  # atno 8008 bound_to 7997
  156.1617  140.3141  155.8784 H   0  0  0  0  0  0  0  0  0  0  0  0  # atno 8009 bound_to 7997
  155.3738  140.0468  157.3035 H   0  0  0  0  0  0  0  0  0  0  0  0  # atno 8010 bound_to 7997
  139.5544  144.2027  152.1134 H   0  0  0  0  0  0  0  0  0  0  0  0  # atno 10167 bound_to 10162
  157.0565  131.0328  151.2662 H   0  0  0  0  0  0  0  0  0  0  0  0  # atno 10718 bound_to 10713
  153.4377  135.7013  153.6189 H   0  0  0  0  0  0  0  0  0  0  0  0  # atno 10763 bound_to 10752
  153.4577  135.3743  155.2321 H   0  0  0  0  0  0  0  0  0  0  0  0  # atno 10764 bound_to 10752
  154.8727  135.4012  154.3770 H   0  0  0  0  0  0  0  0  0  0  0  0  # atno 10765 bound_to 10752
  140.1203  134.4839  155.8603 H   0  0  0  0  0  0  0  0  0  0  0  0  # atno 11005 bound_to 11000
  145.9193  139.2535  143.1391 LP  0  0  0  0  0  0  0  0  0  0  0  0  # atno 17320 bound_to 7965
  145.9637  140.8815  143.0198 LP  0  0  0  0  0  0  0  0  0  0  0  0  # atno 17321 bound_to 7965
  140.1528  144.5098  150.6677 LP  0  0  0  0  0  0  0  0  0  0  0  0  # atno 17342 bound_to 10162
  140.6814  143.2328  151.5375 LP  0  0  0  0  0  0  0  0  0  0  0  0  # atno 17343 bound_to 10162
  157.4989  130.7867  149.7584 LP  0  0  0  0  0  0  0  0  0  0  0  0  # atno 17370 bound_to 10713
  155.9991  130.3890  150.2675 LP  0  0  0  0  0  0  0  0  0  0  0  0  # atno 17371 bound_to 10713
  141.2150  133.6758  156.6875 LP  0  0  0  0  0  0  0  0  0  0  0  0  # atno 17394 bound_to 11000
  140.2974  134.8191  157.4069 LP  0  0  0  0  0  0  0  0  0  0  0  0  # atno 17395 bound_to 11000

$$$$
