AV-unprocessed.smi:166|AV-procd|sdf|1390|dock4
  -GOLD-   2262019123D 1   1.00000     0.00000
 Structure written by MMmdl.
 54 58  0  0  0  0  0  0  0  0  1 V2000
  146.5213  131.0670  151.3696 O   0  0  0  0  0  0  0  0  0  0  0  0
  145.8454  132.1886  150.8314 C   0  0  1  0  0  0  0  0  0  0  0  0
  146.5299  133.4808  151.3417 C   0  0  0  0  0  0  0  0  0  0  0  0
  146.0432  133.9352  152.6362 N   0  0  0  0  0  0  0  0  0  0  0  0
  146.1300  133.2595  153.8332 C   0  0  0  0  0  0  0  0  0  0  0  0
  145.6134  133.8763  154.8606 N   0  0  0  0  0  0  0  0  0  0  0  0
  145.1148  135.0596  154.3297 C   0  0  0  0  0  0  0  0  0  0  0  0
  144.4278  136.1829  154.8707 C   0  0  0  0  0  0  0  0  0  0  0  0
  144.0882  136.3260  156.1687 N   0  0  0  0  0  0  0  0  0  0  0  0
  143.0938  137.3721  156.3863 C   0  0  0  0  0  0  0  0  0  0  0  0
  142.5640  137.3237  157.8289 C   0  0  0  0  0  0  0  0  0  0  0  0
  143.7203  137.3742  158.8403 C   0  0  0  0  0  0  0  0  0  0  0  0
  144.7405  136.2586  158.5532 C   0  0  2  0  0  0  0  0  0  0  0  0
  145.8229  136.4255  159.4596 O   0  0  0  0  0  0  0  0  0  0  0  0
  145.7406  135.6238  160.6282 C   0  0  0  0  0  0  0  0  0  0  0  0
  147.1157  135.5333  161.2538 C   0  0  0  0  0  0  0  0  0  0  0  0
  147.3123  134.7939  162.5580 C   0  0  0  0  0  0  0  0  0  0  0  0
  147.4428  136.2952  162.5182 C   0  0  0  0  0  0  0  0  0  0  0  0
  145.2219  136.3474  157.0901 C   0  0  0  0  0  0  0  0  0  0  0  0
  144.0951  137.1924  154.0297 N   0  0  0  0  0  0  0  0  0  0  0  0
  144.4022  137.1077  152.7316 C   0  0  0  0  0  0  0  0  0  0  0  0
  145.0315  136.1241  152.0845 N   0  0  0  0  0  0  0  0  0  0  0  0
  145.3766  135.1121  152.9317 C   0  0  0  0  0  0  0  0  0  0  0  0
  145.8613  132.0899  149.3052 C   0  0  0  0  0  0  0  0  0  0  0  0
  144.4217  132.3973  148.9144 C   0  0  0  0  0  0  0  0  0  0  0  0
  143.6854  131.7871  149.9586 O   0  0  0  0  0  0  0  0  0  0  0  0
  144.3439  132.1025  151.1774 C   0  0  0  0  0  0  0  0  0  0  0  0
  147.3963  131.0433  151.0132 H   0  0  0  0  0  0  0  0  0  0  0  0
  147.6086  133.3345  151.4141 H   0  0  0  0  0  0  0  0  0  0  0  0
  146.3810  134.2881  150.6234 H   0  0  0  0  0  0  0  0  0  0  0  0
  146.5935  132.2879  153.9232 H   0  0  0  0  0  0  0  0  0  0  0  0
  143.5425  138.3463  156.1866 H   0  0  0  0  0  0  0  0  0  0  0  0
  142.2667  137.2503  155.6852 H   0  0  0  0  0  0  0  0  0  0  0  0
  141.8766  138.1520  158.0022 H   0  0  0  0  0  0  0  0  0  0  0  0
  141.9907  136.4077  157.9769 H   0  0  0  0  0  0  0  0  0  0  0  0
  144.2119  138.3463  158.7823 H   0  0  0  0  0  0  0  0  0  0  0  0
  143.3347  137.2791  159.8559 H   0  0  0  0  0  0  0  0  0  0  0  0
  144.2570  135.2953  158.7271 H   0  0  0  0  0  0  0  0  0  0  0  0
  145.0368  136.0537  161.3427 H   0  0  0  0  0  0  0  0  0  0  0  0
  145.4025  134.6160  160.3888 H   0  0  0  0  0  0  0  0  0  0  0  0
  147.9214  135.4292  160.5293 H   0  0  0  0  0  0  0  0  0  0  0  0
  146.4314  134.3793  163.0444 H   0  0  0  0  0  0  0  0  0  0  0  0
  148.2249  134.2124  162.6725 H   0  0  0  0  0  0  0  0  0  0  0  0
  148.4421  136.7166  162.6052 H   0  0  0  0  0  0  0  0  0  0  0  0
  146.6490  136.8815  162.9768 H   0  0  0  0  0  0  0  0  0  0  0  0
  145.8893  135.5184  156.8538 H   0  0  0  0  0  0  0  0  0  0  0  0
  145.7905  137.2674  156.9534 H   0  0  0  0  0  0  0  0  0  0  0  0
  144.1001  137.9482  152.1243 H   0  0  0  0  0  0  0  0  0  0  0  0
  146.5760  132.7634  148.8309 H   0  0  0  0  0  0  0  0  0  0  0  0
  146.1037  131.0760  148.9819 H   0  0  0  0  0  0  0  0  0  0  0  0
  144.2359  133.4727  148.9083 H   0  0  0  0  0  0  0  0  0  0  0  0
  144.1527  131.9924  147.9387 H   0  0  0  0  0  0  0  0  0  0  0  0
  144.1150  131.3682  151.9508 H   0  0  0  0  0  0  0  0  0  0  0  0
  143.9589  133.0650  151.5142 H   0  0  0  0  0  0  0  0  0  0  0  0
  1  2  1  0  0  0  0
  1 28  1  0  0  0  0
  2 27  1  0  0  0  0
  2  3  1  0  0  0  0
  2 24  1  0  0  0  0
  3  4  1  0  0  0  0
  3 29  1  0  0  0  0
  3 30  1  0  0  0  0
  4 23  1  0  0  0  0
  4  5  1  0  0  0  0
  5  6  2  0  0  0  0
  5 31  1  0  0  0  0
  6  7  1  0  0  0  0
  7 23  2  0  0  0  0
  7  8  1  0  0  0  0
  8  9  1  0  0  0  0
  8 20  2  0  0  0  0
  9 19  1  0  0  0  0
  9 10  1  0  0  0  0
 10 11  1  0  0  0  0
 10 32  1  0  0  0  0
 10 33  1  0  0  0  0
 11 12  1  0  0  0  0
 11 34  1  0  0  0  0
 11 35  1  0  0  0  0
 12 13  1  0  0  0  0
 12 36  1  0  0  0  0
 12 37  1  0  0  0  0
 13 14  1  0  0  0  0
 13 19  1  0  0  0  0
 13 38  1  0  0  0  0
 14 15  1  0  0  0  0
 15 16  1  0  0  0  0
 15 39  1  0  0  0  0
 15 40  1  0  0  0  0
 16 18  1  0  0  0  0
 16 17  1  0  0  0  0
 16 41  1  0  0  0  0
 17 18  1  0  0  0  0
 17 42  1  0  0  0  0
 17 43  1  0  0  0  0
 18 44  1  0  0  0  0
 18 45  1  0  0  0  0
 19 46  1  0  0  0  0
 19 47  1  0  0  0  0
 20 21  1  0  0  0  0
 21 22  2  0  0  0  0
 21 48  1  0  0  0  0
 22 23  1  0  0  0  0
 24 25  1  0  0  0  0
 24 49  1  0  0  0  0
 24 50  1  0  0  0  0
 25 26  1  0  0  0  0
 25 51  1  0  0  0  0
 25 52  1  0  0  0  0
 26 27  1  0  0  0  0
 27 53  1  0  0  0  0
 27 54  1  0  0  0  0
M  END
> <s_m_source_file>
AV-unprocessed.smi

> <i_m_source_file_index>
166

> <i_lp_mmshare_version>
43012

> <i_f3d_flags>
0

> <s_epik_input>
W0NIMl0xT1tDSDJdW0NIMl1bQ0BAXTEoW09IXSlbQ0gyXW4oW2NIXW4yKWMoYzIzKW5bY0hdbmMzTjRbQ0gyXVtDSDJdW0NIMl1bQ0BIXShbQ0gyXTQpT1tDSDJdW0NIXTVbQ0gyXVtDSDJdNQ==

> <s_epik_cmdline>
J2VwaWtfcHl0aG9uJywgJy1waCcsICc3LjAnLCAnLXRuJywgJzgnLCAnLW1hJywgJzIwMCcsICctbWV0YWxfYmluZGluZycsICctaW1hZScsICc8aW5maWxlLm1hZT4nLCAnLW9tYWUnLCAnPG91dGZpbGUubWFlPic=

> <r_lp_tautomer_probability>
1

> <r_epik_Ionization_Penalty>
0.00342552

> <r_epik_Ionization_Penalty_Charging>
0

> <r_epik_Ionization_Penalty_Neutral>
0.00342552

> <r_epik_State_Penalty>
0.0022204

> <r_epik_Charging_Adjusted_Penalty>
0.0022204

> <i_epik_Tot_Q>
0

> <i_epik_Tot_abs_Q>
0

> <r_epik_Metal_State_Penalty>
-0

> <b_epik_Metal_Only>
0

> <s_lp_Force_Field>
OPLS_2005

> <r_lp_Energy>
47.3104

> <b_lp_Chiralities_Consistent>
1

> <s_lp_Variant>
AV-unprocessed.smi:166-3

> <Gold.Version>
5.8.1

> <Gold.Id.Protein>
6NUR|6NUR_protein|mol2

> <Gold.PLP.Fitness>
42.3770

> <Gold.PLP.PLP>
-34.3222

> <Gold.PLP.part.hbond>
-2.0000

> <Gold.PLP.part.metal>
0.0000

> <Gold.PLP.part.buried>
-5.6579

> <Gold.PLP.part.nonpolar>
-26.4552

> <Gold.PLP.part.repulsive>
0.5258

> <Gold.PLP.ligand.clash>
0.0000

> <Gold.PLP.ligand.torsion>
1.5518

> <Gold.PLP.Chemscore.Hbond>
1.4268

> <Gold.PLP.Chemscore.CHOScore>
2.0000

> <Gold.PLP.Chemscore.Metal>
0.0000

> <Gold.Chemscore.Hbonds>
donor molecule, donor type, donor heavy atom, donor atom, acceptor molecule, acceptor atom, score
      L1  H     1    28       P1 10747  1.00
      P1  H 10785 10796       L1    26  0.45
      L1  C    21    48       P1 10171  1.00
      L1  C    21    48       P1 10175  0.96

> <Gold.PLP.Chemscore.Internal.Correction>
0.8780

> <Gold.Rescore>
     Score         DG    S(hbond)    S(metal)    S(lipo)     H(rot)  DE(clash)    DE(int)     intcor
     11.30     -12.68       1.27        0.00      84.09       2.68       0.20       1.18       ----

> <Gold.Chemscore.Fitness>
11.3031

> <Gold.Chemscore.DG>
-12.6807

> <Gold.Chemscore.ZeroCoef>
-5.4800

> <Gold.Chemscore.Hbond>
1.2656

> <Gold.Chemscore.Metal>
0.0000

> <Gold.Chemscore.Lipo>
84.0904

> <Gold.Chemscore.Internal_Hbond>
0.0000

> <Gold.Chemscore.DEClash>
0.2000

> <Gold.Chemscore.DEInternal>
1.1775

> <Gold.Chemscore.Rot>
2.6817

> <Gold.Chemscore.Internal.Correction>
   9.000000E+99

> <Gold.Chemscore.Hbonds>
donor molecule, donor type, donor heavy atom, donor atom, acceptor molecule, acceptor atom, score
      L1  H     1    28       P1 10747  1.00
      P1  H 10785 10796       L1    26  0.03

> <Gold.Chemscore.Hbond.Weighted>
-4.2272

> <Gold.Chemscore.Metal.Weighted>
-0.0000

> <Gold.Chemscore.Lipo.Weighted>
-9.8386

> <Gold.Chemscore.Internal_Hbond.Weighted>
0.0000

> <Gold.Chemscore.DEClash.Weighted>
0.2000

> <Gold.Chemscore.DEInternal.Weighted>
1.1775

> <Gold.Chemscore.Rot.Weighted>
6.8651

> <Gold.Chemscore.Internal.Correction.Weighted>
   9.000000E+99

> <Gold.Protein.RotatedTorsions>
[ 6907 6896 6895 6894 ] final   35.99 input  -60.11 | X-H torsion
[ 7974 7965 7964 7962 ] final  -43.82 input  175.53 | X-H torsion
[ 8008 7997 7996 7995 ] final  121.47 input   59.86 | X-H torsion
[ 10167 10162 10161 10158 ] final -141.30 input  -65.29 | X-H torsion
[ 10718 10713 10712 10709 ] final -136.26 input   66.30 | X-H torsion
[ 10763 10752 10751 10750 ] final   82.47 input  -60.55 | X-H torsion
[ 11005 11000 10999 10996 ] final -157.55 input  -57.11 | X-H torsion

> <Gold.Protein.ActiveResidues>
 VAL166  LYS551  ARG553  GLY616  TRP617  ASP618  TYR619  PRO620  LYS621  CYS622 
 ASP623  PHE694  ASN695  SER759  ASP760  ASP761  ALA762  ILE779  LEU786  VAL792 
 PHE793  MET794  SER795  GLU796  ALA797  LYS798  CYS799  TRP800  GLU811  SER814 

> <Gold.Protein.RotatedAtoms>
  152.1236  134.9187  160.0561 H   0  0  0  0  0  0  0  0  0  0  0  0  # atno 6907 bound_to 6896
  152.0318  133.3936  159.4309 H   0  0  0  0  0  0  0  0  0  0  0  0  # atno 6908 bound_to 6896
  150.6851  134.3433  159.4921 H   0  0  0  0  0  0  0  0  0  0  0  0  # atno 6909 bound_to 6896
  145.9981  140.7105  142.9284 H   0  0  0  0  0  0  0  0  0  0  0  0  # atno 7974 bound_to 7965
  156.2687  140.2808  156.1313 H   0  0  0  0  0  0  0  0  0  0  0  0  # atno 8008 bound_to 7997
  155.1052  140.0390  157.2726 H   0  0  0  0  0  0  0  0  0  0  0  0  # atno 8009 bound_to 7997
  154.6785  140.2603  155.6939 H   0  0  0  0  0  0  0  0  0  0  0  0  # atno 8010 bound_to 7997
  139.8198  143.7589  152.2666 H   0  0  0  0  0  0  0  0  0  0  0  0  # atno 10167 bound_to 10162
  156.2751  130.7288  151.1267 H   0  0  0  0  0  0  0  0  0  0  0  0  # atno 10718 bound_to 10713
  153.1205  135.4727  154.9188 H   0  0  0  0  0  0  0  0  0  0  0  0  # atno 10763 bound_to 10752
  154.7571  135.3121  154.8451 H   0  0  0  0  0  0  0  0  0  0  0  0  # atno 10764 bound_to 10752
  153.9017  135.6874  153.4808 H   0  0  0  0  0  0  0  0  0  0  0  0  # atno 10765 bound_to 10752
  140.6634  134.4325  157.5234 H   0  0  0  0  0  0  0  0  0  0  0  0  # atno 11005 bound_to 11000
  144.6910  140.3185  143.7236 LP  0  0  0  0  0  0  0  0  0  0  0  0  # atno 17320 bound_to 7965
  145.7529  139.1799  143.2311 LP  0  0  0  0  0  0  0  0  0  0  0  0  # atno 17321 bound_to 7965
  139.7764  144.7459  151.0151 LP  0  0  0  0  0  0  0  0  0  0  0  0  # atno 17342 bound_to 10162
  140.7814  143.4589  151.0305 LP  0  0  0  0  0  0  0  0  0  0  0  0  # atno 17343 bound_to 10162
  157.7296  131.0622  150.5764 LP  0  0  0  0  0  0  0  0  0  0  0  0  # atno 17370 bound_to 10713
  156.5864  130.4318  149.5955 LP  0  0  0  0  0  0  0  0  0  0  0  0  # atno 17371 bound_to 10713
  139.9005  134.8567  156.1915 LP  0  0  0  0  0  0  0  0  0  0  0  0  # atno 17394 bound_to 11000
  141.0448  133.6919  156.1663 LP  0  0  0  0  0  0  0  0  0  0  0  0  # atno 17395 bound_to 11000

$$$$
