AV-unprocessed.smi:685|AV-procd|sdf|3333|dock8
  -GOLD-   22720 0303D 1   1.00000     0.00000
 Structure written by MMmdl.
 50 51  0  0  0  0  0  0  0  0  1 V2000
  152.8538  138.8967  155.1361 C   0  0  0  0  0  0  0  0  0  0  0  0
  151.5192  138.2110  155.2133 C   0  0  0  0  0  0  0  0  0  0  0  0
  151.4644  136.9480  155.6014 N   0  0  0  0  0  0  0  0  0  0  0  0
  150.1531  136.6370  155.5765 N   0  0  0  0  0  0  0  0  0  0  0  0
  149.7323  135.3016  155.9541 C   0  0  0  0  0  0  0  0  0  0  0  0
  149.3772  137.7054  155.1704 C   0  0  0  0  0  0  0  0  0  0  0  0
  147.8885  137.6109  155.0697 C   0  0  0  0  0  0  0  0  0  0  0  0
  150.2301  138.7492  154.9265 C   0  0  0  0  0  0  0  0  0  0  0  0
  149.9098  140.1499  154.4696 C   0  0  0  0  0  0  0  0  0  0  0  0
  149.0036  140.9039  155.4670 C   0  0  2  0  0  0  0  0  0  0  0  0
  147.7308  141.4623  154.8100 C   0  0  0  0  0  0  0  0  0  0  0  0
  149.7366  142.0042  156.0872 N   0  0  0  0  0  0  0  0  0  0  0  0
  150.8727  141.8842  156.7924 C   0  0  0  0  0  0  0  0  0  0  0  0
  151.4324  140.8061  156.9943 O   0  0  0  0  0  0  0  0  0  0  0  0
  151.4615  143.1794  157.3577 C   0  0  0  0  0  0  0  0  0  0  0  0
  150.7834  143.6133  158.6704 C   0  0  0  0  0  0  0  0  0  0  0  0
  151.3010  142.8484  159.9019 C   0  0  0  0  0  0  0  0  0  0  0  0
  151.4321  143.6966  161.1703 C   0  0  0  0  0  0  0  0  0  0  0  0
  152.3840  142.9064  162.0732 C   0  0  0  0  0  0  0  0  0  0  0  0
  153.2452  142.0452  161.1370 C   0  0  0  0  0  0  0  0  0  0  0  0
  152.7127  142.2838  159.7186 C   0  0  0  0  0  0  0  0  0  0  0  0
  152.8596  139.6660  154.3640 H   0  0  0  0  0  0  0  0  0  0  0  0
  153.6529  138.1922  154.9035 H   0  0  0  0  0  0  0  0  0  0  0  0
  153.0986  139.3774  156.0833 H   0  0  0  0  0  0  0  0  0  0  0  0
  148.9371  135.3628  156.6975 H   0  0  0  0  0  0  0  0  0  0  0  0
  150.5658  134.7399  156.3786 H   0  0  0  0  0  0  0  0  0  0  0  0
  149.3602  134.7742  155.0757 H   0  0  0  0  0  0  0  0  0  0  0  0
  147.4611  138.5026  154.6126 H   0  0  0  0  0  0  0  0  0  0  0  0
  147.4431  137.4981  156.0582 H   0  0  0  0  0  0  0  0  0  0  0  0
  147.5928  136.7538  154.4646 H   0  0  0  0  0  0  0  0  0  0  0  0
  150.8359  140.7080  154.3294 H   0  0  0  0  0  0  0  0  0  0  0  0
  149.4358  140.1427  153.4880 H   0  0  0  0  0  0  0  0  0  0  0  0
  148.6943  140.2127  156.2532 H   0  0  0  0  0  0  0  0  0  0  0  0
  147.1110  140.6659  154.3975 H   0  0  0  0  0  0  0  0  0  0  0  0
  147.9721  142.1500  153.9989 H   0  0  0  0  0  0  0  0  0  0  0  0
  147.1206  142.0025  155.5346 H   0  0  0  0  0  0  0  0  0  0  0  0
  149.3473  142.9290  155.9744 H   0  0  0  0  0  0  0  0  0  0  0  0
  152.5328  143.0496  157.5176 H   0  0  0  0  0  0  0  0  0  0  0  0
  151.3516  143.9615  156.6058 H   0  0  0  0  0  0  0  0  0  0  0  0
  150.9525  144.6794  158.8291 H   0  0  0  0  0  0  0  0  0  0  0  0
  149.7028  143.4869  158.5872 H   0  0  0  0  0  0  0  0  0  0  0  0
  150.6292  142.0144  160.1123 H   0  0  0  0  0  0  0  0  0  0  0  0
  151.8780  144.6625  160.9282 H   0  0  0  0  0  0  0  0  0  0  0  0
  150.4718  143.8871  161.6507 H   0  0  0  0  0  0  0  0  0  0  0  0
  152.9873  143.5660  162.6976 H   0  0  0  0  0  0  0  0  0  0  0  0
  151.8111  142.2602  162.7397 H   0  0  0  0  0  0  0  0  0  0  0  0
  154.3020  142.3049  161.2066 H   0  0  0  0  0  0  0  0  0  0  0  0
  153.1503  140.9931  161.4081 H   0  0  0  0  0  0  0  0  0  0  0  0
  152.7229  141.3765  159.1138 H   0  0  0  0  0  0  0  0  0  0  0  0
  153.3438  143.0189  159.2168 H   0  0  0  0  0  0  0  0  0  0  0  0
  1  2  1  0  0  0  0
  1 22  1  0  0  0  0
  1 23  1  0  0  0  0
  1 24  1  0  0  0  0
  2  8  1  0  0  0  0
  2  3  2  0  0  0  0
  3  4  1  0  0  0  0
  4  5  1  0  0  0  0
  4  6  1  0  0  0  0
  5 25  1  0  0  0  0
  5 26  1  0  0  0  0
  5 27  1  0  0  0  0
  6  7  1  0  0  0  0
  6  8  2  0  0  0  0
  7 28  1  0  0  0  0
  7 29  1  0  0  0  0
  7 30  1  0  0  0  0
  8  9  1  0  0  0  0
  9 10  1  0  0  0  0
  9 31  1  0  0  0  0
  9 32  1  0  0  0  0
 10 11  1  0  0  0  0
 10 12  1  0  0  0  0
 10 33  1  0  0  0  0
 11 34  1  0  0  0  0
 11 35  1  0  0  0  0
 11 36  1  0  0  0  0
 12 13  1  0  0  0  0
 12 37  1  0  0  0  0
 13 14  2  0  0  0  0
 13 15  1  0  0  0  0
 15 16  1  0  0  0  0
 15 38  1  0  0  0  0
 15 39  1  0  0  0  0
 16 17  1  0  0  0  0
 16 40  1  0  0  0  0
 16 41  1  0  0  0  0
 17 21  1  0  0  0  0
 17 18  1  0  0  0  0
 17 42  1  0  0  0  0
 18 19  1  0  0  0  0
 18 43  1  0  0  0  0
 18 44  1  0  0  0  0
 19 20  1  0  0  0  0
 19 45  1  0  0  0  0
 19 46  1  0  0  0  0
 20 21  1  0  0  0  0
 20 47  1  0  0  0  0
 20 48  1  0  0  0  0
 21 49  1  0  0  0  0
 21 50  1  0  0  0  0
M  END
> <s_m_source_file>
AV-unprocessed.smi

> <i_m_source_file_index>
685

> <i_lp_mmshare_version>
43012

> <i_f3d_flags>
0

> <s_epik_input>
W0NIM11jMW5uKFtDSDNdKWMoW0NIM10pYzFbQ0gyXVtDQEhdKFtDSDNdKVtOSF1DKD1PKVtDSDJdW0NIMl1bQ0hdMltDSDJdW0NIMl1bQ0gyXVtDSDJdMg==

> <s_epik_cmdline>
J2VwaWtfcHl0aG9uJywgJy1waCcsICc3LjAnLCAnLXRuJywgJzgnLCAnLW1hJywgJzIwMCcsICctbWV0YWxfYmluZGluZycsICctaW1hZScsICc8aW5maWxlLm1hZT4nLCAnLW9tYWUnLCAnPG91dGZpbGUubWFlPic=

> <r_lp_tautomer_probability>
1

> <r_epik_Ionization_Penalty>
0.0131144

> <r_epik_Ionization_Penalty_Charging>
0

> <r_epik_Ionization_Penalty_Neutral>
0.0131144

> <r_epik_State_Penalty>
0.0101889

> <r_epik_Charging_Adjusted_Penalty>
0.0101889

> <i_epik_Tot_Q>
0

> <i_epik_Tot_abs_Q>
0

> <r_epik_Metal_State_Penalty>
0.00996794

> <b_epik_Metal_Only>
0

> <s_lp_Force_Field>
OPLS_2005

> <r_lp_Energy>
16.135

> <b_lp_Chiralities_Consistent>
1

> <s_lp_Variant>
AV-unprocessed.smi:685-1

> <Gold.Version>
5.8.1

> <Gold.Id.Protein>
6NUR|6NUR_protein|mol2

> <Gold.PLP.Fitness>
47.1285

> <Gold.PLP.PLP>
-44.3796

> <Gold.PLP.part.hbond>
-2.0000

> <Gold.PLP.part.metal>
0.0000

> <Gold.PLP.part.buried>
-3.3384

> <Gold.PLP.part.nonpolar>
-38.5734

> <Gold.PLP.part.repulsive>
0.2026

> <Gold.PLP.ligand.clash>
0.0000

> <Gold.PLP.ligand.torsion>
1.6417

> <Gold.PLP.Chemscore.Hbond>
2.0000

> <Gold.PLP.Chemscore.CHOScore>
0.0000

> <Gold.PLP.Chemscore.Metal>
0.0000

> <Gold.Chemscore.Hbonds>
donor molecule, donor type, donor heavy atom, donor atom, acceptor molecule, acceptor atom, score
      L1  H    12    37       P1  8028  1.00
      P1  H 10752 10765       L1     3  0.52

> <Gold.PLP.Chemscore.Internal.Correction>
0.0322

> <Gold.Rescore>
     Score         DG    S(hbond)    S(metal)    S(lipo)     H(rot)  DE(clash)    DE(int)     intcor
     20.22     -22.69       1.90        0.00     126.38       1.53       1.05       1.43       ----

> <Gold.Chemscore.Fitness>
20.2168

> <Gold.Chemscore.DG>
-22.6931

> <Gold.Chemscore.ZeroCoef>
-5.4800

> <Gold.Chemscore.Hbond>
1.8969

> <Gold.Chemscore.Metal>
0.0000

> <Gold.Chemscore.Lipo>
126.3758

> <Gold.Chemscore.Internal_Hbond>
0.0000

> <Gold.Chemscore.DEClash>
1.0503

> <Gold.Chemscore.DEInternal>
1.4260

> <Gold.Chemscore.Rot>
1.5268

> <Gold.Chemscore.Internal.Correction>
   9.000000E+99

> <Gold.Chemscore.Hbonds>
donor molecule, donor type, donor heavy atom, donor atom, acceptor molecule, acceptor atom, score
      L1  H    12    37       P1  8028  1.00
      P1  H 10752 10765       L1     3  0.47

> <Gold.Chemscore.Hbond.Weighted>
-6.3357

> <Gold.Chemscore.Metal.Weighted>
-0.0000

> <Gold.Chemscore.Lipo.Weighted>
-14.7860

> <Gold.Chemscore.Internal_Hbond.Weighted>
0.0000

> <Gold.Chemscore.DEClash.Weighted>
1.0503

> <Gold.Chemscore.DEInternal.Weighted>
1.4260

> <Gold.Chemscore.Rot.Weighted>
3.9086

> <Gold.Chemscore.Internal.Correction.Weighted>
   9.000000E+99

> <Gold.Protein.RotatedTorsions>
[ 6907 6896 6895 6894 ] final  119.03 input  -60.11 | X-H torsion
[ 7974 7965 7964 7962 ] final  -21.97 input  175.53 | X-H torsion
[ 8008 7997 7996 7995 ] final  168.88 input   59.86 | X-H torsion
[ 10167 10162 10161 10158 ] final  -69.49 input  -65.29 | X-H torsion
[ 10718 10713 10712 10709 ] final -144.63 input   66.30 | X-H torsion
[ 10763 10752 10751 10750 ] final -174.54 input  -60.55 | X-H torsion
[ 11005 11000 10999 10996 ] final  125.12 input  -57.11 | X-H torsion

> <Gold.Protein.ActiveResidues>
 VAL166  LYS551  ARG553  GLY616  TRP617  ASP618  TYR619  PRO620  LYS621  CYS622 
 ASP623  PHE694  ASN695  SER759  ASP760  ASP761  ALA762  ILE779  LEU786  VAL792 
 PHE793  MET794  SER795  GLU796  ALA797  LYS798  CYS799  TRP800  GLU811  SER814 

> <Gold.Protein.RotatedAtoms>
  152.4501  133.7613  159.6747 H   0  0  0  0  0  0  0  0  0  0  0  0  # atno 6907 bound_to 6896
  150.8411  133.7925  159.3067 H   0  0  0  0  0  0  0  0  0  0  0  0  # atno 6908 bound_to 6896
  151.5549  135.1069  160.0010 H   0  0  0  0  0  0  0  0  0  0  0  0  # atno 6909 bound_to 6896
  146.1702  140.4415  142.8535 H   0  0  0  0  0  0  0  0  0  0  0  0  # atno 7974 bound_to 7965
  156.1507  140.1578  156.8774 H   0  0  0  0  0  0  0  0  0  0  0  0  # atno 8008 bound_to 7997
  154.5068  140.0811  156.7948 H   0  0  0  0  0  0  0  0  0  0  0  0  # atno 8009 bound_to 7997
  155.3901  140.3409  155.4253 H   0  0  0  0  0  0  0  0  0  0  0  0  # atno 8010 bound_to 7997
  140.5426  143.2314  151.7061 H   0  0  0  0  0  0  0  0  0  0  0  0  # atno 10167 bound_to 10162
  156.3725  130.7795  151.1977 H   0  0  0  0  0  0  0  0  0  0  0  0  # atno 10718 bound_to 10713
  154.5951  135.2849  155.0595 H   0  0  0  0  0  0  0  0  0  0  0  0  # atno 10763 bound_to 10752
  154.1881  135.6445  153.5056 H   0  0  0  0  0  0  0  0  0  0  0  0  # atno 10764 bound_to 10752
  153.0135  135.5439  154.6650 H   0  0  0  0  0  0  0  0  0  0  0  0  # atno 10765 bound_to 10752
  139.9391  134.9637  156.8511 H   0  0  0  0  0  0  0  0  0  0  0  0  # atno 11005 bound_to 11000
  144.8152  140.6455  143.6389 LP  0  0  0  0  0  0  0  0  0  0  0  0  # atno 17320 bound_to 7965
  145.4360  139.1542  143.3996 LP  0  0  0  0  0  0  0  0  0  0  0  0  # atno 17321 bound_to 7965
  139.4995  144.3944  152.0246 LP  0  0  0  0  0  0  0  0  0  0  0  0  # atno 17342 bound_to 10162
  140.3055  144.3598  150.6048 LP  0  0  0  0  0  0  0  0  0  0  0  0  # atno 17343 bound_to 10162
  157.7485  131.0368  150.4426 LP  0  0  0  0  0  0  0  0  0  0  0  0  # atno 17370 bound_to 10713
  156.4656  130.4041  149.6549 LP  0  0  0  0  0  0  0  0  0  0  0  0  # atno 17371 bound_to 10713
  140.5998  134.0183  155.7532 LP  0  0  0  0  0  0  0  0  0  0  0  0  # atno 17394 bound_to 11000
  141.1018  133.9756  157.3066 LP  0  0  0  0  0  0  0  0  0  0  0  0  # atno 17395 bound_to 11000

$$$$
