AV-unprocessed.smi:998|AV-procd|sdf|4350|dock1
  -GOLD-   22720 2253D 1   1.00000     0.00000
 Structure written by MMmdl.
 45 47  0  0  0  0  0  0  0  0  2 V2000
  146.6030  133.7971  150.6378 C   0  0  0  0  0  0  0  0  0  0  0  0
  144.9572  133.8773  151.4557 S   0  0  0  0  0  0  0  0  0  0  0  0
  143.9714  133.2451  150.5659 O   0  0  0  0  0  0  0  0  0  0  0  0
  145.1078  133.3978  152.8378 O   0  0  0  0  0  0  0  0  0  0  0  0
  144.5958  135.5776  151.5217 N   0  0  0  0  0  0  0  0  0  0  0  0
  145.3410  136.5271  150.6752 C   0  0  0  0  0  0  0  0  0  0  0  0
  146.4542  137.2363  151.4687 C   0  0  0  0  0  0  0  0  0  0  0  0
  145.9364  137.8268  152.7010 N   0  0  0  0  0  0  0  0  0  0  0  0
  146.7305  138.7885  153.3653 C   0  0  0  0  0  0  0  0  0  0  0  0
  147.9125  138.4804  154.0848 C   0  0  0  0  0  0  0  0  0  0  0  0
  148.6445  139.5122  154.7078 C   0  0  0  0  0  0  0  0  0  0  0  0
  148.2047  140.8482  154.6060 C   0  0  0  0  0  0  0  0  0  0  0  0
  148.9738  141.8497  155.2605 N   0  0  0  0  0  0  0  0  0  0  0  0
  150.0684  141.7035  156.0280 C   0  0  0  0  0  0  0  0  0  0  0  0
  150.5988  140.6303  156.3135 O   0  0  0  0  0  0  0  0  0  0  0  0
  150.5122  142.8895  156.4666 N   0  0  0  0  0  0  0  0  0  0  0  0
  151.6415  143.0878  157.3170 C   0  0  0  0  0  0  0  0  0  0  0  0
  151.4014  143.7403  158.6614 C   0  0  0  0  0  0  0  0  0  0  0  0
  152.0910  144.5107  157.5693 C   0  0  0  0  0  0  0  0  0  0  0  0
  147.0142  141.1045  153.8852 C   0  0  0  0  0  0  0  0  0  0  0  0
  146.3435  140.0857  153.3056 N   0  3  0  0  0  0  0  0  0  0  0  0
  145.2057  136.8856  153.5506 C   0  0  0  0  0  0  0  0  0  0  0  0
  144.0846  136.1789  152.7671 C   0  0  0  0  0  0  0  0  0  0  0  0
  146.9039  132.7532  150.5507 H   0  0  0  0  0  0  0  0  0  0  0  0
  147.3421  134.3268  151.2363 H   0  0  0  0  0  0  0  0  0  0  0  0
  146.5455  134.2305  149.6409 H   0  0  0  0  0  0  0  0  0  0  0  0
  145.7563  136.0184  149.8057 H   0  0  0  0  0  0  0  0  0  0  0  0
  144.6387  137.2683  150.2915 H   0  0  0  0  0  0  0  0  0  0  0  0
  147.2578  136.5423  151.7125 H   0  0  0  0  0  0  0  0  0  0  0  0
  146.8801  138.0116  150.8314 H   0  0  0  0  0  0  0  0  0  0  0  0
  148.2717  137.4669  154.1815 H   0  0  0  0  0  0  0  0  0  0  0  0
  149.5428  139.2737  155.2589 H   0  0  0  0  0  0  0  0  0  0  0  0
  148.6241  142.7922  155.1686 H   0  0  0  0  0  0  0  0  0  0  0  0
  150.0110  143.7187  156.1833 H   0  0  0  0  0  0  0  0  0  0  0  0
  152.4297  142.3365  157.2861 H   0  0  0  0  0  0  0  0  0  0  0  0
  150.3831  144.0310  158.9132 H   0  0  0  0  0  0  0  0  0  0  0  0
  152.0091  143.4020  159.4984 H   0  0  0  0  0  0  0  0  0  0  0  0
  153.1595  144.6870  157.6764 H   0  0  0  0  0  0  0  0  0  0  0  0
  151.5325  145.3146  157.0931 H   0  0  0  0  0  0  0  0  0  0  0  0
  146.5606  142.0747  153.7513 H   0  0  0  0  0  0  0  0  0  0  0  0
  145.9099  136.1580  153.9524 H   0  0  0  0  0  0  0  0  0  0  0  0
  144.7569  137.3869  154.4077 H   0  0  0  0  0  0  0  0  0  0  0  0
  143.3094  136.9013  152.5078 H   0  0  0  0  0  0  0  0  0  0  0  0
  143.6050  135.4218  153.3869 H   0  0  0  0  0  0  0  0  0  0  0  0
  145.4930  140.3097  152.7885 H   0  0  0  0  0  0  0  0  0  0  0  0
  1  2  1  0  0  0  0
  1 24  1  0  0  0  0
  1 25  1  0  0  0  0
  1 26  1  0  0  0  0
  2  3  2  0  0  0  0
  2  4  2  0  0  0  0
  2  5  1  0  0  0  0
  5 23  1  0  0  0  0
  5  6  1  0  0  0  0
  6  7  1  0  0  0  0
  6 27  1  0  0  0  0
  6 28  1  0  0  0  0
  7  8  1  0  0  0  0
  7 29  1  0  0  0  0
  7 30  1  0  0  0  0
  8  9  1  0  0  0  0
  8 22  1  0  0  0  0
  9 21  1  0  0  0  0
  9 10  2  0  0  0  0
 10 11  1  0  0  0  0
 10 31  1  0  0  0  0
 11 12  2  0  0  0  0
 11 32  1  0  0  0  0
 12 13  1  0  0  0  0
 12 20  1  0  0  0  0
 13 14  1  0  0  0  0
 13 33  1  0  0  0  0
 14 15  2  0  0  0  0
 14 16  1  0  0  0  0
 16 17  1  0  0  0  0
 16 34  1  0  0  0  0
 17 19  1  0  0  0  0
 17 18  1  0  0  0  0
 17 35  1  0  0  0  0
 18 19  1  0  0  0  0
 18 36  1  0  0  0  0
 18 37  1  0  0  0  0
 19 38  1  0  0  0  0
 19 39  1  0  0  0  0
 20 21  2  0  0  0  0
 20 40  1  0  0  0  0
 21 45  1  0  0  0  0
 22 23  1  0  0  0  0
 22 41  1  0  0  0  0
 22 42  1  0  0  0  0
 23 43  1  0  0  0  0
 23 44  1  0  0  0  0
M  CHG  1  21   1
M  END
> <s_m_source_file>
AV-unprocessed.smi

> <i_m_source_file_index>
998

> <i_lp_mmshare_version>
43012

> <i_f3d_flags>
0

> <s_epik_input>
W0NIM11TKD1PKSg9TylOMVtDSDJdW0NIMl1OKFtDSDJdW0NIMl0xKWMyW2NIXVtjSF1jKFtjSF1uMilbTkhdQyg9TylbTkhdW0NIXTNbQ0gyXVtDSDJdMw==

> <s_epik_cmdline>
J2VwaWtfcHl0aG9uJywgJy1waCcsICc3LjAnLCAnLXRuJywgJzgnLCAnLW1hJywgJzIwMCcsICctbWV0YWxfYmluZGluZycsICctaW1hZScsICc8aW5maWxlLm1hZT4nLCAnLW9tYWUnLCAnPG91dGZpbGUubWFlPic=

> <r_lp_tautomer_probability>
0.999994

> <r_epik_Ionization_Penalty>
1.4485

> <r_epik_Ionization_Penalty_Charging>
1.44848

> <r_epik_Ionization_Penalty_Neutral>
2.21562e-05

> <r_epik_State_Penalty>
1.53448

> <r_epik_Charging_Adjusted_Penalty>
2.98296

> <i_epik_Tot_Q>
1

> <i_epik_Tot_abs_Q>
1

> <r_epik_Metal_State_Penalty>
1.58455

> <b_epik_Metal_Only>
0

> <s_lp_Force_Field>
OPLS_2005

> <r_lp_Energy>
37.0823

> <b_lp_Chiralities_Consistent>
1

> <s_lp_Variant>
AV-unprocessed.smi:998-2

> <Gold.Version>
5.8.1

> <Gold.Id.Protein>
6NUR|6NUR_protein|mol2

> <Gold.PLP.Fitness>
44.8756

> <Gold.PLP.PLP>
-35.0649

> <Gold.PLP.part.hbond>
-3.0000

> <Gold.PLP.part.metal>
0.0000

> <Gold.PLP.part.buried>
-1.6606

> <Gold.PLP.part.nonpolar>
-32.8260

> <Gold.PLP.part.repulsive>
0.8474

> <Gold.PLP.ligand.clash>
0.0000

> <Gold.PLP.ligand.torsion>
1.4144

> <Gold.PLP.Chemscore.Hbond>
3.3680

> <Gold.PLP.Chemscore.CHOScore>
0.0000

> <Gold.PLP.Chemscore.Metal>
0.0000

> <Gold.Chemscore.Hbonds>
donor molecule, donor type, donor heavy atom, donor atom, acceptor molecule, acceptor atom, score
      L1  H    13    33       P1  8028  0.94
      L1  H    16    34       P1  8028  1.00
      L1  H    21    45       P1 10175  2.00

> <Gold.PLP.Chemscore.Internal.Correction>
2.5356

> <Gold.Rescore>
     Score         DG    S(hbond)    S(metal)    S(lipo)     H(rot)  DE(clash)    DE(int)     intcor
     15.72     -20.49       2.60        0.00      81.38       1.25       1.88       2.90       ----

> <Gold.Chemscore.Fitness>
15.7170

> <Gold.Chemscore.DG>
-20.4944

> <Gold.Chemscore.ZeroCoef>
-5.4800

> <Gold.Chemscore.Hbond>
2.6011

> <Gold.Chemscore.Metal>
0.0000

> <Gold.Chemscore.Lipo>
81.3789

> <Gold.Chemscore.Internal_Hbond>
0.0000

> <Gold.Chemscore.DEClash>
1.8820

> <Gold.Chemscore.DEInternal>
2.8953

> <Gold.Chemscore.Rot>
1.2479

> <Gold.Chemscore.Internal.Correction>
   9.000000E+99

> <Gold.Chemscore.Hbonds>
donor molecule, donor type, donor heavy atom, donor atom, acceptor molecule, acceptor atom, score
      L1  H    13    33       P1  8028  0.88
      L1  H    16    34       P1  8028  0.98
      L1  H    21    45       P1 10175  0.90

> <Gold.Chemscore.Hbond.Weighted>
-8.6876

> <Gold.Chemscore.Metal.Weighted>
-0.0000

> <Gold.Chemscore.Lipo.Weighted>
-9.5213

> <Gold.Chemscore.Internal_Hbond.Weighted>
0.0000

> <Gold.Chemscore.DEClash.Weighted>
1.8820

> <Gold.Chemscore.DEInternal.Weighted>
2.8953

> <Gold.Chemscore.Rot.Weighted>
3.1945

> <Gold.Chemscore.Internal.Correction.Weighted>
   9.000000E+99

> <Gold.Protein.RotatedTorsions>
[ 6907 6896 6895 6894 ] final  164.59 input  -60.11 | X-H torsion
[ 7974 7965 7964 7962 ] final   19.54 input  175.53 | X-H torsion
[ 8008 7997 7996 7995 ] final   33.56 input   59.86 | X-H torsion
[ 10167 10162 10161 10158 ] final   14.13 input  -65.29 | X-H torsion
[ 10718 10713 10712 10709 ] final   13.78 input   66.30 | X-H torsion
[ 10763 10752 10751 10750 ] final   66.26 input  -60.55 | X-H torsion
[ 11005 11000 10999 10996 ] final -136.62 input  -57.11 | X-H torsion

> <Gold.Protein.ActiveResidues>
 VAL166  LYS551  ARG553  GLY616  TRP617  ASP618  TYR619  PRO620  LYS621  CYS622 
 ASP623  PHE694  ASN695  SER759  ASP760  ASP761  ALA762  ILE779  LEU786  VAL792 
 PHE793  MET794  SER795  GLU796  ALA797  LYS798  CYS799  TRP800  GLU811  SER814 

> <Gold.Protein.RotatedAtoms>
  151.9074  133.3553  159.3851 H   0  0  0  0  0  0  0  0  0  0  0  0  # atno 6907 bound_to 6896
  150.7066  134.4766  159.5460 H   0  0  0  0  0  0  0  0  0  0  0  0  # atno 6908 bound_to 6896
  152.2366  134.8270  160.0517 H   0  0  0  0  0  0  0  0  0  0  0  0  # atno 6909 bound_to 6896
  146.2145  139.8298  142.8662 H   0  0  0  0  0  0  0  0  0  0  0  0  # atno 7974 bound_to 7965
  155.1405  140.3265  155.4453 H   0  0  0  0  0  0  0  0  0  0  0  0  # atno 8008 bound_to 7997
  156.2606  140.1994  156.6471 H   0  0  0  0  0  0  0  0  0  0  0  0  # atno 8009 bound_to 7997
  154.6546  140.0554  156.9980 H   0  0  0  0  0  0  0  0  0  0  0  0  # atno 8010 bound_to 7997
  140.5956  143.8707  150.6915 H   0  0  0  0  0  0  0  0  0  0  0  0  # atno 10167 bound_to 10162
  157.0297  130.6187  149.5733 H   0  0  0  0  0  0  0  0  0  0  0  0  # atno 10718 bound_to 10713
  153.0132  135.5327  154.6795 H   0  0  0  0  0  0  0  0  0  0  0  0  # atno 10763 bound_to 10752
  154.5959  135.2863  155.0589 H   0  0  0  0  0  0  0  0  0  0  0  0  # atno 10764 bound_to 10752
  154.1664  135.6539  153.5051 H   0  0  0  0  0  0  0  0  0  0  0  0  # atno 10765 bound_to 10752
  140.8788  134.1958  157.4604 H   0  0  0  0  0  0  0  0  0  0  0  0  # atno 11005 bound_to 11000
  145.3009  141.0194  143.3609 LP  0  0  0  0  0  0  0  0  0  0  0  0  # atno 17320 bound_to 7965
  144.9006  139.4654  143.6634 LP  0  0  0  0  0  0  0  0  0  0  0  0  # atno 17321 bound_to 7965
  140.2241  143.3786  152.1619 LP  0  0  0  0  0  0  0  0  0  0  0  0  # atno 17342 bound_to 10162
  139.5256  144.7098  151.5242 LP  0  0  0  0  0  0  0  0  0  0  0  0  # atno 17343 bound_to 10162
  156.0074  130.5162  150.7875 LP  0  0  0  0  0  0  0  0  0  0  0  0  # atno 17370 bound_to 10713
  157.5187  131.0930  151.0106 LP  0  0  0  0  0  0  0  0  0  0  0  0  # atno 17371 bound_to 10713
  139.8718  134.9808  156.5090 LP  0  0  0  0  0  0  0  0  0  0  0  0  # atno 17394 bound_to 11000
  140.8486  133.8150  155.9146 LP  0  0  0  0  0  0  0  0  0  0  0  0  # atno 17395 bound_to 11000

$$$$
