AV-unprocessed.smi:2074|AV-procd|sdf|8455|dock5
  -GOLD-   2272011153D 1   1.00000     0.00000
 Structure written by MMmdl.
 44 45  0  0  0  0  0  0  0  0  2 V2000
  151.6155  140.9893  155.9388 C   0  0  0  0  0  0  0  0  0  0  0  0
  151.9026  139.6157  156.4739 C   0  0  0  0  0  0  0  0  0  0  0  0
  152.6241  139.4829  157.5739 N   0  0  0  0  0  0  0  0  0  0  0  0
  152.7109  138.1080  157.8120 O   0  0  0  0  0  0  0  0  0  0  0  0
  152.0265  137.4592  156.8358 C   0  0  0  0  0  0  0  0  0  0  0  0
  151.9998  135.9700  156.9155 C   0  0  0  0  0  0  0  0  0  0  0  0
  151.4872  138.3557  155.9542 C   0  0  0  0  0  0  0  0  0  0  0  0
  150.6539  138.0826  154.7283 C   0  0  0  0  0  0  0  0  0  0  0  0
  149.1798  137.9845  155.1204 C   0  0  0  0  0  0  0  0  0  0  0  0
  148.8478  138.1072  156.2990 O   0  0  0  0  0  0  0  0  0  0  0  0
  148.3078  137.7626  154.1237 N   0  0  0  0  0  0  0  0  0  0  0  0
  146.8558  137.6848  154.2684 C   0  0  0  0  0  0  0  0  0  0  0  0
  146.1097  137.4776  152.9196 C   0  0  1  0  0  0  0  0  0  0  0  0
  146.6077  138.4896  151.8588 C   0  0  0  0  0  0  0  0  0  0  0  0
  146.2164  136.0666  152.4141 N   0  3  0  0  0  0  0  0  0  0  0  0
  146.0153  135.0211  153.4577 C   0  0  0  0  0  0  0  0  0  0  0  0
  146.1366  133.6034  152.8732 C   0  0  0  0  0  0  0  0  0  0  0  0
  145.2111  133.4391  151.8112 O   0  0  0  0  0  0  0  0  0  0  0  0
  145.4823  134.3426  150.7520 C   0  0  0  0  0  0  0  0  0  0  0  0
  145.3247  135.7878  151.2526 C   0  0  0  0  0  0  0  0  0  0  0  0
  151.7220  141.0179  154.8544 H   0  0  0  0  0  0  0  0  0  0  0  0
  152.2952  141.7343  156.3548 H   0  0  0  0  0  0  0  0  0  0  0  0
  150.5979  141.2957  156.1808 H   0  0  0  0  0  0  0  0  0  0  0  0
  151.0781  135.5732  156.4900 H   0  0  0  0  0  0  0  0  0  0  0  0
  152.0630  135.6330  157.9503 H   0  0  0  0  0  0  0  0  0  0  0  0
  152.8379  135.5400  156.3670 H   0  0  0  0  0  0  0  0  0  0  0  0
  150.7765  138.8629  153.9762 H   0  0  0  0  0  0  0  0  0  0  0  0
  150.9544  137.1518  154.2461 H   0  0  0  0  0  0  0  0  0  0  0  0
  148.6775  137.6722  153.1884 H   0  0  0  0  0  0  0  0  0  0  0  0
  146.5718  136.9083  154.9807 H   0  0  0  0  0  0  0  0  0  0  0  0
  146.5785  138.6358  154.7211 H   0  0  0  0  0  0  0  0  0  0  0  0
  145.0528  137.6789  153.1015 H   0  0  0  0  0  0  0  0  0  0  0  0
  146.5556  139.5166  152.2178 H   0  0  0  0  0  0  0  0  0  0  0  0
  146.0056  138.4813  150.9523 H   0  0  0  0  0  0  0  0  0  0  0  0
  147.6433  138.2924  151.5802 H   0  0  0  0  0  0  0  0  0  0  0  0
  146.7658  135.1023  154.2422 H   0  0  0  0  0  0  0  0  0  0  0  0
  145.0371  135.1520  153.9230 H   0  0  0  0  0  0  0  0  0  0  0  0
  147.1523  133.4111  152.5232 H   0  0  0  0  0  0  0  0  0  0  0  0
  145.9221  132.8622  153.6433 H   0  0  0  0  0  0  0  0  0  0  0  0
  146.4846  134.1727  150.3549 H   0  0  0  0  0  0  0  0  0  0  0  0
  144.7826  134.1500  149.9383 H   0  0  0  0  0  0  0  0  0  0  0  0
  144.2872  135.9713  151.5360 H   0  0  0  0  0  0  0  0  0  0  0  0
  145.5495  136.4441  150.4147 H   0  0  0  0  0  0  0  0  0  0  0  0
  147.1642  135.9532  152.0836 H   0  0  0  0  0  0  0  0  0  0  0  0
  1  2  1  0  0  0  0
  1 21  1  0  0  0  0
  1 22  1  0  0  0  0
  1 23  1  0  0  0  0
  2  7  1  0  0  0  0
  2  3  2  0  0  0  0
  3  4  1  0  0  0  0
  4  5  1  0  0  0  0
  5  6  1  0  0  0  0
  5  7  2  0  0  0  0
  6 24  1  0  0  0  0
  6 25  1  0  0  0  0
  6 26  1  0  0  0  0
  7  8  1  0  0  0  0
  8  9  1  0  0  0  0
  8 27  1  0  0  0  0
  8 28  1  0  0  0  0
  9 10  2  0  0  0  0
  9 11  1  0  0  0  0
 11 12  1  0  0  0  0
 11 29  1  0  0  0  0
 12 13  1  0  0  0  0
 12 30  1  0  0  0  0
 12 31  1  0  0  0  0
 13 14  1  0  0  0  0
 13 15  1  0  0  0  0
 13 32  1  0  0  0  0
 14 33  1  0  0  0  0
 14 34  1  0  0  0  0
 14 35  1  0  0  0  0
 15 20  1  0  0  0  0
 15 16  1  0  0  0  0
 15 44  1  0  0  0  0
 16 17  1  0  0  0  0
 16 36  1  0  0  0  0
 16 37  1  0  0  0  0
 17 18  1  0  0  0  0
 17 38  1  0  0  0  0
 17 39  1  0  0  0  0
 18 19  1  0  0  0  0
 19 20  1  0  0  0  0
 19 40  1  0  0  0  0
 19 41  1  0  0  0  0
 20 42  1  0  0  0  0
 20 43  1  0  0  0  0
M  CHG  1  15   1
M  END
> <s_m_source_file>
AV-unprocessed.smi

> <i_m_source_file_index>
2074

> <i_lp_mmshare_version>
43012

> <i_f3d_flags>
0

> <s_epik_input>
W0NIM11jMW5vYyhbQ0gzXSljMVtDSDJdQyg9TylbTkhdW0NIMl1bQ0BIXShbQ0gzXSlOMltDSDJdW0NIMl1PW0NIMl1bQ0gyXTI=

> <s_epik_cmdline>
J2VwaWtfcHl0aG9uJywgJy1waCcsICc3LjAnLCAnLXRuJywgJzgnLCAnLW1hJywgJzIwMCcsICctbWV0YWxfYmluZGluZycsICctaW1hZScsICc8aW5maWxlLm1hZT4nLCAnLW9tYWUnLCAnPG91dGZpbGUubWFlPic=

> <r_epik_Ionization_Penalty>
0.663207

> <r_epik_Ionization_Penalty_Charging>
0.663207

> <r_epik_Ionization_Penalty_Neutral>
1.0751e-07

> <r_epik_State_Penalty>
0.682743

> <r_epik_Charging_Adjusted_Penalty>
1.34595

> <i_epik_Tot_Q>
1

> <i_epik_Tot_abs_Q>
1

> <r_epik_Metal_State_Penalty>
0.682743

> <b_epik_Metal_Only>
0

> <s_lp_Force_Field>
OPLS_2005

> <r_lp_Energy>
15.6967

> <b_lp_Chiralities_Consistent>
1

> <s_lp_Variant>
AV-unprocessed.smi:2074-4

> <Gold.Version>
5.8.1

> <Gold.Id.Protein>
6NUR|6NUR_protein|mol2

> <Gold.PLP.Fitness>
34.2741

> <Gold.PLP.PLP>
-24.2527

> <Gold.PLP.part.hbond>
-3.0000

> <Gold.PLP.part.metal>
0.0000

> <Gold.PLP.part.buried>
-2.2342

> <Gold.PLP.part.nonpolar>
-19.2484

> <Gold.PLP.part.repulsive>
0.1200

> <Gold.PLP.ligand.clash>
0.0000

> <Gold.PLP.ligand.torsion>
0.5894

> <Gold.PLP.Chemscore.Hbond>
3.7113

> <Gold.PLP.Chemscore.CHOScore>
0.0000

> <Gold.PLP.Chemscore.Metal>
0.0000

> <Gold.Chemscore.Hbonds>
donor molecule, donor type, donor heavy atom, donor atom, acceptor molecule, acceptor atom, score
      L1  H    11    29       P1  7948  0.77
      L1  H    15    44       P1  7948  2.00
      P1  H  7997  8009       L1     3  0.80

> <Gold.PLP.Chemscore.Internal.Correction>
0.0665

> <Gold.Rescore>
     Score         DG    S(hbond)    S(metal)    S(lipo)     H(rot)  DE(clash)    DE(int)     intcor
     14.19     -14.95       1.75        0.00      70.37       1.80       0.21       0.56       ----

> <Gold.Chemscore.Fitness>
14.1886

> <Gold.Chemscore.DG>
-14.9506

> <Gold.Chemscore.ZeroCoef>
-5.4800

> <Gold.Chemscore.Hbond>
1.7471

> <Gold.Chemscore.Metal>
0.0000

> <Gold.Chemscore.Lipo>
70.3701

> <Gold.Chemscore.Internal_Hbond>
0.0000

> <Gold.Chemscore.DEClash>
0.2051

> <Gold.Chemscore.DEInternal>
0.5569

> <Gold.Chemscore.Rot>
1.7961

> <Gold.Chemscore.Internal.Correction>
   9.000000E+99

> <Gold.Chemscore.Hbonds>
donor molecule, donor type, donor heavy atom, donor atom, acceptor molecule, acceptor atom, score
      L1  H    11    29       P1  7948  0.77
      L1  H    15    44       P1  7948  1.00
      P1  H  7997  8009       L1     3  0.08

> <Gold.Chemscore.Hbond.Weighted>
-5.8353

> <Gold.Chemscore.Metal.Weighted>
-0.0000

> <Gold.Chemscore.Lipo.Weighted>
-8.2333

> <Gold.Chemscore.Internal_Hbond.Weighted>
0.0000

> <Gold.Chemscore.DEClash.Weighted>
0.2051

> <Gold.Chemscore.DEInternal.Weighted>
0.5569

> <Gold.Chemscore.Rot.Weighted>
4.5980

> <Gold.Chemscore.Internal.Correction.Weighted>
   9.000000E+99

> <Gold.Protein.RotatedTorsions>
[ 6907 6896 6895 6894 ] final -116.49 input  -60.11 | X-H torsion
[ 7974 7965 7964 7962 ] final   73.32 input  175.53 | X-H torsion
[ 8008 7997 7996 7995 ] final  172.02 input   59.86 | X-H torsion
[ 10167 10162 10161 10158 ] final -117.63 input  -65.29 | X-H torsion
[ 10718 10713 10712 10709 ] final   88.64 input   66.30 | X-H torsion
[ 10763 10752 10751 10750 ] final   -8.91 input  -60.55 | X-H torsion
[ 11005 11000 10999 10996 ] final  130.41 input  -57.11 | X-H torsion

> <Gold.Protein.ActiveResidues>
 VAL166  LYS551  ARG553  GLY616  TRP617  ASP618  TYR619  PRO620  LYS621  CYS622 
 ASP623  PHE694  ASN695  SER759  ASP760  ASP761  ALA762  ILE779  LEU786  VAL792 
 PHE793  MET794  SER795  GLU796  ALA797  LYS798  CYS799  TRP800  GLU811  SER814 

> <Gold.Protein.RotatedAtoms>
  150.8060  133.8509  159.3204 H   0  0  0  0  0  0  0  0  0  0  0  0  # atno 6907 bound_to 6896
  151.6308  135.1021  160.0131 H   0  0  0  0  0  0  0  0  0  0  0  0  # atno 6908 bound_to 6896
  152.4151  133.6985  159.6467 H   0  0  0  0  0  0  0  0  0  0  0  0  # atno 6909 bound_to 6896
  145.7423  139.2726  143.1479 H   0  0  0  0  0  0  0  0  0  0  0  0  # atno 7974 bound_to 7965
  156.1215  140.1497  156.9198 H   0  0  0  0  0  0  0  0  0  0  0  0  # atno 8008 bound_to 7997
  154.4839  140.0871  156.7483 H   0  0  0  0  0  0  0  0  0  0  0  0  # atno 8009 bound_to 7997
  155.4420  140.3431  155.4293 H   0  0  0  0  0  0  0  0  0  0  0  0  # atno 8010 bound_to 7997
  140.0662  143.4920  152.2005 H   0  0  0  0  0  0  0  0  0  0  0  0  # atno 10167 bound_to 10162
  157.6950  131.0303  150.3306 H   0  0  0  0  0  0  0  0  0  0  0  0  # atno 10718 bound_to 10713
  153.4472  135.7014  153.6131 H   0  0  0  0  0  0  0  0  0  0  0  0  # atno 10763 bound_to 10752
  153.4481  135.3764  155.2268 H   0  0  0  0  0  0  0  0  0  0  0  0  # atno 10764 bound_to 10752
  154.8728  135.3990  154.3879 H   0  0  0  0  0  0  0  0  0  0  0  0  # atno 10765 bound_to 10752
  139.9670  134.9588  156.9290 H   0  0  0  0  0  0  0  0  0  0  0  0  # atno 11005 bound_to 11000
  146.0436  140.8140  142.9816 LP  0  0  0  0  0  0  0  0  0  0  0  0  # atno 17320 bound_to 7965
  144.6868  140.2947  143.7272 LP  0  0  0  0  0  0  0  0  0  0  0  0  # atno 17321 bound_to 7965
  139.5863  144.7532  151.3511 LP  0  0  0  0  0  0  0  0  0  0  0  0  # atno 17342 bound_to 10162
  140.7148  143.7296  150.7634 LP  0  0  0  0  0  0  0  0  0  0  0  0  # atno 17343 bound_to 10162
  156.3780  130.3875  149.7123 LP  0  0  0  0  0  0  0  0  0  0  0  0  # atno 17370 bound_to 10713
  156.4515  130.7909  151.2930 LP  0  0  0  0  0  0  0  0  0  0  0  0  # atno 17371 bound_to 10713
  140.5374  134.0753  155.7332 LP  0  0  0  0  0  0  0  0  0  0  0  0  # atno 17394 bound_to 11000
  141.1350  133.9237  157.2453 LP  0  0  0  0  0  0  0  0  0  0  0  0  # atno 17395 bound_to 11000

$$$$
