AV-unprocessed.smi:101|AV-procd|sdf|921|dock3
  -GOLD-   2262017423D 1   1.00000     0.00000
 Structure written by MMmdl.
 44 46  0  0  0  0  0  0  0  0  1 V2000
  152.2988  141.7424  159.3440 C   0  0  0  0  0  0  0  0  0  0  0  0
  151.5436  141.7238  158.0250 C   0  0  0  0  0  0  0  0  0  0  0  0
  151.3550  140.5842  157.3113 C   0  0  0  0  0  0  0  0  0  0  0  0
  150.6689  140.5353  156.1030 N   0  0  0  0  0  0  0  0  0  0  0  0
  150.4584  139.2436  155.3313 C   0  0  2  0  0  0  0  0  0  0  0  0
  150.0496  138.2349  156.2068 O   0  0  0  0  0  0  0  0  0  0  0  0
  151.1204  137.3234  156.4249 C   0  0  1  0  0  0  0  0  0  0  0  0
  150.6033  135.9843  156.9648 C   0  0  0  0  0  0  0  0  0  0  0  0
  149.6260  136.2585  157.9545 O   0  0  0  0  0  0  0  0  0  0  0  0
  148.6462  135.3724  158.2085 C   0  0  0  0  0  0  0  0  0  0  0  0
  148.1906  134.5970  157.3657 O   0  0  0  0  0  0  0  0  0  0  0  0
  148.1679  135.4324  159.6201 C   0  0  0  0  0  0  0  0  0  0  0  0
  147.7220  134.2482  160.2522 C   0  0  0  0  0  0  0  0  0  0  0  0
  147.2612  134.2753  161.5830 C   0  0  0  0  0  0  0  0  0  0  0  0
  147.2420  135.4868  162.2983 C   0  0  0  0  0  0  0  0  0  0  0  0
  147.6846  136.6715  161.6816 C   0  0  0  0  0  0  0  0  0  0  0  0
  148.1449  136.6468  160.3506 C   0  0  0  0  0  0  0  0  0  0  0  0
  151.8190  137.2827  155.0643 C   0  0  1  0  0  0  0  0  0  0  0  0
  151.1255  136.4391  154.1627 O   0  0  0  0  0  0  0  0  0  0  0  0
  151.7377  138.7367  154.6141 C   0  0  2  0  0  0  0  0  0  0  0  0
  152.9207  139.4154  155.0015 O   0  0  0  0  0  0  0  0  0  0  0  0
  150.1259  141.7234  155.5720 C   0  0  0  0  0  0  0  0  0  0  0  0
  149.5112  141.7542  154.5064 O   0  0  0  0  0  0  0  0  0  0  0  0
  150.3199  142.8932  156.3035 N   0  0  0  0  0  0  0  0  0  0  0  0
  151.0038  142.9883  157.5176 C   0  0  0  0  0  0  0  0  0  0  0  0
  151.1104  144.0817  158.0705 O   0  0  0  0  0  0  0  0  0  0  0  0
  149.9338  143.7453  155.9240 H   0  0  0  0  0  0  0  0  0  0  0  0
  152.6391  140.7468  159.6310 H   0  0  0  0  0  0  0  0  0  0  0  0
  151.6609  142.1200  160.1439 H   0  0  0  0  0  0  0  0  0  0  0  0
  153.1752  142.3874  159.2714 H   0  0  0  0  0  0  0  0  0  0  0  0
  151.7662  139.6752  157.7222 H   0  0  0  0  0  0  0  0  0  0  0  0
  149.6291  139.4396  154.6488 H   0  0  0  0  0  0  0  0  0  0  0  0
  151.8151  137.7579  157.1457 H   0  0  0  0  0  0  0  0  0  0  0  0
  150.1842  135.3781  156.1603 H   0  0  0  0  0  0  0  0  0  0  0  0
  151.4194  135.4209  157.4189 H   0  0  0  0  0  0  0  0  0  0  0  0
  147.7261  133.3062  159.7227 H   0  0  0  0  0  0  0  0  0  0  0  0
  146.9211  133.3650  162.0545 H   0  0  0  0  0  0  0  0  0  0  0  0
  146.8875  135.5074  163.3183 H   0  0  0  0  0  0  0  0  0  0  0  0
  147.6711  137.6021  162.2296 H   0  0  0  0  0  0  0  0  0  0  0  0
  148.4763  137.5750  159.9079 H   0  0  0  0  0  0  0  0  0  0  0  0
  152.8456  136.9217  155.1430 H   0  0  0  0  0  0  0  0  0  0  0  0
  151.5028  136.5413  153.3023 H   0  0  0  0  0  0  0  0  0  0  0  0
  151.6211  138.8344  153.5338 H   0  0  0  0  0  0  0  0  0  0  0  0
  153.2745  139.8520  154.2414 H   0  0  0  0  0  0  0  0  0  0  0  0
  1  2  1  0  0  0  0
  1 28  1  0  0  0  0
  1 29  1  0  0  0  0
  1 30  1  0  0  0  0
  2 25  1  0  0  0  0
  2  3  2  0  0  0  0
  3  4  1  0  0  0  0
  3 31  1  0  0  0  0
  4  5  1  0  0  0  0
  4 22  1  0  0  0  0
  5 20  1  0  0  0  0
  5  6  1  0  0  0  0
  5 32  1  0  0  0  0
  6  7  1  0  0  0  0
  7  8  1  0  0  0  0
  7 18  1  0  0  0  0
  7 33  1  0  0  0  0
  8  9  1  0  0  0  0
  8 34  1  0  0  0  0
  8 35  1  0  0  0  0
  9 10  1  0  0  0  0
 10 11  2  0  0  0  0
 10 12  1  0  0  0  0
 12 17  1  0  0  0  0
 12 13  2  0  0  0  0
 13 14  1  0  0  0  0
 13 36  1  0  0  0  0
 14 15  2  0  0  0  0
 14 37  1  0  0  0  0
 15 16  1  0  0  0  0
 15 38  1  0  0  0  0
 16 17  2  0  0  0  0
 16 39  1  0  0  0  0
 17 40  1  0  0  0  0
 18 19  1  0  0  0  0
 18 20  1  0  0  0  0
 18 41  1  0  0  0  0
 19 42  1  0  0  0  0
 20 21  1  0  0  0  0
 20 43  1  0  0  0  0
 21 44  1  0  0  0  0
 22 23  2  0  0  0  0
 22 24  1  0  0  0  0
 24 27  1  0  0  0  0
 24 25  1  0  0  0  0
 25 26  2  0  0  0  0
M  END
> <s_m_source_file>
AV-unprocessed.smi

> <i_m_source_file_index>
101

> <i_lp_mmshare_version>
43012

> <i_f3d_flags>
0

> <s_epik_input>
Tz1jMVtuSF1jKD1PKW4oW2NIXWMxW0NIM10pW0NAQEhdMk9bQ0BIXShbQ0BASF0oW09IXSlbQ0BIXTJbT0hdKVtDSDJdT0MoPU8pYzNbY0hdW2NIXVtjSF1bY0hdW2NIXTM=

> <s_epik_cmdline>
J2VwaWtfcHl0aG9uJywgJy1waCcsICc3LjAnLCAnLXRuJywgJzgnLCAnLW1hJywgJzIwMCcsICctbWV0YWxfYmluZGluZycsICctaW1hZScsICc8aW5maWxlLm1hZT4nLCAnLW9tYWUnLCAnPG91dGZpbGUubWFlPic=

> <r_lp_tautomer_probability>
0.999537

> <r_epik_Ionization_Penalty>
0.00263537

> <r_epik_Ionization_Penalty_Charging>
0.00263428

> <r_epik_Ionization_Penalty_Neutral>
1.09111e-06

> <r_epik_State_Penalty>
0.00183335

> <r_epik_Charging_Adjusted_Penalty>
0.00446763

> <i_epik_Tot_Q>
0

> <i_epik_Tot_abs_Q>
0

> <r_epik_Metal_State_Penalty>
1.00528

> <b_epik_Metal_Only>
0

> <s_epik_Chemistry_Notes>
This compound has an ester and may undergo hydrolysis at high or low pH. This compound contains an acetal/aminal-like group ( X-CH(R)-Y where X, Y are N, S, or O) that may be acid/base labile, releasing an aldehyde.

> <s_lp_Force_Field>
OPLS_2005

> <r_lp_Energy>
37.3052

> <b_lp_Chiralities_Consistent>
1

> <s_lp_Variant>
AV-unprocessed.smi:101-9

> <Gold.Version>
5.8.1

> <Gold.Id.Protein>
6NUR|6NUR_protein|mol2

> <Gold.PLP.Fitness>
48.3329

> <Gold.PLP.PLP>
-43.1927

> <Gold.PLP.part.hbond>
-7.1542

> <Gold.PLP.part.metal>
0.0000

> <Gold.PLP.part.buried>
-2.2742

> <Gold.PLP.part.nonpolar>
-34.4210

> <Gold.PLP.part.repulsive>
0.4250

> <Gold.PLP.ligand.clash>
0.0000

> <Gold.PLP.ligand.torsion>
1.4651

> <Gold.PLP.Chemscore.Hbond>
2.6428

> <Gold.PLP.Chemscore.CHOScore>
0.0000

> <Gold.PLP.Chemscore.Metal>
0.0000

> <Gold.Chemscore.Hbonds>
donor molecule, donor type, donor heavy atom, donor atom, acceptor molecule, acceptor atom, score
      L1  H    19    42       P1  7949  0.78
      L1  H    24    27       P1  8028  0.80
      P1  H  7997  8008       L1    21  0.68
      P1  H  8011  8017       L1    23  0.17

> <Gold.PLP.Chemscore.Internal.Correction>
0.1420

> <Gold.Rescore>
     Score         DG    S(hbond)    S(metal)    S(lipo)     H(rot)  DE(clash)    DE(int)     intcor
     10.02     -12.86       1.76        0.00      85.44       3.32       0.54       2.29       ----

> <Gold.Chemscore.Fitness>
10.0193

> <Gold.Chemscore.DG>
-12.8558

> <Gold.Chemscore.ZeroCoef>
-5.4800

> <Gold.Chemscore.Hbond>
1.7579

> <Gold.Chemscore.Metal>
0.0000

> <Gold.Chemscore.Lipo>
85.4384

> <Gold.Chemscore.Internal_Hbond>
0.0000

> <Gold.Chemscore.DEClash>
0.5442

> <Gold.Chemscore.DEInternal>
2.2923

> <Gold.Chemscore.Rot>
3.3172

> <Gold.Chemscore.Internal.Correction>
   9.000000E+99

> <Gold.Chemscore.Hbonds>
donor molecule, donor type, donor heavy atom, donor atom, acceptor molecule, acceptor atom, score
      L1  H    19    42       P1  7949  0.68
      L1  H    24    27       P1  8028  0.77
      P1  H  7997  8008       L1    21  0.06
      P1  H  8011  8017       L1    23  0.16

> <Gold.Chemscore.Hbond.Weighted>
-5.8715

> <Gold.Chemscore.Metal.Weighted>
-0.0000

> <Gold.Chemscore.Lipo.Weighted>
-9.9963

> <Gold.Chemscore.Internal_Hbond.Weighted>
0.0000

> <Gold.Chemscore.DEClash.Weighted>
0.5442

> <Gold.Chemscore.DEInternal.Weighted>
2.2923

> <Gold.Chemscore.Rot.Weighted>
8.4920

> <Gold.Chemscore.Internal.Correction.Weighted>
   9.000000E+99

> <Gold.Protein.RotatedTorsions>
[ 6907 6896 6895 6894 ] final  143.35 input  -60.11 | X-H torsion
[ 7974 7965 7964 7962 ] final  -22.71 input  175.53 | X-H torsion
[ 8008 7997 7996 7995 ] final  -39.81 input   59.86 | X-H torsion
[ 10167 10162 10161 10158 ] final  -98.23 input  -65.29 | X-H torsion
[ 10718 10713 10712 10709 ] final  161.03 input   66.30 | X-H torsion
[ 10763 10752 10751 10750 ] final  152.41 input  -60.55 | X-H torsion
[ 11005 11000 10999 10996 ] final   71.57 input  -57.11 | X-H torsion

> <Gold.Protein.ActiveResidues>
 VAL166  LYS551  ARG553  GLY616  TRP617  ASP618  TYR619  PRO620  LYS621  CYS622 
 ASP623  PHE694  ASN695  SER759  ASP760  ASP761  ALA762  ILE779  LEU786  VAL792 
 PHE793  MET794  SER795  GLU796  ALA797  LYS798  CYS799  TRP800  GLU811  SER814 

> <Gold.Protein.RotatedAtoms>
  152.2074  133.4885  159.5090 H   0  0  0  0  0  0  0  0  0  0  0  0  # atno 6907 bound_to 6896
  150.6982  134.1512  159.4150 H   0  0  0  0  0  0  0  0  0  0  0  0  # atno 6908 bound_to 6896
  151.9431  135.0204  160.0588 H   0  0  0  0  0  0  0  0  0  0  0  0  # atno 6909 bound_to 6896
  146.1659  140.4516  142.8552 H   0  0  0  0  0  0  0  0  0  0  0  0  # atno 7974 bound_to 7965
  154.4019  140.1542  156.2924 H   0  0  0  0  0  0  0  0  0  0  0  0  # atno 8008 bound_to 7997
  155.8773  140.3445  155.5841 H   0  0  0  0  0  0  0  0  0  0  0  0  # atno 8009 bound_to 7997
  155.7707  140.0830  157.2100 H   0  0  0  0  0  0  0  0  0  0  0  0  # atno 8010 bound_to 7997
  140.2751  143.3318  152.0496 H   0  0  0  0  0  0  0  0  0  0  0  0  # atno 10167 bound_to 10162
  157.1422  131.0543  151.2321 H   0  0  0  0  0  0  0  0  0  0  0  0  # atno 10718 bound_to 10713
  154.1196  135.2833  155.3211 H   0  0  0  0  0  0  0  0  0  0  0  0  # atno 10763 bound_to 10752
  154.6432  135.5395  153.7817 H   0  0  0  0  0  0  0  0  0  0  0  0  # atno 10764 bound_to 10752
  153.0317  135.6491  154.1351 H   0  0  0  0  0  0  0  0  0  0  0  0  # atno 10765 bound_to 10752
  139.9537  134.7182  156.0803 H   0  0  0  0  0  0  0  0  0  0  0  0  # atno 11005 bound_to 11000
  144.8092  140.6356  143.6426 LP  0  0  0  0  0  0  0  0  0  0  0  0  # atno 17320 bound_to 7965
  145.4467  139.1528  143.3940 LP  0  0  0  0  0  0  0  0  0  0  0  0  # atno 17321 bound_to 7965
  139.4978  144.6630  151.6421 LP  0  0  0  0  0  0  0  0  0  0  0  0  # atno 17342 bound_to 10162
  140.5858  143.9867  150.6295 LP  0  0  0  0  0  0  0  0  0  0  0  0  # atno 17343 bound_to 10162
  157.4296  130.7483  149.6979 LP  0  0  0  0  0  0  0  0  0  0  0  0  # atno 17370 bound_to 10713
  155.9786  130.4049  150.3637 LP  0  0  0  0  0  0  0  0  0  0  0  0  # atno 17371 bound_to 10713
  141.1204  133.6614  156.3201 LP  0  0  0  0  0  0  0  0  0  0  0  0  # atno 17394 bound_to 11000
  140.5660  134.5887  157.5446 LP  0  0  0  0  0  0  0  0  0  0  0  0  # atno 17395 bound_to 11000

$$$$
