AV-unprocessed.smi:2672|AV-procd|sdf|10354|dock6
  -GOLD-   2272014383D 1   1.00000     0.00000
 Structure written by MMmdl.
 36 36  0  0  0  0  0  0  0  0  2 V2000
  152.0978  142.3390  159.0147 C   0  0  0  0  0  0  0  0  0  0  0  0
  151.7259  141.4351  157.8489 C   0  0  0  0  0  0  0  0  0  0  0  0
  150.8535  141.8785  156.9235 C   0  0  0  0  0  0  0  0  0  0  0  0
  150.4302  141.0705  155.7861 C   0  0  0  0  0  0  0  0  0  0  0  0
  149.6361  141.5079  154.9512 O   0  0  0  0  0  0  0  0  0  0  0  0
  150.9477  139.8059  155.7211 N   0  0  0  0  0  0  0  0  0  0  0  0
  150.4242  138.9037  154.6660 C   0  0  0  0  0  0  0  0  0  0  0  0
  148.8924  138.7769  154.6516 C   0  0  0  0  0  0  0  0  0  0  0  0
  148.2894  138.2290  155.5753 O   0  0  0  0  0  0  0  0  0  0  0  0
  148.2757  139.3048  153.5833 N   0  0  0  0  0  0  0  0  0  0  0  0
  146.8338  139.3110  153.3538 C   0  0  0  0  0  0  0  0  0  0  0  0
  146.5180  138.5295  152.0718 C   0  0  0  0  0  0  0  0  0  0  0  0
  146.3052  140.7526  153.2825 C   0  0  0  0  0  0  0  0  0  0  0  0
  151.9209  139.3360  156.6549 C   0  0  0  0  0  0  0  0  0  0  0  0
  152.5193  137.9478  156.3909 C   0  0  0  0  0  0  0  0  0  0  0  0
  152.3061  140.1052  157.7060 C   0  0  0  0  0  0  0  0  0  0  0  0
  153.3522  139.6087  158.7563 C   0  0  0  0  0  0  0  0  0  0  0  0
  153.1572  139.9736  159.9361 O   0  0  0  0  0  0  0  0  0  0  0  0
  154.2813  138.8997  158.3117 O   0  5  0  0  0  0  0  0  0  0  0  0
  151.5462  143.2792  158.9912 H   0  0  0  0  0  0  0  0  0  0  0  0
  153.1620  142.5743  158.9880 H   0  0  0  0  0  0  0  0  0  0  0  0
  151.8772  141.8478  159.9630 H   0  0  0  0  0  0  0  0  0  0  0  0
  150.4322  142.8679  157.0247 H   0  0  0  0  0  0  0  0  0  0  0  0
  150.7749  139.1953  153.6766 H   0  0  0  0  0  0  0  0  0  0  0  0
  150.8384  137.9001  154.7793 H   0  0  0  0  0  0  0  0  0  0  0  0
  148.8503  139.7372  152.8747 H   0  0  0  0  0  0  0  0  0  0  0  0
  146.3415  138.8004  154.1835 H   0  0  0  0  0  0  0  0  0  0  0  0
  145.4432  138.4890  151.8925 H   0  0  0  0  0  0  0  0  0  0  0  0
  146.8783  137.5024  152.1386 H   0  0  0  0  0  0  0  0  0  0  0  0
  146.9832  138.9908  151.2000 H   0  0  0  0  0  0  0  0  0  0  0  0
  145.2276  140.7658  153.1176 H   0  0  0  0  0  0  0  0  0  0  0  0
  146.7734  141.3074  152.4687 H   0  0  0  0  0  0  0  0  0  0  0  0
  146.5001  141.2935  154.2093 H   0  0  0  0  0  0  0  0  0  0  0  0
  153.5308  137.8566  156.7842 H   0  0  0  0  0  0  0  0  0  0  0  0
  152.6176  137.7159  155.3322 H   0  0  0  0  0  0  0  0  0  0  0  0
  151.9087  137.1789  156.8644 H   0  0  0  0  0  0  0  0  0  0  0  0
  1  2  1  0  0  0  0
  1 20  1  0  0  0  0
  1 21  1  0  0  0  0
  1 22  1  0  0  0  0
  2 16  1  0  0  0  0
  2  3  2  0  0  0  0
  3  4  1  0  0  0  0
  3 23  1  0  0  0  0
  4  5  2  0  0  0  0
  4  6  1  0  0  0  0
  6  7  1  0  0  0  0
  6 14  1  0  0  0  0
  7  8  1  0  0  0  0
  7 24  1  0  0  0  0
  7 25  1  0  0  0  0
  8  9  2  0  0  0  0
  8 10  1  0  0  0  0
 10 11  1  0  0  0  0
 10 26  1  0  0  0  0
 11 12  1  0  0  0  0
 11 13  1  0  0  0  0
 11 27  1  0  0  0  0
 12 28  1  0  0  0  0
 12 29  1  0  0  0  0
 12 30  1  0  0  0  0
 13 31  1  0  0  0  0
 13 32  1  0  0  0  0
 13 33  1  0  0  0  0
 14 15  1  0  0  0  0
 14 16  2  0  0  0  0
 15 34  1  0  0  0  0
 15 35  1  0  0  0  0
 15 36  1  0  0  0  0
 16 17  1  0  0  0  0
 17 18  2  0  0  0  0
 17 19  1  0  0  0  0
M  CHG  1  19  -1
M  END
> <s_m_source_file>
AV-unprocessed.smi

> <i_m_source_file_index>
2672

> <i_lp_mmshare_version>
43012

> <i_f3d_flags>
0

> <s_epik_input>
W0NIM11jMVtjSF1jKD1PKW4oYyhbQ0gzXSljMUMoPU8pW09IXSlbQ0gyXUMoPU8pW05IXVtDSF0oW0NIM10pW0NIM10=

> <s_epik_cmdline>
J2VwaWtfcHl0aG9uJywgJy1waCcsICc3LjAnLCAnLXRuJywgJzgnLCAnLW1hJywgJzIwMCcsICctbWV0YWxfYmluZGluZycsICctaW1hZScsICc8aW5maWxlLm1hZT4nLCAnLW9tYWUnLCAnPG91dGZpbGUubWFlPic=

> <r_lp_tautomer_probability>
1

> <r_epik_Ionization_Penalty>
0.000277152

> <r_epik_Ionization_Penalty_Charging>
0.000277132

> <r_epik_Ionization_Penalty_Neutral>
2.06705e-08

> <r_epik_State_Penalty>
-0

> <r_epik_Charging_Adjusted_Penalty>
0.000277132

> <i_epik_Tot_Q>
-1

> <i_epik_Tot_abs_Q>
1

> <r_epik_Metal_State_Penalty>
-0

> <b_epik_Metal_Only>
0

> <s_lp_Force_Field>
OPLS_2005

> <r_lp_Energy>
18.8997

> <b_lp_Chiralities_Consistent>
1

> <s_lp_Variant>
AV-unprocessed.smi:2672-1

> <Gold.Version>
5.8.1

> <Gold.Id.Protein>
6NUR|6NUR_protein|mol2

> <Gold.PLP.Fitness>
39.9915

> <Gold.PLP.PLP>
-31.2188

> <Gold.PLP.part.hbond>
-3.2187

> <Gold.PLP.part.metal>
0.0000

> <Gold.PLP.part.buried>
3.1714

> <Gold.PLP.part.nonpolar>
-30.3265

> <Gold.PLP.part.repulsive>
0.3298

> <Gold.PLP.ligand.clash>
0.0000

> <Gold.PLP.ligand.torsion>
0.6088

> <Gold.PLP.Chemscore.Hbond>
2.9920

> <Gold.PLP.Chemscore.CHOScore>
0.0000

> <Gold.PLP.Chemscore.Metal>
0.0000

> <Gold.Chemscore.Hbonds>
donor molecule, donor type, donor heavy atom, donor atom, acceptor molecule, acceptor atom, score
      L1  H    10    26       P1  7957  1.00
      P1  H  7997  8008       L1    19  2.00

> <Gold.PLP.Chemscore.Internal.Correction>
1.0143

> <Gold.Rescore>
     Score         DG    S(hbond)    S(metal)    S(lipo)     H(rot)  DE(clash)    DE(int)     intcor
     10.63     -15.90       1.75        0.00      71.96       1.50       0.63       4.64       ----

> <Gold.Chemscore.Fitness>
10.6267

> <Gold.Chemscore.DG>
-15.8971

> <Gold.Chemscore.ZeroCoef>
-5.4800

> <Gold.Chemscore.Hbond>
1.7464

> <Gold.Chemscore.Metal>
0.0000

> <Gold.Chemscore.Lipo>
71.9570

> <Gold.Chemscore.Internal_Hbond>
0.0000

> <Gold.Chemscore.DEClash>
0.6297

> <Gold.Chemscore.DEInternal>
4.6406

> <Gold.Chemscore.Rot>
1.4980

> <Gold.Chemscore.Internal.Correction>
   9.000000E+99

> <Gold.Chemscore.Hbonds>
donor molecule, donor type, donor heavy atom, donor atom, acceptor molecule, acceptor atom, score
      L1  H    10    26       P1  7957  0.99
      P1  H  7997  8008       L1    19  0.30

> <Gold.Chemscore.Hbond.Weighted>
-5.8331

> <Gold.Chemscore.Metal.Weighted>
-0.0000

> <Gold.Chemscore.Lipo.Weighted>
-8.4190

> <Gold.Chemscore.Internal_Hbond.Weighted>
0.0000

> <Gold.Chemscore.DEClash.Weighted>
0.6297

> <Gold.Chemscore.DEInternal.Weighted>
4.6406

> <Gold.Chemscore.Rot.Weighted>
3.8350

> <Gold.Chemscore.Internal.Correction.Weighted>
   9.000000E+99

> <Gold.Protein.RotatedTorsions>
[ 6907 6896 6895 6894 ] final -111.78 input  -60.11 | X-H torsion
[ 7974 7965 7964 7962 ] final -118.91 input  175.53 | X-H torsion
[ 8008 7997 7996 7995 ] final -118.48 input   59.86 | X-H torsion
[ 10167 10162 10161 10158 ] final   42.42 input  -65.29 | X-H torsion
[ 10718 10713 10712 10709 ] final  177.30 input   66.30 | X-H torsion
[ 10763 10752 10751 10750 ] final  -32.91 input  -60.55 | X-H torsion
[ 11005 11000 10999 10996 ] final  -61.54 input  -57.11 | X-H torsion

> <Gold.Protein.ActiveResidues>
 VAL166  LYS551  ARG553  GLY616  TRP617  ASP618  TYR619  PRO620  LYS621  CYS622 
 ASP623  PHE694  ASN695  SER759  ASP760  ASP761  ALA762  ILE779  LEU786  VAL792 
 PHE793  MET794  SER795  GLU796  ALA797  LYS798  CYS799  TRP800  GLU811  SER814 

> <Gold.Protein.RotatedAtoms>
  150.7713  133.9185  159.3390 H   0  0  0  0  0  0  0  0  0  0  0  0  # atno 6907 bound_to 6896
  151.7070  135.0918  160.0270 H   0  0  0  0  0  0  0  0  0  0  0  0  # atno 6908 bound_to 6896
  152.3732  133.6409  159.6139 H   0  0  0  0  0  0  0  0  0  0  0  0  # atno 6909 bound_to 6896
  145.0685  140.8342  143.4110 H   0  0  0  0  0  0  0  0  0  0  0  0  # atno 7974 bound_to 7965
  155.1004  140.0396  157.2695 H   0  0  0  0  0  0  0  0  0  0  0  0  # atno 8008 bound_to 7997
  154.6762  140.2623  155.6930 H   0  0  0  0  0  0  0  0  0  0  0  0  # atno 8009 bound_to 7997
  156.2677  140.2787  156.1290 H   0  0  0  0  0  0  0  0  0  0  0  0  # atno 8010 bound_to 7997
  140.3546  144.2306  150.6143 H   0  0  0  0  0  0  0  0  0  0  0  0  # atno 10167 bound_to 10162
  156.9073  130.9898  151.3026 H   0  0  0  0  0  0  0  0  0  0  0  0  # atno 10718 bound_to 10713
  153.8215  135.6874  153.4826 H   0  0  0  0  0  0  0  0  0  0  0  0  # atno 10763 bound_to 10752
  153.1566  135.4596  154.9712 H   0  0  0  0  0  0  0  0  0  0  0  0  # atno 10764 bound_to 10752
  154.7925  135.3307  154.7686 H   0  0  0  0  0  0  0  0  0  0  0  0  # atno 10765 bound_to 10752
  141.1328  133.6631  156.5390 H   0  0  0  0  0  0  0  0  0  0  0  0  # atno 11005 bound_to 11000
  145.1322  139.2625  143.5533 LP  0  0  0  0  0  0  0  0  0  0  0  0  # atno 17320 bound_to 7965
  146.3528  140.0976  142.8609 LP  0  0  0  0  0  0  0  0  0  0  0  0  # atno 17321 bound_to 7965
  140.5186  143.2271  151.8424 LP  0  0  0  0  0  0  0  0  0  0  0  0  # atno 17342 bound_to 10162
  139.4822  144.4864  151.9241 LP  0  0  0  0  0  0  0  0  0  0  0  0  # atno 17343 bound_to 10162
  157.5989  130.8498  149.8771 LP  0  0  0  0  0  0  0  0  0  0  0  0  # atno 17370 bound_to 10713
  156.0553  130.3709  150.1107 LP  0  0  0  0  0  0  0  0  0  0  0  0  # atno 17371 bound_to 10713
  140.4155  134.7234  157.4860 LP  0  0  0  0  0  0  0  0  0  0  0  0  # atno 17394 bound_to 11000
  140.0397  134.6285  155.8997 LP  0  0  0  0  0  0  0  0  0  0  0  0  # atno 17395 bound_to 11000

$$$$
