AV-unprocessed.smi:1033|AV-procd|sdf|4508|dock3
  -GOLD-   22720 2513D 1   1.00000     0.00000
 Structure written by MMmdl.
 57 59  0  0  0  0  0  0  0  0  3 V2000
  152.6576  142.7265  161.6076 C   0  0  0  0  0  0  0  0  0  0  0  0
  152.1001  142.4209  160.2284 C   0  0  0  0  0  0  0  0  0  0  0  0
  152.5142  141.2438  159.5650 C   0  0  0  0  0  0  0  0  0  0  0  0
  152.0204  140.9242  158.2814 C   0  0  0  0  0  0  0  0  0  0  0  0
  152.2850  139.8422  157.4594 N   0  0  0  0  0  0  0  0  0  0  0  0
  151.5265  140.1157  156.4023 C   0  0  0  0  0  0  0  0  0  0  0  0
  150.7931  141.2450  156.4454 N   0  0  0  0  0  0  0  0  0  0  0  0
  149.8980  141.7510  155.4200 C   0  0  0  0  0  0  0  0  0  0  0  0
  149.1567  140.6242  154.6749 C   0  0  2  0  0  0  0  0  0  0  0  0
  150.0302  140.0317  153.7331 O   0  0  0  0  0  0  0  0  0  0  0  0
  147.9160  141.1550  153.9304 C   0  0  0  0  0  0  0  0  0  0  0  0
  147.1005  140.0692  153.3271 N   0  3  2  0  0  0  0  0  0  0  0  0
  147.1647  138.8126  154.1136 C   0  0  0  0  0  0  0  0  0  0  0  0
  146.2383  137.7353  153.5226 C   0  0  0  0  0  0  0  0  0  0  0  0
  146.5557  137.4809  152.0941 N   0  3  1  0  0  0  0  0  0  0  0  0
  145.7464  136.3891  151.4924 C   0  0  0  0  0  0  0  0  0  0  0  0
  145.8374  135.0764  152.2951 C   0  0  1  0  0  0  0  0  0  0  0  0
  144.8605  134.0125  151.7779 C   0  0  0  0  0  0  0  0  0  0  0  0
  147.1489  134.5603  152.1889 O   0  0  0  0  0  0  0  0  0  0  0  0
  146.4899  138.7364  151.3060 C   0  0  0  0  0  0  0  0  0  0  0  0
  147.4138  139.8165  151.8971 C   0  0  0  0  0  0  0  0  0  0  0  0
  151.0930  141.8212  157.6752 C   0  0  0  0  0  0  0  0  0  0  0  0
  150.6746  142.9962  158.3240 C   0  0  0  0  0  0  0  0  0  0  0  0
  151.1781  143.3004  159.6062 C   0  0  0  0  0  0  0  0  0  0  0  0
  150.7219  144.5721  160.2994 C   0  0  0  0  0  0  0  0  0  0  0  0
  153.3244  141.9358  161.9524 H   0  0  0  0  0  0  0  0  0  0  0  0
  151.8505  142.8227  162.3341 H   0  0  0  0  0  0  0  0  0  0  0  0
  153.2229  143.6585  161.5917 H   0  0  0  0  0  0  0  0  0  0  0  0
  153.2184  140.5748  160.0376 H   0  0  0  0  0  0  0  0  0  0  0  0
  151.4995  139.4544  155.5483 H   0  0  0  0  0  0  0  0  0  0  0  0
  149.1821  142.4206  155.8986 H   0  0  0  0  0  0  0  0  0  0  0  0
  150.4741  142.3588  154.7204 H   0  0  0  0  0  0  0  0  0  0  0  0
  148.8693  139.8614  155.3975 H   0  0  0  0  0  0  0  0  0  0  0  0
  149.6136  140.0495  152.8841 H   0  0  0  0  0  0  0  0  0  0  0  0
  147.2898  141.7455  154.6011 H   0  0  0  0  0  0  0  0  0  0  0  0
  148.2524  141.8397  153.1498 H   0  0  0  0  0  0  0  0  0  0  0  0
  148.1939  138.4503  154.1380 H   0  0  0  0  0  0  0  0  0  0  0  0
  146.8725  139.0086  155.1462 H   0  0  0  0  0  0  0  0  0  0  0  0
  146.3423  136.8209  154.1054 H   0  0  0  0  0  0  0  0  0  0  0  0
  145.1971  138.0495  153.6141 H   0  0  0  0  0  0  0  0  0  0  0  0
  144.7088  136.7161  151.4066 H   0  0  0  0  0  0  0  0  0  0  0  0
  146.0870  136.1945  150.4739 H   0  0  0  0  0  0  0  0  0  0  0  0
  145.6245  135.2525  153.3488 H   0  0  0  0  0  0  0  0  0  0  0  0
  143.8288  134.3560  151.8585 H   0  0  0  0  0  0  0  0  0  0  0  0
  144.9437  133.0895  152.3531 H   0  0  0  0  0  0  0  0  0  0  0  0
  145.0487  133.7705  150.7312 H   0  0  0  0  0  0  0  0  0  0  0  0
  147.7604  135.2816  152.1861 H   0  0  0  0  0  0  0  0  0  0  0  0
  146.7834  138.5393  150.2741 H   0  0  0  0  0  0  0  0  0  0  0  0
  145.4597  139.0959  151.2799 H   0  0  0  0  0  0  0  0  0  0  0  0
  147.3048  140.7310  151.3155 H   0  0  0  0  0  0  0  0  0  0  0  0
  148.4556  139.5055  151.8032 H   0  0  0  0  0  0  0  0  0  0  0  0
  149.9740  143.6587  157.8385 H   0  0  0  0  0  0  0  0  0  0  0  0
  150.0385  145.1452  159.6719 H   0  0  0  0  0  0  0  0  0  0  0  0
  151.5762  145.2086  160.5309 H   0  0  0  0  0  0  0  0  0  0  0  0
  150.2044  144.3351  161.2293 H   0  0  0  0  0  0  0  0  0  0  0  0
  147.5166  137.1701  152.0527 H   0  0  0  0  0  0  0  0  0  0  0  0
  146.1412  140.3840  153.3733 H   0  0  0  0  0  0  0  0  0  0  0  0
  1  2  1  0  0  0  0
  1 26  1  0  0  0  0
  1 27  1  0  0  0  0
  1 28  1  0  0  0  0
  2 24  1  0  0  0  0
  2  3  2  0  0  0  0
  3  4  1  0  0  0  0
  3 29  1  0  0  0  0
  4 22  2  0  0  0  0
  4  5  1  0  0  0  0
  5  6  2  0  0  0  0
  6  7  1  0  0  0  0
  6 30  1  0  0  0  0
  7  8  1  0  0  0  0
  7 22  1  0  0  0  0
  8  9  1  0  0  0  0
  8 31  1  0  0  0  0
  8 32  1  0  0  0  0
  9 10  1  0  0  0  0
  9 11  1  0  0  0  0
  9 33  1  0  0  0  0
 10 34  1  0  0  0  0
 11 12  1  0  0  0  0
 11 35  1  0  0  0  0
 11 36  1  0  0  0  0
 12 21  1  0  0  0  0
 12 13  1  0  0  0  0
 12 57  1  0  0  0  0
 13 14  1  0  0  0  0
 13 37  1  0  0  0  0
 13 38  1  0  0  0  0
 14 15  1  0  0  0  0
 14 39  1  0  0  0  0
 14 40  1  0  0  0  0
 15 16  1  0  0  0  0
 15 20  1  0  0  0  0
 15 56  1  0  0  0  0
 16 17  1  0  0  0  0
 16 41  1  0  0  0  0
 16 42  1  0  0  0  0
 17 18  1  0  0  0  0
 17 19  1  0  0  0  0
 17 43  1  0  0  0  0
 18 44  1  0  0  0  0
 18 45  1  0  0  0  0
 18 46  1  0  0  0  0
 19 47  1  0  0  0  0
 20 21  1  0  0  0  0
 20 48  1  0  0  0  0
 20 49  1  0  0  0  0
 21 50  1  0  0  0  0
 21 51  1  0  0  0  0
 22 23  1  0  0  0  0
 23 24  2  0  0  0  0
 23 52  1  0  0  0  0
 24 25  1  0  0  0  0
 25 53  1  0  0  0  0
 25 54  1  0  0  0  0
 25 55  1  0  0  0  0
M  CHG  1  12   1
M  CHG  1  15   1
M  END
> <s_m_source_file>
AV-unprocessed.smi

> <i_m_source_file_index>
1033

> <i_lp_mmshare_version>
43012

> <i_f3d_flags>
0

> <s_epik_input>
W0NIM11jKFtjSF0xKWMoW0NIM10pW2NIXWMoYzEyKW4oW2NIXW4yKVtDSDJdW0NASF0oW09IXSlbQ0gyXU4zW0NIMl1bQ0gyXU4oW0NIMl1bQ0gyXTMpW0NIMl1bQ0BIXShbQ0gzXSlbT0hd

> <s_epik_cmdline>
J2VwaWtfcHl0aG9uJywgJy1waCcsICc3LjAnLCAnLXRuJywgJzgnLCAnLW1hJywgJzIwMCcsICctbWV0YWxfYmluZGluZycsICctaW1hZScsICc8aW5maWxlLm1hZT4nLCAnLW9tYWUnLCAnPG91dGZpbGUubWFlPic=

> <r_epik_Ionization_Penalty>
3.16016

> <r_epik_Ionization_Penalty_Charging>
3.07679

> <r_epik_Ionization_Penalty_Neutral>
0.083365

> <r_epik_State_Penalty>
2.09701

> <r_epik_Charging_Adjusted_Penalty>
5.1738

> <i_epik_Tot_Q>
2

> <i_epik_Tot_abs_Q>
2

> <r_epik_Metal_State_Penalty>
2.02534

> <b_epik_Metal_Only>
0

> <s_lp_Force_Field>
OPLS_2005

> <r_lp_Energy>
26.7324

> <b_lp_Chiralities_Consistent>
1

> <s_lp_Variant>
AV-unprocessed.smi:1033-19

> <Gold.Version>
5.8.1

> <Gold.Id.Protein>
6NUR|6NUR_protein|mol2

> <Gold.PLP.Fitness>
65.6995

> <Gold.PLP.PLP>
-49.8697

> <Gold.PLP.part.hbond>
-5.0000

> <Gold.PLP.part.metal>
0.0000

> <Gold.PLP.part.buried>
0.1050

> <Gold.PLP.part.nonpolar>
-44.9330

> <Gold.PLP.part.repulsive>
0.0726

> <Gold.PLP.ligand.clash>
0.0000

> <Gold.PLP.ligand.torsion>
0.9763

> <Gold.PLP.Chemscore.Hbond>
5.8320

> <Gold.PLP.Chemscore.CHOScore>
0.0000

> <Gold.PLP.Chemscore.Metal>
0.0000

> <Gold.Chemscore.Hbonds>
donor molecule, donor type, donor heavy atom, donor atom, acceptor molecule, acceptor atom, score
      L1  H    10    34       P1  7957  1.00
      L1  H    15    56       P1  7948  2.00
      L1  H    19    47       P1  7948  0.99
      P1  H  7989  7998       L1    10  0.78
      P1  H  7997  8009       L1     5  0.44

> <Gold.PLP.Chemscore.Internal.Correction>
0.2862

> <Gold.Rescore>
     Score         DG    S(hbond)    S(metal)    S(lipo)     H(rot)  DE(clash)    DE(int)     intcor
     23.71     -26.53       4.10        0.00     131.43       3.14       1.70       1.11       ----

> <Gold.Chemscore.Fitness>
23.7148

> <Gold.Chemscore.DG>
-26.5313

> <Gold.Chemscore.ZeroCoef>
-5.4800

> <Gold.Chemscore.Hbond>
4.1040

> <Gold.Chemscore.Metal>
0.0000

> <Gold.Chemscore.Lipo>
131.4301

> <Gold.Chemscore.Internal_Hbond>
0.0000

> <Gold.Chemscore.DEClash>
1.7026

> <Gold.Chemscore.DEInternal>
1.1140

> <Gold.Chemscore.Rot>
3.1380

> <Gold.Chemscore.Internal.Correction>
   9.000000E+99

> <Gold.Chemscore.Hbonds>
donor molecule, donor type, donor heavy atom, donor atom, acceptor molecule, acceptor atom, score
      L1  H    10    34       P1  7957  0.98
      L1  H    15    56       P1  7948  1.00
      L1  H    19    47       P1  7948  0.91
      P1  H  7989  7998       L1    10  0.32
      P1  H  7997  8009       L1     5  0.12

> <Gold.Chemscore.Hbond.Weighted>
-13.7072

> <Gold.Chemscore.Metal.Weighted>
-0.0000

> <Gold.Chemscore.Lipo.Weighted>
-15.3773

> <Gold.Chemscore.Internal_Hbond.Weighted>
0.0000

> <Gold.Chemscore.DEClash.Weighted>
1.7026

> <Gold.Chemscore.DEInternal.Weighted>
1.1140

> <Gold.Chemscore.Rot.Weighted>
8.0332

> <Gold.Chemscore.Internal.Correction.Weighted>
   9.000000E+99

> <Gold.Protein.RotatedTorsions>
[ 6907 6896 6895 6894 ] final   21.78 input  -60.11 | X-H torsion
[ 7974 7965 7964 7962 ] final  103.08 input  175.53 | X-H torsion
[ 8008 7997 7996 7995 ] final  173.37 input   59.86 | X-H torsion
[ 10167 10162 10161 10158 ] final  102.30 input  -65.29 | X-H torsion
[ 10718 10713 10712 10709 ] final  111.24 input   66.30 | X-H torsion
[ 10763 10752 10751 10750 ] final -105.86 input  -60.55 | X-H torsion
[ 11005 11000 10999 10996 ] final  -98.44 input  -57.11 | X-H torsion

> <Gold.Protein.ActiveResidues>
 VAL166  LYS551  ARG553  GLY616  TRP617  ASP618  TYR619  PRO620  LYS621  CYS622 
 ASP623  PHE694  ASN695  SER759  ASP760  ASP761  ALA762  ILE779  LEU786  VAL792 
 PHE793  MET794  SER795  GLU796  ALA797  LYS798  CYS799  TRP800  GLU811  SER814 

> <Gold.Protein.RotatedAtoms>
  151.9171  135.0314  160.0518 H   0  0  0  0  0  0  0  0  0  0  0  0  # atno 6907 bound_to 6896
  152.2231  133.4994  159.5182 H   0  0  0  0  0  0  0  0  0  0  0  0  # atno 6908 bound_to 6896
  150.7005  134.1233  159.4085 H   0  0  0  0  0  0  0  0  0  0  0  0  # atno 6909 bound_to 6896
  145.3507  139.2440  143.3560 H   0  0  0  0  0  0  0  0  0  0  0  0  # atno 7974 bound_to 7965
  156.1082  140.1462  156.9375 H   0  0  0  0  0  0  0  0  0  0  0  0  # atno 8008 bound_to 7997
  154.4749  140.0898  156.7280 H   0  0  0  0  0  0  0  0  0  0  0  0  # atno 8009 bound_to 7997
  155.4642  140.3439  155.4319 H   0  0  0  0  0  0  0  0  0  0  0  0  # atno 8010 bound_to 7997
  139.7362  144.7023  151.0646 H   0  0  0  0  0  0  0  0  0  0  0  0  # atno 10167 bound_to 10162
  157.6454  131.0947  150.6720 H   0  0  0  0  0  0  0  0  0  0  0  0  # atno 10718 bound_to 10713
  154.7974  135.4733  154.0194 H   0  0  0  0  0  0  0  0  0  0  0  0  # atno 10763 bound_to 10752
  153.1726  135.6827  153.8594 H   0  0  0  0  0  0  0  0  0  0  0  0  # atno 10764 bound_to 10752
  153.8171  135.3209  155.3384 H   0  0  0  0  0  0  0  0  0  0  0  0  # atno 10765 bound_to 10752
  141.1344  133.8245  157.0839 H   0  0  0  0  0  0  0  0  0  0  0  0  # atno 11005 bound_to 11000
  146.2969  140.4122  142.8718 LP  0  0  0  0  0  0  0  0  0  0  0  0  # atno 17320 bound_to 7965
  144.8720  140.7285  143.6041 LP  0  0  0  0  0  0  0  0  0  0  0  0  # atno 17321 bound_to 7965
  140.7779  143.4982  150.9806 LP  0  0  0  0  0  0  0  0  0  0  0  0  # atno 17342 bound_to 10162
  139.8670  143.7241  152.3169 LP  0  0  0  0  0  0  0  0  0  0  0  0  # atno 17343 bound_to 10162
  156.7038  130.4631  149.5566 LP  0  0  0  0  0  0  0  0  0  0  0  0  # atno 17370 bound_to 10713
  156.1777  130.6478  151.0914 LP  0  0  0  0  0  0  0  0  0  0  0  0  # atno 17371 bound_to 10713
  140.0434  134.9843  157.1004 LP  0  0  0  0  0  0  0  0  0  0  0  0  # atno 17394 bound_to 11000
  140.4100  134.1991  155.7163 LP  0  0  0  0  0  0  0  0  0  0  0  0  # atno 17395 bound_to 11000

$$$$
