AV-unprocessed.smi:1872|AV-procd|sdf|7604|dock1
  -GOLD-   22720 9323D 1   1.00000     0.00000
 Structure written by MMmdl.
 39 41  0  0  0  0  0  0  0  0  1 V2000
  150.0026  141.0743  155.4362 C   0  0  0  0  0  0  0  0  0  0  0  0
  150.7735  141.5390  156.6312 C   0  0  0  0  0  0  0  0  0  0  0  0
  150.9632  142.8315  156.8964 N   0  0  0  0  0  0  0  0  0  0  0  0
  151.7009  142.7957  158.0643 C   0  0  0  0  0  0  0  0  0  0  0  0
  152.2176  143.8459  158.8568 C   0  0  0  0  0  0  0  0  0  0  0  0
  152.9523  143.5625  160.0267 C   0  0  0  0  0  0  0  0  0  0  0  0
  153.1812  142.2281  160.4202 C   0  0  0  0  0  0  0  0  0  0  0  0
  152.6752  141.1669  159.6453 C   0  0  0  0  0  0  0  0  0  0  0  0
  151.9415  141.4549  158.4788 C   0  0  0  0  0  0  0  0  0  0  0  0
  151.3201  140.6673  157.5140 N   0  0  0  0  0  0  0  0  0  0  0  0
  151.2754  139.2118  157.4810 C   0  0  0  0  0  0  0  0  0  0  0  0
  151.6889  138.6277  156.1151 C   0  0  1  0  0  0  0  0  0  0  0  0
  153.0923  138.7102  155.9548 O   0  0  0  0  0  0  0  0  0  0  0  0
  151.1680  137.2084  155.9486 C   0  0  0  0  0  0  0  0  0  0  0  0
  151.7271  136.1620  156.7110 C   0  0  0  0  0  0  0  0  0  0  0  0
  151.2621  134.8422  156.5547 C   0  0  0  0  0  0  0  0  0  0  0  0
  150.2414  134.5449  155.6295 C   0  0  0  0  0  0  0  0  0  0  0  0
  149.8236  133.2369  155.5316 O   0  0  0  0  0  0  0  0  0  0  0  0
  149.8449  132.6188  154.3206 C   0  0  0  0  0  0  0  0  0  0  0  0
  149.7228  131.2797  154.4875 F   0  0  0  0  0  0  0  0  0  0  0  0
  148.8024  133.0329  153.5590 F   0  0  0  0  0  0  0  0  0  0  0  0
  149.6752  135.5972  154.8705 C   0  0  0  0  0  0  0  0  0  0  0  0
  150.1403  136.9172  155.0254 C   0  0  0  0  0  0  0  0  0  0  0  0
  149.6644  141.9259  154.8448 H   0  0  0  0  0  0  0  0  0  0  0  0
  149.1263  140.5056  155.7480 H   0  0  0  0  0  0  0  0  0  0  0  0
  150.6264  140.4455  154.8016 H   0  0  0  0  0  0  0  0  0  0  0  0
  152.0481  144.8715  158.5637 H   0  0  0  0  0  0  0  0  0  0  0  0
  153.3426  144.3730  160.6247 H   0  0  0  0  0  0  0  0  0  0  0  0
  153.7463  142.0195  161.3168 H   0  0  0  0  0  0  0  0  0  0  0  0
  152.8514  140.1436  159.9418 H   0  0  0  0  0  0  0  0  0  0  0  0
  151.9261  138.8272  158.2674 H   0  0  0  0  0  0  0  0  0  0  0  0
  150.2674  138.8874  157.7408 H   0  0  0  0  0  0  0  0  0  0  0  0
  151.2561  139.2386  155.3226 H   0  0  0  0  0  0  0  0  0  0  0  0
  153.3430  138.1632  155.2261 H   0  0  0  0  0  0  0  0  0  0  0  0
  152.5173  136.3675  157.4183 H   0  0  0  0  0  0  0  0  0  0  0  0
  151.6964  134.0497  157.1463 H   0  0  0  0  0  0  0  0  0  0  0  0
  150.7791  132.8035  153.7895 H   0  0  0  0  0  0  0  0  0  0  0  0
  148.8791  135.4065  154.1663 H   0  0  0  0  0  0  0  0  0  0  0  0
  149.7029  137.7057  154.4304 H   0  0  0  0  0  0  0  0  0  0  0  0
  1  2  1  0  0  0  0
  1 24  1  0  0  0  0
  1 25  1  0  0  0  0
  1 26  1  0  0  0  0
  2 10  1  0  0  0  0
  2  3  2  0  0  0  0
  3  4  1  0  0  0  0
  4  9  2  0  0  0  0
  4  5  1  0  0  0  0
  5  6  2  0  0  0  0
  5 27  1  0  0  0  0
  6  7  1  0  0  0  0
  6 28  1  0  0  0  0
  7  8  2  0  0  0  0
  7 29  1  0  0  0  0
  8  9  1  0  0  0  0
  8 30  1  0  0  0  0
  9 10  1  0  0  0  0
 10 11  1  0  0  0  0
 11 12  1  0  0  0  0
 11 31  1  0  0  0  0
 11 32  1  0  0  0  0
 12 13  1  0  0  0  0
 12 14  1  0  0  0  0
 12 33  1  0  0  0  0
 13 34  1  0  0  0  0
 14 23  1  0  0  0  0
 14 15  2  0  0  0  0
 15 16  1  0  0  0  0
 15 35  1  0  0  0  0
 16 17  2  0  0  0  0
 16 36  1  0  0  0  0
 17 18  1  0  0  0  0
 17 22  1  0  0  0  0
 18 19  1  0  0  0  0
 19 20  1  0  0  0  0
 19 21  1  0  0  0  0
 19 37  1  0  0  0  0
 22 23  2  0  0  0  0
 22 38  1  0  0  0  0
 23 39  1  0  0  0  0
M  END
> <s_m_source_file>
AV-unprocessed.smi

> <i_m_source_file_index>
1872

> <i_lp_mmshare_version>
43012

> <i_f3d_flags>
0

> <s_epik_input>
W2NIXTFbY0hdW2NIXVtjSF1jKGMxMiluKGMobjIpW0NIM10pW0NIMl1bQ0BIXShbT0hdKWMzW2NIXVtjSF1jKE9bQ0hdKEYpRilbY0hdW2NIXTM=

> <s_epik_cmdline>
J2VwaWtfcHl0aG9uJywgJy1waCcsICc3LjAnLCAnLXRuJywgJzgnLCAnLW1hJywgJzIwMCcsICctbWV0YWxfYmluZGluZycsICctaW1hZScsICc8aW5maWxlLm1hZT4nLCAnLW9tYWUnLCAnPG91dGZpbGUubWFlPic=

> <r_lp_tautomer_probability>
1

> <r_epik_Ionization_Penalty>
0.129663

> <r_epik_Ionization_Penalty_Charging>
0

> <r_epik_Ionization_Penalty_Neutral>
0.129663

> <r_epik_State_Penalty>
0.119073

> <r_epik_Charging_Adjusted_Penalty>
0.119073

> <i_epik_Tot_Q>
0

> <i_epik_Tot_abs_Q>
0

> <r_epik_Metal_State_Penalty>
0.000131867

> <b_epik_Metal_Only>
0

> <s_lp_Force_Field>
OPLS_2005

> <r_lp_Energy>
11.3105

> <b_lp_Chiralities_Consistent>
1

> <s_lp_Variant>
AV-unprocessed.smi:1872-2

> <Gold.Version>
5.8.1

> <Gold.Id.Protein>
6NUR|6NUR_protein|mol2

> <Gold.PLP.Fitness>
46.6068

> <Gold.PLP.PLP>
-44.5390

> <Gold.PLP.part.hbond>
-1.0000

> <Gold.PLP.part.metal>
0.0000

> <Gold.PLP.part.buried>
-5.5258

> <Gold.PLP.part.nonpolar>
-38.9198

> <Gold.PLP.part.repulsive>
0.4071

> <Gold.PLP.ligand.clash>
0.0000

> <Gold.PLP.ligand.torsion>
0.5236

> <Gold.PLP.Chemscore.Hbond>
1.0000

> <Gold.PLP.Chemscore.CHOScore>
0.0000

> <Gold.PLP.Chemscore.Metal>
0.0000

> <Gold.Chemscore.Hbonds>
donor molecule, donor type, donor heavy atom, donor atom, acceptor molecule, acceptor atom, score
      P1  H  7997  8008       L1    13  1.00

> <Gold.PLP.Chemscore.Internal.Correction>
0.1150

> <Gold.Rescore>
     Score         DG    S(hbond)    S(metal)    S(lipo)     H(rot)  DE(clash)    DE(int)     intcor
     15.04     -16.19       0.90        0.00     115.09       2.25       0.52       0.64       ----

> <Gold.Chemscore.Fitness>
15.0381

> <Gold.Chemscore.DG>
-16.1896

> <Gold.Chemscore.ZeroCoef>
-5.4800

> <Gold.Chemscore.Hbond>
0.9024

> <Gold.Chemscore.Metal>
0.0000

> <Gold.Chemscore.Lipo>
115.0884

> <Gold.Chemscore.Internal_Hbond>
0.0000

> <Gold.Chemscore.DEClash>
0.5163

> <Gold.Chemscore.DEInternal>
0.6352

> <Gold.Chemscore.Rot>
2.2538

> <Gold.Chemscore.Internal.Correction>
   9.000000E+99

> <Gold.Chemscore.Hbonds>
donor molecule, donor type, donor heavy atom, donor atom, acceptor molecule, acceptor atom, score
      P1  H  7997  8008       L1    13  0.76

> <Gold.Chemscore.Hbond.Weighted>
-3.0140

> <Gold.Chemscore.Metal.Weighted>
-0.0000

> <Gold.Chemscore.Lipo.Weighted>
-13.4653

> <Gold.Chemscore.Internal_Hbond.Weighted>
0.0000

> <Gold.Chemscore.DEClash.Weighted>
0.5163

> <Gold.Chemscore.DEInternal.Weighted>
0.6352

> <Gold.Chemscore.Rot.Weighted>
5.7697

> <Gold.Chemscore.Internal.Correction.Weighted>
   9.000000E+99

> <Gold.Protein.RotatedTorsions>
[ 6907 6896 6895 6894 ] final   47.63 input  -60.11 | X-H torsion
[ 7974 7965 7964 7962 ] final   99.56 input  175.53 | X-H torsion
[ 8008 7997 7996 7995 ] final  -36.61 input   59.86 | X-H torsion
[ 10167 10162 10161 10158 ] final  -47.47 input  -65.29 | X-H torsion
[ 10718 10713 10712 10709 ] final  -13.10 input   66.30 | X-H torsion
[ 10763 10752 10751 10750 ] final  -54.33 input  -60.55 | X-H torsion
[ 11005 11000 10999 10996 ] final   -3.59 input  -57.11 | X-H torsion

> <Gold.Protein.ActiveResidues>
 VAL166  LYS551  ARG553  GLY616  TRP617  ASP618  TYR619  PRO620  LYS621  CYS622 
 ASP623  PHE694  ASN695  SER759  ASP760  ASP761  ALA762  ILE779  LEU786  VAL792 
 PHE793  MET794  SER795  GLU796  ALA797  LYS798  CYS799  TRP800  GLU811  SER814 

> <Gold.Protein.RotatedAtoms>
  152.2702  134.7940  160.0415 H   0  0  0  0  0  0  0  0  0  0  0  0  # atno 6907 bound_to 6896
  151.8556  133.3442  159.3695 H   0  0  0  0  0  0  0  0  0  0  0  0  # atno 6908 bound_to 6896
  150.7149  134.5184  159.5686 H   0  0  0  0  0  0  0  0  0  0  0  0  # atno 6909 bound_to 6896
  145.3972  139.2353  143.3319 H   0  0  0  0  0  0  0  0  0  0  0  0  # atno 7974 bound_to 7965
  154.4069  140.1626  156.2401 H   0  0  0  0  0  0  0  0  0  0  0  0  # atno 8008 bound_to 7997
  155.9208  140.3421  155.6149 H   0  0  0  0  0  0  0  0  0  0  0  0  # atno 8009 bound_to 7997
  155.7224  140.0770  157.2315 H   0  0  0  0  0  0  0  0  0  0  0  0  # atno 8010 bound_to 7997
  140.6774  143.2783  151.3931 H   0  0  0  0  0  0  0  0  0  0  0  0  # atno 10167 bound_to 10162
  156.6350  130.4912  149.6115 H   0  0  0  0  0  0  0  0  0  0  0  0  # atno 10718 bound_to 10713
  154.1732  135.6455  153.5015 H   0  0  0  0  0  0  0  0  0  0  0  0  # atno 10763 bound_to 10752
  153.0079  135.5388  154.6591 H   0  0  0  0  0  0  0  0  0  0  0  0  # atno 10764 bound_to 10752
  154.5936  135.2936  155.0582 H   0  0  0  0  0  0  0  0  0  0  0  0  # atno 10765 bound_to 10752
  140.6710  133.9237  155.8494 H   0  0  0  0  0  0  0  0  0  0  0  0  # atno 11005 bound_to 11000
  146.2769  140.4664  142.8792 LP  0  0  0  0  0  0  0  0  0  0  0  0  # atno 17320 bound_to 7965
  144.8399  140.6840  143.6236 LP  0  0  0  0  0  0  0  0  0  0  0  0  # atno 17321 bound_to 7965
  139.6074  144.1169  152.2263 LP  0  0  0  0  0  0  0  0  0  0  0  0  # atno 17342 bound_to 10162
  140.0572  144.5885  150.7290 LP  0  0  0  0  0  0  0  0  0  0  0  0  # atno 17343 bound_to 10162
  156.2204  130.6733  151.1362 LP  0  0  0  0  0  0  0  0  0  0  0  0  # atno 17370 bound_to 10713
  157.7188  131.0694  150.6219 LP  0  0  0  0  0  0  0  0  0  0  0  0  # atno 17371 bound_to 10713
  141.0392  134.0645  157.3922 LP  0  0  0  0  0  0  0  0  0  0  0  0  # atno 17394 bound_to 11000
  139.8982  135.0153  156.7135 LP  0  0  0  0  0  0  0  0  0  0  0  0  # atno 17395 bound_to 11000

$$$$
