AV-unprocessed.smi:2157|AV-procd|sdf|8785|dock2
  -GOLD-   2272011563D 1   1.00000     0.00000
 Structure written by MMmdl.
 41 42  0  0  0  0  0  0  0  0  1 V2000
  153.0333  142.0765  161.2168 C   0  0  0  0  0  0  0  0  0  0  0  0
  152.8337  142.5387  159.7664 C   0  0  2  0  0  0  0  0  0  0  0  0
  152.5213  144.0456  159.6941 C   0  0  0  0  0  0  0  0  0  0  0  0
  152.3136  144.5100  158.2440 C   0  0  0  0  0  0  0  0  0  0  0  0
  151.2145  143.6922  157.5486 C   0  0  0  0  0  0  0  0  0  0  0  0
  151.5200  142.1846  157.6049 C   0  0  2  0  0  0  0  0  0  0  0  0
  150.4292  141.4391  156.9841 N   0  0  0  0  0  0  0  0  0  0  0  0
  150.5209  140.7347  155.8459 C   0  0  0  0  0  0  0  0  0  0  0  0
  151.5619  140.6366  155.1946 O   0  0  0  0  0  0  0  0  0  0  0  0
  149.2430  140.0128  155.3978 C   0  0  0  0  0  0  0  0  0  0  0  0
  148.0937  140.9150  155.2512 N   0  0  0  0  0  0  0  0  0  0  0  0
  147.6357  141.2406  153.9876 C   0  0  0  0  0  0  0  0  0  0  0  0
  146.5985  142.0768  153.7639 C   0  0  0  0  0  0  0  0  0  0  0  0
  145.8825  142.6957  154.8729 C   0  0  0  0  0  0  0  0  0  0  0  0
  144.9431  143.4757  154.7121 O   0  0  0  0  0  0  0  0  0  0  0  0
  146.3629  142.3349  156.1550 N   0  0  0  0  0  0  0  0  0  0  0  0
  145.7266  142.9061  157.3238 C   0  0  0  0  0  0  0  0  0  0  0  0
  147.4596  141.4736  156.3815 C   0  0  0  0  0  0  0  0  0  0  0  0
  147.8614  141.2163  157.5191 O   0  0  0  0  0  0  0  0  0  0  0  0
  151.7310  141.7241  159.0623 C   0  0  0  0  0  0  0  0  0  0  0  0
  152.1311  142.2291  161.8095 H   0  0  0  0  0  0  0  0  0  0  0  0
  153.8438  142.6262  161.6963 H   0  0  0  0  0  0  0  0  0  0  0  0
  153.2847  141.0163  161.2599 H   0  0  0  0  0  0  0  0  0  0  0  0
  153.7700  142.3634  159.2346 H   0  0  0  0  0  0  0  0  0  0  0  0
  151.6257  144.2651  160.2771 H   0  0  0  0  0  0  0  0  0  0  0  0
  153.3322  144.6167  160.1478 H   0  0  0  0  0  0  0  0  0  0  0  0
  152.0555  145.5693  158.2267 H   0  0  0  0  0  0  0  0  0  0  0  0
  153.2483  144.4105  157.6906 H   0  0  0  0  0  0  0  0  0  0  0  0
  150.2557  143.8953  158.0285 H   0  0  0  0  0  0  0  0  0  0  0  0
  151.1166  144.0164  156.5118 H   0  0  0  0  0  0  0  0  0  0  0  0
  152.4382  142.0050  157.0420 H   0  0  0  0  0  0  0  0  0  0  0  0
  149.5370  141.4614  157.4561 H   0  0  0  0  0  0  0  0  0  0  0  0
  149.4484  139.5192  154.4470 H   0  0  0  0  0  0  0  0  0  0  0  0
  149.0064  139.2110  156.0998 H   0  0  0  0  0  0  0  0  0  0  0  0
  148.1367  140.8109  153.1323 H   0  0  0  0  0  0  0  0  0  0  0  0
  146.2960  142.2932  152.7497 H   0  0  0  0  0  0  0  0  0  0  0  0
  145.5950  142.1136  158.0628 H   0  0  0  0  0  0  0  0  0  0  0  0
  144.7448  143.3072  157.0729 H   0  0  0  0  0  0  0  0  0  0  0  0
  146.3880  143.6913  157.6933 H   0  0  0  0  0  0  0  0  0  0  0  0
  151.9912  140.6649  159.0819 H   0  0  0  0  0  0  0  0  0  0  0  0
  150.7961  141.8215  159.6162 H   0  0  0  0  0  0  0  0  0  0  0  0
  1  2  1  0  0  0  0
  1 21  1  0  0  0  0
  1 22  1  0  0  0  0
  1 23  1  0  0  0  0
  2 20  1  0  0  0  0
  2  3  1  0  0  0  0
  2 24  1  0  0  0  0
  3  4  1  0  0  0  0
  3 25  1  0  0  0  0
  3 26  1  0  0  0  0
  4  5  1  0  0  0  0
  4 27  1  0  0  0  0
  4 28  1  0  0  0  0
  5  6  1  0  0  0  0
  5 29  1  0  0  0  0
  5 30  1  0  0  0  0
  6  7  1  0  0  0  0
  6 20  1  0  0  0  0
  6 31  1  0  0  0  0
  7  8  1  0  0  0  0
  7 32  1  0  0  0  0
  8  9  2  0  0  0  0
  8 10  1  0  0  0  0
 10 11  1  0  0  0  0
 10 33  1  0  0  0  0
 10 34  1  0  0  0  0
 11 18  1  0  0  0  0
 11 12  1  0  0  0  0
 12 13  2  0  0  0  0
 12 35  1  0  0  0  0
 13 14  1  0  0  0  0
 13 36  1  0  0  0  0
 14 15  2  0  0  0  0
 14 16  1  0  0  0  0
 16 17  1  0  0  0  0
 16 18  1  0  0  0  0
 17 37  1  0  0  0  0
 17 38  1  0  0  0  0
 17 39  1  0  0  0  0
 18 19  2  0  0  0  0
 20 40  1  0  0  0  0
 20 41  1  0  0  0  0
M  END
> <s_m_source_file>
AV-unprocessed.smi

> <i_m_source_file_index>
2157

> <i_lp_mmshare_version>
43012

> <i_f3d_flags>
0

> <s_epik_input>
W0NIM11bQ0BASF0xW0NIMl1bQ0gyXVtDSDJdW0NASF0oW0NIMl0xKVtOSF1DKD1PKVtDSDJdbjJbY0hdW2NIXWMoPU8pbihbQ0gzXSljMj1P

> <s_epik_cmdline>
J2VwaWtfcHl0aG9uJywgJy1waCcsICc3LjAnLCAnLXRuJywgJzgnLCAnLW1hJywgJzIwMCcsICctbWV0YWxfYmluZGluZycsICctaW1hZScsICc8aW5maWxlLm1hZT4nLCAnLW9tYWUnLCAnPG91dGZpbGUubWFlPic=

> <r_lp_tautomer_probability>
1

> <r_epik_Ionization_Penalty>
3.1838e-08

> <r_epik_Ionization_Penalty_Charging>
1.27911e-08

> <r_epik_Ionization_Penalty_Neutral>
1.90469e-08

> <r_epik_State_Penalty>
-0

> <r_epik_Charging_Adjusted_Penalty>
1.27911e-08

> <i_epik_Tot_Q>
0

> <i_epik_Tot_abs_Q>
0

> <r_epik_Metal_State_Penalty>
-0

> <b_epik_Metal_Only>
0

> <s_lp_Force_Field>
OPLS_2005

> <r_lp_Energy>
16.5079

> <b_lp_Chiralities_Consistent>
1

> <s_lp_Variant>
AV-unprocessed.smi:2157-3

> <Gold.Version>
5.8.1

> <Gold.Id.Protein>
6NUR|6NUR_protein|mol2

> <Gold.PLP.Fitness>
47.1793

> <Gold.PLP.PLP>
-42.0968

> <Gold.PLP.part.hbond>
-1.0000

> <Gold.PLP.part.metal>
0.0000

> <Gold.PLP.part.buried>
-5.3195

> <Gold.PLP.part.nonpolar>
-35.6820

> <Gold.PLP.part.repulsive>
0.3452

> <Gold.PLP.ligand.clash>
0.0000

> <Gold.PLP.ligand.torsion>
0.1890

> <Gold.PLP.Chemscore.Hbond>
0.8160

> <Gold.PLP.Chemscore.CHOScore>
1.0000

> <Gold.PLP.Chemscore.Metal>
0.0000

> <Gold.Chemscore.Hbonds>
donor molecule, donor type, donor heavy atom, donor atom, acceptor molecule, acceptor atom, score
      P1  H  7989  7998       L1     9  0.77
      L1  C    12    35       P1  7957  0.90

> <Gold.PLP.Chemscore.Internal.Correction>
0.0126

> <Gold.Rescore>
     Score         DG    S(hbond)    S(metal)    S(lipo)     H(rot)  DE(clash)    DE(int)     intcor
     14.72     -16.42       0.86        0.00     102.21       1.52       0.08       1.62       ----

> <Gold.Chemscore.Fitness>
14.7222

> <Gold.Chemscore.DG>
-16.4183

> <Gold.Chemscore.ZeroCoef>
-5.4800

> <Gold.Chemscore.Hbond>
0.8626

> <Gold.Chemscore.Metal>
0.0000

> <Gold.Chemscore.Lipo>
102.2144

> <Gold.Chemscore.Internal_Hbond>
0.0000

> <Gold.Chemscore.DEClash>
0.0794

> <Gold.Chemscore.DEInternal>
1.6167

> <Gold.Chemscore.Rot>
1.5242

> <Gold.Chemscore.Internal.Correction>
   9.000000E+99

> <Gold.Chemscore.Hbonds>
donor molecule, donor type, donor heavy atom, donor atom, acceptor molecule, acceptor atom, score
      P1  H  7989  7998       L1     9  0.75

> <Gold.Chemscore.Hbond.Weighted>
-2.8811

> <Gold.Chemscore.Metal.Weighted>
-0.0000

> <Gold.Chemscore.Lipo.Weighted>
-11.9591

> <Gold.Chemscore.Internal_Hbond.Weighted>
0.0000

> <Gold.Chemscore.DEClash.Weighted>
0.0794

> <Gold.Chemscore.DEInternal.Weighted>
1.6167

> <Gold.Chemscore.Rot.Weighted>
3.9019

> <Gold.Chemscore.Internal.Correction.Weighted>
   9.000000E+99

> <Gold.Protein.RotatedTorsions>
[ 6907 6896 6895 6894 ] final -129.13 input  -60.11 | X-H torsion
[ 7974 7965 7964 7962 ] final   66.65 input  175.53 | X-H torsion
[ 8008 7997 7996 7995 ] final   70.97 input   59.86 | X-H torsion
[ 10167 10162 10161 10158 ] final -161.63 input  -65.29 | X-H torsion
[ 10718 10713 10712 10709 ] final  -20.75 input   66.30 | X-H torsion
[ 10763 10752 10751 10750 ] final  142.25 input  -60.55 | X-H torsion
[ 11005 11000 10999 10996 ] final  -10.23 input  -57.11 | X-H torsion

> <Gold.Protein.ActiveResidues>
 VAL166  LYS551  ARG553  GLY616  TRP617  ASP618  TYR619  PRO620  LYS621  CYS622 
 ASP623  PHE694  ASN695  SER759  ASP760  ASP761  ALA762  ILE779  LEU786  VAL792 
 PHE793  MET794  SER795  GLU796  ALA797  LYS798  CYS799  TRP800  GLU811  SER814 

> <Gold.Protein.RotatedAtoms>
  150.9253  133.6831  159.2822 H   0  0  0  0  0  0  0  0  0  0  0  0  # atno 6907 bound_to 6896
  151.4271  135.1004  159.9641 H   0  0  0  0  0  0  0  0  0  0  0  0  # atno 6908 bound_to 6896
  152.5000  133.8692  159.7344 H   0  0  0  0  0  0  0  0  0  0  0  0  # atno 6909 bound_to 6896
  145.8240  139.3101  143.1026 H   0  0  0  0  0  0  0  0  0  0  0  0  # atno 7974 bound_to 7965
  155.7468  140.3489  155.5131 H   0  0  0  0  0  0  0  0  0  0  0  0  # atno 8008 bound_to 7997
  155.9042  140.1039  157.1348 H   0  0  0  0  0  0  0  0  0  0  0  0  # atno 8009 bound_to 7997
  154.4047  140.1280  156.4462 H   0  0  0  0  0  0  0  0  0  0  0  0  # atno 8010 bound_to 7997
  139.6451  144.0187  152.2121 H   0  0  0  0  0  0  0  0  0  0  0  0  # atno 10167 bound_to 10162
  156.5275  130.4647  149.6564 H   0  0  0  0  0  0  0  0  0  0  0  0  # atno 10718 bound_to 10713
  153.9527  135.2968  155.3438 H   0  0  0  0  0  0  0  0  0  0  0  0  # atno 10763 bound_to 10752
  154.7417  135.5021  153.9138 H   0  0  0  0  0  0  0  0  0  0  0  0  # atno 10764 bound_to 10752
  153.0986  135.6728  153.9825 H   0  0  0  0  0  0  0  0  0  0  0  0  # atno 10765 bound_to 10752
  140.7425  133.8658  155.8979 H   0  0  0  0  0  0  0  0  0  0  0  0  # atno 11005 bound_to 11000
  145.9643  140.8811  143.0195 LP  0  0  0  0  0  0  0  0  0  0  0  0  # atno 17320 bound_to 7965
  144.6745  140.1857  143.7401 LP  0  0  0  0  0  0  0  0  0  0  0  0  # atno 17321 bound_to 7965
  139.9887  144.6377  150.7834 LP  0  0  0  0  0  0  0  0  0  0  0  0  # atno 17342 bound_to 10162
  140.7510  143.2966  151.3190 LP  0  0  0  0  0  0  0  0  0  0  0  0  # atno 17343 bound_to 10162
  156.3091  130.7219  151.2107 LP  0  0  0  0  0  0  0  0  0  0  0  0  # atno 17370 bound_to 10713
  157.7427  131.0486  150.5004 LP  0  0  0  0  0  0  0  0  0  0  0  0  # atno 17371 bound_to 10713
  140.9824  134.1388  157.4483 LP  0  0  0  0  0  0  0  0  0  0  0  0  # atno 17394 bound_to 11000
  139.8803  135.0014  156.6069 LP  0  0  0  0  0  0  0  0  0  0  0  0  # atno 17395 bound_to 11000

$$$$
