AV-unprocessed.smi:787|AV-procd|sdf|3729|dock9
  -GOLD-   22720 1163D 1   1.00000     0.00000
 Structure written by MMmdl.
 46 48  0  0  0  0  0  0  0  0  1 V2000
  145.0103  140.0805  158.4773 C   0  0  0  0  0  0  0  0  0  0  0  0
  145.4899  140.6263  157.2174 N   0  0  0  0  0  0  0  0  0  0  0  0
  144.9375  141.8062  156.6994 C   0  0  0  0  0  0  0  0  0  0  0  0
  143.9739  142.4616  157.3879 N   0  0  0  0  0  0  0  0  0  0  0  0
  143.4676  143.5777  156.8471 C   0  0  0  0  0  0  0  0  0  0  0  0
  143.7773  144.1699  155.6832 N   0  0  0  0  0  0  0  0  0  0  0  0
  144.7352  143.5317  154.9971 C   0  0  0  0  0  0  0  0  0  0  0  0
  145.2522  143.9169  153.7720 N   0  0  0  0  0  0  0  0  0  0  0  0
  146.1532  142.9638  153.5467 C   0  0  0  0  0  0  0  0  0  0  0  0
  146.2800  141.9962  154.4759 N   0  0  0  0  0  0  0  0  0  0  0  0
  147.1865  140.8626  154.4380 C   0  0  0  0  0  0  0  0  0  0  0  0
  148.6529  141.2877  154.6381 C   0  0  2  0  0  0  0  0  0  0  0  0
  149.2015  141.5472  153.3622 O   0  0  0  0  0  0  0  0  0  0  0  0
  149.5051  140.1923  155.3169 C   0  0  0  0  0  0  0  0  0  0  0  0
  150.7013  140.6629  156.0264 N   0  0  0  0  0  0  0  0  0  0  0  0
  151.8361  139.8049  155.7079 C   0  0  0  0  0  0  0  0  0  0  0  0
  150.5297  140.6963  157.4839 C   0  0  0  0  0  0  0  0  0  0  0  0
  151.3735  141.7138  158.2293 C   0  0  0  0  0  0  0  0  0  0  0  0
  151.2859  143.0846  157.9055 C   0  0  0  0  0  0  0  0  0  0  0  0
  152.0824  144.0247  158.5880 C   0  0  0  0  0  0  0  0  0  0  0  0
  152.9792  143.5962  159.5856 C   0  0  0  0  0  0  0  0  0  0  0  0
  153.0769  142.2278  159.9026 C   0  0  0  0  0  0  0  0  0  0  0  0
  152.2716  141.2885  159.2305 C   0  0  0  0  0  0  0  0  0  0  0  0
  145.3576  142.3349  155.4627 C   0  0  0  0  0  0  0  0  0  0  0  0
  145.5448  139.1597  158.7104 H   0  0  0  0  0  0  0  0  0  0  0  0
  143.9459  139.8516  158.4194 H   0  0  0  0  0  0  0  0  0  0  0  0
  145.1740  140.7853  159.2931 H   0  0  0  0  0  0  0  0  0  0  0  0
  146.0978  140.0623  156.6406 H   0  0  0  0  0  0  0  0  0  0  0  0
  142.6988  144.0666  157.4266 H   0  0  0  0  0  0  0  0  0  0  0  0
  146.7540  142.9656  152.6488 H   0  0  0  0  0  0  0  0  0  0  0  0
  146.8860  140.1407  155.1988 H   0  0  0  0  0  0  0  0  0  0  0  0
  147.0584  140.3634  153.4768 H   0  0  0  0  0  0  0  0  0  0  0  0
  148.6700  142.2202  155.1961 H   0  0  0  0  0  0  0  0  0  0  0  0
  149.0711  140.7861  152.8176 H   0  0  0  0  0  0  0  0  0  0  0  0
  148.8912  139.6165  156.0096 H   0  0  0  0  0  0  0  0  0  0  0  0
  149.7885  139.4802  154.5400 H   0  0  0  0  0  0  0  0  0  0  0  0
  152.7423  140.1601  156.1995 H   0  0  0  0  0  0  0  0  0  0  0  0
  152.0302  139.8001  154.6348 H   0  0  0  0  0  0  0  0  0  0  0  0
  151.6557  138.7769  156.0260 H   0  0  0  0  0  0  0  0  0  0  0  0
  149.4777  140.8473  157.7312 H   0  0  0  0  0  0  0  0  0  0  0  0
  150.7945  139.7231  157.8993 H   0  0  0  0  0  0  0  0  0  0  0  0
  150.6031  143.4169  157.1372 H   0  0  0  0  0  0  0  0  0  0  0  0
  152.0081  145.0741  158.3434 H   0  0  0  0  0  0  0  0  0  0  0  0
  153.5907  144.3166  160.1086 H   0  0  0  0  0  0  0  0  0  0  0  0
  153.7638  141.8991  160.6684 H   0  0  0  0  0  0  0  0  0  0  0  0
  152.3487  140.2416  159.4851 H   0  0  0  0  0  0  0  0  0  0  0  0
  1  2  1  0  0  0  0
  1 25  1  0  0  0  0
  1 26  1  0  0  0  0
  1 27  1  0  0  0  0
  2  3  1  0  0  0  0
  2 28  1  0  0  0  0
  3 24  1  0  0  0  0
  3  4  2  0  0  0  0
  4  5  1  0  0  0  0
  5  6  2  0  0  0  0
  5 29  1  0  0  0  0
  6  7  1  0  0  0  0
  7 24  2  0  0  0  0
  7  8  1  0  0  0  0
  8  9  2  0  0  0  0
  9 10  1  0  0  0  0
  9 30  1  0  0  0  0
 10 11  1  0  0  0  0
 10 24  1  0  0  0  0
 11 12  1  0  0  0  0
 11 31  1  0  0  0  0
 11 32  1  0  0  0  0
 12 13  1  0  0  0  0
 12 14  1  0  0  0  0
 12 33  1  0  0  0  0
 13 34  1  0  0  0  0
 14 15  1  0  0  0  0
 14 35  1  0  0  0  0
 14 36  1  0  0  0  0
 15 16  1  0  0  0  0
 15 17  1  0  0  0  0
 16 37  1  0  0  0  0
 16 38  1  0  0  0  0
 16 39  1  0  0  0  0
 17 18  1  0  0  0  0
 17 40  1  0  0  0  0
 17 41  1  0  0  0  0
 18 23  1  0  0  0  0
 18 19  2  0  0  0  0
 19 20  1  0  0  0  0
 19 42  1  0  0  0  0
 20 21  2  0  0  0  0
 20 43  1  0  0  0  0
 21 22  1  0  0  0  0
 21 44  1  0  0  0  0
 22 23  2  0  0  0  0
 22 45  1  0  0  0  0
 23 46  1  0  0  0  0
M  END
> <s_m_source_file>
AV-unprocessed.smi

> <i_m_source_file_index>
787

> <i_lp_mmshare_version>
43012

> <i_f3d_flags>
0

> <s_epik_input>
bjFbY0hdbmMoW05IXVtDSDNdKWMoYzEyKW4oW2NIXW4yKVtDSDJdW0NASF0oW09IXSlbQ0gyXU4oW0NIM10pW0NIMl1jM1tjSF1bY0hdW2NIXVtjSF1bY0hdMw==

> <s_epik_cmdline>
J2VwaWtfcHl0aG9uJywgJy1waCcsICc3LjAnLCAnLXRuJywgJzgnLCAnLW1hJywgJzIwMCcsICctbWV0YWxfYmluZGluZycsICctaW1hZScsICc8aW5maWxlLm1hZT4nLCAnLW9tYWUnLCAnPG91dGZpbGUubWFlPic=

> <r_lp_tautomer_probability>
0.999987

> <r_epik_Ionization_Penalty>
1.52367

> <r_epik_Ionization_Penalty_Charging>
0

> <r_epik_Ionization_Penalty_Neutral>
1.52367

> <r_epik_State_Penalty>
1.60995

> <r_epik_Charging_Adjusted_Penalty>
1.60995

> <i_epik_Tot_Q>
0

> <i_epik_Tot_abs_Q>
0

> <r_epik_Metal_State_Penalty>
1.60969

> <b_epik_Metal_Only>
0

> <s_lp_Force_Field>
OPLS_2005

> <r_lp_Energy>
20.724

> <b_lp_Chiralities_Consistent>
1

> <s_lp_Variant>
AV-unprocessed.smi:787-5

> <Gold.Version>
5.8.1

> <Gold.Id.Protein>
6NUR|6NUR_protein|mol2

> <Gold.PLP.Fitness>
46.4944

> <Gold.PLP.PLP>
-44.6976

> <Gold.PLP.part.hbond>
-2.7303

> <Gold.PLP.part.metal>
0.0000

> <Gold.PLP.part.buried>
-7.3194

> <Gold.PLP.part.nonpolar>
-34.8594

> <Gold.PLP.part.repulsive>
0.3432

> <Gold.PLP.ligand.clash>
0.0000

> <Gold.PLP.ligand.torsion>
1.6808

> <Gold.PLP.Chemscore.Hbond>
1.6073

> <Gold.PLP.Chemscore.CHOScore>
0.0000

> <Gold.PLP.Chemscore.Metal>
0.0000

> <Gold.Chemscore.Hbonds>
donor molecule, donor type, donor heavy atom, donor atom, acceptor molecule, acceptor atom, score
      L1  H    13    34       P1  7957  0.82
      P1  H  8011  8017       L1    13  0.63

> <Gold.PLP.Chemscore.Internal.Correction>
0.3364

> <Gold.Rescore>
     Score         DG    S(hbond)    S(metal)    S(lipo)     H(rot)  DE(clash)    DE(int)     intcor
     12.08     -13.80       1.30        0.00     102.09       3.11       0.08       1.64       ----

> <Gold.Chemscore.Fitness>
12.0823

> <Gold.Chemscore.DG>
-13.8031

> <Gold.Chemscore.ZeroCoef>
-5.4800

> <Gold.Chemscore.Hbond>
1.2974

> <Gold.Chemscore.Metal>
0.0000

> <Gold.Chemscore.Lipo>
102.0946

> <Gold.Chemscore.Internal_Hbond>
0.0000

> <Gold.Chemscore.DEClash>
0.0832

> <Gold.Chemscore.DEInternal>
1.6377

> <Gold.Chemscore.Rot>
3.1075

> <Gold.Chemscore.Internal.Correction>
   9.000000E+99

> <Gold.Chemscore.Hbonds>
donor molecule, donor type, donor heavy atom, donor atom, acceptor molecule, acceptor atom, score
      L1  H    13    34       P1  7957  0.81
      P1  H  8011  8017       L1    13  0.11

> <Gold.Chemscore.Hbond.Weighted>
-4.3332

> <Gold.Chemscore.Metal.Weighted>
-0.0000

> <Gold.Chemscore.Lipo.Weighted>
-11.9451

> <Gold.Chemscore.Internal_Hbond.Weighted>
0.0000

> <Gold.Chemscore.DEClash.Weighted>
0.0832

> <Gold.Chemscore.DEInternal.Weighted>
1.6377

> <Gold.Chemscore.Rot.Weighted>
7.9551

> <Gold.Chemscore.Internal.Correction.Weighted>
   9.000000E+99

> <Gold.Protein.RotatedTorsions>
[ 6907 6896 6895 6894 ] final  162.03 input  -60.11 | X-H torsion
[ 7974 7965 7964 7962 ] final -162.82 input  175.53 | X-H torsion
[ 8008 7997 7996 7995 ] final   23.04 input   59.86 | X-H torsion
[ 10167 10162 10161 10158 ] final -111.10 input  -65.29 | X-H torsion
[ 10718 10713 10712 10709 ] final -149.49 input   66.30 | X-H torsion
[ 10763 10752 10751 10750 ] final  146.25 input  -60.55 | X-H torsion
[ 11005 11000 10999 10996 ] final  -80.98 input  -57.11 | X-H torsion

> <Gold.Protein.ActiveResidues>
 VAL166  LYS551  ARG553  GLY616  TRP617  ASP618  TYR619  PRO620  LYS621  CYS622 
 ASP623  PHE694  ASN695  SER759  ASP760  ASP761  ALA762  ILE779  LEU786  VAL792 
 PHE793  MET794  SER795  GLU796  ALA797  LYS798  CYS799  TRP800  GLU811  SER814 

> <Gold.Protein.RotatedAtoms>
  151.9466  133.3653  159.3984 H   0  0  0  0  0  0  0  0  0  0  0  0  # atno 6907 bound_to 6896
  150.6988  134.4384  159.5290 H   0  0  0  0  0  0  0  0  0  0  0  0  # atno 6908 bound_to 6896
  152.2050  134.8553  160.0554 H   0  0  0  0  0  0  0  0  0  0  0  0  # atno 6909 bound_to 6896
  144.7345  140.3197  143.6173 H   0  0  0  0  0  0  0  0  0  0  0  0  # atno 7974 bound_to 7965
  154.9749  140.3095  155.4972 H   0  0  0  0  0  0  0  0  0  0  0  0  # atno 8008 bound_to 7997
  156.2961  140.2277  156.4783 H   0  0  0  0  0  0  0  0  0  0  0  0  # atno 8009 bound_to 7997
  154.7842  140.0444  157.1139 H   0  0  0  0  0  0  0  0  0  0  0  0  # atno 8010 bound_to 7997
  140.1372  143.4310  152.1587 H   0  0  0  0  0  0  0  0  0  0  0  0  # atno 10167 bound_to 10162
  156.4338  130.8088  151.2316 H   0  0  0  0  0  0  0  0  0  0  0  0  # atno 10718 bound_to 10713
  154.0188  135.2908  155.3383 H   0  0  0  0  0  0  0  0  0  0  0  0  # atno 10763 bound_to 10752
  154.7058  135.5169  153.8597 H   0  0  0  0  0  0  0  0  0  0  0  0  # atno 10764 bound_to 10752
  153.0690  135.6641  154.0412 H   0  0  0  0  0  0  0  0  0  0  0  0  # atno 10765 bound_to 10752
  141.1667  133.7175  156.8355 H   0  0  0  0  0  0  0  0  0  0  0  0  # atno 11005 bound_to 11000
  145.7581  139.1815  143.2282 LP  0  0  0  0  0  0  0  0  0  0  0  0  # atno 17320 bound_to 7965
  146.1008  140.7546  142.9550 LP  0  0  0  0  0  0  0  0  0  0  0  0  # atno 17321 bound_to 7965
  139.5490  144.7322  151.4494 LP  0  0  0  0  0  0  0  0  0  0  0  0  # atno 17342 bound_to 10162
  140.6782  143.8142  150.7086 LP  0  0  0  0  0  0  0  0  0  0  0  0  # atno 17343 bound_to 10162
  157.7508  131.0190  150.3648 LP  0  0  0  0  0  0  0  0  0  0  0  0  # atno 17370 bound_to 10713
  156.3991  130.3912  149.6973 LP  0  0  0  0  0  0  0  0  0  0  0  0  # atno 17371 bound_to 10713
  140.2021  134.8890  157.3180 LP  0  0  0  0  0  0  0  0  0  0  0  0  # atno 17394 bound_to 11000
  140.2177  134.4062  155.7581 LP  0  0  0  0  0  0  0  0  0  0  0  0  # atno 17395 bound_to 11000

$$$$
