AV-unprocessed.smi:2078|AV-procd|sdf|8472|dock7
  -GOLD-   2272011173D 1   1.00000     0.00000
 Structure written by MMmdl.
 41 42  0  0  0  0  0  0  0  0  3 V2000
  152.9583  137.5218  156.7603 C   0  0  0  0  0  0  0  0  0  0  0  0
  152.0658  138.3718  155.9218 C   0  0  0  0  0  0  0  0  0  0  0  0
  150.8939  138.1208  155.2656 C   0  0  0  0  0  0  0  0  0  0  0  0
  150.5893  139.3700  154.6621 C   0  0  0  0  0  0  0  0  0  0  0  0
  149.4207  139.5243  153.8706 N   0  0  0  0  0  0  0  0  0  0  0  0
  148.1312  139.4699  154.2503 C   0  0  0  0  0  0  0  0  0  0  0  0
  147.8348  139.2362  155.4283 O   0  0  0  0  0  0  0  0  0  0  0  0
  147.2789  139.6885  153.2109 N   0  5  0  0  0  0  0  0  0  0  0  0
  146.4759  138.6561  152.5584 C   0  0  0  0  0  0  0  0  0  0  0  0
  146.3956  137.3986  153.4470 C   0  0  0  0  0  0  0  0  0  0  0  0
  146.1889  136.1709  152.6351 N   0  3  2  0  0  0  0  0  0  0  0  0
  145.0691  136.2855  151.6605 C   0  0  0  0  0  0  0  0  0  0  0  0
  145.0226  135.0641  150.7297 C   0  0  0  0  0  0  0  0  0  0  0  0
  144.9213  133.7617  151.5365 C   0  0  0  0  0  0  0  0  0  0  0  0
  146.0388  133.6681  152.5925 C   0  0  1  0  0  0  0  0  0  0  0  0
  147.4141  133.3538  151.9777 C   0  0  0  0  0  0  0  0  0  0  0  0
  146.0699  134.9414  153.4633 C   0  0  0  0  0  0  0  0  0  0  0  0
  151.4940  140.3006  154.9286 N   0  0  0  0  0  0  0  0  0  0  0  0
  152.4450  139.6655  155.7363 O   0  0  0  0  0  0  0  0  0  0  0  0
  152.3800  136.7831  157.3155 H   0  0  0  0  0  0  0  0  0  0  0  0
  153.5117  138.1260  157.4793 H   0  0  0  0  0  0  0  0  0  0  0  0
  153.6785  136.9898  156.1387 H   0  0  0  0  0  0  0  0  0  0  0  0
  150.3448  137.1919  155.2233 H   0  0  0  0  0  0  0  0  0  0  0  0
  149.5799  139.7136  152.8922 H   0  0  0  0  0  0  0  0  0  0  0  0
  145.4664  139.0018  152.3312 H   0  0  0  0  0  0  0  0  0  0  0  0
  146.9064  138.3759  151.5968 H   0  0  0  0  0  0  0  0  0  0  0  0
  147.3271  137.3212  154.0101 H   0  0  0  0  0  0  0  0  0  0  0  0
  145.6035  137.4918  154.1920 H   0  0  0  0  0  0  0  0  0  0  0  0
  144.1254  136.3840  152.1992 H   0  0  0  0  0  0  0  0  0  0  0  0
  145.1841  137.1889  151.0602 H   0  0  0  0  0  0  0  0  0  0  0  0
  144.1726  135.1468  150.0519 H   0  0  0  0  0  0  0  0  0  0  0  0
  145.9134  135.0462  150.1010 H   0  0  0  0  0  0  0  0  0  0  0  0
  143.9525  133.7291  152.0368 H   0  0  0  0  0  0  0  0  0  0  0  0
  144.9491  132.8990  150.8700 H   0  0  0  0  0  0  0  0  0  0  0  0
  145.7970  132.8300  153.2473 H   0  0  0  0  0  0  0  0  0  0  0  0
  147.7632  134.1561  151.3275 H   0  0  0  0  0  0  0  0  0  0  0  0
  147.3795  132.4387  151.3860 H   0  0  0  0  0  0  0  0  0  0  0  0
  148.1654  133.2123  152.7551 H   0  0  0  0  0  0  0  0  0  0  0  0
  146.9055  134.8811  154.1625 H   0  0  0  0  0  0  0  0  0  0  0  0
  145.1621  135.0050  154.0655 H   0  0  0  0  0  0  0  0  0  0  0  0
  147.0360  136.0600  152.0964 H   0  0  0  0  0  0  0  0  0  0  0  0
  1  2  1  0  0  0  0
  1 20  1  0  0  0  0
  1 21  1  0  0  0  0
  1 22  1  0  0  0  0
  2 19  1  0  0  0  0
  2  3  2  0  0  0  0
  3  4  1  0  0  0  0
  3 23  1  0  0  0  0
  4  5  1  0  0  0  0
  4 18  2  0  0  0  0
  5  6  1  0  0  0  0
  5 24  1  0  0  0  0
  6  7  2  0  0  0  0
  6  8  1  0  0  0  0
  8  9  1  0  0  0  0
  9 10  1  0  0  0  0
  9 25  1  0  0  0  0
  9 26  1  0  0  0  0
 10 11  1  0  0  0  0
 10 27  1  0  0  0  0
 10 28  1  0  0  0  0
 11 17  1  0  0  0  0
 11 12  1  0  0  0  0
 11 41  1  0  0  0  0
 12 13  1  0  0  0  0
 12 29  1  0  0  0  0
 12 30  1  0  0  0  0
 13 14  1  0  0  0  0
 13 31  1  0  0  0  0
 13 32  1  0  0  0  0
 14 15  1  0  0  0  0
 14 33  1  0  0  0  0
 14 34  1  0  0  0  0
 15 16  1  0  0  0  0
 15 17  1  0  0  0  0
 15 35  1  0  0  0  0
 16 36  1  0  0  0  0
 16 37  1  0  0  0  0
 16 38  1  0  0  0  0
 17 39  1  0  0  0  0
 17 40  1  0  0  0  0
 18 19  1  0  0  0  0
M  CHG  1   8  -1
M  CHG  1  11   1
M  END
> <s_m_source_file>
AV-unprocessed.smi

> <i_m_source_file_index>
2078

> <i_lp_mmshare_version>
43012

> <i_f3d_flags>
0

> <s_epik_input>
W0NIM11jMVtjSF1jKG5vMSlbTkhdQyg9TylbTkhdW0NIMl1bQ0gyXU4yW0NIMl1bQ0gyXVtDSDJdW0NAQEhdKFtDSDNdKVtDSDJdMg==

> <s_epik_cmdline>
J2VwaWtfcHl0aG9uJywgJy1waCcsICc3LjAnLCAnLXRuJywgJzgnLCAnLW1hJywgJzIwMCcsICctbWV0YWxfYmluZGluZycsICctaW1hZScsICc8aW5maWxlLm1hZT4nLCAnLW9tYWUnLCAnPG91dGZpbGUubWFlPic=

> <r_epik_Ionization_Penalty>
6.76934

> <r_epik_Ionization_Penalty_Charging>
6.76934

> <r_epik_Ionization_Penalty_Neutral>
5.77849e-06

> <r_epik_State_Penalty>
6.79457

> <r_epik_Charging_Adjusted_Penalty>
13.5639

> <i_epik_Tot_Q>
0

> <i_epik_Tot_abs_Q>
2

> <r_epik_Metal_State_Penalty>
2.72837

> <b_epik_Metal_Only>
1

> <s_lp_Force_Field>
OPLS_2005

> <r_lp_Energy>
14.163

> <b_lp_Chiralities_Consistent>
1

> <s_lp_Variant>
AV-unprocessed.smi:2078-10

> <Gold.Version>
5.8.1

> <Gold.Id.Protein>
6NUR|6NUR_protein|mol2

> <Gold.PLP.Fitness>
40.0065

> <Gold.PLP.PLP>
-28.2092

> <Gold.PLP.part.hbond>
-3.8139

> <Gold.PLP.part.metal>
0.0000

> <Gold.PLP.part.buried>
-3.9090

> <Gold.PLP.part.nonpolar>
-21.5166

> <Gold.PLP.part.repulsive>
0.8755

> <Gold.PLP.ligand.clash>
0.0000

> <Gold.PLP.ligand.torsion>
1.6154

> <Gold.PLP.Chemscore.Hbond>
5.0000

> <Gold.PLP.Chemscore.CHOScore>
0.0000

> <Gold.PLP.Chemscore.Metal>
0.0000

> <Gold.Chemscore.Hbonds>
donor molecule, donor type, donor heavy atom, donor atom, acceptor molecule, acceptor atom, score
      L1  H     5    24       P1  7957  1.00
      L1  H    11    41       P1  7948  2.00
      P1  H  7989  7998       L1    18  0.95
      P1  H  7997  8010       L1    19  1.00

> <Gold.PLP.Chemscore.Internal.Correction>
0.0281

> <Gold.Rescore>
     Score         DG    S(hbond)    S(metal)    S(lipo)     H(rot)  DE(clash)    DE(int)     intcor
     17.88     -19.55       3.41        0.00      56.49       1.54       0.04       1.63       ----

> <Gold.Chemscore.Fitness>
17.8774

> <Gold.Chemscore.DG>
-19.5493

> <Gold.Chemscore.ZeroCoef>
-5.4800

> <Gold.Chemscore.Hbond>
3.4144

> <Gold.Chemscore.Metal>
0.0000

> <Gold.Chemscore.Lipo>
56.4941

> <Gold.Chemscore.Internal_Hbond>
0.0000

> <Gold.Chemscore.DEClash>
0.0441

> <Gold.Chemscore.DEInternal>
1.6277

> <Gold.Chemscore.Rot>
1.5409

> <Gold.Chemscore.Internal.Correction>
   9.000000E+99

> <Gold.Chemscore.Hbonds>
donor molecule, donor type, donor heavy atom, donor atom, acceptor molecule, acceptor atom, score
      L1  H     5    24       P1  7957  1.00
      L1  H    11    41       P1  7948  0.97
      P1  H  7989  7998       L1    18  0.19
      P1  H  7997  8010       L1    19  0.90

> <Gold.Chemscore.Hbond.Weighted>
-11.4041

> <Gold.Chemscore.Metal.Weighted>
-0.0000

> <Gold.Chemscore.Lipo.Weighted>
-6.6098

> <Gold.Chemscore.Internal_Hbond.Weighted>
0.0000

> <Gold.Chemscore.DEClash.Weighted>
0.0441

> <Gold.Chemscore.DEInternal.Weighted>
1.6277

> <Gold.Chemscore.Rot.Weighted>
3.9446

> <Gold.Chemscore.Internal.Correction.Weighted>
   9.000000E+99

> <Gold.Protein.RotatedTorsions>
[ 6907 6896 6895 6894 ] final  -48.00 input  -60.11 | X-H torsion
[ 7974 7965 7964 7962 ] final  105.38 input  175.53 | X-H torsion
[ 8008 7997 7996 7995 ] final   90.09 input   59.86 | X-H torsion
[ 10167 10162 10161 10158 ] final  -46.40 input  -65.29 | X-H torsion
[ 10718 10713 10712 10709 ] final -118.98 input   66.30 | X-H torsion
[ 10763 10752 10751 10750 ] final -100.18 input  -60.55 | X-H torsion
[ 11005 11000 10999 10996 ] final  -97.35 input  -57.11 | X-H torsion

> <Gold.Protein.ActiveResidues>
 VAL166  LYS551  ARG553  GLY616  TRP617  ASP618  TYR619  PRO620  LYS621  CYS622 
 ASP623  PHE694  ASN695  SER759  ASP760  ASP761  ALA762  ILE779  LEU786  VAL792 
 PHE793  MET794  SER795  GLU796  ALA797  LYS798  CYS799  TRP800  GLU811  SER814 

> <Gold.Protein.RotatedAtoms>
  150.8950  134.8358  159.7320 H   0  0  0  0  0  0  0  0  0  0  0  0  # atno 6907 bound_to 6896
  152.4860  134.4589  159.9608 H   0  0  0  0  0  0  0  0  0  0  0  0  # atno 6908 bound_to 6896
  151.4647  133.3545  159.2850 H   0  0  0  0  0  0  0  0  0  0  0  0  # atno 6909 bound_to 6896
  145.3205  139.2514  143.3714 H   0  0  0  0  0  0  0  0  0  0  0  0  # atno 7974 bound_to 7965
  156.0078  140.3353  155.6910 H   0  0  0  0  0  0  0  0  0  0  0  0  # atno 8008 bound_to 7997
  155.6200  140.0674  157.2699 H   0  0  0  0  0  0  0  0  0  0  0  0  # atno 8009 bound_to 7997
  154.4271  140.1778  156.1349 H   0  0  0  0  0  0  0  0  0  0  0  0  # atno 8010 bound_to 7997
  140.6819  143.2832  151.3778 H   0  0  0  0  0  0  0  0  0  0  0  0  # atno 10167 bound_to 10162
  156.1146  130.6276  150.9359 H   0  0  0  0  0  0  0  0  0  0  0  0  # atno 10718 bound_to 10713
  154.7558  135.4944  153.9372 H   0  0  0  0  0  0  0  0  0  0  0  0  # atno 10763 bound_to 10752
  153.1194  135.6728  153.9369 H   0  0  0  0  0  0  0  0  0  0  0  0  # atno 10764 bound_to 10752
  153.9105  135.3099  155.3427 H   0  0  0  0  0  0  0  0  0  0  0  0  # atno 10765 bound_to 10752
  141.1382  133.8164  157.0694 H   0  0  0  0  0  0  0  0  0  0  0  0  # atno 11005 bound_to 11000
  146.3084  140.3761  142.8679 LP  0  0  0  0  0  0  0  0  0  0  0  0  # atno 17320 bound_to 7965
  144.8943  140.7564  143.5907 LP  0  0  0  0  0  0  0  0  0  0  0  0  # atno 17321 bound_to 7965
  139.6147  144.1027  152.2334 LP  0  0  0  0  0  0  0  0  0  0  0  0  # atno 17342 bound_to 10162
  140.0452  144.5976  150.7379 LP  0  0  0  0  0  0  0  0  0  0  0  0  # atno 17343 bound_to 10162
  157.6329  131.0919  150.8405 LP  0  0  0  0  0  0  0  0  0  0  0  0  # atno 17370 bound_to 10713
  156.8511  130.5080  149.5312 LP  0  0  0  0  0  0  0  0  0  0  0  0  # atno 17371 bound_to 10713
  140.0521  134.9800  157.1154 LP  0  0  0  0  0  0  0  0  0  0  0  0  # atno 17394 bound_to 11000
  140.3975  134.2118  155.7164 LP  0  0  0  0  0  0  0  0  0  0  0  0  # atno 17395 bound_to 11000

$$$$
