AV-unprocessed.smi:3011|AV-procd|sdf|11458|dock10
  -GOLD-   2272016393D 1   1.00000     0.00000
 Structure written by MMmdl.
 46 48  0  0  0  0  0  0  0  0  1 V2000
  144.5308  143.9981  157.7791 C   0  0  0  0  0  0  0  0  0  0  0  0
  145.5938  143.0833  157.5568 O   0  0  0  0  0  0  0  0  0  0  0  0
  145.9750  142.8242  156.2565 C   0  0  0  0  0  0  0  0  0  0  0  0
  145.3129  143.3623  155.1239 C   0  0  0  0  0  0  0  0  0  0  0  0
  145.7630  143.0656  153.8249 C   0  0  0  0  0  0  0  0  0  0  0  0
  146.8785  142.2312  153.6422 C   0  0  0  0  0  0  0  0  0  0  0  0
  147.5431  141.6919  154.7582 C   0  0  0  0  0  0  0  0  0  0  0  0
  147.0963  141.9818  156.0725 C   0  0  0  0  0  0  0  0  0  0  0  0
  147.6955  141.4797  157.2092 O   0  0  0  0  0  0  0  0  0  0  0  0
  148.9392  140.8058  157.0762 C   0  0  0  0  0  0  0  0  0  0  0  0
  150.0711  141.8307  156.9192 C   0  0  0  0  0  0  0  0  0  0  0  0
  151.0240  141.7809  158.0205 N   0  0  0  0  0  0  0  0  0  0  0  0
  151.8403  140.7654  158.4114 C   0  0  0  0  0  0  0  0  0  0  0  0
  151.9005  139.4346  157.7048 C   0  0  1  0  0  0  0  0  0  0  0  0
  152.2055  139.5880  156.2077 C   0  0  0  0  0  0  0  0  0  0  0  0
  152.9244  138.6186  158.3480 N   0  0  0  0  0  0  0  0  0  0  0  0
  152.6704  137.5055  159.0466 C   0  0  0  0  0  0  0  0  0  0  0  0
  151.5379  137.0606  159.2140 O   0  0  0  0  0  0  0  0  0  0  0  0
  152.5768  141.0084  159.4991 N   0  0  0  0  0  0  0  0  0  0  0  0
  152.2359  142.3054  159.8215 C   0  0  0  0  0  0  0  0  0  0  0  0
  152.6874  143.1399  160.8687 C   0  0  0  0  0  0  0  0  0  0  0  0
  152.1895  144.4529  161.0001 C   0  0  0  0  0  0  0  0  0  0  0  0
  151.2347  144.9477  160.0886 C   0  0  0  0  0  0  0  0  0  0  0  0
  150.7699  144.1308  159.0398 C   0  0  0  0  0  0  0  0  0  0  0  0
  151.2701  142.8205  158.9131 C   0  0  0  0  0  0  0  0  0  0  0  0
  144.3459  144.0792  158.8500 H   0  0  0  0  0  0  0  0  0  0  0  0
  143.6066  143.6571  157.3109 H   0  0  0  0  0  0  0  0  0  0  0  0
  144.7784  144.9945  157.4113 H   0  0  0  0  0  0  0  0  0  0  0  0
  144.4554  144.0100  155.2242 H   0  0  0  0  0  0  0  0  0  0  0  0
  145.2527  143.4806  152.9682 H   0  0  0  0  0  0  0  0  0  0  0  0
  147.2251  142.0033  152.6449 H   0  0  0  0  0  0  0  0  0  0  0  0
  148.3935  141.0531  154.5771 H   0  0  0  0  0  0  0  0  0  0  0  0
  149.1338  140.1796  157.9479 H   0  0  0  0  0  0  0  0  0  0  0  0
  148.9145  140.1606  156.1968 H   0  0  0  0  0  0  0  0  0  0  0  0
  150.6133  141.6264  155.9957 H   0  0  0  0  0  0  0  0  0  0  0  0
  149.6788  142.8408  156.8078 H   0  0  0  0  0  0  0  0  0  0  0  0
  150.9451  138.9181  157.7821 H   0  0  0  0  0  0  0  0  0  0  0  0
  151.4568  140.2126  155.7198 H   0  0  0  0  0  0  0  0  0  0  0  0
  152.2087  138.6197  155.7066 H   0  0  0  0  0  0  0  0  0  0  0  0
  153.1790  140.0503  156.0411 H   0  0  0  0  0  0  0  0  0  0  0  0
  153.8819  138.9282  158.2667 H   0  0  0  0  0  0  0  0  0  0  0  0
  153.5910  137.0501  159.4434 H   0  0  0  0  0  0  0  0  0  0  0  0
  153.4187  142.7690  161.5716 H   0  0  0  0  0  0  0  0  0  0  0  0
  152.5416  145.0829  161.8037 H   0  0  0  0  0  0  0  0  0  0  0  0
  150.8585  145.9546  160.1954 H   0  0  0  0  0  0  0  0  0  0  0  0
  150.0387  144.5085  158.3410 H   0  0  0  0  0  0  0  0  0  0  0  0
  1  2  1  0  0  0  0
  1 26  1  0  0  0  0
  1 27  1  0  0  0  0
  1 28  1  0  0  0  0
  2  3  1  0  0  0  0
  3  8  1  0  0  0  0
  3  4  2  0  0  0  0
  4  5  1  0  0  0  0
  4 29  1  0  0  0  0
  5  6  2  0  0  0  0
  5 30  1  0  0  0  0
  6  7  1  0  0  0  0
  6 31  1  0  0  0  0
  7  8  2  0  0  0  0
  7 32  1  0  0  0  0
  8  9  1  0  0  0  0
  9 10  1  0  0  0  0
 10 11  1  0  0  0  0
 10 33  1  0  0  0  0
 10 34  1  0  0  0  0
 11 12  1  0  0  0  0
 11 35  1  0  0  0  0
 11 36  1  0  0  0  0
 12 25  1  0  0  0  0
 12 13  1  0  0  0  0
 13 14  1  0  0  0  0
 13 19  2  0  0  0  0
 14 15  1  0  0  0  0
 14 16  1  0  0  0  0
 14 37  1  0  0  0  0
 15 38  1  0  0  0  0
 15 39  1  0  0  0  0
 15 40  1  0  0  0  0
 16 17  1  0  0  0  0
 16 41  1  0  0  0  0
 17 18  2  0  0  0  0
 17 42  1  0  0  0  0
 19 20  1  0  0  0  0
 20 25  2  0  0  0  0
 20 21  1  0  0  0  0
 21 22  2  0  0  0  0
 21 43  1  0  0  0  0
 22 23  1  0  0  0  0
 22 44  1  0  0  0  0
 23 24  2  0  0  0  0
 23 45  1  0  0  0  0
 24 25  1  0  0  0  0
 24 46  1  0  0  0  0
M  END
> <s_m_source_file>
AV-unprocessed.smi

> <i_m_source_file_index>
3011

> <i_lp_mmshare_version>
43012

> <i_f3d_flags>
0

> <s_epik_input>
W0NIM11PYzFbY0hdW2NIXVtjSF1bY0hdYzFPW0NIMl1bQ0gyXW4oYyhuMilbQ0BIXShbQ0gzXSlbTkhdW0NIXT1PKWMoYzIzKVtjSF1bY0hdW2NIXVtjSF0z

> <s_epik_cmdline>
J2VwaWtfcHl0aG9uJywgJy1waCcsICc3LjAnLCAnLXRuJywgJzgnLCAnLW1hJywgJzIwMCcsICctbWV0YWxfYmluZGluZycsICctaW1hZScsICc8aW5maWxlLm1hZT4nLCAnLW9tYWUnLCAnPG91dGZpbGUubWFlPic=

> <r_lp_tautomer_probability>
1

> <r_epik_Ionization_Penalty>
0.0924205

> <r_epik_Ionization_Penalty_Charging>
0

> <r_epik_Ionization_Penalty_Neutral>
0.0924205

> <r_epik_State_Penalty>
0.0827154

> <r_epik_Charging_Adjusted_Penalty>
0.0827154

> <i_epik_Tot_Q>
0

> <i_epik_Tot_abs_Q>
0

> <r_epik_Metal_State_Penalty>
0.071464

> <b_epik_Metal_Only>
0

> <s_lp_Force_Field>
OPLS_2005

> <r_lp_Energy>
16.1318

> <b_lp_Chiralities_Consistent>
1

> <s_lp_Variant>
AV-unprocessed.smi:3011-2

> <Gold.Version>
5.8.1

> <Gold.Id.Protein>
6NUR|6NUR_protein|mol2

> <Gold.PLP.Fitness>
48.6668

> <Gold.PLP.PLP>
-46.8796

> <Gold.PLP.part.hbond>
-1.0000

> <Gold.PLP.part.metal>
0.0000

> <Gold.PLP.part.buried>
-8.1887

> <Gold.PLP.part.nonpolar>
-37.8661

> <Gold.PLP.part.repulsive>
0.2910

> <Gold.PLP.ligand.clash>
0.0000

> <Gold.PLP.ligand.torsion>
0.6483

> <Gold.PLP.Chemscore.Hbond>
0.9913

> <Gold.PLP.Chemscore.CHOScore>
0.0000

> <Gold.PLP.Chemscore.Metal>
0.0000

> <Gold.Chemscore.Hbonds>
donor molecule, donor type, donor heavy atom, donor atom, acceptor molecule, acceptor atom, score
      P1  H  6896  6909       L1    18  0.99

> <Gold.PLP.Chemscore.Internal.Correction>
0.1100

> <Gold.Rescore>
     Score         DG    S(hbond)    S(metal)    S(lipo)     H(rot)  DE(clash)    DE(int)     intcor
     14.85     -15.90       0.96        0.00     118.34       2.59       0.32       0.73       ----

> <Gold.Chemscore.Fitness>
14.8523

> <Gold.Chemscore.DG>
-15.8968

> <Gold.Chemscore.ZeroCoef>
-5.4800

> <Gold.Chemscore.Hbond>
0.9595

> <Gold.Chemscore.Metal>
0.0000

> <Gold.Chemscore.Lipo>
118.3424

> <Gold.Chemscore.Internal_Hbond>
0.0000

> <Gold.Chemscore.DEClash>
0.3189

> <Gold.Chemscore.DEInternal>
0.7256

> <Gold.Chemscore.Rot>
2.5914

> <Gold.Chemscore.Internal.Correction>
   9.000000E+99

> <Gold.Chemscore.Hbonds>
donor molecule, donor type, donor heavy atom, donor atom, acceptor molecule, acceptor atom, score
      P1  H  6896  6909       L1    18  0.83

> <Gold.Chemscore.Hbond.Weighted>
-3.2048

> <Gold.Chemscore.Metal.Weighted>
-0.0000

> <Gold.Chemscore.Lipo.Weighted>
-13.8461

> <Gold.Chemscore.Internal_Hbond.Weighted>
0.0000

> <Gold.Chemscore.DEClash.Weighted>
0.3189

> <Gold.Chemscore.DEInternal.Weighted>
0.7256

> <Gold.Chemscore.Rot.Weighted>
6.6340

> <Gold.Chemscore.Internal.Correction.Weighted>
   9.000000E+99

> <Gold.Protein.RotatedTorsions>
[ 6907 6896 6895 6894 ] final  112.38 input  -60.11 | X-H torsion
[ 7974 7965 7964 7962 ] final  127.22 input  175.53 | X-H torsion
[ 8008 7997 7996 7995 ] final  120.27 input   59.86 | X-H torsion
[ 10167 10162 10161 10158 ] final  -15.20 input  -65.29 | X-H torsion
[ 10718 10713 10712 10709 ] final -166.33 input   66.30 | X-H torsion
[ 10763 10752 10751 10750 ] final    1.11 input  -60.55 | X-H torsion
[ 11005 11000 10999 10996 ] final  -74.49 input  -57.11 | X-H torsion

> <Gold.Protein.ActiveResidues>
 VAL166  LYS551  ARG553  GLY616  TRP617  ASP618  TYR619  PRO620  LYS621  CYS622 
 ASP623  PHE694  ASN695  SER759  ASP760  ASP761  ALA762  ILE779  LEU786  VAL792 
 PHE793  MET794  SER795  GLU796  ALA797  LYS798  CYS799  TRP800  GLU811  SER814 

> <Gold.Protein.RotatedAtoms>
  152.4919  133.8525  159.7208 H   0  0  0  0  0  0  0  0  0  0  0  0  # atno 6907 bound_to 6896
  150.9058  133.7051  159.2874 H   0  0  0  0  0  0  0  0  0  0  0  0  # atno 6908 bound_to 6896
  151.4477  135.1031  159.9741 H   0  0  0  0  0  0  0  0  0  0  0  0  # atno 6909 bound_to 6896
  145.0530  139.3867  143.5044 H   0  0  0  0  0  0  0  0  0  0  0  0  # atno 7974 bound_to 7965
  156.2635  140.2834  156.1123 H   0  0  0  0  0  0  0  0  0  0  0  0  # atno 8008 bound_to 7997
  155.1244  140.0393  157.2776 H   0  0  0  0  0  0  0  0  0  0  0  0  # atno 8009 bound_to 7997
  154.6646  140.2574  155.7078 H   0  0  0  0  0  0  0  0  0  0  0  0  # atno 8010 bound_to 7997
  140.7214  143.5243  150.9596 H   0  0  0  0  0  0  0  0  0  0  0  0  # atno 10167 bound_to 10162
  156.6664  130.9066  151.3037 H   0  0  0  0  0  0  0  0  0  0  0  0  # atno 10718 bound_to 10713
  153.3121  135.6963  153.7106 H   0  0  0  0  0  0  0  0  0  0  0  0  # atno 10763 bound_to 10752
  153.5979  135.3467  155.2935 H   0  0  0  0  0  0  0  0  0  0  0  0  # atno 10764 bound_to 10752
  154.8578  135.4333  154.2263 H   0  0  0  0  0  0  0  0  0  0  0  0  # atno 10765 bound_to 10752
  141.1635  133.6913  156.7372 H   0  0  0  0  0  0  0  0  0  0  0  0  # atno 11005 bound_to 11000
  146.3519  140.0190  142.8660 LP  0  0  0  0  0  0  0  0  0  0  0  0  # atno 17320 bound_to 7965
  145.1503  140.9619  143.4437 LP  0  0  0  0  0  0  0  0  0  0  0  0  # atno 17321 bound_to 7965
  139.8961  143.6893  152.3138 LP  0  0  0  0  0  0  0  0  0  0  0  0  # atno 17342 bound_to 10162
  139.7226  144.7599  151.0930 LP  0  0  0  0  0  0  0  0  0  0  0  0  # atno 17343 bound_to 10162
  157.7092  130.9420  150.1032 LP  0  0  0  0  0  0  0  0  0  0  0  0  # atno 17370 bound_to 10713
  156.1972  130.3658  149.8834 LP  0  0  0  0  0  0  0  0  0  0  0  0  # atno 17371 bound_to 10713
  140.2701  134.8399  157.3839 LP  0  0  0  0  0  0  0  0  0  0  0  0  # atno 17394 bound_to 11000
  140.1529  134.4826  155.7948 LP  0  0  0  0  0  0  0  0  0  0  0  0  # atno 17395 bound_to 11000

$$$$
