#       Name:                AV-unprocessed.smi:93
#       Creating user name   scv26
#       Creation time:       Thu Mar 26 17:29:15 2020


#       File generated by GOLD software.
#

@<TRIPOS>MOLECULE
AV-unprocessed.smi:93
    61    63     1
SMALL
NO_CHARGES


@<TRIPOS>ATOM
      1 ****        -0.0520   3.1201  -1.7562 C.3            1 S1                 0.0000
      2 ****         0.8448   1.9698  -1.7835 N.pl3          1 S1                 0.0000
      3 ****         2.2896   2.1812  -1.9393 C.3            1 S1                 0.0000
      4 ****         3.1051   2.2020  -0.6104 C.3            1 S1                 0.0000
      5 ****         3.0781   0.8184   0.0799 C.3            1 S1                 0.0000
      6 ****         4.5713   2.5823  -0.9505 C.3            1 S1                 0.0000
      7 ****         5.1744   1.6767  -1.8544 O.3            1 S1                 0.0000
      8 ****         2.5196   3.2727   0.3487 C.3            1 S1                 0.0000
      9 ****         3.2667   3.4073   1.5419 O.3            1 S1                 0.0000
     10 ****         0.3208   0.7159  -1.6970 C.ar           1 S1                 0.0000
     11 ****         1.0007  -0.3158  -2.2638 N.ar           1 S1                 0.0000
     12 ****         0.5316  -1.5639  -2.1938 C.ar           1 S1                 0.0000
     13 ****        -0.5817  -2.0035  -1.6071 N.ar           1 S1                 0.0000
     14 ****        -1.2706  -0.9802  -1.0272 C.ar           1 S1                 0.0000
     15 ****        -0.9016   0.3967  -1.0312 C.ar           1 S1                 0.0000
     16 ****        -1.8557   1.1328  -0.3360 N.2            1 S1                 0.0000
     17 ****        -2.7327   0.2484   0.0501 C.2            1 S1                 0.0000
     18 ****        -2.4514  -1.0497  -0.3074 N.pl3          1 S1                 0.0000
     19 ****        -3.2407  -2.2315   0.0064 C.3            1 S1                 0.0000
     20 ****        -2.8127  -2.9304   1.3194 C.3            1 S1                 0.0000
     21 ****        -1.4698  -3.3655   1.1957 O.3            1 S1                 0.0000
     22 ****        -3.6773  -4.1374   1.6593 C.3            1 S1                 0.0000
     23 ****        -3.5823  -4.1992   3.1777 C.3            1 S1                 0.0000
     24 ****        -3.6295  -2.8337   3.5553 O.3            1 S1                 0.0000
     25 ****        -2.9265  -2.0590   2.5877 C.3            1 S1                 0.0000
     26 ****        -0.9413   2.9323  -2.3589 H              1 S1                 0.0000
     27 ****         0.4354   4.0088  -2.1579 H              1 S1                 0.0000
     28 ****        -0.3646   3.3439  -0.7366 H              1 S1                 0.0000
     29 ****         2.7047   1.4441  -2.6267 H              1 S1                 0.0000
     30 ****         2.4313   3.1350  -2.4485 H              1 S1                 0.0000
     31 ****         3.7481   0.7873   0.9393 H              1 S1                 0.0000
     32 ****         3.3877   0.0239  -0.5996 H              1 S1                 0.0000
     33 ****         2.0814   0.5689   0.4433 H              1 S1                 0.0000
     34 ****         4.6146   3.5808  -1.3870 H              1 S1                 0.0000
     35 ****         5.1879   2.6077  -0.0516 H              1 S1                 0.0000
     36 ****         6.0636   1.9559  -2.0103 H              1 S1                 0.0000
     37 ****         2.4772   4.2454  -0.1426 H              1 S1                 0.0000
     38 ****         1.5002   3.0177   0.6373 H              1 S1                 0.0000
     39 ****         2.8459   4.0534   2.0881 H              1 S1                 0.0000
     40 ****         1.1379  -2.3185  -2.6725 H              1 S1                 0.0000
     41 ****        -3.6098   0.5220   0.6184 H              1 S1                 0.0000
     42 ****        -4.2879  -1.9317   0.0652 H              1 S1                 0.0000
     43 ****        -3.1692  -2.9264  -0.8314 H              1 S1                 0.0000
     44 ****        -1.2112  -3.7763   2.0065 H              1 S1                 0.0000
     45 ****        -4.7144  -3.9526   1.3758 H              1 S1                 0.0000
     46 ****        -3.3584  -5.0589   1.1703 H              1 S1                 0.0000
     47 ****        -4.3934  -4.7700   3.6303 H              1 S1                 0.0000
     48 ****        -2.6334  -4.6348   3.4946 H              1 S1                 0.0000
     49 ****        -1.9512  -1.7607   2.9756 H              1 S1                 0.0000
     50 ****        -3.5002  -1.1495   2.4130 H              1 S1                 0.0000
     51 ****         4.6666   1.6715  -2.7158 LP             1 S1                 0.0000
     52 ****         5.1736   0.7571  -1.4614 LP             1 S1                 0.0000
     53 ****         4.1973   3.7028   1.3257 LP             1 S1                 0.0000
     54 ****         3.2984   2.5299   2.0208 LP             1 S1                 0.0000
     55 ****         1.8625  -0.1379  -2.7388 LP             1 S1                 0.0000
     56 ****        -0.8736  -2.9599  -1.5941 LP             1 S1                 0.0000
     57 ****        -1.8665   2.1188  -0.1697 LP             1 S1                 0.0000
     58 ****        -0.8770  -2.5817   1.0109 LP             1 S1                 0.0000
     59 ****        -1.3961  -4.0232   0.4460 LP             1 S1                 0.0000
     60 ****        -3.2013  -2.7190   4.4517 LP             1 S1                 0.0000
     61 ****        -4.5815  -2.5310   3.5995 LP             1 S1                 0.0000
@<TRIPOS>BOND
    1    1    2 1     
    2    1   26 1     
    3    1   27 1     
    4    1   28 1     
    5    2    3 1     
    6    2   10 1     
    7    3    4 1     
    8    3   29 1     
    9    3   30 1     
   10    4    5 1     
   11    4    6 1     
   12    4    8 1     
   13    5   31 1     
   14    5   32 1     
   15    5   33 1     
   16    6    7 1     
   17    6   34 1     
   18    6   35 1     
   19    7   36 1     
   20    8    9 1     
   21    8   37 1     
   22    8   38 1     
   23    9   39 1     
   24   10   15 ar    
   25   10   11 ar    
   26   11   12 ar    
   27   12   13 ar    
   28   12   40 1     
   29   13   14 ar    
   30   14   18 1     
   31   14   15 ar    
   32   15   16 1     
   33   16   17 2     
   34   17   18 1     
   35   17   41 1     
   36   18   19 1     
   37   19   20 1     
   38   19   42 1     
   39   19   43 1     
   40   20   25 1     
   41   20   21 1     
   42   20   22 1     
   43   21   44 1     
   44   22   23 1     
   45   22   45 1     
   46   22   46 1     
   47   23   24 1     
   48   23   47 1     
   49   23   48 1     
   50   24   25 1     
   51   25   49 1     
   52   25   50 1     
   53    7   51 1     
   54    7   52 1     
   55    9   53 1     
   56    9   54 1     
   57   11   55 1     
   58   13   56 1     
   59   16   57 1     
   60   21   58 1     
   61   21   59 1     
   62   24   60 1     
   63   24   61 1     
@<TRIPOS>SUBSTRUCTURE
      1 S1             1
@<TRIPOS>SET
LONE_PAIRS      STATIC     ATOMS    <user>   **** ""
11 51 52 53 54 55 56 57 58 59 60 61
DONOR_HYDROGENS      STATIC     ATOMS    <user>   **** ""
3 36 39 44
ATOM$BLUE        STATIC     ATOMS    COLORGROUP SYSTEM
11 51 52 53 54 55 56 57 58 59 60 61
ATOM$RED        STATIC     ATOMS    COLORGROUP SYSTEM
3 36 39 44
