AV-unprocessed.smi:2247|AV-procd|sdf|9086|dock8
  -GOLD-   2272012293D 1   1.00000     0.00000
 Structure written by MMmdl.
 34 35  0  0  0  0  0  0  0  0  1 V2000
  151.2162  139.6208  155.3309 C   0  0  0  0  0  0  0  0  0  0  0  0
  150.1391  140.7184  155.2697 C   0  0  0  0  0  0  0  0  0  0  0  0
  149.8572  141.3255  156.6532 C   0  0  0  0  0  0  0  0  0  0  0  0
  148.8902  140.2492  154.6549 N   0  0  0  0  0  0  0  0  0  0  0  0
  148.0731  141.0979  153.8026 C   0  0  0  0  0  0  0  0  0  0  0  0
  147.1086  140.1313  153.1086 C   0  0  0  0  0  0  0  0  0  0  0  0
  147.0762  138.8671  153.9826 C   0  0  1  0  0  0  0  0  0  0  0  0
  147.0891  137.6715  153.1416 N   0  0  0  0  0  0  0  0  0  0  0  0
  146.0187  136.9123  152.8640 C   0  0  0  0  0  0  0  0  0  0  0  0
  144.8819  137.1681  153.2623 O   0  0  0  0  0  0  0  0  0  0  0  0
  146.3545  135.8522  152.1100 N   0  0  0  0  0  0  0  0  0  0  0  0
  145.5022  134.8188  151.6459 C   0  0  0  0  0  0  0  0  0  0  0  0
  144.1706  134.8576  151.5757 N   0  0  0  0  0  0  0  0  0  0  0  0
  143.8111  133.6184  151.0663 C   0  0  0  0  0  0  0  0  0  0  0  0
  144.9562  132.8945  150.8538 C   0  0  0  0  0  0  0  0  0  0  0  0
  146.0410  133.6463  151.2181 O   0  0  0  0  0  0  0  0  0  0  0  0
  148.3877  139.0109  154.7559 C   0  0  0  0  0  0  0  0  0  0  0  0
  148.8893  138.0854  155.3943 O   0  0  0  0  0  0  0  0  0  0  0  0
  152.1600  140.0261  155.6972 H   0  0  0  0  0  0  0  0  0  0  0  0
  151.4046  139.1976  154.3437 H   0  0  0  0  0  0  0  0  0  0  0  0
  150.9314  138.8075  155.9986 H   0  0  0  0  0  0  0  0  0  0  0  0
  150.5428  141.5120  154.6382 H   0  0  0  0  0  0  0  0  0  0  0  0
  150.7683  141.7240  157.0999 H   0  0  0  0  0  0  0  0  0  0  0  0
  149.4505  140.5796  157.3369 H   0  0  0  0  0  0  0  0  0  0  0  0
  149.1399  142.1444  156.5882 H   0  0  0  0  0  0  0  0  0  0  0  0
  147.5256  141.8123  154.4188 H   0  0  0  0  0  0  0  0  0  0  0  0
  148.6752  141.6518  153.0814 H   0  0  0  0  0  0  0  0  0  0  0  0
  146.1167  140.5665  152.9814 H   0  0  0  0  0  0  0  0  0  0  0  0
  147.4904  139.9040  152.1114 H   0  0  0  0  0  0  0  0  0  0  0  0
  146.2332  138.8870  154.6756 H   0  0  0  0  0  0  0  0  0  0  0  0
  147.9844  137.3855  152.7739 H   0  0  0  0  0  0  0  0  0  0  0  0
  147.3262  135.7653  151.8524 H   0  0  0  0  0  0  0  0  0  0  0  0
  142.7786  133.3511  150.8959 H   0  0  0  0  0  0  0  0  0  0  0  0
  145.1570  131.9027  150.4766 H   0  0  0  0  0  0  0  0  0  0  0  0
  1  2  1  0  0  0  0
  1 19  1  0  0  0  0
  1 20  1  0  0  0  0
  1 21  1  0  0  0  0
  2  3  1  0  0  0  0
  2  4  1  0  0  0  0
  2 22  1  0  0  0  0
  3 23  1  0  0  0  0
  3 24  1  0  0  0  0
  3 25  1  0  0  0  0
  4 17  1  0  0  0  0
  4  5  1  0  0  0  0
  5  6  1  0  0  0  0
  5 26  1  0  0  0  0
  5 27  1  0  0  0  0
  6  7  1  0  0  0  0
  6 28  1  0  0  0  0
  6 29  1  0  0  0  0
  7  8  1  0  0  0  0
  7 17  1  0  0  0  0
  7 30  1  0  0  0  0
  8  9  1  0  0  0  0
  8 31  1  0  0  0  0
  9 10  2  0  0  0  0
  9 11  1  0  0  0  0
 11 12  1  0  0  0  0
 11 32  1  0  0  0  0
 12 16  1  0  0  0  0
 12 13  2  0  0  0  0
 13 14  1  0  0  0  0
 14 15  2  0  0  0  0
 14 33  1  0  0  0  0
 15 16  1  0  0  0  0
 15 34  1  0  0  0  0
 17 18  2  0  0  0  0
M  END
> <s_m_source_file>
AV-unprocessed.smi

> <i_m_source_file_index>
2247

> <i_lp_mmshare_version>
43012

> <i_f3d_flags>
0

> <s_epik_input>
W0NIM11bQ0hdKFtDSDNdKU4xW0NIMl1bQ0gyXVtDQEhdKEMxPU8pW05IXUMoPU8pW05IXWMybltjSF1bY0hdbzI=

> <s_epik_cmdline>
J2VwaWtfcHl0aG9uJywgJy1waCcsICc3LjAnLCAnLXRuJywgJzgnLCAnLW1hJywgJzIwMCcsICctbWV0YWxfYmluZGluZycsICctaW1hZScsICc8aW5maWxlLm1hZT4nLCAnLW9tYWUnLCAnPG91dGZpbGUubWFlPic=

> <r_lp_tautomer_probability>
0.785861

> <r_epik_Ionization_Penalty>
5.15801e-05

> <r_epik_Ionization_Penalty_Charging>
0

> <r_epik_Ionization_Penalty_Neutral>
5.15801e-05

> <r_epik_State_Penalty>
0.0205761

> <r_epik_Charging_Adjusted_Penalty>
0.0205761

> <i_epik_Tot_Q>
0

> <i_epik_Tot_abs_Q>
0

> <r_epik_Metal_State_Penalty>
0.0168939

> <b_epik_Metal_Only>
0

> <s_lp_Force_Field>
OPLS_2005

> <r_lp_Energy>
20.5401

> <b_lp_Chiralities_Consistent>
1

> <s_lp_Variant>
AV-unprocessed.smi:2247-1

> <Gold.Version>
5.8.1

> <Gold.Id.Protein>
6NUR|6NUR_protein|mol2

> <Gold.PLP.Fitness>
33.1234

> <Gold.PLP.PLP>
-26.2188

> <Gold.PLP.part.hbond>
-2.0000

> <Gold.PLP.part.metal>
0.0000

> <Gold.PLP.part.buried>
-1.9949

> <Gold.PLP.part.nonpolar>
-22.5549

> <Gold.PLP.part.repulsive>
0.6101

> <Gold.PLP.ligand.clash>
0.0000

> <Gold.PLP.ligand.torsion>
1.0888

> <Gold.PLP.Chemscore.Hbond>
2.0000

> <Gold.PLP.Chemscore.CHOScore>
1.0000

> <Gold.PLP.Chemscore.Metal>
0.0000

> <Gold.Chemscore.Hbonds>
donor molecule, donor type, donor heavy atom, donor atom, acceptor molecule, acceptor atom, score
      L1  H     8    31       P1  7948  1.00
      L1  H    11    32       P1  7948  1.00
      L1  C    14    33       P1 10186  1.00

> <Gold.PLP.Chemscore.Internal.Correction>
0.0821

> <Gold.Rescore>
     Score         DG    S(hbond)    S(metal)    S(lipo)     H(rot)  DE(clash)    DE(int)     intcor
     11.26     -14.89       1.93        0.00      54.57       1.33       0.12       3.51       ----

> <Gold.Chemscore.Fitness>
11.2633

> <Gold.Chemscore.DG>
-14.8941

> <Gold.Chemscore.ZeroCoef>
-5.4800

> <Gold.Chemscore.Hbond>
1.9294

> <Gold.Chemscore.Metal>
0.0000

> <Gold.Chemscore.Lipo>
54.5684

> <Gold.Chemscore.Internal_Hbond>
0.0000

> <Gold.Chemscore.DEClash>
0.1165

> <Gold.Chemscore.DEInternal>
3.5143

> <Gold.Chemscore.Rot>
1.3338

> <Gold.Chemscore.Internal.Correction>
   9.000000E+99

> <Gold.Chemscore.Hbonds>
donor molecule, donor type, donor heavy atom, donor atom, acceptor molecule, acceptor atom, score
      L1  H     8    31       P1  7948  0.94
      L1  H    11    32       P1  7948  0.98

> <Gold.Chemscore.Hbond.Weighted>
-6.4441

> <Gold.Chemscore.Metal.Weighted>
-0.0000

> <Gold.Chemscore.Lipo.Weighted>
-6.3845

> <Gold.Chemscore.Internal_Hbond.Weighted>
0.0000

> <Gold.Chemscore.DEClash.Weighted>
0.1165

> <Gold.Chemscore.DEInternal.Weighted>
3.5143

> <Gold.Chemscore.Rot.Weighted>
3.4145

> <Gold.Chemscore.Internal.Correction.Weighted>
   9.000000E+99

> <Gold.Protein.RotatedTorsions>
[ 6907 6896 6895 6894 ] final -136.00 input  -60.11 | X-H torsion
[ 7974 7965 7964 7962 ] final  -14.71 input  175.53 | X-H torsion
[ 8008 7997 7996 7995 ] final  110.92 input   59.86 | X-H torsion
[ 10167 10162 10161 10158 ] final  119.68 input  -65.29 | X-H torsion
[ 10718 10713 10712 10709 ] final  -69.79 input   66.30 | X-H torsion
[ 10763 10752 10751 10750 ] final -101.17 input  -60.55 | X-H torsion
[ 11005 11000 10999 10996 ] final   15.97 input  -57.11 | X-H torsion

> <Gold.Protein.ActiveResidues>
 VAL166  LYS551  ARG553  GLY616  TRP617  ASP618  TYR619  PRO620  LYS621  CYS622 
 ASP623  PHE694  ASN695  SER759  ASP760  ASP761  ALA762  ILE779  LEU786  VAL792 
 PHE793  MET794  SER795  GLU796  ALA797  LYS798  CYS799  TRP800  GLU811  SER814 

> <Gold.Protein.RotatedAtoms>
  151.0047  133.6022  159.2690 H   0  0  0  0  0  0  0  0  0  0  0  0  # atno 6907 bound_to 6896
  151.3196  135.0814  159.9311 H   0  0  0  0  0  0  0  0  0  0  0  0  # atno 6908 bound_to 6896
  152.5283  133.9697  159.7810 H   0  0  0  0  0  0  0  0  0  0  0  0  # atno 6909 bound_to 6896
  146.2063  140.3387  142.8406 H   0  0  0  0  0  0  0  0  0  0  0  0  # atno 7974 bound_to 7965
  156.2087  140.3029  155.9684 H   0  0  0  0  0  0  0  0  0  0  0  0  # atno 8008 bound_to 7997
  155.2777  140.0436  157.3030 H   0  0  0  0  0  0  0  0  0  0  0  0  # atno 8009 bound_to 7997
  154.5669  140.2337  155.8258 H   0  0  0  0  0  0  0  0  0  0  0  0  # atno 8010 bound_to 7997
  139.6030  144.7062  151.3017 H   0  0  0  0  0  0  0  0  0  0  0  0  # atno 10167 bound_to 10162
  156.0439  130.4319  150.2199 H   0  0  0  0  0  0  0  0  0  0  0  0  # atno 10718 bound_to 10713
  154.7637  135.4907  153.9513 H   0  0  0  0  0  0  0  0  0  0  0  0  # atno 10763 bound_to 10752
  153.1282  135.6747  153.9230 H   0  0  0  0  0  0  0  0  0  0  0  0  # atno 10764 bound_to 10752
  153.8941  135.3117  155.3426 H   0  0  0  0  0  0  0  0  0  0  0  0  # atno 10765 bound_to 10752
  140.4523  134.1211  155.7704 H   0  0  0  0  0  0  0  0  0  0  0  0  # atno 11005 bound_to 11000
  144.8801  140.7388  143.5992 LP  0  0  0  0  0  0  0  0  0  0  0  0  # atno 17320 bound_to 7965
  145.3307  139.1760  143.4538 LP  0  0  0  0  0  0  0  0  0  0  0  0  # atno 17321 bound_to 7965
  140.7264  143.6991  150.7860 LP  0  0  0  0  0  0  0  0  0  0  0  0  # atno 17342 bound_to 10162
  140.0571  143.5192  152.2646 LP  0  0  0  0  0  0  0  0  0  0  0  0  # atno 17343 bound_to 10162
  157.0291  131.0002  151.3317 LP  0  0  0  0  0  0  0  0  0  0  0  0  # atno 17370 bound_to 10713
  157.5290  130.8046  149.7895 LP  0  0  0  0  0  0  0  0  0  0  0  0  # atno 17371 bound_to 10713
  141.1658  133.8705  157.1717 LP  0  0  0  0  0  0  0  0  0  0  0  0  # atno 17394 bound_to 11000
  139.9998  135.0032  157.0165 LP  0  0  0  0  0  0  0  0  0  0  0  0  # atno 17395 bound_to 11000

$$$$
