#       Name:                AV-unprocessed.smi:265
#       Creating user name   scv26
#       Creation time:       Thu Mar 26 21:23:36 2020


#       File generated by GOLD software.
#

@<TRIPOS>MOLECULE
AV-unprocessed.smi:265
    64    68     1
SMALL
NO_CHARGES


@<TRIPOS>ATOM
      1 ****        -2.8098   4.2642  -1.5835 C.3            1 S1                 0.0000
      2 ****        -2.7409   3.4711  -0.2692 C.3            1 S1                 0.0000
      3 ****        -4.0447   3.1383   0.2053 O.3            1 S1                 0.0000
      4 ****        -4.1457   3.3891   1.6025 C.3            1 S1                 0.0000
      5 ****        -2.7079   3.5119   2.0966 C.3            1 S1                 0.0000
      6 ****        -2.0024   4.1487   0.9070 C.3            1 S1                 0.0000
      7 ****        -2.2692   5.5413   0.9201 O.3            1 S1                 0.0000
      8 ****        -0.4578   4.0084   0.9013 C.3            1 S1                 0.0000
      9 ****         0.0360   2.6402   0.8802 N.pl3          1 S1                 0.0000
     10 ****         0.2865   1.8344   1.9692 C.2            1 S1                 0.0000
     11 ****         0.7308   0.6392   1.6897 N.2            1 S1                 0.0000
     12 ****         0.8103   0.6282   0.3034 C.ar           1 S1                 0.0000
     13 ****         1.2129  -0.3386  -0.6535 C.ar           1 S1                 0.0000
     14 ****         1.6306  -1.5699  -0.2925 N.3            1 S1                 0.0000
     15 ****         3.0424  -1.8198  -0.5863 C.3            1 S1                 0.0000
     16 ****         3.5084  -3.1543   0.0265 C.3            1 S1                 0.0000
     17 ****         2.5858  -4.2898  -0.4380 C.3            1 S1                 0.0000
     18 ****         2.9056  -5.5251   0.1842 O.3            1 S1                 0.0000
     19 ****         2.1695  -6.6350  -0.3427 C.3            1 S1                 0.0000
     20 ****         0.6600  -6.3418  -0.4825 C.2            1 S1                 0.0000
     21 ****        -0.1256  -7.2638  -0.6901 O.2            1 S1                 0.0000
     22 ****         0.2527  -5.0636  -0.4134 N.am           1 S1                 0.0000
     23 ****         1.1354  -3.9646  -0.0461 C.3            1 S1                 0.0000
     24 ****         0.7065  -2.6337  -0.6844 C.3            1 S1                 0.0000
     25 ****         1.1669   0.0043  -1.9676 N.ar           1 S1                 0.0000
     26 ****         0.7512   1.2245  -2.3222 C.ar           1 S1                 0.0000
     27 ****         0.3442   2.2281  -1.5410 N.ar           1 S1                 0.0000
     28 ****         0.3879   1.8806  -0.2223 C.ar           1 S1                 0.0000
     29 ****         2.6778  -4.3954  -1.5212 H              1 S1                 0.0000
     30 ****         1.0750  -3.8637   1.0392 H              1 S1                 0.0000
     31 ****        -1.8112   4.5171  -1.9400 H              1 S1                 0.0000
     32 ****        -3.3715   5.1910  -1.4661 H              1 S1                 0.0000
     33 ****        -3.3009   3.6799  -2.3617 H              1 S1                 0.0000
     34 ****        -2.2763   2.5089  -0.4789 H              1 S1                 0.0000
     35 ****        -4.6835   4.3261   1.7517 H              1 S1                 0.0000
     36 ****        -4.6975   2.5981   2.1109 H              1 S1                 0.0000
     37 ****        -2.6190   4.0867   3.0192 H              1 S1                 0.0000
     38 ****        -2.3249   2.5106   2.2893 H              1 S1                 0.0000
     39 ****        -1.8875   5.9137   1.7001 H              1 S1                 0.0000
     40 ****        -0.0426   4.5279   0.0363 H              1 S1                 0.0000
     41 ****        -0.0364   4.5013   1.7786 H              1 S1                 0.0000
     42 ****         0.1211   2.1613   2.9857 H              1 S1                 0.0000
     43 ****         3.1898  -1.8401  -1.6673 H              1 S1                 0.0000
     44 ****         3.6499  -1.0018  -0.1965 H              1 S1                 0.0000
     45 ****         4.5393  -3.3612  -0.2617 H              1 S1                 0.0000
     46 ****         3.4940  -3.0849   1.1150 H              1 S1                 0.0000
     47 ****         2.5666  -6.8951  -1.3247 H              1 S1                 0.0000
     48 ****         2.3192  -7.4996   0.3043 H              1 S1                 0.0000
     49 ****        -0.7277  -4.8580  -0.5397 H              1 S1                 0.0000
     50 ****        -0.3053  -2.3763  -0.3671 H              1 S1                 0.0000
     51 ****         0.6912  -2.7251  -1.7715 H              1 S1                 0.0000
     52 ****         0.7419   1.4254  -3.3833 H              1 S1                 0.0000
     53 ****        -4.2209   2.1695   0.0312 LP             1 S1                 0.0000
     54 ****        -4.7223   3.6924  -0.2784 LP             1 S1                 0.0000
     55 ****        -3.2573   5.6951   0.9219 LP             1 S1                 0.0000
     56 ****        -1.8669   5.9691   0.1107 LP             1 S1                 0.0000
     57 ****         0.9605  -0.0973   2.3259 LP             1 S1                 0.0000
     58 ****         1.5990  -1.5894   0.7068 LP             1 S1                 0.0000
     59 ****         2.7073  -5.4485   1.1613 LP             1 S1                 0.0000
     60 ****         3.8813  -5.7018   0.0548 LP             1 S1                 0.0000
     61 ****         0.2132  -8.2014  -0.7681 LP             1 S1                 0.0000
     62 ****        -1.1037  -7.0764  -0.7809 LP             1 S1                 0.0000
     63 ****         1.4432  -0.6542  -2.6676 LP             1 S1                 0.0000
     64 ****         0.0455   3.1205  -1.8794 LP             1 S1                 0.0000
@<TRIPOS>BOND
    1    1    2 1     
    2    1   31 1     
    3    1   32 1     
    4    1   33 1     
    5    2    6 1     
    6    2    3 1     
    7    2   34 1     
    8    3    4 1     
    9    4    5 1     
   10    4   35 1     
   11    4   36 1     
   12    5    6 1     
   13    5   37 1     
   14    5   38 1     
   15    6    7 1     
   16    6    8 1     
   17    7   39 1     
   18    8    9 1     
   19    8   40 1     
   20    8   41 1     
   21    9   28 1     
   22    9   10 1     
   23   10   11 2     
   24   10   42 1     
   25   11   12 1     
   26   12   28 ar    
   27   12   13 ar    
   28   13   14 1     
   29   13   25 ar    
   30   14   24 1     
   31   14   15 1     
   32   15   16 1     
   33   15   43 1     
   34   15   44 1     
   35   16   17 1     
   36   16   45 1     
   37   16   46 1     
   38   17   29 1     
   39   17   23 1     
   40   17   18 1     
   41   18   19 1     
   42   19   20 1     
   43   19   47 1     
   44   19   48 1     
   45   20   21 2     
   46   20   22 am    
   47   22   23 1     
   48   22   49 1     
   49   23   30 1     
   50   23   24 1     
   51   24   50 1     
   52   24   51 1     
   53   25   26 ar    
   54   26   27 ar    
   55   26   52 1     
   56   27   28 ar    
   57    3   53 1     
   58    3   54 1     
   59    7   55 1     
   60    7   56 1     
   61   11   57 1     
   62   14   58 1     
   63   18   59 1     
   64   18   60 1     
   65   21   61 1     
   66   21   62 1     
   67   25   63 1     
   68   27   64 1     
@<TRIPOS>SUBSTRUCTURE
      1 S1             1
@<TRIPOS>SET
LONE_PAIRS      STATIC     ATOMS    <user>   **** ""
12 53 54 55 56 57 58 59 60 61 62 63 64
DONOR_HYDROGENS      STATIC     ATOMS    <user>   **** ""
2 39 49
ATOM$BLUE        STATIC     ATOMS    COLORGROUP SYSTEM
12 53 54 55 56 57 58 59 60 61 62 63 64
ATOM$RED        STATIC     ATOMS    COLORGROUP SYSTEM
2 39 49
