AV-unprocessed.smi:1394|AV-procd|sdf|5667|dock5
  -GOLD-   22720 5293D 1   1.00000     0.00000
 Structure written by MMmdl.
 41 42  0  0  0  0  0  0  0  0  1 V2000
  148.2777  139.0672  156.3956 C   0  0  0  0  0  0  0  0  0  0  0  0
  147.4421  140.1061  155.6282 C   0  0  2  0  0  0  0  0  0  0  0  0
  147.9350  140.2669  154.1751 C   0  0  0  0  0  0  0  0  0  0  0  0
  147.0563  141.2506  153.3857 C   0  0  0  0  0  0  0  0  0  0  0  0
  146.9711  142.6139  154.0880 C   0  0  0  0  0  0  0  0  0  0  0  0
  146.4841  142.4642  155.5401 C   0  0  0  0  0  0  0  0  0  0  0  0
  147.3517  141.4777  156.3477 C   0  0  2  0  0  0  0  0  0  0  0  0
  148.6724  142.0651  156.5831 N   0  0  0  0  0  0  0  0  0  0  0  0
  149.5619  141.6756  157.5092 C   0  0  0  0  0  0  0  0  0  0  0  0
  149.3636  140.7423  158.2882 O   0  0  0  0  0  0  0  0  0  0  0  0
  150.8744  142.4716  157.5397 C   0  0  0  0  0  0  0  0  0  0  0  0
  151.8080  142.0311  158.5903 N   0  0  0  0  0  0  0  0  0  0  0  0
  152.2513  143.0150  159.4918 C   0  0  0  0  0  0  0  0  0  0  0  0
  153.1028  142.7291  160.4856 C   0  0  0  0  0  0  0  0  0  0  0  0
  153.5643  141.3689  160.6178 C   0  0  0  0  0  0  0  0  0  0  0  0
  153.1605  140.4018  159.7618 C   0  0  0  0  0  0  0  0  0  0  0  0
  153.6334  138.9558  159.8931 C   0  0  0  0  0  0  0  0  0  0  0  0
  152.5990  138.1158  159.8418 F   0  0  0  0  0  0  0  0  0  0  0  0
  154.4710  138.6466  158.9027 F   0  0  0  0  0  0  0  0  0  0  0  0
  154.2700  138.7460  161.0464 F   0  0  0  0  0  0  0  0  0  0  0  0
  152.2255  140.7295  158.6658 C   0  0  0  0  0  0  0  0  0  0  0  0
  151.8369  139.8859  157.8563 O   0  0  0  0  0  0  0  0  0  0  0  0
  149.3320  139.3420  156.4308 H   0  0  0  0  0  0  0  0  0  0  0  0
  148.2108  138.0870  155.9230 H   0  0  0  0  0  0  0  0  0  0  0  0
  147.9251  138.9613  157.4220 H   0  0  0  0  0  0  0  0  0  0  0  0
  146.4270  139.7084  155.5796 H   0  0  0  0  0  0  0  0  0  0  0  0
  148.9691  140.6136  154.1683 H   0  0  0  0  0  0  0  0  0  0  0  0
  147.9347  139.2989  153.6729 H   0  0  0  0  0  0  0  0  0  0  0  0
  147.4526  141.3766  152.3776 H   0  0  0  0  0  0  0  0  0  0  0  0
  146.0540  140.8351  153.2737 H   0  0  0  0  0  0  0  0  0  0  0  0
  147.9497  143.0950  154.0727 H   0  0  0  0  0  0  0  0  0  0  0  0
  146.2980  143.2720  153.5377 H   0  0  0  0  0  0  0  0  0  0  0  0
  146.4646  143.4386  156.0297 H   0  0  0  0  0  0  0  0  0  0  0  0
  145.4526  142.1095  155.5340 H   0  0  0  0  0  0  0  0  0  0  0  0
  146.8543  141.3262  157.3075 H   0  0  0  0  0  0  0  0  0  0  0  0
  148.9278  142.8406  155.9893 H   0  0  0  0  0  0  0  0  0  0  0  0
  151.3519  142.3903  156.5618 H   0  0  0  0  0  0  0  0  0  0  0  0
  150.6381  143.5313  157.6502 H   0  0  0  0  0  0  0  0  0  0  0  0
  151.8628  144.0083  159.3190 H   0  0  0  0  0  0  0  0  0  0  0  0
  153.4361  143.4971  161.1680 H   0  0  0  0  0  0  0  0  0  0  0  0
  154.2457  141.1353  161.4221 H   0  0  0  0  0  0  0  0  0  0  0  0
  1  2  1  0  0  0  0
  1 23  1  0  0  0  0
  1 24  1  0  0  0  0
  1 25  1  0  0  0  0
  2  7  1  0  0  0  0
  2  3  1  0  0  0  0
  2 26  1  0  0  0  0
  3  4  1  0  0  0  0
  3 27  1  0  0  0  0
  3 28  1  0  0  0  0
  4  5  1  0  0  0  0
  4 29  1  0  0  0  0
  4 30  1  0  0  0  0
  5  6  1  0  0  0  0
  5 31  1  0  0  0  0
  5 32  1  0  0  0  0
  6  7  1  0  0  0  0
  6 33  1  0  0  0  0
  6 34  1  0  0  0  0
  7  8  1  0  0  0  0
  7 35  1  0  0  0  0
  8  9  1  0  0  0  0
  8 36  1  0  0  0  0
  9 10  2  0  0  0  0
  9 11  1  0  0  0  0
 11 12  1  0  0  0  0
 11 37  1  0  0  0  0
 11 38  1  0  0  0  0
 12 21  1  0  0  0  0
 12 13  1  0  0  0  0
 13 14  2  0  0  0  0
 13 39  1  0  0  0  0
 14 15  1  0  0  0  0
 14 40  1  0  0  0  0
 15 16  2  0  0  0  0
 15 41  1  0  0  0  0
 16 17  1  0  0  0  0
 16 21  1  0  0  0  0
 17 18  1  0  0  0  0
 17 19  1  0  0  0  0
 17 20  1  0  0  0  0
 21 22  2  0  0  0  0
M  END
> <s_m_source_file>
AV-unprocessed.smi

> <i_m_source_file_index>
1394

> <i_lp_mmshare_version>
43012

> <i_f3d_flags>
0

> <s_epik_input>
W0NIM11bQ0BASF0xW0NIMl1bQ0gyXVtDSDJdW0NIMl1bQ0BIXTFbTkhdQyg9TylbQ0gyXW4yW2NIXVtjSF1bY0hdYyhDKEYpKEYpRiljMj1P

> <s_epik_cmdline>
J2VwaWtfcHl0aG9uJywgJy1waCcsICc3LjAnLCAnLXRuJywgJzgnLCAnLW1hJywgJzIwMCcsICctbWV0YWxfYmluZGluZycsICctaW1hZScsICc8aW5maWxlLm1hZT4nLCAnLW9tYWUnLCAnPG91dGZpbGUubWFlPic=

> <r_lp_tautomer_probability>
1

> <r_epik_Ionization_Penalty>
2.11487e-08

> <r_epik_Ionization_Penalty_Charging>
2.10183e-09

> <r_epik_Ionization_Penalty_Neutral>
1.90469e-08

> <r_epik_State_Penalty>
-0

> <r_epik_Charging_Adjusted_Penalty>
2.10183e-09

> <i_epik_Tot_Q>
0

> <i_epik_Tot_abs_Q>
0

> <r_epik_Metal_State_Penalty>
-0

> <b_epik_Metal_Only>
0

> <s_lp_Force_Field>
OPLS_2005

> <r_lp_Energy>
20.183

> <b_lp_Chiralities_Consistent>
1

> <s_lp_Variant>
AV-unprocessed.smi:1394-3

> <Gold.Version>
5.8.1

> <Gold.Id.Protein>
6NUR|6NUR_protein|mol2

> <Gold.PLP.Fitness>
40.1225

> <Gold.PLP.PLP>
-37.9796

> <Gold.PLP.part.hbond>
-1.0000

> <Gold.PLP.part.metal>
0.0000

> <Gold.PLP.part.buried>
-4.5015

> <Gold.PLP.part.nonpolar>
-32.0396

> <Gold.PLP.part.repulsive>
0.0108

> <Gold.PLP.ligand.clash>
0.0075

> <Gold.PLP.ligand.torsion>
0.5664

> <Gold.PLP.Chemscore.Hbond>
0.9760

> <Gold.PLP.Chemscore.CHOScore>
0.0000

> <Gold.PLP.Chemscore.Metal>
0.0000

> <Gold.Chemscore.Hbonds>
donor molecule, donor type, donor heavy atom, donor atom, acceptor molecule, acceptor atom, score
      L1  H     8    36       P1  8028  0.96

> <Gold.PLP.Chemscore.Internal.Correction>
0.3554

> <Gold.Rescore>
     Score         DG    S(hbond)    S(metal)    S(lipo)     H(rot)  DE(clash)    DE(int)     intcor
      7.22     -14.68       0.88        0.00      86.87       1.52       0.14       7.32       ----

> <Gold.Chemscore.Fitness>
7.2207

> <Gold.Chemscore.DG>
-14.6812

> <Gold.Chemscore.ZeroCoef>
-5.4800

> <Gold.Chemscore.Hbond>
0.8800

> <Gold.Chemscore.Metal>
0.0000

> <Gold.Chemscore.Lipo>
86.8706

> <Gold.Chemscore.Internal_Hbond>
0.0000

> <Gold.Chemscore.DEClash>
0.1380

> <Gold.Chemscore.DEInternal>
7.3225

> <Gold.Chemscore.Rot>
1.5242

> <Gold.Chemscore.Internal.Correction>
   9.000000E+99

> <Gold.Chemscore.Hbonds>
donor molecule, donor type, donor heavy atom, donor atom, acceptor molecule, acceptor atom, score
      L1  H     8    36       P1  8028  0.92

> <Gold.Chemscore.Hbond.Weighted>
-2.9392

> <Gold.Chemscore.Metal.Weighted>
-0.0000

> <Gold.Chemscore.Lipo.Weighted>
-10.1639

> <Gold.Chemscore.Internal_Hbond.Weighted>
0.0000

> <Gold.Chemscore.DEClash.Weighted>
0.1380

> <Gold.Chemscore.DEInternal.Weighted>
7.3225

> <Gold.Chemscore.Rot.Weighted>
3.9019

> <Gold.Chemscore.Internal.Correction.Weighted>
   9.000000E+99

> <Gold.Protein.RotatedTorsions>
[ 6907 6896 6895 6894 ] final -132.54 input  -60.11 | X-H torsion
[ 7974 7965 7964 7962 ] final  -62.80 input  175.53 | X-H torsion
[ 8008 7997 7996 7995 ] final  -86.66 input   59.86 | X-H torsion
[ 10167 10162 10161 10158 ] final  -82.23 input  -65.29 | X-H torsion
[ 10718 10713 10712 10709 ] final  111.28 input   66.30 | X-H torsion
[ 10763 10752 10751 10750 ] final -151.83 input  -60.55 | X-H torsion
[ 11005 11000 10999 10996 ] final  152.63 input  -57.11 | X-H torsion

> <Gold.Protein.ActiveResidues>
 VAL166  LYS551  ARG553  GLY616  TRP617  ASP618  TYR619  PRO620  LYS621  CYS622 
 ASP623  PHE694  ASN695  SER759  ASP760  ASP761  ALA762  ILE779  LEU786  VAL792 
 PHE793  MET794  SER795  GLU796  ALA797  LYS798  CYS799  TRP800  GLU811  SER814 

> <Gold.Protein.RotatedAtoms>
  150.9636  133.6419  159.2749 H   0  0  0  0  0  0  0  0  0  0  0  0  # atno 6907 bound_to 6896
  151.3733  135.0925  159.9482 H   0  0  0  0  0  0  0  0  0  0  0  0  # atno 6908 bound_to 6896
  152.5157  133.9185  159.7577 H   0  0  0  0  0  0  0  0  0  0  0  0  # atno 6909 bound_to 6896
  145.7868  140.8731  143.0301 H   0  0  0  0  0  0  0  0  0  0  0  0  # atno 7974 bound_to 7965
  154.6544  140.0575  156.9992 H   0  0  0  0  0  0  0  0  0  0  0  0  # atno 8008 bound_to 7997
  155.1322  140.3257  155.4453 H   0  0  0  0  0  0  0  0  0  0  0  0  # atno 8009 bound_to 7997
  156.2590  140.1978  156.6441 H   0  0  0  0  0  0  0  0  0  0  0  0  # atno 8010 bound_to 7997
  140.4339  143.2538  151.8721 H   0  0  0  0  0  0  0  0  0  0  0  0  # atno 10167 bound_to 10162
  157.6452  131.0948  150.6726 H   0  0  0  0  0  0  0  0  0  0  0  0  # atno 10718 bound_to 10713
  154.8033  135.3251  154.7495 H   0  0  0  0  0  0  0  0  0  0  0  0  # atno 10763 bound_to 10752
  153.8158  135.6892  153.4838 H   0  0  0  0  0  0  0  0  0  0  0  0  # atno 10764 bound_to 10752
  153.1763  135.4604  154.9913 H   0  0  0  0  0  0  0  0  0  0  0  0  # atno 10765 bound_to 10752
  140.1325  134.8793  157.2222 H   0  0  0  0  0  0  0  0  0  0  0  0  # atno 11005 bound_to 11000
  144.6788  140.0067  143.7484 LP  0  0  0  0  0  0  0  0  0  0  0  0  # atno 17320 bound_to 7965
  146.0017  139.3097  143.0923 LP  0  0  0  0  0  0  0  0  0  0  0  0  # atno 17321 bound_to 7965
  139.4786  144.5304  151.8675 LP  0  0  0  0  0  0  0  0  0  0  0  0  # atno 17342 bound_to 10162
  140.4396  144.2005  150.5891 LP  0  0  0  0  0  0  0  0  0  0  0  0  # atno 17343 bound_to 10162
  156.7044  130.4633  149.5564 LP  0  0  0  0  0  0  0  0  0  0  0  0  # atno 17370 bound_to 10713
  156.1773  130.6476  151.0909 LP  0  0  0  0  0  0  0  0  0  0  0  0  # atno 17371 bound_to 10713
  140.2824  134.3334  155.7339 LP  0  0  0  0  0  0  0  0  0  0  0  0  # atno 17394 bound_to 11000
  141.2172  133.7486  156.9384 LP  0  0  0  0  0  0  0  0  0  0  0  0  # atno 17395 bound_to 11000

$$$$
