AV-unprocessed.smi:2229|AV-procd|sdf|9033|dock9
  -GOLD-   2272012243D 1   1.00000     0.00000
 Structure written by MMmdl.
 43 44  0  0  0  0  0  0  0  0  2 V2000
  155.1765  139.8906  162.4607 C   0  0  0  0  0  0  0  0  0  0  0  0
  154.3314  140.2076  161.2152 C   0  0  0  0  0  0  0  0  0  0  0  0
  155.1764  140.0471  159.9420 C   0  0  0  0  0  0  0  0  0  0  0  0
  153.6946  141.6116  161.2732 C   0  0  0  0  0  0  0  0  0  0  0  0
  152.8098  141.9504  160.0598 C   0  0  0  0  0  0  0  0  0  0  0  0
  152.7732  143.4591  159.7325 C   0  0  2  0  0  0  0  0  0  0  0  0
  152.1490  144.3320  160.8246 C   0  0  0  0  0  0  0  0  0  0  0  0
  151.8827  145.6634  160.1265 C   0  0  0  0  0  0  0  0  0  0  0  0
  151.5135  145.2992  158.6837 C   0  0  0  0  0  0  0  0  0  0  0  0
  152.0117  143.8569  158.4479 C   0  0  2  0  0  0  0  0  0  0  0  0
  150.8912  142.9582  158.1735 N   0  0  0  0  0  0  0  0  0  0  0  0
  150.8734  142.0006  157.2349 C   0  0  0  0  0  0  0  0  0  0  0  0
  151.8297  141.7612  156.4969 O   0  0  0  0  0  0  0  0  0  0  0  0
  149.5810  141.1788  157.1449 C   0  0  0  0  0  0  0  0  0  0  0  0
  148.9395  141.2489  155.8300 N   0  0  0  0  0  0  0  0  0  0  0  0
  147.6753  141.7476  155.6402 C   0  0  0  0  0  0  0  0  0  0  0  0
  147.3551  141.7156  154.3964 N   0  0  0  0  0  0  0  0  0  0  0  0
  148.4775  141.1595  153.7033 N   0  5  0  0  0  0  0  0  0  0  0  0
  149.4182  140.8936  154.6367 C   0  0  0  0  0  0  0  0  0  0  0  0
  150.5401  140.4139  154.4763 O   0  0  0  0  0  0  0  0  0  0  0  0
  155.9813  140.6153  162.5880 H   0  0  0  0  0  0  0  0  0  0  0  0
  155.6305  138.9023  162.3836 H   0  0  0  0  0  0  0  0  0  0  0  0
  154.5751  139.8947  163.3694 H   0  0  0  0  0  0  0  0  0  0  0  0
  153.5264  139.4735  161.1620 H   0  0  0  0  0  0  0  0  0  0  0  0
  156.0080  140.7524  159.9266 H   0  0  0  0  0  0  0  0  0  0  0  0
  154.5781  140.2188  159.0468 H   0  0  0  0  0  0  0  0  0  0  0  0
  155.5921  139.0417  159.8690 H   0  0  0  0  0  0  0  0  0  0  0  0
  153.1176  141.7122  162.1932 H   0  0  0  0  0  0  0  0  0  0  0  0
  154.4909  142.3545  161.3341 H   0  0  0  0  0  0  0  0  0  0  0  0
  153.1861  141.4120  159.1890 H   0  0  0  0  0  0  0  0  0  0  0  0
  151.7966  141.5883  160.2330 H   0  0  0  0  0  0  0  0  0  0  0  0
  153.8027  143.7967  159.6007 H   0  0  0  0  0  0  0  0  0  0  0  0
  151.2071  143.8967  161.1611 H   0  0  0  0  0  0  0  0  0  0  0  0
  152.7956  144.4460  161.6950 H   0  0  0  0  0  0  0  0  0  0  0  0
  151.1048  146.2448  160.6223 H   0  0  0  0  0  0  0  0  0  0  0  0
  152.7938  146.2633  160.1292 H   0  0  0  0  0  0  0  0  0  0  0  0
  150.4337  145.3747  158.5446 H   0  0  0  0  0  0  0  0  0  0  0  0
  151.9708  145.9959  157.9805 H   0  0  0  0  0  0  0  0  0  0  0  0
  152.7034  143.8264  157.6038 H   0  0  0  0  0  0  0  0  0  0  0  0
  150.0622  143.0818  158.7361 H   0  0  0  0  0  0  0  0  0  0  0  0
  149.8097  140.1446  157.4070 H   0  0  0  0  0  0  0  0  0  0  0  0
  148.8723  141.5337  157.8950 H   0  0  0  0  0  0  0  0  0  0  0  0
  147.0903  142.1031  156.4900 H   0  0  0  0  0  0  0  0  0  0  0  0
  1  2  1  0  0  0  0
  1 21  1  0  0  0  0
  1 22  1  0  0  0  0
  1 23  1  0  0  0  0
  2  3  1  0  0  0  0
  2  4  1  0  0  0  0
  2 24  1  0  0  0  0
  3 25  1  0  0  0  0
  3 26  1  0  0  0  0
  3 27  1  0  0  0  0
  4  5  1  0  0  0  0
  4 28  1  0  0  0  0
  4 29  1  0  0  0  0
  5  6  1  0  0  0  0
  5 30  1  0  0  0  0
  5 31  1  0  0  0  0
  6 10  1  0  0  0  0
  6  7  1  0  0  0  0
  6 32  1  0  0  0  0
  7  8  1  0  0  0  0
  7 33  1  0  0  0  0
  7 34  1  0  0  0  0
  8  9  1  0  0  0  0
  8 35  1  0  0  0  0
  8 36  1  0  0  0  0
  9 10  1  0  0  0  0
  9 37  1  0  0  0  0
  9 38  1  0  0  0  0
 10 11  1  0  0  0  0
 10 39  1  0  0  0  0
 11 12  1  0  0  0  0
 11 40  1  0  0  0  0
 12 13  2  0  0  0  0
 12 14  1  0  0  0  0
 14 15  1  0  0  0  0
 14 41  1  0  0  0  0
 14 42  1  0  0  0  0
 15 19  1  0  0  0  0
 15 16  1  0  0  0  0
 16 17  2  0  0  0  0
 16 43  1  0  0  0  0
 17 18  1  0  0  0  0
 18 19  1  0  0  0  0
 19 20  2  0  0  0  0
M  CHG  1  18  -1
M  END
> <s_m_source_file>
AV-unprocessed.smi

> <i_m_source_file_index>
2229

> <i_lp_mmshare_version>
43012

> <i_f3d_flags>
0

> <s_epik_input>
W0NIM11bQ0hdKFtDSDNdKVtDSDJdW0NIMl1bQ0BASF0xW0NIMl1bQ0gyXVtDSDJdW0NASF0xW05IXUMoPU8pW0NIMl1uMltjSF1uW25IXWMyPU8=

> <s_epik_cmdline>
J2VwaWtfcHl0aG9uJywgJy1waCcsICc3LjAnLCAnLXRuJywgJzgnLCAnLW1hJywgJzIwMCcsICctbWV0YWxfYmluZGluZycsICctaW1hZScsICc8aW5maWxlLm1hZT4nLCAnLW9tYWUnLCAnPG91dGZpbGUubWFlPic=

> <r_lp_tautomer_probability>
1

> <r_epik_Ionization_Penalty>
13.6733

> <r_epik_Ionization_Penalty_Charging>
13.6725

> <r_epik_Ionization_Penalty_Neutral>
0.000837689

> <r_epik_State_Penalty>
5.67062

> <r_epik_Charging_Adjusted_Penalty>
19.3431

> <i_epik_Tot_Q>
-1

> <i_epik_Tot_abs_Q>
1

> <r_epik_Metal_State_Penalty>
1.61781

> <b_epik_Metal_Only>
1

> <s_lp_Force_Field>
OPLS_2005

> <r_lp_Energy>
26.4382

> <b_lp_Chiralities_Consistent>
1

> <s_lp_Variant>
AV-unprocessed.smi:2229-7

> <Gold.Version>
5.8.1

> <Gold.Id.Protein>
6NUR|6NUR_protein|mol2

> <Gold.PLP.Fitness>
45.2868

> <Gold.PLP.PLP>
-42.1770

> <Gold.PLP.part.hbond>
-1.4702

> <Gold.PLP.part.metal>
0.0000

> <Gold.PLP.part.buried>
-1.1028

> <Gold.PLP.part.nonpolar>
-39.1618

> <Gold.PLP.part.repulsive>
1.3456

> <Gold.PLP.ligand.clash>
0.0000

> <Gold.PLP.ligand.torsion>
0.4171

> <Gold.PLP.Chemscore.Hbond>
1.2976

> <Gold.PLP.Chemscore.CHOScore>
0.0000

> <Gold.PLP.Chemscore.Metal>
0.0000

> <Gold.Chemscore.Hbonds>
donor molecule, donor type, donor heavy atom, donor atom, acceptor molecule, acceptor atom, score
      P1  H  7989  7998       L1    20  1.00
      P1  H  8011  8017       L1    18  0.28

> <Gold.PLP.Chemscore.Internal.Correction>
0.0511

> <Gold.Rescore>
     Score         DG    S(hbond)    S(metal)    S(lipo)     H(rot)  DE(clash)    DE(int)     intcor
     11.85     -14.94       0.98        0.00     109.70       2.59       1.29       1.80       ----

> <Gold.Chemscore.Fitness>
11.8535

> <Gold.Chemscore.DG>
-14.9444

> <Gold.Chemscore.ZeroCoef>
-5.4800

> <Gold.Chemscore.Hbond>
0.9790

> <Gold.Chemscore.Metal>
0.0000

> <Gold.Chemscore.Lipo>
109.7022

> <Gold.Chemscore.Internal_Hbond>
0.0000

> <Gold.Chemscore.DEClash>
1.2879

> <Gold.Chemscore.DEInternal>
1.8030

> <Gold.Chemscore.Rot>
2.5939

> <Gold.Chemscore.Internal.Correction>
   9.000000E+99

> <Gold.Chemscore.Hbonds>
donor molecule, donor type, donor heavy atom, donor atom, acceptor molecule, acceptor atom, score
      P1  H  7989  7998       L1    20  0.91
      P1  H  8011  8017       L1    18  0.05

> <Gold.Chemscore.Hbond.Weighted>
-3.2697

> <Gold.Chemscore.Metal.Weighted>
-0.0000

> <Gold.Chemscore.Lipo.Weighted>
-12.8352

> <Gold.Chemscore.Internal_Hbond.Weighted>
0.0000

> <Gold.Chemscore.DEClash.Weighted>
1.2879

> <Gold.Chemscore.DEInternal.Weighted>
1.8030

> <Gold.Chemscore.Rot.Weighted>
6.6405

> <Gold.Chemscore.Internal.Correction.Weighted>
   9.000000E+99

> <Gold.Protein.RotatedTorsions>
[ 6907 6896 6895 6894 ] final   -4.84 input  -60.11 | X-H torsion
[ 7974 7965 7964 7962 ] final  -37.58 input  175.53 | X-H torsion
[ 8008 7997 7996 7995 ] final   46.41 input   59.86 | X-H torsion
[ 10167 10162 10161 10158 ] final  -12.79 input  -65.29 | X-H torsion
[ 10718 10713 10712 10709 ] final  -72.60 input   66.30 | X-H torsion
[ 10763 10752 10751 10750 ] final -160.41 input  -60.55 | X-H torsion
[ 11005 11000 10999 10996 ] final  151.43 input  -57.11 | X-H torsion

> <Gold.Protein.ActiveResidues>
 VAL166  LYS551  ARG553  GLY616  TRP617  ASP618  TYR619  PRO620  LYS621  CYS622 
 ASP623  PHE694  ASN695  SER759  ASP760  ASP761  ALA762  ILE779  LEU786  VAL792 
 PHE793  MET794  SER795  GLU796  ALA797  LYS798  CYS799  TRP800  GLU811  SER814 

> <Gold.Protein.RotatedAtoms>
  151.4913  135.1057  159.9803 H   0  0  0  0  0  0  0  0  0  0  0  0  # atno 6907 bound_to 6896
  152.4740  133.8091  159.7004 H   0  0  0  0  0  0  0  0  0  0  0  0  # atno 6908 bound_to 6896
  150.8766  133.7368  159.2971 H   0  0  0  0  0  0  0  0  0  0  0  0  # atno 6909 bound_to 6896
  146.0562  140.6413  142.9018 H   0  0  0  0  0  0  0  0  0  0  0  0  # atno 7974 bound_to 7965
  155.3520  140.3414  155.4239 H   0  0  0  0  0  0  0  0  0  0  0  0  # atno 8008 bound_to 7997
  156.1759  140.1647  156.8399 H   0  0  0  0  0  0  0  0  0  0  0  0  # atno 8009 bound_to 7997
  154.5281  140.0751  156.8278 H   0  0  0  0  0  0  0  0  0  0  0  0  # atno 8010 bound_to 7997
  140.7169  143.5495  150.9317 H   0  0  0  0  0  0  0  0  0  0  0  0  # atno 10167 bound_to 10162
  156.0314  130.4376  150.2617 H   0  0  0  0  0  0  0  0  0  0  0  0  # atno 10718 bound_to 10713
  154.7392  135.3064  154.8757 H   0  0  0  0  0  0  0  0  0  0  0  0  # atno 10763 bound_to 10752
  153.9577  135.6756  153.4749 H   0  0  0  0  0  0  0  0  0  0  0  0  # atno 10764 bound_to 10752
  153.0993  135.4920  154.8760 H   0  0  0  0  0  0  0  0  0  0  0  0  # atno 10765 bound_to 10752
  140.1218  134.8858  157.2083 H   0  0  0  0  0  0  0  0  0  0  0  0  # atno 11005 bound_to 11000
  144.7149  140.4174  143.7052 LP  0  0  0  0  0  0  0  0  0  0  0  0  # atno 17320 bound_to 7965
  145.6639  139.1586  143.2792 LP  0  0  0  0  0  0  0  0  0  0  0  0  # atno 17321 bound_to 7965
  139.9219  143.6596  152.3095 LP  0  0  0  0  0  0  0  0  0  0  0  0  # atno 17342 bound_to 10162
  139.7016  144.7634  151.1264 LP  0  0  0  0  0  0  0  0  0  0  0  0  # atno 17343 bound_to 10162
  157.0719  131.0119  151.3187 LP  0  0  0  0  0  0  0  0  0  0  0  0  # atno 17370 bound_to 10713
  157.4993  130.7870  149.7588 LP  0  0  0  0  0  0  0  0  0  0  0  0  # atno 17371 bound_to 10713
  140.2955  134.3192  155.7303 LP  0  0  0  0  0  0  0  0  0  0  0  0  # atno 17394 bound_to 11000
  141.2153  133.7560  156.9565 LP  0  0  0  0  0  0  0  0  0  0  0  0  # atno 17395 bound_to 11000

$$$$
