AV-unprocessed.smi:127|AV-procd|sdf|1153|dock3
  -GOLD-   2262018293D 1   1.00000     0.00000
 Structure written by MMmdl.
 28 29  0  0  0  0  0  0  0  0  2 V2000
  151.9013  136.9391  154.3192 O   0  0  0  0  0  0  0  0  0  0  0  0
  151.9217  137.4368  155.4661 C   0  0  0  0  0  0  0  0  0  0  0  0
  151.4332  136.9182  156.4935 O   0  5  0  0  0  0  0  0  0  0  0  0
  152.6074  138.7970  155.6271 C   0  0  0  0  0  0  0  0  0  0  0  0
  151.6911  139.8406  156.0653 N   0  0  0  0  0  0  0  0  0  0  0  0
  150.6659  140.2377  155.1694 C   0  0  0  0  0  0  0  0  0  0  0  0
  150.4552  139.6477  154.1081 O   0  0  0  0  0  0  0  0  0  0  0  0
  149.8842  141.3879  155.6101 C   0  0  0  0  0  0  0  0  0  0  0  0
  148.8665  141.8306  154.8519 F   0  0  0  0  0  0  0  0  0  0  0  0
  150.1630  142.0180  156.7710 C   0  0  0  0  0  0  0  0  0  0  0  0
  151.1939  141.6324  157.6105 N   0  0  0  0  0  0  0  0  0  0  0  0
  151.4730  142.3650  158.9042 C   0  0  2  0  0  0  0  0  0  0  0  0
  150.5113  143.5484  159.0607 C   0  0  0  0  0  0  0  0  0  0  0  0
  151.3203  144.6852  158.4752 C   0  0  0  0  0  0  0  0  0  0  0  0
  152.7338  144.3070  158.9029 C   0  0  0  0  0  0  0  0  0  0  0  0
  152.7726  142.8822  158.8681 O   0  0  0  0  0  0  0  0  0  0  0  0
  151.9914  140.5165  157.2736 C   0  0  0  0  0  0  0  0  0  0  0  0
  152.9038  140.1492  158.0179 O   0  0  0  0  0  0  0  0  0  0  0  0
  153.4308  138.7366  156.3404 H   0  0  0  0  0  0  0  0  0  0  0  0
  153.0718  139.1148  154.6922 H   0  0  0  0  0  0  0  0  0  0  0  0
  149.5436  142.8592  157.0443 H   0  0  0  0  0  0  0  0  0  0  0  0
  151.3959  141.6211  159.6987 H   0  0  0  0  0  0  0  0  0  0  0  0
  149.5554  143.3788  158.5633 H   0  0  0  0  0  0  0  0  0  0  0  0
  150.3329  143.7135  160.1239 H   0  0  0  0  0  0  0  0  0  0  0  0
  151.2398  144.6844  157.3875 H   0  0  0  0  0  0  0  0  0  0  0  0
  151.0109  145.6647  158.8403 H   0  0  0  0  0  0  0  0  0  0  0  0
  153.4984  144.7441  158.2603 H   0  0  0  0  0  0  0  0  0  0  0  0
  152.9211  144.6350  159.9262 H   0  0  0  0  0  0  0  0  0  0  0  0
  1  2  2  0  0  0  0
  2  3  1  0  0  0  0
  2  4  1  0  0  0  0
  4  5  1  0  0  0  0
  4 19  1  0  0  0  0
  4 20  1  0  0  0  0
  5 17  1  0  0  0  0
  5  6  1  0  0  0  0
  6  7  2  0  0  0  0
  6  8  1  0  0  0  0
  8  9  1  0  0  0  0
  8 10  2  0  0  0  0
 10 11  1  0  0  0  0
 10 21  1  0  0  0  0
 11 12  1  0  0  0  0
 11 17  1  0  0  0  0
 12 16  1  0  0  0  0
 12 13  1  0  0  0  0
 12 22  1  0  0  0  0
 13 14  1  0  0  0  0
 13 23  1  0  0  0  0
 13 24  1  0  0  0  0
 14 15  1  0  0  0  0
 14 25  1  0  0  0  0
 14 26  1  0  0  0  0
 15 16  1  0  0  0  0
 15 27  1  0  0  0  0
 15 28  1  0  0  0  0
 17 18  2  0  0  0  0
M  CHG  1   3  -1
M  END
> <s_m_source_file>
AV-unprocessed.smi

> <i_m_source_file_index>
127

> <i_lp_mmshare_version>
43012

> <i_f3d_flags>
0

> <s_epik_input>
Tz1DKFtPSF0pW0NIMl1uMWMoPU8pYyhGKVtjSF1uKGMxPU8pW0NAQEhdMltDSDJdW0NIMl1bQ0gyXU8y

> <s_epik_cmdline>
J2VwaWtfcHl0aG9uJywgJy1waCcsICc3LjAnLCAnLXRuJywgJzgnLCAnLW1hJywgJzIwMCcsICctbWV0YWxfYmluZGluZycsICctaW1hZScsICc8aW5maWxlLm1hZT4nLCAnLW9tYWUnLCAnPG91dGZpbGUubWFlPic=

> <r_lp_tautomer_probability>
1

> <r_epik_Ionization_Penalty>
0.00125813

> <r_epik_Ionization_Penalty_Charging>
0.00125813

> <r_epik_Ionization_Penalty_Neutral>
6.20402e-12

> <r_epik_State_Penalty>
0.000832915

> <r_epik_Charging_Adjusted_Penalty>
0.00209104

> <i_epik_Tot_Q>
-1

> <i_epik_Tot_abs_Q>
1

> <r_epik_Metal_State_Penalty>
-0

> <b_epik_Metal_Only>
0

> <s_epik_Chemistry_Notes>
This compound contains an acetal/aminal-like group ( X-CH(R)-Y where X, Y are N, S, or O) that may be acid/base labile, releasing an aldehyde.

> <s_lp_Force_Field>
OPLS_2005

> <r_lp_Energy>
23.3893

> <b_lp_Chiralities_Consistent>
1

> <s_lp_Variant>
AV-unprocessed.smi:127-1

> <Gold.Version>
5.8.1

> <Gold.Id.Protein>
6NUR|6NUR_protein|mol2

> <Gold.PLP.Fitness>
46.7660

> <Gold.PLP.PLP>
-34.3541

> <Gold.PLP.part.hbond>
-3.0000

> <Gold.PLP.part.metal>
0.0000

> <Gold.PLP.part.buried>
-1.0006

> <Gold.PLP.part.nonpolar>
-30.8341

> <Gold.PLP.part.repulsive>
0.6257

> <Gold.PLP.ligand.clash>
0.0000

> <Gold.PLP.ligand.torsion>
0.0365

> <Gold.PLP.Chemscore.Hbond>
3.1500

> <Gold.PLP.Chemscore.CHOScore>
0.9963

> <Gold.PLP.Chemscore.Metal>
0.0000

> <Gold.Chemscore.Hbonds>
donor molecule, donor type, donor heavy atom, donor atom, acceptor molecule, acceptor atom, score
      P1  H  7989  7998       L1     7  0.15
      P1  H  7997  8008       L1    18  0.98
      P1  H 10752 10763       L1     1  2.00
      L1  C    10    21       P1  8028  0.97

> <Gold.PLP.Chemscore.Internal.Correction>
0.0461

> <Gold.Rescore>
     Score         DG    S(hbond)    S(metal)    S(lipo)     H(rot)  DE(clash)    DE(int)     intcor
     10.31     -12.60       1.74        0.00      56.58       2.08       0.20       2.09       ----

> <Gold.Chemscore.Fitness>
10.3105

> <Gold.Chemscore.DG>
-12.6045

> <Gold.Chemscore.ZeroCoef>
-5.4800

> <Gold.Chemscore.Hbond>
1.7427

> <Gold.Chemscore.Metal>
0.0000

> <Gold.Chemscore.Lipo>
56.5781

> <Gold.Chemscore.Internal_Hbond>
0.0000

> <Gold.Chemscore.DEClash>
0.2016

> <Gold.Chemscore.DEInternal>
2.0924

> <Gold.Chemscore.Rot>
2.0765

> <Gold.Chemscore.Internal.Correction>
   9.000000E+99

> <Gold.Chemscore.Hbonds>
donor molecule, donor type, donor heavy atom, donor atom, acceptor molecule, acceptor atom, score
      P1  H  7997  8008       L1    18  0.69
      P1  H 10752 10763       L1     1  0.83

> <Gold.Chemscore.Hbond.Weighted>
-5.8207

> <Gold.Chemscore.Metal.Weighted>
-0.0000

> <Gold.Chemscore.Lipo.Weighted>
-6.6196

> <Gold.Chemscore.Internal_Hbond.Weighted>
0.0000

> <Gold.Chemscore.DEClash.Weighted>
0.2016

> <Gold.Chemscore.DEInternal.Weighted>
2.0924

> <Gold.Chemscore.Rot.Weighted>
5.3159

> <Gold.Chemscore.Internal.Correction.Weighted>
   9.000000E+99

> <Gold.Protein.RotatedTorsions>
[ 6907 6896 6895 6894 ] final  114.33 input  -60.11 | X-H torsion
[ 7974 7965 7964 7962 ] final  -32.70 input  175.53 | X-H torsion
[ 8008 7997 7996 7995 ] final  -84.74 input   59.86 | X-H torsion
[ 10167 10162 10161 10158 ] final  -55.57 input  -65.29 | X-H torsion
[ 10718 10713 10712 10709 ] final   72.91 input   66.30 | X-H torsion
[ 10763 10752 10751 10750 ] final   32.89 input  -60.55 | X-H torsion
[ 11005 11000 10999 10996 ] final -101.82 input  -57.11 | X-H torsion

> <Gold.Protein.ActiveResidues>
 VAL166  LYS551  ARG553  GLY616  TRP617  ASP618  TYR619  PRO620  LYS621  CYS622 
 ASP623  PHE694  ASN695  SER759  ASP760  ASP761  ALA762  ILE779  LEU786  VAL792 
 PHE793  MET794  SER795  GLU796  ALA797  LYS798  CYS799  TRP800  GLU811  SER814 

> <Gold.Protein.RotatedAtoms>
  152.4809  133.8251  159.7073 H   0  0  0  0  0  0  0  0  0  0  0  0  # atno 6907 bound_to 6896
  150.8857  133.7301  159.2925 H   0  0  0  0  0  0  0  0  0  0  0  0  # atno 6908 bound_to 6896
  151.4790  135.1054  159.9824 H   0  0  0  0  0  0  0  0  0  0  0  0  # atno 6909 bound_to 6896
  146.0969  140.5825  142.8839 H   0  0  0  0  0  0  0  0  0  0  0  0  # atno 7974 bound_to 7965
  154.6331  140.0601  156.9756 H   0  0  0  0  0  0  0  0  0  0  0  0  # atno 8008 bound_to 7997
  155.1635  140.3284  155.4388 H   0  0  0  0  0  0  0  0  0  0  0  0  # atno 8009 bound_to 7997
  156.2493  140.1926  156.6741 H   0  0  0  0  0  0  0  0  0  0  0  0  # atno 8010 bound_to 7997
  140.6367  143.2486  151.5100 H   0  0  0  0  0  0  0  0  0  0  0  0  # atno 10167 bound_to 10162
  157.6523  130.9602  150.0995 H   0  0  0  0  0  0  0  0  0  0  0  0  # atno 10718 bound_to 10713
  153.0239  135.6401  154.1425 H   0  0  0  0  0  0  0  0  0  0  0  0  # atno 10763 bound_to 10752
  154.1157  135.2850  155.3222 H   0  0  0  0  0  0  0  0  0  0  0  0  # atno 10764 bound_to 10752
  154.6300  135.5496  153.7732 H   0  0  0  0  0  0  0  0  0  0  0  0  # atno 10765 bound_to 10752
  141.1215  133.8509  157.1281 H   0  0  0  0  0  0  0  0  0  0  0  0  # atno 11005 bound_to 11000
  144.7402  140.4921  143.6875 LP  0  0  0  0  0  0  0  0  0  0  0  0  # atno 17320 bound_to 7965
  145.5931  139.1497  143.3171 LP  0  0  0  0  0  0  0  0  0  0  0  0  # atno 17321 bound_to 7965
  139.5577  144.2234  152.1639 LP  0  0  0  0  0  0  0  0  0  0  0  0  # atno 17342 bound_to 10162
  140.1493  144.5129  150.6697 LP  0  0  0  0  0  0  0  0  0  0  0  0  # atno 17343 bound_to 10162
  156.1921  130.3655  149.8896 LP  0  0  0  0  0  0  0  0  0  0  0  0  # atno 17370 bound_to 10713
  156.6821  130.8862  151.3577 LP  0  0  0  0  0  0  0  0  0  0  0  0  # atno 17371 bound_to 10713
  140.0176  134.9960  157.0526 LP  0  0  0  0  0  0  0  0  0  0  0  0  # atno 17394 bound_to 11000
  140.4493  134.1599  155.7180 LP  0  0  0  0  0  0  0  0  0  0  0  0  # atno 17395 bound_to 11000

$$$$
