AV-unprocessed.smi:543|AV-procd|sdf|2875|dock4
  -GOLD-   2262023363D 1   1.00000     0.00000
 Structure written by MMmdl.
 46 48  0  0  0  0  0  0  0  0  1 V2000
  149.8751  133.0152  154.5362 C   0  0  0  0  0  0  0  0  0  0  0  0
  149.3968  134.2734  154.9754 O   0  0  0  0  0  0  0  0  0  0  0  0
  150.1304  134.7817  156.0780 C   0  0  0  0  0  0  0  0  0  0  0  0
  149.4119  136.0107  156.6518 C   0  0  0  0  0  0  0  0  0  0  0  0
  150.1373  136.5848  157.7842 N   0  0  0  0  0  0  0  0  0  0  0  0
  149.7537  136.7038  159.0882 C   0  0  0  0  0  0  0  0  0  0  0  0
  148.4977  136.2889  159.5485 N   0  0  0  0  0  0  0  0  0  0  0  0
  147.4486  135.6890  158.7330 C   0  0  0  0  0  0  0  0  0  0  0  0
  147.9840  136.5665  160.8903 C   0  0  0  0  0  0  0  0  0  0  0  0
  147.0664  135.5025  161.4721 C   0  0  0  0  0  0  0  0  0  0  0  0
  145.8149  135.8707  162.0096 C   0  0  0  0  0  0  0  0  0  0  0  0
  144.9545  134.8897  162.5396 C   0  0  0  0  0  0  0  0  0  0  0  0
  145.3426  133.5361  162.5371 C   0  0  0  0  0  0  0  0  0  0  0  0
  146.5922  133.1640  162.0054 C   0  0  0  0  0  0  0  0  0  0  0  0
  147.4531  134.1448  161.4758 C   0  0  0  0  0  0  0  0  0  0  0  0
  150.6959  137.2079  159.8912 N   0  0  0  0  0  0  0  0  0  0  0  0
  151.7554  137.4508  159.0351 C   0  0  0  0  0  0  0  0  0  0  0  0
  151.4459  137.0744  157.7696 C   0  0  0  0  0  0  0  0  0  0  0  0
  152.4075  137.1785  156.6629 C   0  0  0  0  0  0  0  0  0  0  0  0
  152.1606  136.8232  155.5125 O   0  0  0  0  0  0  0  0  0  0  0  0
  153.6001  137.6997  157.0410 N   0  0  0  0  0  0  0  0  0  0  0  0
  153.9700  138.1075  158.2933 C   0  0  0  0  0  0  0  0  0  0  0  0
  155.0964  138.5655  158.4840 O   0  0  0  0  0  0  0  0  0  0  0  0
  153.0487  137.9836  159.3013 N   0  0  0  0  0  0  0  0  0  0  0  0
  153.3888  138.4052  160.6618 C   0  0  0  0  0  0  0  0  0  0  0  0
  154.2968  137.7950  156.3168 H   0  0  0  0  0  0  0  0  0  0  0  0
  149.2867  132.6787  153.6828 H   0  0  0  0  0  0  0  0  0  0  0  0
  149.7873  132.2649  155.3228 H   0  0  0  0  0  0  0  0  0  0  0  0
  150.9185  133.0762  154.2240 H   0  0  0  0  0  0  0  0  0  0  0  0
  150.2297  134.0146  156.8475 H   0  0  0  0  0  0  0  0  0  0  0  0
  151.1370  135.0564  155.7600 H   0  0  0  0  0  0  0  0  0  0  0  0
  149.2885  136.7716  155.8827 H   0  0  0  0  0  0  0  0  0  0  0  0
  148.4004  135.7431  156.9387 H   0  0  0  0  0  0  0  0  0  0  0  0
  147.6806  135.7875  157.6723 H   0  0  0  0  0  0  0  0  0  0  0  0
  146.4875  136.1778  158.8971 H   0  0  0  0  0  0  0  0  0  0  0  0
  147.3394  134.6303  158.9697 H   0  0  0  0  0  0  0  0  0  0  0  0
  148.7955  136.7410  161.5986 H   0  0  0  0  0  0  0  0  0  0  0  0
  147.4377  137.5090  160.8372 H   0  0  0  0  0  0  0  0  0  0  0  0
  145.5069  136.9059  162.0113 H   0  0  0  0  0  0  0  0  0  0  0  0
  143.9960  135.1759  162.9467 H   0  0  0  0  0  0  0  0  0  0  0  0
  144.6824  132.7837  162.9423 H   0  0  0  0  0  0  0  0  0  0  0  0
  146.8903  132.1261  162.0025 H   0  0  0  0  0  0  0  0  0  0  0  0
  148.4079  133.8500  161.0667 H   0  0  0  0  0  0  0  0  0  0  0  0
  154.2520  137.8502  161.0310 H   0  0  0  0  0  0  0  0  0  0  0  0
  152.5738  138.2449  161.3674 H   0  0  0  0  0  0  0  0  0  0  0  0
  153.6327  139.4680  160.6826 H   0  0  0  0  0  0  0  0  0  0  0  0
  1  2  1  0  0  0  0
  1 27  1  0  0  0  0
  1 28  1  0  0  0  0
  1 29  1  0  0  0  0
  2  3  1  0  0  0  0
  3  4  1  0  0  0  0
  3 30  1  0  0  0  0
  3 31  1  0  0  0  0
  4  5  1  0  0  0  0
  4 32  1  0  0  0  0
  4 33  1  0  0  0  0
  5 18  1  0  0  0  0
  5  6  1  0  0  0  0
  6  7  1  0  0  0  0
  6 16  2  0  0  0  0
  7  8  1  0  0  0  0
  7  9  1  0  0  0  0
  8 34  1  0  0  0  0
  8 35  1  0  0  0  0
  8 36  1  0  0  0  0
  9 10  1  0  0  0  0
  9 37  1  0  0  0  0
  9 38  1  0  0  0  0
 10 15  1  0  0  0  0
 10 11  2  0  0  0  0
 11 12  1  0  0  0  0
 11 39  1  0  0  0  0
 12 13  2  0  0  0  0
 12 40  1  0  0  0  0
 13 14  1  0  0  0  0
 13 41  1  0  0  0  0
 14 15  2  0  0  0  0
 14 42  1  0  0  0  0
 15 43  1  0  0  0  0
 16 17  1  0  0  0  0
 17 24  1  0  0  0  0
 17 18  2  0  0  0  0
 18 19  1  0  0  0  0
 19 20  2  0  0  0  0
 19 21  1  0  0  0  0
 21 26  1  0  0  0  0
 21 22  1  0  0  0  0
 22 23  2  0  0  0  0
 22 24  1  0  0  0  0
 24 25  1  0  0  0  0
 25 44  1  0  0  0  0
 25 45  1  0  0  0  0
 25 46  1  0  0  0  0
M  END
> <s_m_source_file>
AV-unprocessed.smi

> <i_m_source_file_index>
543

> <i_lp_mmshare_version>
43012

> <i_f3d_flags>
0

> <s_epik_input>
W0NIM11uMWMoPU8pW25IXWMoPU8pYyhjMTIpbihbQ0gyXVtDSDJdT1tDSDNdKWMobjIpTihbQ0gzXSlbQ0gyXWMzW2NIXVtjSF1bY0hdW2NIXVtjSF0z

> <s_epik_cmdline>
J2VwaWtfcHl0aG9uJywgJy1waCcsICc3LjAnLCAnLXRuJywgJzgnLCAnLW1hJywgJzIwMCcsICctbWV0YWxfYmluZGluZycsICctaW1hZScsICc8aW5maWxlLm1hZT4nLCAnLW9tYWUnLCAnPG91dGZpbGUubWFlPic=

> <r_lp_tautomer_probability>
1

> <r_epik_Ionization_Penalty>
3.94324e-05

> <r_epik_Ionization_Penalty_Charging>
1.70393e-05

> <r_epik_Ionization_Penalty_Neutral>
2.23931e-05

> <r_epik_State_Penalty>
-0

> <r_epik_Charging_Adjusted_Penalty>
1.70393e-05

> <i_epik_Tot_Q>
0

> <i_epik_Tot_abs_Q>
0

> <r_epik_Metal_State_Penalty>
0.0163311

> <b_epik_Metal_Only>
0

> <s_lp_Force_Field>
OPLS_2005

> <r_lp_Energy>
32.7304

> <b_lp_Chiralities_Consistent>
1

> <s_lp_Variant>
AV-unprocessed.smi:543-1

> <Gold.Version>
5.8.1

> <Gold.Id.Protein>
6NUR|6NUR_protein|mol2

> <Gold.PLP.Fitness>
40.8063

> <Gold.PLP.PLP>
-35.6144

> <Gold.PLP.part.hbond>
-3.0478

> <Gold.PLP.part.metal>
0.0000

> <Gold.PLP.part.buried>
-4.3240

> <Gold.PLP.part.nonpolar>
-27.6173

> <Gold.PLP.part.repulsive>
0.3628

> <Gold.PLP.ligand.clash>
3.9488

> <Gold.PLP.ligand.torsion>
0.4671

> <Gold.PLP.Chemscore.Hbond>
1.9920

> <Gold.PLP.Chemscore.CHOScore>
0.0000

> <Gold.PLP.Chemscore.Metal>
0.0000

> <Gold.Chemscore.Hbonds>
donor molecule, donor type, donor heavy atom, donor atom, acceptor molecule, acceptor atom, score
      P1  H  7997  8009       L1    23  1.00
      P1  H 10752 10763       L1    20  0.98

> <Gold.PLP.Chemscore.Internal.Correction>
4.0988

> <Gold.Rescore>
     Score         DG    S(hbond)    S(metal)    S(lipo)     H(rot)  DE(clash)    DE(int)     intcor
     14.10     -16.00       1.85        0.00      77.89       1.86       0.20       1.71       ----

> <Gold.Chemscore.Fitness>
14.0952

> <Gold.Chemscore.DG>
-16.0049

> <Gold.Chemscore.ZeroCoef>
-5.4800

> <Gold.Chemscore.Hbond>
1.8466

> <Gold.Chemscore.Metal>
0.0000

> <Gold.Chemscore.Lipo>
77.8936

> <Gold.Chemscore.Internal_Hbond>
0.0000

> <Gold.Chemscore.DEClash>
0.1993

> <Gold.Chemscore.DEInternal>
1.7104

> <Gold.Chemscore.Rot>
1.8580

> <Gold.Chemscore.Internal.Correction>
   9.000000E+99

> <Gold.Chemscore.Hbonds>
donor molecule, donor type, donor heavy atom, donor atom, acceptor molecule, acceptor atom, score
      P1  H  7997  8009       L1    23  0.64
      P1  H 10752 10763       L1    20  0.92

> <Gold.Chemscore.Hbond.Weighted>
-6.1677

> <Gold.Chemscore.Metal.Weighted>
-0.0000

> <Gold.Chemscore.Lipo.Weighted>
-9.1136

> <Gold.Chemscore.Internal_Hbond.Weighted>
0.0000

> <Gold.Chemscore.DEClash.Weighted>
0.1993

> <Gold.Chemscore.DEInternal.Weighted>
1.7104

> <Gold.Chemscore.Rot.Weighted>
4.7564

> <Gold.Chemscore.Internal.Correction.Weighted>
   9.000000E+99

> <Gold.Protein.RotatedTorsions>
[ 6907 6896 6895 6894 ] final -166.81 input  -60.11 | X-H torsion
[ 7974 7965 7964 7962 ] final -171.78 input  175.53 | X-H torsion
[ 8008 7997 7996 7995 ] final  107.39 input   59.86 | X-H torsion
[ 10167 10162 10161 10158 ] final  168.14 input  -65.29 | X-H torsion
[ 10718 10713 10712 10709 ] final  109.21 input   66.30 | X-H torsion
[ 10763 10752 10751 10750 ] final   70.00 input  -60.55 | X-H torsion
[ 11005 11000 10999 10996 ] final   68.17 input  -57.11 | X-H torsion

> <Gold.Protein.ActiveResidues>
 VAL166  LYS551  ARG553  GLY616  TRP617  ASP618  TYR619  PRO620  LYS621  CYS622 
 ASP623  PHE694  ASN695  SER759  ASP760  ASP761  ALA762  ILE779  LEU786  VAL792 
 PHE793  MET794  SER795  GLU796  ALA797  LYS798  CYS799  TRP800  GLU811  SER814 

> <Gold.Protein.RotatedAtoms>
  151.4496  133.3621  159.2793 H   0  0  0  0  0  0  0  0  0  0  0  0  # atno 6907 bound_to 6896
  150.9100  134.8518  159.7429 H   0  0  0  0  0  0  0  0  0  0  0  0  # atno 6908 bound_to 6896
  152.4927  134.4425  159.9600 H   0  0  0  0  0  0  0  0  0  0  0  0  # atno 6909 bound_to 6896
  144.7153  140.1871  143.6352 H   0  0  0  0  0  0  0  0  0  0  0  0  # atno 7974 bound_to 7965
  156.1820  140.3095  155.9167 H   0  0  0  0  0  0  0  0  0  0  0  0  # atno 8008 bound_to 7997
  155.3363  140.0463  157.3061 H   0  0  0  0  0  0  0  0  0  0  0  0  # atno 8009 bound_to 7997
  154.5353  140.2244  155.8743 H   0  0  0  0  0  0  0  0  0  0  0  0  # atno 8010 bound_to 7997
  139.4961  144.3847  151.9584 H   0  0  0  0  0  0  0  0  0  0  0  0  # atno 10167 bound_to 10162
  157.6552  131.0909  150.6420 H   0  0  0  0  0  0  0  0  0  0  0  0  # atno 10718 bound_to 10713
  153.0318  135.5190  154.7375 H   0  0  0  0  0  0  0  0  0  0  0  0  # atno 10763 bound_to 10752
  154.6384  135.2909  155.0135 H   0  0  0  0  0  0  0  0  0  0  0  0  # atno 10764 bound_to 10752
  154.1062  135.6629  153.4929 H   0  0  0  0  0  0  0  0  0  0  0  0  # atno 10765 bound_to 10752
  139.9727  134.6873  156.0414 H   0  0  0  0  0  0  0  0  0  0  0  0  # atno 11005 bound_to 11000
  145.8803  139.2319  143.1609 LP  0  0  0  0  0  0  0  0  0  0  0  0  # atno 17320 bound_to 7965
  146.0001  140.8528  143.0023 LP  0  0  0  0  0  0  0  0  0  0  0  0  # atno 17321 bound_to 7965
  140.3283  144.3346  150.5993 LP  0  0  0  0  0  0  0  0  0  0  0  0  # atno 17342 bound_to 10162
  140.5666  143.2185  151.7673 LP  0  0  0  0  0  0  0  0  0  0  0  0  # atno 17343 bound_to 10162
  156.6727  130.4544  149.5652 LP  0  0  0  0  0  0  0  0  0  0  0  0  # atno 17370 bound_to 10713
  156.1986  130.6605  151.1142 LP  0  0  0  0  0  0  0  0  0  0  0  0  # atno 17371 bound_to 10713
  141.1406  133.6565  156.3719 LP  0  0  0  0  0  0  0  0  0  0  0  0  # atno 17394 bound_to 11000
  140.5259  134.6259  157.5334 LP  0  0  0  0  0  0  0  0  0  0  0  0  # atno 17395 bound_to 11000

$$$$
