AV-unprocessed.smi:2530|AV-procd|sdf|9962|dock4
  -GOLD-   2272014 03D 1   1.00000     0.00000
 Structure written by MMmdl.
 44 46  0  0  0  0  0  0  0  0  1 V2000
  155.1996  132.3763  161.0828 C   0  0  0  0  0  0  0  0  0  0  0  0
  154.5949  133.4989  161.9002 C   0  0  0  0  0  0  0  0  0  0  0  0
  154.3174  133.3130  163.2664 C   0  0  0  0  0  0  0  0  0  0  0  0
  153.7399  134.3554  164.0129 C   0  0  0  0  0  0  0  0  0  0  0  0
  153.4253  135.5917  163.4079 C   0  0  0  0  0  0  0  0  0  0  0  0
  152.7845  136.6630  164.2756 C   0  0  0  0  0  0  0  0  0  0  0  0
  153.7083  135.7881  162.0264 C   0  0  0  0  0  0  0  0  0  0  0  0
  153.3729  137.0761  161.2653 C   0  0  2  0  0  0  0  0  0  0  0  0
  152.6248  136.8619  160.0868 O   0  0  0  0  0  0  0  0  0  0  0  0
  154.6036  137.9611  160.9428 C   0  0  0  0  0  0  0  0  0  0  0  0
  154.2446  139.3632  160.6628 N   0  0  0  0  0  0  0  0  0  0  0  0
  154.2238  140.2482  161.7592 C   0  0  0  0  0  0  0  0  0  0  0  0
  153.8584  141.4834  161.6301 N   0  0  0  0  0  0  0  0  0  0  0  0
  153.4713  141.9695  160.3752 C   0  0  0  0  0  0  0  0  0  0  0  0
  153.0515  143.4289  160.2484 C   0  0  0  0  0  0  0  0  0  0  0  0
  151.6145  143.8041  160.6575 C   0  0  0  0  0  0  0  0  0  0  0  0
  151.5874  144.7387  159.4419 C   0  0  0  0  0  0  0  0  0  0  0  0
  152.6873  143.8672  158.8237 C   0  0  0  0  0  0  0  0  0  0  0  0
  153.5129  141.1665  159.2863 C   0  0  0  0  0  0  0  0  0  0  0  0
  153.9189  139.7660  159.4004 C   0  0  0  0  0  0  0  0  0  0  0  0
  153.9477  139.0033  158.4347 O   0  0  0  0  0  0  0  0  0  0  0  0
  154.2948  134.7321  161.2916 C   0  0  0  0  0  0  0  0  0  0  0  0
  155.7552  131.6851  161.7171 H   0  0  0  0  0  0  0  0  0  0  0  0
  155.8846  132.7708  160.3319 H   0  0  0  0  0  0  0  0  0  0  0  0
  154.4135  131.8194  160.5727 H   0  0  0  0  0  0  0  0  0  0  0  0
  154.5417  132.3709  163.7452 H   0  0  0  0  0  0  0  0  0  0  0  0
  153.5311  134.1953  165.0608 H   0  0  0  0  0  0  0  0  0  0  0  0
  153.4862  137.4759  164.4618 H   0  0  0  0  0  0  0  0  0  0  0  0
  152.4867  136.2596  165.2439 H   0  0  0  0  0  0  0  0  0  0  0  0
  151.8899  137.0707  163.8095 H   0  0  0  0  0  0  0  0  0  0  0  0
  152.7109  137.6618  161.9042 H   0  0  0  0  0  0  0  0  0  0  0  0
  152.2445  137.6854  159.8212 H   0  0  0  0  0  0  0  0  0  0  0  0
  155.3238  137.9108  161.7597 H   0  0  0  0  0  0  0  0  0  0  0  0
  155.1402  137.5415  160.0900 H   0  0  0  0  0  0  0  0  0  0  0  0
  154.5223  139.8191  162.7171 H   0  0  0  0  0  0  0  0  0  0  0  0
  153.7796  144.1053  160.7013 H   0  0  0  0  0  0  0  0  0  0  0  0
  150.8808  143.0022  160.5668 H   0  0  0  0  0  0  0  0  0  0  0  0
  151.5341  144.3110  161.6196 H   0  0  0  0  0  0  0  0  0  0  0  0
  150.6468  144.7457  158.8906 H   0  0  0  0  0  0  0  0  0  0  0  0
  151.9287  145.7485  159.6756 H   0  0  0  0  0  0  0  0  0  0  0  0
  153.4697  144.4195  158.3025 H   0  0  0  0  0  0  0  0  0  0  0  0
  152.2878  143.0576  158.2104 H   0  0  0  0  0  0  0  0  0  0  0  0
  153.2302  141.5544  158.3184 H   0  0  0  0  0  0  0  0  0  0  0  0
  154.5013  134.8608  160.2389 H   0  0  0  0  0  0  0  0  0  0  0  0
  1  2  1  0  0  0  0
  1 23  1  0  0  0  0
  1 24  1  0  0  0  0
  1 25  1  0  0  0  0
  2 22  1  0  0  0  0
  2  3  2  0  0  0  0
  3  4  1  0  0  0  0
  3 26  1  0  0  0  0
  4  5  2  0  0  0  0
  4 27  1  0  0  0  0
  5  6  1  0  0  0  0
  5  7  1  0  0  0  0
  6 28  1  0  0  0  0
  6 29  1  0  0  0  0
  6 30  1  0  0  0  0
  7  8  1  0  0  0  0
  7 22  2  0  0  0  0
  8  9  1  0  0  0  0
  8 10  1  0  0  0  0
  8 31  1  0  0  0  0
  9 32  1  0  0  0  0
 10 11  1  0  0  0  0
 10 33  1  0  0  0  0
 10 34  1  0  0  0  0
 11 20  1  0  0  0  0
 11 12  1  0  0  0  0
 12 13  2  0  0  0  0
 12 35  1  0  0  0  0
 13 14  1  0  0  0  0
 14 15  1  0  0  0  0
 14 19  2  0  0  0  0
 15 18  1  0  0  0  0
 15 16  1  0  0  0  0
 15 36  1  0  0  0  0
 16 17  1  0  0  0  0
 16 37  1  0  0  0  0
 16 38  1  0  0  0  0
 17 18  1  0  0  0  0
 17 39  1  0  0  0  0
 17 40  1  0  0  0  0
 18 41  1  0  0  0  0
 18 42  1  0  0  0  0
 19 20  1  0  0  0  0
 19 43  1  0  0  0  0
 20 21  2  0  0  0  0
 22 44  1  0  0  0  0
M  END
> <s_m_source_file>
AV-unprocessed.smi

> <i_m_source_file_index>
2530

> <i_lp_mmshare_version>
43012

> <i_f3d_flags>
0

> <s_epik_input>
W0NIM11jMVtjSF1bY0hdYyhbQ0gzXSljKFtjSF0xKVtDQEhdKFtPSF0pW0NIMl1uMltjSF1uYyhbY0hdYzI9TylbQ0hdM1tDSDJdW0NIMl1bQ0gyXTM=

> <s_epik_cmdline>
J2VwaWtfcHl0aG9uJywgJy1waCcsICc3LjAnLCAnLXRuJywgJzgnLCAnLW1hJywgJzIwMCcsICctbWV0YWxfYmluZGluZycsICctaW1hZScsICc8aW5maWxlLm1hZT4nLCAnLW9tYWUnLCAnPG91dGZpbGUubWFlPic=

> <r_lp_tautomer_probability>
1

> <r_epik_Ionization_Penalty>
2.57341e-05

> <r_epik_Ionization_Penalty_Charging>
5.39435e-08

> <r_epik_Ionization_Penalty_Neutral>
2.56801e-05

> <r_epik_State_Penalty>
-0

> <r_epik_Charging_Adjusted_Penalty>
5.39435e-08

> <i_epik_Tot_Q>
0

> <i_epik_Tot_abs_Q>
0

> <r_epik_Metal_State_Penalty>
-0

> <b_epik_Metal_Only>
0

> <s_lp_Force_Field>
OPLS_2005

> <r_lp_Energy>
27.4041

> <b_lp_Chiralities_Consistent>
1

> <s_lp_Variant>
AV-unprocessed.smi:2530-1

> <Gold.Version>
5.8.1

> <Gold.Id.Protein>
6NUR|6NUR_protein|mol2

> <Gold.PLP.Fitness>
51.3989

> <Gold.PLP.PLP>
-47.5452

> <Gold.PLP.part.hbond>
-2.7143

> <Gold.PLP.part.metal>
0.0000

> <Gold.PLP.part.buried>
-4.8193

> <Gold.PLP.part.nonpolar>
-40.2249

> <Gold.PLP.part.repulsive>
0.0000

> <Gold.PLP.ligand.clash>
0.0000

> <Gold.PLP.ligand.torsion>
1.0322

> <Gold.PLP.Chemscore.Hbond>
1.8288

> <Gold.PLP.Chemscore.CHOScore>
0.0000

> <Gold.PLP.Chemscore.Metal>
0.0000

> <Gold.Chemscore.Hbonds>
donor molecule, donor type, donor heavy atom, donor atom, acceptor molecule, acceptor atom, score
      P1  H  6896  6908       L1     9  1.00
      P1  H  7997  8008       L1    21  1.00

> <Gold.PLP.Chemscore.Internal.Correction>
0.4319

> <Gold.Rescore>
     Score         DG    S(hbond)    S(metal)    S(lipo)     H(rot)  DE(clash)    DE(int)     intcor
     20.10     -21.10       1.73        0.00     127.20       1.97       0.07       0.93       ----

> <Gold.Chemscore.Fitness>
20.0978

> <Gold.Chemscore.DG>
-21.0991

> <Gold.Chemscore.ZeroCoef>
-5.4800

> <Gold.Chemscore.Hbond>
1.7293

> <Gold.Chemscore.Metal>
0.0000

> <Gold.Chemscore.Lipo>
127.1989

> <Gold.Chemscore.Internal_Hbond>
0.0000

> <Gold.Chemscore.DEClash>
0.0706

> <Gold.Chemscore.DEInternal>
0.9308

> <Gold.Chemscore.Rot>
1.9684

> <Gold.Chemscore.Internal.Correction>
   9.000000E+99

> <Gold.Chemscore.Hbonds>
donor molecule, donor type, donor heavy atom, donor atom, acceptor molecule, acceptor atom, score
      P1  H  6896  6908       L1     9  0.70
      P1  H  7997  8008       L1    21  0.30

> <Gold.Chemscore.Hbond.Weighted>
-5.7760

> <Gold.Chemscore.Metal.Weighted>
-0.0000

> <Gold.Chemscore.Lipo.Weighted>
-14.8823

> <Gold.Chemscore.Internal_Hbond.Weighted>
0.0000

> <Gold.Chemscore.DEClash.Weighted>
0.0706

> <Gold.Chemscore.DEInternal.Weighted>
0.9308

> <Gold.Chemscore.Rot.Weighted>
5.0391

> <Gold.Chemscore.Internal.Correction.Weighted>
   9.000000E+99

> <Gold.Protein.RotatedTorsions>
[ 6907 6896 6895 6894 ] final  -93.79 input  -60.11 | X-H torsion
[ 7974 7965 7964 7962 ] final   87.37 input  175.53 | X-H torsion
[ 8008 7997 7996 7995 ] final -103.07 input   59.86 | X-H torsion
[ 10167 10162 10161 10158 ] final -133.44 input  -65.29 | X-H torsion
[ 10718 10713 10712 10709 ] final  165.67 input   66.30 | X-H torsion
[ 10763 10752 10751 10750 ] final   74.87 input  -60.55 | X-H torsion
[ 11005 11000 10999 10996 ] final  -48.91 input  -57.11 | X-H torsion

> <Gold.Protein.ActiveResidues>
 VAL166  LYS551  ARG553  GLY616  TRP617  ASP618  TYR619  PRO620  LYS621  CYS622 
 ASP623  PHE694  ASN695  SER759  ASP760  ASP761  ALA762  ILE779  LEU786  VAL792 
 PHE793  MET794  SER795  GLU796  ALA797  LYS798  CYS799  TRP800  GLU811  SER814 

> <Gold.Protein.RotatedAtoms>
  150.6929  134.1912  159.4285 H   0  0  0  0  0  0  0  0  0  0  0  0  # atno 6907 bound_to 6896
  151.9883  134.9990  160.0569 H   0  0  0  0  0  0  0  0  0  0  0  0  # atno 6908 bound_to 6896
  152.1691  133.4597  159.4937 H   0  0  0  0  0  0  0  0  0  0  0  0  # atno 6909 bound_to 6896
  145.5599  139.2303  143.2465 H   0  0  0  0  0  0  0  0  0  0  0  0  # atno 7974 bound_to 7965
  154.8657  140.0425  157.1693 H   0  0  0  0  0  0  0  0  0  0  0  0  # atno 8008 bound_to 7997
  154.8792  140.2970  155.5414 H   0  0  0  0  0  0  0  0  0  0  0  0  # atno 8009 bound_to 7997
  156.2999  140.2414  156.3792 H   0  0  0  0  0  0  0  0  0  0  0  0  # atno 8010 bound_to 7997
  139.8983  143.6639  152.2600 H   0  0  0  0  0  0  0  0  0  0  0  0  # atno 10167 bound_to 10162
  157.0769  131.0381  151.2590 H   0  0  0  0  0  0  0  0  0  0  0  0  # atno 10718 bound_to 10713
  153.0616  135.5009  154.8106 H   0  0  0  0  0  0  0  0  0  0  0  0  # atno 10763 bound_to 10752
  154.6891  135.2981  154.9507 H   0  0  0  0  0  0  0  0  0  0  0  0  # atno 10764 bound_to 10752
  154.0268  135.6735  153.4830 H   0  0  0  0  0  0  0  0  0  0  0  0  # atno 10765 bound_to 10752
  141.0729  133.6674  156.3510 H   0  0  0  0  0  0  0  0  0  0  0  0  # atno 11005 bound_to 11000
  146.1859  140.6423  142.9168 LP  0  0  0  0  0  0  0  0  0  0  0  0  # atno 17320 bound_to 7965
  144.7488  140.5138  143.6816 LP  0  0  0  0  0  0  0  0  0  0  0  0  # atno 17321 bound_to 7965
  139.7048  144.7629  151.1212 LP  0  0  0  0  0  0  0  0  0  0  0  0  # atno 17342 bound_to 10162
  140.7712  143.5409  150.9314 LP  0  0  0  0  0  0  0  0  0  0  0  0  # atno 17343 bound_to 10162
  157.4832  130.7777  149.7434 LP  0  0  0  0  0  0  0  0  0  0  0  0  # atno 17370 bound_to 10713
  155.9934  130.3924  150.2900 LP  0  0  0  0  0  0  0  0  0  0  0  0  # atno 17371 bound_to 10713
  140.5636  134.5910  157.5440 LP  0  0  0  0  0  0  0  0  0  0  0  0  # atno 17394 bound_to 11000
  139.9541  134.7565  156.0380 LP  0  0  0  0  0  0  0  0  0  0  0  0  # atno 17395 bound_to 11000

$$$$
