#       Name:                AV-unprocessed.smi:51
#       Creating user name   scv26
#       Creation time:       Thu Mar 26 16:37:28 2020


#       File generated by GOLD software.
#

@<TRIPOS>MOLECULE
AV-unprocessed.smi:51
    33    34     1
SMALL
NO_CHARGES


@<TRIPOS>ATOM
      1 ****        -2.3352   2.5602  -0.3620 O.co2          1 S1                 0.0000
      2 ****        -1.9770   1.5744   0.3185 C.2            1 S1                 0.0000
      3 ****        -2.7441   0.8045   0.9395 O.co2          1 S1                -1.0000
      4 ****        -0.4676   1.3010   0.3984 C.3            1 S1                 0.0000
      5 ****         0.1025   1.6267   1.7890 C.3            1 S1                 0.0000
      6 ****         1.2677   0.6479   1.9209 C.3            1 S1                 0.0000
      7 ****         1.6224   0.3984   3.2647 O.3            1 S1                 0.0000
      8 ****         0.7618  -0.6060   1.2050 C.3            1 S1                 0.0000
      9 ****        -0.1388  -0.1079   0.1745 N.pl3          1 S1                 0.0000
     10 ****        -0.1853  -0.7132  -1.0978 C.ar           1 S1                 0.0000
     11 ****         0.0665  -2.0968  -1.2568 C.ar           1 S1                 0.0000
     12 ****        -0.0060  -2.6105  -2.5670 C.ar           1 S1                 0.0000
     13 ****        -0.2990  -1.8263  -3.6254 N.ar           1 S1                 0.0000
     14 ****        -0.5211  -0.5359  -3.3675 C.ar           1 S1                 0.0000
     15 ****        -0.4778   0.0575  -2.1732 N.ar           1 S1                 0.0000
     16 ****         0.0533   1.9018  -0.3488 H              1 S1                 0.0000
     17 ****         0.4169   2.6668   1.8793 H              1 S1                 0.0000
     18 ****        -0.6344   1.4312   2.5708 H              1 S1                 0.0000
     19 ****         2.1329   1.0463   1.3891 H              1 S1                 0.0000
     20 ****         1.8716   1.2176   3.6645 H              1 S1                 0.0000
     21 ****         1.5951  -1.1861   0.8065 H              1 S1                 0.0000
     22 ****         0.1892  -1.2454   1.8784 H              1 S1                 0.0000
     23 ****         0.2917  -2.7427  -0.4214 H              1 S1                 0.0000
     24 ****         0.1700  -3.6574  -2.7654 H              1 S1                 0.0000
     25 ****        -0.7559   0.0936  -4.2130 H              1 S1                 0.0000
     26 ****        -3.3060   2.7863  -0.4421 LP             1 S1                 0.0000
     27 ****        -1.6509   3.1226  -0.8262 LP             1 S1                 0.0000
     28 ****        -3.7322   0.9561   0.9146 LP             1 S1                 0.0000
     29 ****        -2.3688   0.0379   1.4604 LP             1 S1                 0.0000
     30 ****         2.3905  -0.2411   3.2981 LP             1 S1                 0.0000
     31 ****         0.8420   0.0079   3.7530 LP             1 S1                 0.0000
     32 ****        -0.3472  -2.1930  -4.5545 LP             1 S1                 0.0000
     33 ****        -0.6550   1.0368  -2.0752 LP             1 S1                 0.0000
@<TRIPOS>BOND
    1    1    2 ar    
    2    2    3 ar    
    3    2    4 1     
    4    4    9 1     
    5    4    5 1     
    6    4   16 1     
    7    5    6 1     
    8    5   17 1     
    9    5   18 1     
   10    6    7 1     
   11    6    8 1     
   12    6   19 1     
   13    7   20 1     
   14    8    9 1     
   15    8   21 1     
   16    8   22 1     
   17    9   10 1     
   18   10   15 ar    
   19   10   11 ar    
   20   11   12 ar    
   21   11   23 1     
   22   12   13 ar    
   23   12   24 1     
   24   13   14 ar    
   25   14   15 ar    
   26   14   25 1     
   27    1   26 1     
   28    1   27 1     
   29    3   28 1     
   30    3   29 1     
   31    7   30 1     
   32    7   31 1     
   33   13   32 1     
   34   15   33 1     
@<TRIPOS>SUBSTRUCTURE
      1 S1             1
@<TRIPOS>SET
LONE_PAIRS      STATIC     ATOMS    <user>   **** ""
8 26 27 28 29 30 31 32 33
DONOR_HYDROGENS      STATIC     ATOMS    <user>   **** ""
1 20
ATOM$BLUE        STATIC     ATOMS    COLORGROUP SYSTEM
8 26 27 28 29 30 31 32 33
ATOM$RED        STATIC     ATOMS    COLORGROUP SYSTEM
1 20
