AV-unprocessed.smi:983|AV-procd|sdf|4316|dock6
  -GOLD-   22720 2223D 1   1.00000     0.00000
 Structure written by MMmdl.
 35 36  0  0  0  0  0  0  0  0  1 V2000
  146.6840  142.4746  154.0216 C   0  0  0  0  0  0  0  0  0  0  0  0
  147.6703  141.7656  154.9267 C   0  0  0  0  0  0  0  0  0  0  0  0
  147.3791  141.5721  156.3321 C   0  0  0  0  0  0  0  0  0  0  0  0
  148.2777  140.9431  157.1052 C   0  0  0  0  0  0  0  0  0  0  0  0
  149.4962  140.4644  156.5900 N   0  0  0  0  0  0  0  0  0  0  0  0
  150.4044  139.7839  157.5280 C   0  0  0  0  0  0  0  0  0  0  0  0
  151.6086  140.6471  157.9294 C   0  0  0  0  0  0  0  0  0  0  0  0
  152.7538  140.1985  157.8612 O   0  0  0  0  0  0  0  0  0  0  0  0
  151.3294  141.8830  158.3702 N   0  0  0  0  0  0  0  0  0  0  0  0
  152.3241  142.8612  158.8015 C   0  0  0  0  0  0  0  0  0  0  0  0
  152.1400  143.2481  160.2827 C   0  0  0  0  0  0  0  0  0  0  0  0
  152.2285  144.7736  160.3316 C   0  0  0  0  0  0  0  0  0  0  0  0
  151.6793  145.2226  158.9813 C   0  0  0  0  0  0  0  0  0  0  0  0
  152.1894  144.1681  157.9977 C   0  0  0  0  0  0  0  0  0  0  0  0
  149.8297  140.6101  155.2724 C   0  0  0  0  0  0  0  0  0  0  0  0
  150.8920  140.1879  154.8144 O   0  0  0  0  0  0  0  0  0  0  0  0
  148.8414  141.3021  154.4370 C   0  0  0  0  0  0  0  0  0  0  0  0
  145.7425  142.6650  154.5372 H   0  0  0  0  0  0  0  0  0  0  0  0
  146.4717  141.8689  153.1402 H   0  0  0  0  0  0  0  0  0  0  0  0
  147.0925  143.4303  153.6924 H   0  0  0  0  0  0  0  0  0  0  0  0
  146.4500  141.9245  156.7559 H   0  0  0  0  0  0  0  0  0  0  0  0
  148.1192  140.7602  158.1581 H   0  0  0  0  0  0  0  0  0  0  0  0
  149.8575  139.4762  158.4216 H   0  0  0  0  0  0  0  0  0  0  0  0
  150.7823  138.8582  157.0921 H   0  0  0  0  0  0  0  0  0  0  0  0
  150.3620  142.1704  158.4017 H   0  0  0  0  0  0  0  0  0  0  0  0
  153.3258  142.4572  158.6422 H   0  0  0  0  0  0  0  0  0  0  0  0
  151.1553  142.9411  160.6394 H   0  0  0  0  0  0  0  0  0  0  0  0
  152.8787  142.7722  160.9284 H   0  0  0  0  0  0  0  0  0  0  0  0
  151.6807  145.1997  161.1723 H   0  0  0  0  0  0  0  0  0  0  0  0
  153.2717  145.0787  160.4237 H   0  0  0  0  0  0  0  0  0  0  0  0
  150.5889  145.2068  159.0051 H   0  0  0  0  0  0  0  0  0  0  0  0
  151.9926  146.2323  158.7144 H   0  0  0  0  0  0  0  0  0  0  0  0
  153.1727  144.4655  157.6306 H   0  0  0  0  0  0  0  0  0  0  0  0
  151.5394  144.0763  157.1263 H   0  0  0  0  0  0  0  0  0  0  0  0
  149.0649  141.4433  153.3894 H   0  0  0  0  0  0  0  0  0  0  0  0
  1  2  1  0  0  0  0
  1 18  1  0  0  0  0
  1 19  1  0  0  0  0
  1 20  1  0  0  0  0
  2 17  2  0  0  0  0
  2  3  1  0  0  0  0
  3  4  2  0  0  0  0
  3 21  1  0  0  0  0
  4  5  1  0  0  0  0
  4 22  1  0  0  0  0
  5  6  1  0  0  0  0
  5 15  1  0  0  0  0
  6  7  1  0  0  0  0
  6 23  1  0  0  0  0
  6 24  1  0  0  0  0
  7  8  2  0  0  0  0
  7  9  1  0  0  0  0
  9 10  1  0  0  0  0
  9 25  1  0  0  0  0
 10 14  1  0  0  0  0
 10 11  1  0  0  0  0
 10 26  1  0  0  0  0
 11 12  1  0  0  0  0
 11 27  1  0  0  0  0
 11 28  1  0  0  0  0
 12 13  1  0  0  0  0
 12 29  1  0  0  0  0
 12 30  1  0  0  0  0
 13 14  1  0  0  0  0
 13 31  1  0  0  0  0
 13 32  1  0  0  0  0
 14 33  1  0  0  0  0
 14 34  1  0  0  0  0
 15 16  2  0  0  0  0
 15 17  1  0  0  0  0
 17 35  1  0  0  0  0
M  END
> <s_m_source_file>
AV-unprocessed.smi

> <i_m_source_file_index>
983

> <i_lp_mmshare_version>
43012

> <i_f3d_flags>
0

> <s_epik_input>
W0NIM11jMVtjSF1bY0hdbihjKD1PKVtjSF0xKVtDSDJdQyg9TylbTkhdW0NIXTJbQ0gyXVtDSDJdW0NIMl1bQ0gyXTI=

> <s_epik_cmdline>
J2VwaWtfcHl0aG9uJywgJy1waCcsICc3LjAnLCAnLXRuJywgJzgnLCAnLW1hJywgJzIwMCcsICctbWV0YWxfYmluZGluZycsICctaW1hZScsICc8aW5maWxlLm1hZT4nLCAnLW9tYWUnLCAnPG91dGZpbGUubWFlPic=

> <r_lp_tautomer_probability>
1

> <r_epik_Ionization_Penalty>
5.52576e-07

> <r_epik_Ionization_Penalty_Charging>
5.33275e-07

> <r_epik_Ionization_Penalty_Neutral>
1.93017e-08

> <r_epik_State_Penalty>
-0

> <r_epik_Charging_Adjusted_Penalty>
5.33275e-07

> <i_epik_Tot_Q>
0

> <i_epik_Tot_abs_Q>
0

> <r_epik_Metal_State_Penalty>
-0

> <b_epik_Metal_Only>
0

> <s_lp_Force_Field>
OPLS_2005

> <r_lp_Energy>
27.4502

> <b_lp_Chiralities_Consistent>
1

> <s_lp_Variant>
AV-unprocessed.smi:983-1

> <Gold.Version>
5.8.1

> <Gold.Id.Protein>
6NUR|6NUR_protein|mol2

> <Gold.PLP.Fitness>
45.0157

> <Gold.PLP.PLP>
-39.5990

> <Gold.PLP.part.hbond>
-2.0000

> <Gold.PLP.part.metal>
0.0000

> <Gold.PLP.part.buried>
-4.9787

> <Gold.PLP.part.nonpolar>
-32.3268

> <Gold.PLP.part.repulsive>
0.1463

> <Gold.PLP.ligand.clash>
0.0000

> <Gold.PLP.ligand.torsion>
0.2811

> <Gold.PLP.Chemscore.Hbond>
1.9920

> <Gold.PLP.Chemscore.CHOScore>
0.0000

> <Gold.PLP.Chemscore.Metal>
0.0000

> <Gold.Chemscore.Hbonds>
donor molecule, donor type, donor heavy atom, donor atom, acceptor molecule, acceptor atom, score
      P1  H  7989  7998       L1    16  1.00
      P1  H  7997  8010       L1     8  0.99

> <Gold.PLP.Chemscore.Internal.Correction>
0.0028

> <Gold.Rescore>
     Score         DG    S(hbond)    S(metal)    S(lipo)     H(rot)  DE(clash)    DE(int)     intcor
     18.83     -19.11       1.93        0.00      91.70       1.38       0.01       0.27       ----

> <Gold.Chemscore.Fitness>
18.8300

> <Gold.Chemscore.DG>
-19.1098

> <Gold.Chemscore.ZeroCoef>
-5.4800

> <Gold.Chemscore.Hbond>
1.9254

> <Gold.Chemscore.Metal>
0.0000

> <Gold.Chemscore.Lipo>
91.7023

> <Gold.Chemscore.Internal_Hbond>
0.0000

> <Gold.Chemscore.DEClash>
0.0144

> <Gold.Chemscore.DEInternal>
0.2655

> <Gold.Chemscore.Rot>
1.3789

> <Gold.Chemscore.Internal.Correction>
   9.000000E+99

> <Gold.Chemscore.Hbonds>
donor molecule, donor type, donor heavy atom, donor atom, acceptor molecule, acceptor atom, score
      P1  H  7989  7998       L1    16  0.99
      P1  H  7997  8010       L1     8  0.92

> <Gold.Chemscore.Hbond.Weighted>
-6.4307

> <Gold.Chemscore.Metal.Weighted>
-0.0000

> <Gold.Chemscore.Lipo.Weighted>
-10.7292

> <Gold.Chemscore.Internal_Hbond.Weighted>
0.0000

> <Gold.Chemscore.DEClash.Weighted>
0.0144

> <Gold.Chemscore.DEInternal.Weighted>
0.2655

> <Gold.Chemscore.Rot.Weighted>
3.5301

> <Gold.Chemscore.Internal.Correction.Weighted>
   9.000000E+99

> <Gold.Protein.RotatedTorsions>
[ 6907 6896 6895 6894 ] final -168.43 input  -60.11 | X-H torsion
[ 7974 7965 7964 7962 ] final -100.66 input  175.53 | X-H torsion
[ 8008 7997 7996 7995 ] final   46.89 input   59.86 | X-H torsion
[ 10167 10162 10161 10158 ] final  -20.65 input  -65.29 | X-H torsion
[ 10718 10713 10712 10709 ] final -173.03 input   66.30 | X-H torsion
[ 10763 10752 10751 10750 ] final  -96.24 input  -60.55 | X-H torsion
[ 11005 11000 10999 10996 ] final   54.41 input  -57.11 | X-H torsion

> <Gold.Protein.ActiveResidues>
 VAL166  LYS551  ARG553  GLY616  TRP617  ASP618  TYR619  PRO620  LYS621  CYS622 
 ASP623  PHE694  ASN695  SER759  ASP760  ASP761  ALA762  ILE779  LEU786  VAL792 
 PHE793  MET794  SER795  GLU796  ALA797  LYS798  CYS799  TRP800  GLU811  SER814 

> <Gold.Protein.RotatedAtoms>
  151.4755  133.3559  159.2829 H   0  0  0  0  0  0  0  0  0  0  0  0  # atno 6907 bound_to 6896
  150.8932  134.8340  159.7319 H   0  0  0  0  0  0  0  0  0  0  0  0  # atno 6908 bound_to 6896
  152.4836  134.4667  159.9674 H   0  0  0  0  0  0  0  0  0  0  0  0  # atno 6909 bound_to 6896
  145.2917  140.9354  143.2874 H   0  0  0  0  0  0  0  0  0  0  0  0  # atno 7974 bound_to 7965
  155.3600  140.3418  155.4240 H   0  0  0  0  0  0  0  0  0  0  0  0  # atno 8008 bound_to 7997
  156.1719  140.1634  156.8467 H   0  0  0  0  0  0  0  0  0  0  0  0  # atno 8009 bound_to 7997
  154.5241  140.0760  156.8209 H   0  0  0  0  0  0  0  0  0  0  0  0  # atno 8010 bound_to 7997
  140.7277  143.4703  151.0257 H   0  0  0  0  0  0  0  0  0  0  0  0  # atno 10167 bound_to 10162
  156.7643  130.9425  151.3118 H   0  0  0  0  0  0  0  0  0  0  0  0  # atno 10718 bound_to 10713
  154.7221  135.5091  153.8829 H   0  0  0  0  0  0  0  0  0  0  0  0  # atno 10763 bound_to 10752
  153.0872  135.6649  153.9934 H   0  0  0  0  0  0  0  0  0  0  0  0  # atno 10764 bound_to 10752
  153.9755  135.3034  155.3403 H   0  0  0  0  0  0  0  0  0  0  0  0  # atno 10765 bound_to 10752
  140.0688  134.5498  155.9069 H   0  0  0  0  0  0  0  0  0  0  0  0  # atno 11005 bound_to 11000
  144.9167  139.4461  143.6560 LP  0  0  0  0  0  0  0  0  0  0  0  0  # atno 17320 bound_to 7965
  146.3183  139.8006  142.8966 LP  0  0  0  0  0  0  0  0  0  0  0  0  # atno 17321 bound_to 7965
  139.8394  143.7584  152.3180 LP  0  0  0  0  0  0  0  0  0  0  0  0  # atno 17342 bound_to 10162
  139.7728  144.7471  151.0200 LP  0  0  0  0  0  0  0  0  0  0  0  0  # atno 17343 bound_to 10162
  157.6720  130.9060  150.0063 LP  0  0  0  0  0  0  0  0  0  0  0  0  # atno 17370 bound_to 10713
  156.1319  130.3643  149.9718 LP  0  0  0  0  0  0  0  0  0  0  0  0  # atno 17371 bound_to 10713
  141.2004  133.6612  156.5893 LP  0  0  0  0  0  0  0  0  0  0  0  0  # atno 17394 bound_to 11000
  140.3658  134.7649  157.4565 LP  0  0  0  0  0  0  0  0  0  0  0  0  # atno 17395 bound_to 11000

$$$$
