AV-unprocessed.smi:1048|AV-procd|sdf|4604|dock6
  -GOLD-   22720 3103D 1   1.00000     0.00000
 Structure written by MMmdl.
 46 47  0  0  0  0  0  0  0  0  2 V2000
  147.1826  131.8184  152.7950 C   0  0  0  0  0  0  0  0  0  0  0  0
  147.7231  132.8785  153.7648 C   0  0  2  0  0  0  0  0  0  0  0  0
  146.9384  134.1976  153.6634 C   0  0  0  0  0  0  0  0  0  0  0  0
  147.5083  135.2620  154.6161 C   0  0  0  0  0  0  0  0  0  0  0  0
  148.9539  135.4949  154.3569 N   0  3  1  0  0  0  0  0  0  0  0  0
  149.5226  136.6075  155.1605 C   0  0  0  0  0  0  0  0  0  0  0  0
  150.9604  136.9667  154.7333 C   0  0  2  0  0  0  0  0  0  0  0  0
  151.8180  136.5229  155.7665 O   0  0  0  0  0  0  0  0  0  0  0  0
  151.1389  138.4903  154.5701 C   0  0  0  0  0  0  0  0  0  0  0  0
  151.4616  139.1424  155.8352 N   0  0  0  0  0  0  0  0  0  0  0  0
  151.2186  140.4289  156.1223 C   0  0  0  0  0  0  0  0  0  0  0  0
  150.6664  141.2036  155.3420 O   0  0  0  0  0  0  0  0  0  0  0  0
  151.6307  140.7375  157.3635 N   0  0  0  0  0  0  0  0  0  0  0  0
  151.5855  141.9966  158.0209 C   0  0  0  0  0  0  0  0  0  0  0  0
  152.2633  142.1262  159.2506 C   0  0  0  0  0  0  0  0  0  0  0  0
  152.2531  143.3687  159.9125 C   0  0  0  0  0  0  0  0  0  0  0  0
  151.5697  144.4425  159.3101 C   0  0  0  0  0  0  0  0  0  0  0  0
  150.9283  144.3408  158.1270 N   0  0  0  0  0  0  0  0  0  0  0  0
  150.9399  143.1452  157.4987 C   0  0  0  0  0  0  0  0  0  0  0  0
  149.7400  134.2415  154.4866 C   0  0  0  0  0  0  0  0  0  0  0  0
  149.2168  133.1582  153.5285 C   0  0  0  0  0  0  0  0  0  0  0  0
  147.2721  132.1446  151.7584 H   0  0  0  0  0  0  0  0  0  0  0  0
  146.1298  131.6103  152.9886 H   0  0  0  0  0  0  0  0  0  0  0  0
  147.7277  130.8795  152.8963 H   0  0  0  0  0  0  0  0  0  0  0  0
  147.6064  132.4905  154.7780 H   0  0  0  0  0  0  0  0  0  0  0  0
  146.9711  134.5713  152.6389 H   0  0  0  0  0  0  0  0  0  0  0  0
  145.8867  134.0245  153.8951 H   0  0  0  0  0  0  0  0  0  0  0  0
  146.9467  136.1869  154.4903 H   0  0  0  0  0  0  0  0  0  0  0  0
  147.3693  134.9482  155.6520 H   0  0  0  0  0  0  0  0  0  0  0  0
  148.8671  137.4763  155.0829 H   0  0  0  0  0  0  0  0  0  0  0  0
  149.5357  136.3351  156.2175 H   0  0  0  0  0  0  0  0  0  0  0  0
  151.2209  136.4640  153.8017 H   0  0  0  0  0  0  0  0  0  0  0  0
  151.2915  136.1197  156.4419 H   0  0  0  0  0  0  0  0  0  0  0  0
  151.9848  138.6877  153.9111 H   0  0  0  0  0  0  0  0  0  0  0  0
  150.2722  138.9501  154.0909 H   0  0  0  0  0  0  0  0  0  0  0  0
  151.9164  138.5767  156.5370 H   0  0  0  0  0  0  0  0  0  0  0  0
  151.9828  139.9719  157.9194 H   0  0  0  0  0  0  0  0  0  0  0  0
  152.7820  141.2849  159.6865 H   0  0  0  0  0  0  0  0  0  0  0  0
  152.7585  143.4962  160.8584 H   0  0  0  0  0  0  0  0  0  0  0  0
  151.5432  145.4105  159.7883 H   0  0  0  0  0  0  0  0  0  0  0  0
  150.4345  143.1337  156.5458 H   0  0  0  0  0  0  0  0  0  0  0  0
  150.7886  134.4390  154.2604 H   0  0  0  0  0  0  0  0  0  0  0  0
  149.6976  133.8882  155.5179 H   0  0  0  0  0  0  0  0  0  0  0  0
  149.7942  132.2426  153.6605 H   0  0  0  0  0  0  0  0  0  0  0  0
  149.3761  133.4772  152.4972 H   0  0  0  0  0  0  0  0  0  0  0  0
  149.0407  135.7781  153.3908 H   0  0  0  0  0  0  0  0  0  0  0  0
  1  2  1  0  0  0  0
  1 22  1  0  0  0  0
  1 23  1  0  0  0  0
  1 24  1  0  0  0  0
  2 21  1  0  0  0  0
  2  3  1  0  0  0  0
  2 25  1  0  0  0  0
  3  4  1  0  0  0  0
  3 26  1  0  0  0  0
  3 27  1  0  0  0  0
  4  5  1  0  0  0  0
  4 28  1  0  0  0  0
  4 29  1  0  0  0  0
  5  6  1  0  0  0  0
  5 20  1  0  0  0  0
  5 46  1  0  0  0  0
  6  7  1  0  0  0  0
  6 30  1  0  0  0  0
  6 31  1  0  0  0  0
  7  8  1  0  0  0  0
  7  9  1  0  0  0  0
  7 32  1  0  0  0  0
  8 33  1  0  0  0  0
  9 10  1  0  0  0  0
  9 34  1  0  0  0  0
  9 35  1  0  0  0  0
 10 11  1  0  0  0  0
 10 36  1  0  0  0  0
 11 12  2  0  0  0  0
 11 13  1  0  0  0  0
 13 14  1  0  0  0  0
 13 37  1  0  0  0  0
 14 19  1  0  0  0  0
 14 15  2  0  0  0  0
 15 16  1  0  0  0  0
 15 38  1  0  0  0  0
 16 17  2  0  0  0  0
 16 39  1  0  0  0  0
 17 18  1  0  0  0  0
 17 40  1  0  0  0  0
 18 19  2  0  0  0  0
 19 41  1  0  0  0  0
 20 21  1  0  0  0  0
 20 42  1  0  0  0  0
 20 43  1  0  0  0  0
 21 44  1  0  0  0  0
 21 45  1  0  0  0  0
M  CHG  1   5   1
M  END
> <s_m_source_file>
AV-unprocessed.smi

> <i_m_source_file_index>
1048

> <i_lp_mmshare_version>
43012

> <i_f3d_flags>
0

> <s_epik_input>
W0NIM11bQ0hdMVtDSDJdW0NIMl1OKFtDSDJdW0NIMl0xKVtDSDJdW0NASF0oW09IXSlbQ0gyXVtOSF1DKD1PKVtOSF1jMltjSF1bY0hdW2NIXW5bY0hdMg==

> <s_epik_cmdline>
J2VwaWtfcHl0aG9uJywgJy1waCcsICc3LjAnLCAnLXRuJywgJzgnLCAnLW1hJywgJzIwMCcsICctbWV0YWxfYmluZGluZycsICctaW1hZScsICc8aW5maWxlLm1hZT4nLCAnLW9tYWUnLCAnPG91dGZpbGUubWFlPic=

> <r_lp_tautomer_probability>
1

> <r_epik_Ionization_Penalty>
0.00581049

> <r_epik_Ionization_Penalty_Charging>
0.00147689

> <r_epik_Ionization_Penalty_Neutral>
0.0043336

> <r_epik_State_Penalty>
-0

> <r_epik_Charging_Adjusted_Penalty>
0.00147689

> <i_epik_Tot_Q>
1

> <i_epik_Tot_abs_Q>
1

> <r_epik_Metal_State_Penalty>
-0

> <b_epik_Metal_Only>
0

> <s_lp_Force_Field>
OPLS_2005

> <r_lp_Energy>
22.5683

> <b_lp_Chiralities_Consistent>
1

> <s_lp_Variant>
AV-unprocessed.smi:1048-1

> <Gold.Version>
5.8.1

> <Gold.Id.Protein>
6NUR|6NUR_protein|mol2

> <Gold.PLP.Fitness>
50.2593

> <Gold.PLP.PLP>
-38.7693

> <Gold.PLP.part.hbond>
-3.0000

> <Gold.PLP.part.metal>
0.0000

> <Gold.PLP.part.buried>
-4.5687

> <Gold.PLP.part.nonpolar>
-32.1557

> <Gold.PLP.part.repulsive>
0.4593

> <Gold.PLP.ligand.clash>
0.0000

> <Gold.PLP.ligand.torsion>
1.1934

> <Gold.PLP.Chemscore.Hbond>
3.6080

> <Gold.PLP.Chemscore.CHOScore>
1.0000

> <Gold.PLP.Chemscore.Metal>
0.0000

> <Gold.Chemscore.Hbonds>
donor molecule, donor type, donor heavy atom, donor atom, acceptor molecule, acceptor atom, score
      L1  H     5    46       P1  7948  2.00
      P1  H  7989  7998       L1    12  0.51
      P1  H 10752 10763       L1     8  1.00
      L1  C    19    41       P1  8028  0.96

> <Gold.PLP.Chemscore.Internal.Correction>
0.0528

> <Gold.Rescore>
     Score         DG    S(hbond)    S(metal)    S(lipo)     H(rot)  DE(clash)    DE(int)     intcor
     15.51     -17.95       2.23        0.00      92.94       2.29       0.06       2.38       ----

> <Gold.Chemscore.Fitness>
15.5091

> <Gold.Chemscore.DG>
-17.9482

> <Gold.Chemscore.ZeroCoef>
-5.4800

> <Gold.Chemscore.Hbond>
2.2299

> <Gold.Chemscore.Metal>
0.0000

> <Gold.Chemscore.Lipo>
92.9403

> <Gold.Chemscore.Internal_Hbond>
0.0000

> <Gold.Chemscore.DEClash>
0.0580

> <Gold.Chemscore.DEInternal>
2.3811

> <Gold.Chemscore.Rot>
2.2865

> <Gold.Chemscore.Internal.Correction>
   9.000000E+99

> <Gold.Chemscore.Hbonds>
donor molecule, donor type, donor heavy atom, donor atom, acceptor molecule, acceptor atom, score
      L1  H     5    46       P1  7948  0.80
      P1  H  7989  7998       L1    12  0.25
      P1  H 10752 10763       L1     8  0.57

> <Gold.Chemscore.Hbond.Weighted>
-7.4478

> <Gold.Chemscore.Metal.Weighted>
-0.0000

> <Gold.Chemscore.Lipo.Weighted>
-10.8740

> <Gold.Chemscore.Internal_Hbond.Weighted>
0.0000

> <Gold.Chemscore.DEClash.Weighted>
0.0580

> <Gold.Chemscore.DEInternal.Weighted>
2.3811

> <Gold.Chemscore.Rot.Weighted>
5.8536

> <Gold.Chemscore.Internal.Correction.Weighted>
   9.000000E+99

> <Gold.Protein.RotatedTorsions>
[ 6907 6896 6895 6894 ] final   42.35 input  -60.11 | X-H torsion
[ 7974 7965 7964 7962 ] final  101.58 input  175.53 | X-H torsion
[ 8008 7997 7996 7995 ] final  -88.99 input   59.86 | X-H torsion
[ 10167 10162 10161 10158 ] final   87.75 input  -65.29 | X-H torsion
[ 10718 10713 10712 10709 ] final   49.62 input   66.30 | X-H torsion
[ 10763 10752 10751 10750 ] final   85.56 input  -60.55 | X-H torsion
[ 11005 11000 10999 10996 ] final    0.57 input  -57.11 | X-H torsion

> <Gold.Protein.ActiveResidues>
 VAL166  LYS551  ARG553  GLY616  TRP617  ASP618  TYR619  PRO620  LYS621  CYS622 
 ASP623  PHE694  ASN695  SER759  ASP760  ASP761  ALA762  ILE779  LEU786  VAL792 
 PHE793  MET794  SER795  GLU796  ALA797  LYS798  CYS799  TRP800  GLU811  SER814 

> <Gold.Protein.RotatedAtoms>
  152.2067  134.8538  160.0501 H   0  0  0  0  0  0  0  0  0  0  0  0  # atno 6907 bound_to 6896
  151.9372  133.3622  159.3960 H   0  0  0  0  0  0  0  0  0  0  0  0  # atno 6908 bound_to 6896
  150.6967  134.4401  159.5332 H   0  0  0  0  0  0  0  0  0  0  0  0  # atno 6909 bound_to 6896
  145.3704  139.2399  143.3458 H   0  0  0  0  0  0  0  0  0  0  0  0  # atno 7974 bound_to 7965
  154.6813  140.0547  157.0269 H   0  0  0  0  0  0  0  0  0  0  0  0  # atno 8008 bound_to 7997
  155.0948  140.3223  155.4545 H   0  0  0  0  0  0  0  0  0  0  0  0  # atno 8009 bound_to 7997
  156.2695  140.2041  156.6074 H   0  0  0  0  0  0  0  0  0  0  0  0  # atno 8010 bound_to 7997
  139.8742  144.6476  150.8915 H   0  0  0  0  0  0  0  0  0  0  0  0  # atno 10167 bound_to 10162
  157.4804  130.8312  149.8087 H   0  0  0  0  0  0  0  0  0  0  0  0  # atno 10718 bound_to 10713
  153.1486  135.4613  154.9603 H   0  0  0  0  0  0  0  0  0  0  0  0  # atno 10763 bound_to 10752
  154.7806  135.3187  154.7999 H   0  0  0  0  0  0  0  0  0  0  0  0  # atno 10764 bound_to 10752
  153.8509  135.6921  153.4847 H   0  0  0  0  0  0  0  0  0  0  0  0  # atno 10765 bound_to 10752
  140.6251  133.9626  155.8245 H   0  0  0  0  0  0  0  0  0  0  0  0  # atno 11005 bound_to 11000
  146.2888  140.4354  142.8747 LP  0  0  0  0  0  0  0  0  0  0  0  0  # atno 17320 bound_to 7965
  144.8581  140.7099  143.6125 LP  0  0  0  0  0  0  0  0  0  0  0  0  # atno 17321 bound_to 7965
  140.7755  143.3638  151.1777 LP  0  0  0  0  0  0  0  0  0  0  0  0  # atno 17342 bound_to 10162
  139.7255  143.9155  152.3001 LP  0  0  0  0  0  0  0  0  0  0  0  0  # atno 17343 bound_to 10162
  156.0119  130.3830  150.2237 LP  0  0  0  0  0  0  0  0  0  0  0  0  # atno 17370 bound_to 10713
  157.0423  131.0039  151.3279 LP  0  0  0  0  0  0  0  0  0  0  0  0  # atno 17371 bound_to 10713
  141.0715  134.0199  157.3519 LP  0  0  0  0  0  0  0  0  0  0  0  0  # atno 17394 bound_to 11000
  139.9138  135.0194  156.7799 LP  0  0  0  0  0  0  0  0  0  0  0  0  # atno 17395 bound_to 11000

$$$$
