AV-unprocessed.smi:1464|AV-procd|sdf|5945|dock4
  -GOLD-   22720 6 23D 1   1.00000     0.00000
 Structure written by MMmdl.
 41 42  0  0  0  0  0  0  0  0  1 V2000
  152.3272  144.1540  161.9397 C   0  0  0  0  0  0  0  0  0  0  0  0
  152.5720  143.8364  160.4531 C   0  0  2  0  0  0  0  0  0  0  0  0
  151.7938  144.8396  159.5783 C   0  0  0  0  0  0  0  0  0  0  0  0
  152.0256  144.5931  158.0839 C   0  0  0  0  0  0  0  0  0  0  0  0
  151.6341  143.1615  157.7076 C   0  0  0  0  0  0  0  0  0  0  0  0
  152.4065  142.1291  158.5514 C   0  0  2  0  0  0  0  0  0  0  0  0
  151.9694  140.7828  158.1859 N   0  0  0  0  0  0  0  0  0  0  0  0
  152.6696  139.6557  158.3834 C   0  0  0  0  0  0  0  0  0  0  0  0
  153.7977  139.6389  158.8776 O   0  0  0  0  0  0  0  0  0  0  0  0
  151.9911  138.3550  157.9302 C   0  0  0  0  0  0  0  0  0  0  0  0
  151.4225  138.4395  156.5773 N   0  0  0  0  0  0  0  0  0  0  0  0
  152.1489  137.7575  155.6130 N   0  0  0  0  0  0  0  0  0  0  0  0
  151.7418  137.7443  154.3888 C   0  0  0  0  0  0  0  0  0  0  0  0
  152.4892  137.0540  153.4664 O   0  0  0  0  0  0  0  0  0  0  0  0
  150.5341  138.4359  153.9938 C   0  0  0  0  0  0  0  0  0  0  0  0
  149.8367  139.1029  154.9393 C   0  0  0  0  0  0  0  0  0  0  0  0
  150.2707  139.1389  156.3371 C   0  0  0  0  0  0  0  0  0  0  0  0
  149.6572  139.7413  157.2181 O   0  0  0  0  0  0  0  0  0  0  0  0
  152.2190  142.3696  160.0743 C   0  0  1  0  0  0  0  0  0  0  0  0
  153.0312  141.3480  160.9009 C   0  0  0  0  0  0  0  0  0  0  0  0
  151.9075  136.8950  152.7392 H   0  0  0  0  0  0  0  0  0  0  0  0
  151.2979  143.9386  162.2278 H   0  0  0  0  0  0  0  0  0  0  0  0
  152.5151  145.2074  162.1499 H   0  0  0  0  0  0  0  0  0  0  0  0
  152.9867  143.5835  162.5927 H   0  0  0  0  0  0  0  0  0  0  0  0
  153.6347  143.9876  160.2578 H   0  0  0  0  0  0  0  0  0  0  0  0
  150.7270  144.7709  159.7966 H   0  0  0  0  0  0  0  0  0  0  0  0
  152.0920  145.8595  159.8240 H   0  0  0  0  0  0  0  0  0  0  0  0
  151.4467  145.3045  157.4943 H   0  0  0  0  0  0  0  0  0  0  0  0
  153.0743  144.7660  157.8384 H   0  0  0  0  0  0  0  0  0  0  0  0
  150.5606  143.0294  157.8507 H   0  0  0  0  0  0  0  0  0  0  0  0
  151.8262  143.0009  156.6460 H   0  0  0  0  0  0  0  0  0  0  0  0
  153.4707  142.2292  158.3278 H   0  0  0  0  0  0  0  0  0  0  0  0
  151.0543  140.7022  157.7670 H   0  0  0  0  0  0  0  0  0  0  0  0
  152.7049  137.5303  157.9800 H   0  0  0  0  0  0  0  0  0  0  0  0
  151.2116  138.1121  158.6545 H   0  0  0  0  0  0  0  0  0  0  0  0
  150.2053  138.4154  152.9652 H   0  0  0  0  0  0  0  0  0  0  0  0
  148.9334  139.6243  154.6590 H   0  0  0  0  0  0  0  0  0  0  0  0
  151.1643  142.2128  160.3069 H   0  0  0  0  0  0  0  0  0  0  0  0
  154.1032  141.4867  160.7563 H   0  0  0  0  0  0  0  0  0  0  0  0
  152.7936  140.3200  160.6274 H   0  0  0  0  0  0  0  0  0  0  0  0
  152.8238  141.4320  161.9668 H   0  0  0  0  0  0  0  0  0  0  0  0
  1  2  1  0  0  0  0
  1 22  1  0  0  0  0
  1 23  1  0  0  0  0
  1 24  1  0  0  0  0
  2 19  1  0  0  0  0
  2  3  1  0  0  0  0
  2 25  1  0  0  0  0
  3  4  1  0  0  0  0
  3 26  1  0  0  0  0
  3 27  1  0  0  0  0
  4  5  1  0  0  0  0
  4 28  1  0  0  0  0
  4 29  1  0  0  0  0
  5  6  1  0  0  0  0
  5 30  1  0  0  0  0
  5 31  1  0  0  0  0
  6  7  1  0  0  0  0
  6 19  1  0  0  0  0
  6 32  1  0  0  0  0
  7  8  1  0  0  0  0
  7 33  1  0  0  0  0
  8  9  2  0  0  0  0
  8 10  1  0  0  0  0
 10 34  1  0  0  0  0
 10 35  1  0  0  0  0
 10 11  1  0  0  0  0
 11 12  1  0  0  0  0
 11 17  1  0  0  0  0
 12 13  2  0  0  0  0
 13 14  1  0  0  0  0
 13 15  1  0  0  0  0
 14 21  1  0  0  0  0
 15 36  1  0  0  0  0
 15 16  2  0  0  0  0
 16 37  1  0  0  0  0
 16 17  1  0  0  0  0
 17 18  2  0  0  0  0
 19 20  1  0  0  0  0
 19 38  1  0  0  0  0
 20 39  1  0  0  0  0
 20 40  1  0  0  0  0
 20 41  1  0  0  0  0
M  END
> <s_m_source_file>
AV-unprocessed.smi

> <i_m_source_file_index>
1464

> <i_lp_mmshare_version>
43012

> <i_f3d_flags>
0

> <s_epik_input>
W0NIM11bQ0BASF0xW0NIMl1bQ0gyXVtDSDJdW0NASF0oW0NASF0xW0NIM10pW05IXUMoPU8pW0NIMl1uMltuSF1jKD1PKVtjSF1bY0hdYzI9Tw==

> <s_epik_cmdline>
J2VwaWtfcHl0aG9uJywgJy1waCcsICc3LjAnLCAnLXRuJywgJzgnLCAnLW1hJywgJzIwMCcsICctbWV0YWxfYmluZGluZycsICctaW1hZScsICc8aW5maWxlLm1hZT4nLCAnLW9tYWUnLCAnPG91dGZpbGUubWFlPic=

> <r_lp_tautomer_probability>
0.9996

> <r_epik_Ionization_Penalty>
2.10335

> <r_epik_Ionization_Penalty_Charging>
3.98079e-08

> <r_epik_Ionization_Penalty_Neutral>
2.10335

> <r_epik_State_Penalty>
1.67957

> <r_epik_Charging_Adjusted_Penalty>
1.67957

> <i_epik_Tot_Q>
0

> <i_epik_Tot_abs_Q>
0

> <r_epik_Metal_State_Penalty>
1.67957

> <b_epik_Metal_Only>
0

> <s_lp_Force_Field>
OPLS_2005

> <r_lp_Energy>
21.8095

> <b_lp_Chiralities_Consistent>
1

> <s_lp_Variant>
AV-unprocessed.smi:1464-11

> <Gold.Version>
5.8.1

> <Gold.Id.Protein>
6NUR|6NUR_protein|mol2

> <Gold.PLP.Fitness>
47.7201

> <Gold.PLP.PLP>
-39.8758

> <Gold.PLP.part.hbond>
-2.9778

> <Gold.PLP.part.metal>
0.0000

> <Gold.PLP.part.buried>
-5.1461

> <Gold.PLP.part.nonpolar>
-32.0323

> <Gold.PLP.part.repulsive>
0.1150

> <Gold.PLP.ligand.clash>
0.0000

> <Gold.PLP.ligand.torsion>
0.5827

> <Gold.PLP.Chemscore.Hbond>
3.0000

> <Gold.PLP.Chemscore.CHOScore>
0.0000

> <Gold.PLP.Chemscore.Metal>
0.0000

> <Gold.Chemscore.Hbonds>
donor molecule, donor type, donor heavy atom, donor atom, acceptor molecule, acceptor atom, score
      L1  H    14    21       P1  7949  1.00
      P1  H  7997  8010       L1     9  0.95
      P1  H 10752 10764       L1    14  0.96

> <Gold.PLP.Chemscore.Internal.Correction>
0.0097

> <Gold.Rescore>
     Score         DG    S(hbond)    S(metal)    S(lipo)     H(rot)  DE(clash)    DE(int)     intcor
     18.52     -21.35       2.60        0.00     110.18       2.22       0.14       2.70       ----

> <Gold.Chemscore.Fitness>
18.5179

> <Gold.Chemscore.DG>
-21.3525

> <Gold.Chemscore.ZeroCoef>
-5.4800

> <Gold.Chemscore.Hbond>
2.5959

> <Gold.Chemscore.Metal>
0.0000

> <Gold.Chemscore.Lipo>
110.1831

> <Gold.Chemscore.Internal_Hbond>
0.0000

> <Gold.Chemscore.DEClash>
0.1385

> <Gold.Chemscore.DEInternal>
2.6961

> <Gold.Chemscore.Rot>
2.2224

> <Gold.Chemscore.Internal.Correction>
   9.000000E+99

> <Gold.Chemscore.Hbonds>
donor molecule, donor type, donor heavy atom, donor atom, acceptor molecule, acceptor atom, score
      L1  H    14    21       P1  7949  0.98
      P1  H  7997  8010       L1     9  0.21
      P1  H 10752 10764       L1    14  0.56

> <Gold.Chemscore.Hbond.Weighted>
-8.6704

> <Gold.Chemscore.Metal.Weighted>
-0.0000

> <Gold.Chemscore.Lipo.Weighted>
-12.8914

> <Gold.Chemscore.Internal_Hbond.Weighted>
0.0000

> <Gold.Chemscore.DEClash.Weighted>
0.1385

> <Gold.Chemscore.DEInternal.Weighted>
2.6961

> <Gold.Chemscore.Rot.Weighted>
5.6893

> <Gold.Chemscore.Internal.Correction.Weighted>
   9.000000E+99

> <Gold.Protein.RotatedTorsions>
[ 6907 6896 6895 6894 ] final  162.91 input  -60.11 | X-H torsion
[ 7974 7965 7964 7962 ] final   93.66 input  175.53 | X-H torsion
[ 8008 7997 7996 7995 ] final   15.49 input   59.86 | X-H torsion
[ 10167 10162 10161 10158 ] final  120.45 input  -65.29 | X-H torsion
[ 10718 10713 10712 10709 ] final  -31.10 input   66.30 | X-H torsion
[ 10763 10752 10751 10750 ] final -110.52 input  -60.55 | X-H torsion
[ 11005 11000 10999 10996 ] final   -8.41 input  -57.11 | X-H torsion

> <Gold.Protein.ActiveResidues>
 VAL166  LYS551  ARG553  GLY616  TRP617  ASP618  TYR619  PRO620  LYS621  CYS622 
 ASP623  PHE694  ASN695  SER759  ASP760  ASP761  ALA762  ILE779  LEU786  VAL792 
 PHE793  MET794  SER795  GLU796  ALA797  LYS798  CYS799  TRP800  GLU811  SER814 

> <Gold.Protein.RotatedAtoms>
  151.9333  133.3617  159.3938 H   0  0  0  0  0  0  0  0  0  0  0  0  # atno 6907 bound_to 6896
  150.7013  134.4515  159.5348 H   0  0  0  0  0  0  0  0  0  0  0  0  # atno 6908 bound_to 6896
  152.2159  134.8458  160.0542 H   0  0  0  0  0  0  0  0  0  0  0  0  # atno 6909 bound_to 6896
  145.4760  139.2280  143.2909 H   0  0  0  0  0  0  0  0  0  0  0  0  # atno 7974 bound_to 7965
  154.8634  140.2948  155.5525 H   0  0  0  0  0  0  0  0  0  0  0  0  # atno 8008 bound_to 7997
  156.3020  140.2473  156.3545 H   0  0  0  0  0  0  0  0  0  0  0  0  # atno 8009 bound_to 7997
  154.8893  140.0395  157.1818 H   0  0  0  0  0  0  0  0  0  0  0  0  # atno 8010 bound_to 7997
  139.5981  144.7048  151.3128 H   0  0  0  0  0  0  0  0  0  0  0  0  # atno 10167 bound_to 10162
  156.3915  130.4374  149.7391 H   0  0  0  0  0  0  0  0  0  0  0  0  # atno 10718 bound_to 10713
  154.8252  135.4561  154.0898 H   0  0  0  0  0  0  0  0  0  0  0  0  # atno 10763 bound_to 10752
  153.2218  135.6895  153.7997 H   0  0  0  0  0  0  0  0  0  0  0  0  # atno 10764 bound_to 10752
  153.7412  135.3312  155.3281 H   0  0  0  0  0  0  0  0  0  0  0  0  # atno 10765 bound_to 10752
  140.7232  133.8811  155.8836 H   0  0  0  0  0  0  0  0  0  0  0  0  # atno 11005 bound_to 11000
  146.2369  140.5542  142.8951 LP  0  0  0  0  0  0  0  0  0  0  0  0  # atno 17320 bound_to 7965
  144.7917  140.6044  143.6537 LP  0  0  0  0  0  0  0  0  0  0  0  0  # atno 17321 bound_to 7965
  140.7228  143.7088  150.7786 LP  0  0  0  0  0  0  0  0  0  0  0  0  # atno 17342 bound_to 10162
  140.0659  143.5109  152.2604 LP  0  0  0  0  0  0  0  0  0  0  0  0  # atno 17343 bound_to 10162
  156.4443  130.7876  151.2897 LP  0  0  0  0  0  0  0  0  0  0  0  0  # atno 17370 bound_to 10713
  157.7499  131.0115  150.3348 LP  0  0  0  0  0  0  0  0  0  0  0  0  # atno 17371 bound_to 10713
  140.9985  134.1182  157.4340 LP  0  0  0  0  0  0  0  0  0  0  0  0  # atno 17394 bound_to 11000
  139.8843  135.0061  156.6361 LP  0  0  0  0  0  0  0  0  0  0  0  0  # atno 17395 bound_to 11000

$$$$
