AV-unprocessed.smi:2710|AV-procd|sdf|10469|dock6
  -GOLD-   2272014513D 1   1.00000     0.00000
 Structure written by MMmdl.
 53 54  0  0  0  0  0  0  0  0  2 V2000
  148.5206  142.2010  157.9799 C   0  0  0  0  0  0  0  0  0  0  0  0
  147.2119  142.3993  157.1974 C   0  0  0  0  0  0  0  0  0  0  0  0
  147.3606  142.2061  155.7249 N   0  3  1  0  0  0  0  0  0  0  0  0
  148.2347  141.0411  155.4037 C   0  0  0  0  0  0  0  0  0  0  0  0
  148.5004  140.9130  153.8956 C   0  0  0  0  0  0  0  0  0  0  0  0
  147.1973  140.8154  153.0951 C   0  0  1  0  0  0  0  0  0  0  0  0
  146.5291  139.5353  153.3357 N   0  0  0  0  0  0  0  0  0  0  0  0
  146.4924  138.4960  152.4888 C   0  0  0  0  0  0  0  0  0  0  0  0
  147.0201  138.5019  151.3774 O   0  0  0  0  0  0  0  0  0  0  0  0
  145.8291  137.4577  153.0250 N   0  0  0  0  0  0  0  0  0  0  0  0
  145.5650  136.1904  152.4402 C   0  0  0  0  0  0  0  0  0  0  0  0
  145.5080  136.0810  151.0362 C   0  0  0  0  0  0  0  0  0  0  0  0
  145.2769  134.9035  150.4191 N   0  0  0  0  0  0  0  0  0  0  0  0
  145.1084  133.8221  151.1913 C   0  0  0  0  0  0  0  0  0  0  0  0
  144.8613  132.4909  150.4586 C   0  0  0  0  0  0  0  0  0  0  0  0
  146.0732  132.0654  149.5935 C   0  0  0  0  0  0  0  0  0  0  0  0
  143.6494  132.6321  149.5156 C   0  0  0  0  0  0  0  0  0  0  0  0
  144.6191  131.3665  151.4866 C   0  0  0  0  0  0  0  0  0  0  0  0
  145.1611  133.8111  152.5297 N   0  0  0  0  0  0  0  0  0  0  0  0
  145.3869  134.9839  153.1589 C   0  0  0  0  0  0  0  0  0  0  0  0
  146.2853  141.9926  153.4656 C   0  0  0  0  0  0  0  0  0  0  0  0
  146.0556  142.1336  154.9886 C   0  0  2  0  0  0  0  0  0  0  0  0
  145.1497  143.3584  155.2331 C   0  0  0  0  0  0  0  0  0  0  0  0
  148.3946  142.5182  159.0154 H   0  0  0  0  0  0  0  0  0  0  0  0
  149.3316  142.7918  157.5531 H   0  0  0  0  0  0  0  0  0  0  0  0
  148.8347  141.1581  158.0087 H   0  0  0  0  0  0  0  0  0  0  0  0
  146.4340  141.7388  157.5832 H   0  0  0  0  0  0  0  0  0  0  0  0
  146.8913  143.4157  157.4142 H   0  0  0  0  0  0  0  0  0  0  0  0
  149.2008  141.1377  155.8957 H   0  0  0  0  0  0  0  0  0  0  0  0
  147.7795  140.1269  155.7877 H   0  0  0  0  0  0  0  0  0  0  0  0
  149.0662  141.7825  153.5578 H   0  0  0  0  0  0  0  0  0  0  0  0
  149.1310  140.0453  153.6972 H   0  0  0  0  0  0  0  0  0  0  0  0
  147.4458  140.9067  152.0363 H   0  0  0  0  0  0  0  0  0  0  0  0
  146.0657  139.4271  154.2259 H   0  0  0  0  0  0  0  0  0  0  0  0
  145.5215  137.5668  153.9805 H   0  0  0  0  0  0  0  0  0  0  0  0
  145.6449  136.9440  150.4012 H   0  0  0  0  0  0  0  0  0  0  0  0
  145.8850  131.1189  149.0855 H   0  0  0  0  0  0  0  0  0  0  0  0
  146.9722  131.9320  150.1967 H   0  0  0  0  0  0  0  0  0  0  0  0
  146.2961  132.8029  148.8211 H   0  0  0  0  0  0  0  0  0  0  0  0
  143.8095  133.4241  148.7831 H   0  0  0  0  0  0  0  0  0  0  0  0
  142.7379  132.8714  150.0640 H   0  0  0  0  0  0  0  0  0  0  0  0
  143.4620  131.7087  148.9668 H   0  0  0  0  0  0  0  0  0  0  0  0
  144.4627  130.4052  150.9960 H   0  0  0  0  0  0  0  0  0  0  0  0
  143.7380  131.5615  152.0989 H   0  0  0  0  0  0  0  0  0  0  0  0
  145.4698  131.2579  152.1605 H   0  0  0  0  0  0  0  0  0  0  0  0
  145.4435  134.9311  154.2350 H   0  0  0  0  0  0  0  0  0  0  0  0
  146.7316  142.9133  153.0862 H   0  0  0  0  0  0  0  0  0  0  0  0
  145.3306  141.8889  152.9477 H   0  0  0  0  0  0  0  0  0  0  0  0
  145.5223  141.2488  155.3400 H   0  0  0  0  0  0  0  0  0  0  0  0
  144.2920  143.3489  154.5596 H   0  0  0  0  0  0  0  0  0  0  0  0
  145.6874  144.2920  155.0642 H   0  0  0  0  0  0  0  0  0  0  0  0
  144.7372  143.3770  156.2412 H   0  0  0  0  0  0  0  0  0  0  0  0
  147.8345  143.0280  155.3777 H   0  0  0  0  0  0  0  0  0  0  0  0
  1  2  1  0  0  0  0
  1 24  1  0  0  0  0
  1 25  1  0  0  0  0
  1 26  1  0  0  0  0
  2  3  1  0  0  0  0
  2 27  1  0  0  0  0
  2 28  1  0  0  0  0
  3 22  1  0  0  0  0
  3  4  1  0  0  0  0
  3 53  1  0  0  0  0
  4  5  1  0  0  0  0
  4 29  1  0  0  0  0
  4 30  1  0  0  0  0
  5  6  1  0  0  0  0
  5 31  1  0  0  0  0
  5 32  1  0  0  0  0
  6  7  1  0  0  0  0
  6 21  1  0  0  0  0
  6 33  1  0  0  0  0
  7  8  1  0  0  0  0
  7 34  1  0  0  0  0
  8  9  2  0  0  0  0
  8 10  1  0  0  0  0
 10 11  1  0  0  0  0
 10 35  1  0  0  0  0
 11 20  1  0  0  0  0
 11 12  2  0  0  0  0
 12 13  1  0  0  0  0
 12 36  1  0  0  0  0
 13 14  2  0  0  0  0
 14 15  1  0  0  0  0
 14 19  1  0  0  0  0
 15 16  1  0  0  0  0
 15 17  1  0  0  0  0
 15 18  1  0  0  0  0
 16 37  1  0  0  0  0
 16 38  1  0  0  0  0
 16 39  1  0  0  0  0
 17 40  1  0  0  0  0
 17 41  1  0  0  0  0
 17 42  1  0  0  0  0
 18 43  1  0  0  0  0
 18 44  1  0  0  0  0
 18 45  1  0  0  0  0
 19 20  2  0  0  0  0
 20 46  1  0  0  0  0
 21 22  1  0  0  0  0
 21 47  1  0  0  0  0
 21 48  1  0  0  0  0
 22 23  1  0  0  0  0
 22 49  1  0  0  0  0
 23 50  1  0  0  0  0
 23 51  1  0  0  0  0
 23 52  1  0  0  0  0
M  CHG  1   3   1
M  END
> <s_m_source_file>
AV-unprocessed.smi

> <i_m_source_file_index>
2710

> <i_lp_mmshare_version>
43012

> <i_f3d_flags>
0

> <s_epik_input>
W0NIM11bQ0gyXU4xW0NIMl1bQ0gyXVtDQEhdKFtDSDJdW0NASF0xW0NIM10pW05IXUMoPU8pW05IXWMyW2NIXW5jKEMoW0NIM10pKFtDSDNdKVtDSDNdKW5bY0hdMg==

> <s_epik_cmdline>
J2VwaWtfcHl0aG9uJywgJy1waCcsICc3LjAnLCAnLXRuJywgJzgnLCAnLW1hJywgJzIwMCcsICctbWV0YWxfYmluZGluZycsICctaW1hZScsICc8aW5maWxlLm1hZT4nLCAnLW9tYWUnLCAnPG91dGZpbGUubWFlPic=

> <r_lp_tautomer_probability>
1

> <r_epik_Ionization_Penalty>
0.00396003

> <r_epik_Ionization_Penalty_Charging>
0.0039379

> <r_epik_Ionization_Penalty_Neutral>
2.21316e-05

> <r_epik_State_Penalty>
0.00281651

> <r_epik_Charging_Adjusted_Penalty>
0.00675441

> <i_epik_Tot_Q>
1

> <i_epik_Tot_abs_Q>
1

> <r_epik_Metal_State_Penalty>
-0

> <b_epik_Metal_Only>
0

> <s_lp_Force_Field>
OPLS_2005

> <r_lp_Energy>
19.7949

> <b_lp_Chiralities_Consistent>
1

> <s_lp_Variant>
AV-unprocessed.smi:2710-6

> <Gold.Version>
5.8.1

> <Gold.Id.Protein>
6NUR|6NUR_protein|mol2

> <Gold.PLP.Fitness>
48.6368

> <Gold.PLP.PLP>
-37.6042

> <Gold.PLP.part.hbond>
-2.5177

> <Gold.PLP.part.metal>
0.0000

> <Gold.PLP.part.buried>
-4.7195

> <Gold.PLP.part.nonpolar>
-34.0078

> <Gold.PLP.part.repulsive>
3.1487

> <Gold.PLP.ligand.clash>
0.0000

> <Gold.PLP.ligand.torsion>
0.5000

> <Gold.PLP.Chemscore.Hbond>
3.0000

> <Gold.PLP.Chemscore.CHOScore>
1.0000

> <Gold.PLP.Chemscore.Metal>
0.0000

> <Gold.Chemscore.Hbonds>
donor molecule, donor type, donor heavy atom, donor atom, acceptor molecule, acceptor atom, score
      L1  H     3    53       P1  8028  2.00
      P1  H  7954  7966       L1     9  1.00
      L1  C    12    36       P1 10171  0.91

> <Gold.PLP.Chemscore.Internal.Correction>
0.0327

> <Gold.Rescore>
     Score         DG    S(hbond)    S(metal)    S(lipo)     H(rot)  DE(clash)    DE(int)     intcor
     16.11     -19.17       1.76        0.00      95.49       1.31       1.16       1.90       ----

> <Gold.Chemscore.Fitness>
16.1093

> <Gold.Chemscore.DG>
-19.1698

> <Gold.Chemscore.ZeroCoef>
-5.4800

> <Gold.Chemscore.Hbond>
1.7563

> <Gold.Chemscore.Metal>
0.0000

> <Gold.Chemscore.Lipo>
95.4915

> <Gold.Chemscore.Internal_Hbond>
0.0000

> <Gold.Chemscore.DEClash>
1.1604

> <Gold.Chemscore.DEInternal>
1.9001

> <Gold.Chemscore.Rot>
1.3081

> <Gold.Chemscore.Internal.Correction>
   9.000000E+99

> <Gold.Chemscore.Hbonds>
donor molecule, donor type, donor heavy atom, donor atom, acceptor molecule, acceptor atom, score
      L1  H     3    53       P1  8028  0.66
      P1  H  7954  7966       L1     9  0.97

> <Gold.Chemscore.Hbond.Weighted>
-5.8661

> <Gold.Chemscore.Metal.Weighted>
-0.0000

> <Gold.Chemscore.Lipo.Weighted>
-11.1725

> <Gold.Chemscore.Internal_Hbond.Weighted>
0.0000

> <Gold.Chemscore.DEClash.Weighted>
1.1604

> <Gold.Chemscore.DEInternal.Weighted>
1.9001

> <Gold.Chemscore.Rot.Weighted>
3.3488

> <Gold.Chemscore.Internal.Correction.Weighted>
   9.000000E+99

> <Gold.Protein.RotatedTorsions>
[ 6907 6896 6895 6894 ] final  -53.50 input  -60.11 | X-H torsion
[ 7974 7965 7964 7962 ] final  -21.57 input  175.53 | X-H torsion
[ 8008 7997 7996 7995 ] final   99.42 input   59.86 | X-H torsion
[ 10167 10162 10161 10158 ] final  -69.22 input  -65.29 | X-H torsion
[ 10718 10713 10712 10709 ] final -144.13 input   66.30 | X-H torsion
[ 10763 10752 10751 10750 ] final   80.29 input  -60.55 | X-H torsion
[ 11005 11000 10999 10996 ] final -126.49 input  -57.11 | X-H torsion

> <Gold.Protein.ActiveResidues>
 VAL166  LYS551  ARG553  GLY616  TRP617  ASP618  TYR619  PRO620  LYS621  CYS622 
 ASP623  PHE694  ASN695  SER759  ASP760  ASP761  ALA762  ILE779  LEU786  VAL792 
 PHE793  MET794  SER795  GLU796  ALA797  LYS798  CYS799  TRP800  GLU811  SER814 

> <Gold.Protein.RotatedAtoms>
  150.8421  134.7717  159.6940 H   0  0  0  0  0  0  0  0  0  0  0  0  # atno 6907 bound_to 6896
  152.4506  134.5398  159.9845 H   0  0  0  0  0  0  0  0  0  0  0  0  # atno 6908 bound_to 6896
  151.5536  133.3376  159.2993 H   0  0  0  0  0  0  0  0  0  0  0  0  # atno 6909 bound_to 6896
  146.1725  140.4360  142.8526 H   0  0  0  0  0  0  0  0  0  0  0  0  # atno 7974 bound_to 7965
  156.1103  140.3229  155.8064 H   0  0  0  0  0  0  0  0  0  0  0  0  # atno 8008 bound_to 7997
  155.4684  140.0544  157.3000 H   0  0  0  0  0  0  0  0  0  0  0  0  # atno 8009 bound_to 7997
  154.4756  140.2030  155.9902 H   0  0  0  0  0  0  0  0  0  0  0  0  # atno 8010 bound_to 7997
  140.5447  143.2313  151.7024 H   0  0  0  0  0  0  0  0  0  0  0  0  # atno 10167 bound_to 10162
  156.3664  130.7765  151.1940 H   0  0  0  0  0  0  0  0  0  0  0  0  # atno 10718 bound_to 10713
  153.1021  135.4808  154.8886 H   0  0  0  0  0  0  0  0  0  0  0  0  # atno 10763 bound_to 10752
  154.7390  135.3078  154.8763 H   0  0  0  0  0  0  0  0  0  0  0  0  # atno 10764 bound_to 10752
  153.9377  135.6837  153.4798 H   0  0  0  0  0  0  0  0  0  0  0  0  # atno 10765 bound_to 10752
  140.9677  134.0848  157.3902 H   0  0  0  0  0  0  0  0  0  0  0  0  # atno 11005 bound_to 11000
  144.8185  140.6509  143.6368 LP  0  0  0  0  0  0  0  0  0  0  0  0  # atno 17320 bound_to 7965
  145.4301  139.1550  143.4027 LP  0  0  0  0  0  0  0  0  0  0  0  0  # atno 17321 bound_to 7965
  139.5002  144.3913  152.0276 LP  0  0  0  0  0  0  0  0  0  0  0  0  # atno 17342 bound_to 10162
  140.3025  144.3630  150.6056 LP  0  0  0  0  0  0  0  0  0  0  0  0  # atno 17343 bound_to 10162
  157.7479  131.0385  150.4506 LP  0  0  0  0  0  0  0  0  0  0  0  0  # atno 17370 bound_to 10713
  156.4725  130.4056  149.6509 LP  0  0  0  0  0  0  0  0  0  0  0  0  # atno 17371 bound_to 10713
  139.8901  135.0109  156.6714 LP  0  0  0  0  0  0  0  0  0  0  0  0  # atno 17394 bound_to 11000
  140.7375  133.9006  155.8254 LP  0  0  0  0  0  0  0  0  0  0  0  0  # atno 17395 bound_to 11000

$$$$
