AV-unprocessed.smi:65|AV-procd|sdf|615|dock3
  -GOLD-   2262016503D 1   1.00000     0.00000
 Structure written by MMmdl.
 26 27  0  0  0  0  0  0  0  0  2 V2000
  149.9190  145.0045  158.9625 N   0  0  0  0  0  0  0  0  0  0  0  0
  150.6058  143.8289  158.7816 C   0  0  0  0  0  0  0  0  0  0  0  0
  151.4219  143.4139  159.7546 N   0  0  0  0  0  0  0  0  0  0  0  0
  152.1005  142.2635  159.5829 C   0  0  0  0  0  0  0  0  0  0  0  0
  151.9659  141.4982  158.4127 C   0  0  0  0  0  0  0  0  0  0  0  0
  151.0846  141.9838  157.4205 C   0  0  0  0  0  0  0  0  0  0  0  0
  150.8695  141.3086  156.2040 N   0  0  0  0  0  0  0  0  0  0  0  0
  151.4784  140.0111  155.9397 C   0  0  0  0  0  0  0  0  0  0  0  0
  150.5281  139.2987  154.9689 C   0  0  0  0  0  0  0  0  0  0  0  0
  149.7402  140.4426  154.3281 C   0  0  1  0  0  0  0  0  0  0  0  0
  148.4764  140.0319  153.8523 O   0  0  0  0  0  0  0  0  0  0  0  0
  149.6249  141.4555  155.4659 C   0  0  0  0  0  0  0  0  0  0  0  0
  150.4254  143.1538  157.6379 N   0  3  0  0  0  0  0  0  0  0  0  0
  149.2943  145.3464  158.2463 H   0  0  0  0  0  0  0  0  0  0  0  0
  150.0395  145.5479  159.8050 H   0  0  0  0  0  0  0  0  0  0  0  0
  152.7556  141.9533  160.3836 H   0  0  0  0  0  0  0  0  0  0  0  0
  152.5263  140.5830  158.2916 H   0  0  0  0  0  0  0  0  0  0  0  0
  152.4549  140.1680  155.4806 H   0  0  0  0  0  0  0  0  0  0  0  0
  151.6163  139.4244  156.8486 H   0  0  0  0  0  0  0  0  0  0  0  0
  151.0511  138.6785  154.2402 H   0  0  0  0  0  0  0  0  0  0  0  0
  149.8545  138.6536  155.5356 H   0  0  0  0  0  0  0  0  0  0  0  0
  150.3172  140.8726  153.5081 H   0  0  0  0  0  0  0  0  0  0  0  0
  148.5355  139.8898  152.9196 H   0  0  0  0  0  0  0  0  0  0  0  0
  148.7872  141.2131  156.1219 H   0  0  0  0  0  0  0  0  0  0  0  0
  149.4908  142.4710  155.0914 H   0  0  0  0  0  0  0  0  0  0  0  0
  149.7914  143.5113  156.9236 H   0  0  0  0  0  0  0  0  0  0  0  0
  1  2  1  0  0  0  0
  1 14  1  0  0  0  0
  1 15  1  0  0  0  0
  2 13  1  0  0  0  0
  2  3  2  0  0  0  0
  3  4  1  0  0  0  0
  4  5  2  0  0  0  0
  4 16  1  0  0  0  0
  5  6  1  0  0  0  0
  5 17  1  0  0  0  0
  6  7  1  0  0  0  0
  6 13  2  0  0  0  0
  7 12  1  0  0  0  0
  7  8  1  0  0  0  0
  8  9  1  0  0  0  0
  8 18  1  0  0  0  0
  8 19  1  0  0  0  0
  9 10  1  0  0  0  0
  9 20  1  0  0  0  0
  9 21  1  0  0  0  0
 10 11  1  0  0  0  0
 10 12  1  0  0  0  0
 10 22  1  0  0  0  0
 11 23  1  0  0  0  0
 12 24  1  0  0  0  0
 12 25  1  0  0  0  0
 13 26  1  0  0  0  0
M  CHG  1  13   1
M  END
> <s_m_source_file>
AV-unprocessed.smi

> <i_m_source_file_index>
65

> <i_lp_mmshare_version>
43012

> <i_f3d_flags>
0

> <s_epik_input>
W05IMl1jMW5bY0hdW2NIXWMobjEpTjJbQ0gyXVtDSDJdW0NAQEhdKFtPSF0pW0NIMl0y

> <s_epik_cmdline>
J2VwaWtfcHl0aG9uJywgJy1waCcsICc3LjAnLCAnLXRuJywgJzgnLCAnLW1hJywgJzIwMCcsICctbWV0YWxfYmluZGluZycsICctaW1hZScsICc8aW5maWxlLm1hZT4nLCAnLW9tYWUnLCAnPG91dGZpbGUubWFlPic=

> <r_lp_tautomer_probability>
0.424989

> <r_epik_Ionization_Penalty>
0.57487

> <r_epik_Ionization_Penalty_Charging>
0.574865

> <r_epik_Ionization_Penalty_Neutral>
4.40886e-06

> <r_epik_State_Penalty>
0.845539

> <r_epik_Charging_Adjusted_Penalty>
1.4204

> <i_epik_Tot_Q>
1

> <i_epik_Tot_abs_Q>
1

> <r_epik_Metal_State_Penalty>
1.14248

> <b_epik_Metal_Only>
0

> <s_lp_Force_Field>
OPLS_2005

> <r_lp_Energy>
20.8145

> <b_lp_Chiralities_Consistent>
1

> <s_lp_Variant>
AV-unprocessed.smi:65-5

> <Gold.Version>
5.8.1

> <Gold.Id.Protein>
6NUR|6NUR_protein|mol2

> <Gold.PLP.Fitness>
40.5998

> <Gold.PLP.PLP>
-25.6971

> <Gold.PLP.part.hbond>
-3.0000

> <Gold.PLP.part.metal>
0.0000

> <Gold.PLP.part.buried>
-0.8731

> <Gold.PLP.part.nonpolar>
-22.2797

> <Gold.PLP.part.repulsive>
0.2473

> <Gold.PLP.ligand.clash>
0.0000

> <Gold.PLP.ligand.torsion>
0.1548

> <Gold.PLP.Chemscore.Hbond>
5.0000

> <Gold.PLP.Chemscore.CHOScore>
0.0000

> <Gold.PLP.Chemscore.Metal>
0.0000

> <Gold.Chemscore.Hbonds>
donor molecule, donor type, donor heavy atom, donor atom, acceptor molecule, acceptor atom, score
      L1  H     1    14       P1  8029  2.00
      L1  H    11    23       P1  7957  0.93
      L1  H    13    26       P1  8028  2.00

> <Gold.PLP.Chemscore.Internal.Correction>
0.2123

> <Gold.Rescore>
     Score         DG    S(hbond)    S(metal)    S(lipo)     H(rot)  DE(clash)    DE(int)     intcor
     16.46     -17.91       2.83        0.00      47.24       1.00       1.25       0.19       ----

> <Gold.Chemscore.Fitness>
16.4646

> <Gold.Chemscore.DG>
-17.9088

> <Gold.Chemscore.ZeroCoef>
-5.4800

> <Gold.Chemscore.Hbond>
2.8327

> <Gold.Chemscore.Metal>
0.0000

> <Gold.Chemscore.Lipo>
47.2434

> <Gold.Chemscore.Internal_Hbond>
0.0000

> <Gold.Chemscore.DEClash>
1.2516

> <Gold.Chemscore.DEInternal>
0.1925

> <Gold.Chemscore.Rot>
1.0000

> <Gold.Chemscore.Internal.Correction>
   9.000000E+99

> <Gold.Chemscore.Hbonds>
donor molecule, donor type, donor heavy atom, donor atom, acceptor molecule, acceptor atom, score
      L1  H     1    14       P1  8029  0.70
      L1  H    11    23       P1  7957  0.84
      L1  H    13    26       P1  8028  0.98

> <Gold.Chemscore.Hbond.Weighted>
-9.4613

> <Gold.Chemscore.Metal.Weighted>
-0.0000

> <Gold.Chemscore.Lipo.Weighted>
-5.5275

> <Gold.Chemscore.Internal_Hbond.Weighted>
0.0000

> <Gold.Chemscore.DEClash.Weighted>
1.2516

> <Gold.Chemscore.DEInternal.Weighted>
0.1925

> <Gold.Chemscore.Rot.Weighted>
2.5600

> <Gold.Chemscore.Internal.Correction.Weighted>
   9.000000E+99

> <Gold.Protein.RotatedTorsions>
[ 6907 6896 6895 6894 ] final  -14.66 input  -60.11 | X-H torsion
[ 7974 7965 7964 7962 ] final -143.18 input  175.53 | X-H torsion
[ 8008 7997 7996 7995 ] final  168.99 input   59.86 | X-H torsion
[ 10167 10162 10161 10158 ] final -164.20 input  -65.29 | X-H torsion
[ 10718 10713 10712 10709 ] final  109.05 input   66.30 | X-H torsion
[ 10763 10752 10751 10750 ] final  -19.90 input  -60.55 | X-H torsion
[ 11005 11000 10999 10996 ] final   20.15 input  -57.11 | X-H torsion

> <Gold.Protein.ActiveResidues>
 VAL166  LYS551  ARG553  GLY616  TRP617  ASP618  TYR619  PRO620  LYS621  CYS622 
 ASP623  PHE694  ASN695  SER759  ASP760  ASP761  ALA762  ILE779  LEU786  VAL792 
 PHE793  MET794  SER795  GLU796  ALA797  LYS798  CYS799  TRP800  GLU811  SER814 

> <Gold.Protein.RotatedAtoms>
  151.3359  135.0852  159.9354 H   0  0  0  0  0  0  0  0  0  0  0  0  # atno 6907 bound_to 6896
  152.5223  133.9496  159.7676 H   0  0  0  0  0  0  0  0  0  0  0  0  # atno 6908 bound_to 6896
  150.9843  133.6160  159.2747 H   0  0  0  0  0  0  0  0  0  0  0  0  # atno 6909 bound_to 6896
  144.8388  140.5866  143.5466 H   0  0  0  0  0  0  0  0  0  0  0  0  # atno 7974 bound_to 7965
  156.1497  140.1576  156.8789 H   0  0  0  0  0  0  0  0  0  0  0  0  # atno 8008 bound_to 7997
  154.5060  140.0813  156.7932 H   0  0  0  0  0  0  0  0  0  0  0  0  # atno 8009 bound_to 7997
  155.3919  140.3410  155.4254 H   0  0  0  0  0  0  0  0  0  0  0  0  # atno 8010 bound_to 7997
  139.6267  144.0518  152.1981 H   0  0  0  0  0  0  0  0  0  0  0  0  # atno 10167 bound_to 10162
  157.6559  131.0906  150.6397 H   0  0  0  0  0  0  0  0  0  0  0  0  # atno 10718 bound_to 10713
  153.6120  135.6996  153.5343 H   0  0  0  0  0  0  0  0  0  0  0  0  # atno 10763 bound_to 10752
  153.3009  135.4129  155.1251 H   0  0  0  0  0  0  0  0  0  0  0  0  # atno 10764 bound_to 10752
  154.8561  135.3648  154.5658 H   0  0  0  0  0  0  0  0  0  0  0  0  # atno 10765 bound_to 10752
  140.4058  134.1670  155.7665 H   0  0  0  0  0  0  0  0  0  0  0  0  # atno 11005 bound_to 11000
  145.4737  139.1501  143.3800 LP  0  0  0  0  0  0  0  0  0  0  0  0  # atno 17320 bound_to 7965
  146.2684  140.4871  142.8825 LP  0  0  0  0  0  0  0  0  0  0  0  0  # atno 17321 bound_to 7965
  140.0174  144.6179  150.7596 LP  0  0  0  0  0  0  0  0  0  0  0  0  # atno 17342 bound_to 10162
  140.7415  143.2819  151.3574 LP  0  0  0  0  0  0  0  0  0  0  0  0  # atno 17343 bound_to 10162
  156.6703  130.4538  149.5659 LP  0  0  0  0  0  0  0  0  0  0  0  0  # atno 17370 bound_to 10713
  156.2002  130.6615  151.1159 LP  0  0  0  0  0  0  0  0  0  0  0  0  # atno 17371 bound_to 10713
  141.1839  133.8354  157.1157 LP  0  0  0  0  0  0  0  0  0  0  0  0  # atno 17394 bound_to 11000
  140.0303  134.9904  157.0767 LP  0  0  0  0  0  0  0  0  0  0  0  0  # atno 17395 bound_to 11000

$$$$
