AV-unprocessed.smi:1311|AV-procd|sdf|5446|dock6
  -GOLD-   22720 5 13D 1   1.00000     0.00000
 Structure written by MMmdl.
 46 47  0  0  0  0  0  0  0  0  2 V2000
  142.6637  135.8037  153.0072 C   0  0  0  0  0  0  0  0  0  0  0  0
  143.7888  136.7783  152.6226 C   0  0  0  0  0  0  0  0  0  0  0  0
  145.1646  136.1101  152.3518 C   0  0  2  0  0  0  0  0  0  0  0  0
  145.5723  135.1076  153.4647 C   0  0  0  0  0  0  0  0  0  0  0  0
  146.9425  134.6259  153.3072 N   0  0  0  0  0  0  0  0  0  0  0  0
  147.4316  133.4731  153.7906 C   0  0  0  0  0  0  0  0  0  0  0  0
  146.7623  132.6646  154.4329 O   0  0  0  0  0  0  0  0  0  0  0  0
  148.9066  133.1884  153.5088 C   0  0  0  0  0  0  0  0  0  0  0  0
  149.6718  133.1540  154.8057 C   0  0  0  0  0  0  0  0  0  0  0  0
  150.0856  134.2562  155.6076 C   0  0  0  0  0  0  0  0  0  0  0  0
  149.8635  135.7215  155.3641 C   0  0  0  0  0  0  0  0  0  0  0  0
  150.7413  133.8633  156.6869 N   0  0  0  0  0  0  0  0  0  0  0  0
  150.7787  132.4670  156.6252 O   0  0  0  0  0  0  0  0  0  0  0  0
  150.1358  132.0695  155.4978 C   0  0  0  0  0  0  0  0  0  0  0  0
  150.0662  130.6011  155.2467 C   0  0  0  0  0  0  0  0  0  0  0  0
  146.2216  137.1376  152.1113 N   0  3  0  0  0  0  0  0  0  0  0  0
  146.0217  138.0105  150.9337 C   0  0  0  0  0  0  0  0  0  0  0  0
  146.9083  139.2244  151.1857 C   0  0  0  0  0  0  0  0  0  0  0  0
  146.7808  139.4344  152.6896 C   0  0  0  0  0  0  0  0  0  0  0  0
  146.5078  138.0357  153.2597 C   0  0  0  0  0  0  0  0  0  0  0  0
  141.7306  136.3428  153.1713 H   0  0  0  0  0  0  0  0  0  0  0  0
  142.8955  135.2656  153.9262 H   0  0  0  0  0  0  0  0  0  0  0  0
  142.4795  135.0671  152.2265 H   0  0  0  0  0  0  0  0  0  0  0  0
  143.4754  137.3470  151.7471 H   0  0  0  0  0  0  0  0  0  0  0  0
  143.8833  137.5250  153.4105 H   0  0  0  0  0  0  0  0  0  0  0  0
  145.0685  135.5359  151.4287 H   0  0  0  0  0  0  0  0  0  0  0  0
  145.5407  135.5874  154.4424 H   0  0  0  0  0  0  0  0  0  0  0  0
  144.8617  134.2813  153.5155 H   0  0  0  0  0  0  0  0  0  0  0  0
  147.5768  135.2235  152.7967 H   0  0  0  0  0  0  0  0  0  0  0  0
  148.9841  132.2395  152.9771 H   0  0  0  0  0  0  0  0  0  0  0  0
  149.3047  133.9455  152.8316 H   0  0  0  0  0  0  0  0  0  0  0  0
  148.8042  135.9699  155.4308 H   0  0  0  0  0  0  0  0  0  0  0  0
  150.2088  136.0082  154.3709 H   0  0  0  0  0  0  0  0  0  0  0  0
  150.3954  136.3386  156.0892 H   0  0  0  0  0  0  0  0  0  0  0  0
  150.4818  130.3566  154.2694 H   0  0  0  0  0  0  0  0  0  0  0  0
  149.0330  130.2554  155.2713 H   0  0  0  0  0  0  0  0  0  0  0  0
  150.6262  130.0456  155.9992 H   0  0  0  0  0  0  0  0  0  0  0  0
  146.2793  137.5062  150.0020 H   0  0  0  0  0  0  0  0  0  0  0  0
  144.9776  138.3235  150.8786 H   0  0  0  0  0  0  0  0  0  0  0  0
  147.9422  138.9893  150.9296 H   0  0  0  0  0  0  0  0  0  0  0  0
  146.6072  140.0983  150.6071 H   0  0  0  0  0  0  0  0  0  0  0  0
  147.6677  139.8986  153.1219 H   0  0  0  0  0  0  0  0  0  0  0  0
  145.9316  140.0866  152.8973 H   0  0  0  0  0  0  0  0  0  0  0  0
  145.6690  138.0843  153.9554 H   0  0  0  0  0  0  0  0  0  0  0  0
  147.3711  137.6545  153.8059 H   0  0  0  0  0  0  0  0  0  0  0  0
  147.0802  136.6359  151.9333 H   0  0  0  0  0  0  0  0  0  0  0  0
  1  2  1  0  0  0  0
  1 21  1  0  0  0  0
  1 22  1  0  0  0  0
  1 23  1  0  0  0  0
  2  3  1  0  0  0  0
  2 24  1  0  0  0  0
  2 25  1  0  0  0  0
  3  4  1  0  0  0  0
  3 16  1  0  0  0  0
  3 26  1  0  0  0  0
  4  5  1  0  0  0  0
  4 27  1  0  0  0  0
  4 28  1  0  0  0  0
  5  6  1  0  0  0  0
  5 29  1  0  0  0  0
  6  7  2  0  0  0  0
  6  8  1  0  0  0  0
  8  9  1  0  0  0  0
  8 30  1  0  0  0  0
  8 31  1  0  0  0  0
  9 14  2  0  0  0  0
  9 10  1  0  0  0  0
 10 11  1  0  0  0  0
 10 12  2  0  0  0  0
 11 32  1  0  0  0  0
 11 33  1  0  0  0  0
 11 34  1  0  0  0  0
 12 13  1  0  0  0  0
 13 14  1  0  0  0  0
 14 15  1  0  0  0  0
 15 35  1  0  0  0  0
 15 36  1  0  0  0  0
 15 37  1  0  0  0  0
 16 20  1  0  0  0  0
 16 17  1  0  0  0  0
 16 46  1  0  0  0  0
 17 18  1  0  0  0  0
 17 38  1  0  0  0  0
 17 39  1  0  0  0  0
 18 19  1  0  0  0  0
 18 40  1  0  0  0  0
 18 41  1  0  0  0  0
 19 20  1  0  0  0  0
 19 42  1  0  0  0  0
 19 43  1  0  0  0  0
 20 44  1  0  0  0  0
 20 45  1  0  0  0  0
M  CHG  1  16   1
M  END
> <s_m_source_file>
AV-unprocessed.smi

> <i_m_source_file_index>
1311

> <i_lp_mmshare_version>
43012

> <i_f3d_flags>
0

> <s_epik_input>
W0NIMl0xW0NIMl1bQ0gyXVtDSDJdTjFbQ0BIXShbQ0gyXVtDSDNdKVtDSDJdW05IXUMoPU8pW0NIMl1jMmMoW0NIM10pbm9jMltDSDNd

> <s_epik_cmdline>
J2VwaWtfcHl0aG9uJywgJy1waCcsICc3LjAnLCAnLXRuJywgJzgnLCAnLW1hJywgJzIwMCcsICctbWV0YWxfYmluZGluZycsICctaW1hZScsICc8aW5maWxlLm1hZT4nLCAnLW9tYWUnLCAnPG91dGZpbGUubWFlPic=

> <r_epik_Ionization_Penalty>
0.00366311

> <r_epik_Ionization_Penalty_Charging>
0.00366302

> <r_epik_Ionization_Penalty_Neutral>
9.25085e-08

> <r_epik_State_Penalty>
0.00260703

> <r_epik_Charging_Adjusted_Penalty>
0.00627005

> <i_epik_Tot_Q>
1

> <i_epik_Tot_abs_Q>
1

> <r_epik_Metal_State_Penalty>
-0

> <b_epik_Metal_Only>
0

> <s_lp_Force_Field>
OPLS_2005

> <r_lp_Energy>
28.3188

> <b_lp_Chiralities_Consistent>
1

> <s_lp_Variant>
AV-unprocessed.smi:1311-1

> <Gold.Version>
5.8.1

> <Gold.Id.Protein>
6NUR|6NUR_protein|mol2

> <Gold.PLP.Fitness>
39.9777

> <Gold.PLP.PLP>
-31.9315

> <Gold.PLP.part.hbond>
-2.0000

> <Gold.PLP.part.metal>
0.0000

> <Gold.PLP.part.buried>
2.3217

> <Gold.PLP.part.nonpolar>
-32.4948

> <Gold.PLP.part.repulsive>
0.1484

> <Gold.PLP.ligand.clash>
0.0000

> <Gold.PLP.ligand.torsion>
0.5404

> <Gold.PLP.Chemscore.Hbond>
3.0000

> <Gold.PLP.Chemscore.CHOScore>
0.0000

> <Gold.PLP.Chemscore.Metal>
0.0000

> <Gold.Chemscore.Hbonds>
donor molecule, donor type, donor heavy atom, donor atom, acceptor molecule, acceptor atom, score
      L1  H     5    29       P1  7948  1.00
      L1  H    16    46       P1  7948  2.00

> <Gold.PLP.Chemscore.Internal.Correction>
0.1271

> <Gold.Rescore>
     Score         DG    S(hbond)    S(metal)    S(lipo)     H(rot)  DE(clash)    DE(int)     intcor
     13.81     -17.06       1.98        0.00      81.75       1.80       2.78       0.47       ----

> <Gold.Chemscore.Fitness>
13.8081

> <Gold.Chemscore.DG>
-17.0595

> <Gold.Chemscore.ZeroCoef>
-5.4800

> <Gold.Chemscore.Hbond>
1.9831

> <Gold.Chemscore.Metal>
0.0000

> <Gold.Chemscore.Lipo>
81.7508

> <Gold.Chemscore.Internal_Hbond>
0.0000

> <Gold.Chemscore.DEClash>
2.7784

> <Gold.Chemscore.DEInternal>
0.4730

> <Gold.Chemscore.Rot>
1.8004

> <Gold.Chemscore.Internal.Correction>
   9.000000E+99

> <Gold.Chemscore.Hbonds>
donor molecule, donor type, donor heavy atom, donor atom, acceptor molecule, acceptor atom, score
      L1  H     5    29       P1  7948  1.00
      L1  H    16    46       P1  7948  1.00

> <Gold.Chemscore.Hbond.Weighted>
-6.6237

> <Gold.Chemscore.Metal.Weighted>
-0.0000

> <Gold.Chemscore.Lipo.Weighted>
-9.5648

> <Gold.Chemscore.Internal_Hbond.Weighted>
0.0000

> <Gold.Chemscore.DEClash.Weighted>
2.7784

> <Gold.Chemscore.DEInternal.Weighted>
0.4730

> <Gold.Chemscore.Rot.Weighted>
4.6090

> <Gold.Chemscore.Internal.Correction.Weighted>
   9.000000E+99

> <Gold.Protein.RotatedTorsions>
[ 6907 6896 6895 6894 ] final -142.52 input  -60.11 | X-H torsion
[ 7974 7965 7964 7962 ] final  176.35 input  175.53 | X-H torsion
[ 8008 7997 7996 7995 ] final   66.43 input   59.86 | X-H torsion
[ 10167 10162 10161 10158 ] final   39.67 input  -65.29 | X-H torsion
[ 10718 10713 10712 10709 ] final  152.42 input   66.30 | X-H torsion
[ 10763 10752 10751 10750 ] final  -29.41 input  -60.55 | X-H torsion
[ 11005 11000 10999 10996 ] final  175.55 input  -57.11 | X-H torsion

> <Gold.Protein.ActiveResidues>
 VAL166  LYS551  ARG553  GLY616  TRP617  ASP618  TYR619  PRO620  LYS621  CYS622 
 ASP623  PHE694  ASN695  SER759  ASP760  ASP761  ALA762  ILE779  LEU786  VAL792 
 PHE793  MET794  SER795  GLU796  ALA797  LYS798  CYS799  TRP800  GLU811  SER814 

> <Gold.Protein.RotatedAtoms>
  151.0882  133.5336  159.2616 H   0  0  0  0  0  0  0  0  0  0  0  0  # atno 6907 bound_to 6896
  151.2214  135.0519  159.8961 H   0  0  0  0  0  0  0  0  0  0  0  0  # atno 6908 bound_to 6896
  152.5431  134.0684  159.8236 H   0  0  0  0  0  0  0  0  0  0  0  0  # atno 6909 bound_to 6896
  144.7186  140.0084  143.6440 H   0  0  0  0  0  0  0  0  0  0  0  0  # atno 7974 bound_to 7965
  155.6772  140.3497  155.4841 H   0  0  0  0  0  0  0  0  0  0  0  0  # atno 8008 bound_to 7997
  155.9637  140.1142  157.0895 H   0  0  0  0  0  0  0  0  0  0  0  0  # atno 8009 bound_to 7997
  154.4149  140.1170  156.5200 H   0  0  0  0  0  0  0  0  0  0  0  0  # atno 8010 bound_to 7997
  140.3816  144.1971  150.6130 H   0  0  0  0  0  0  0  0  0  0  0  0  # atno 10167 bound_to 10162
  157.2579  131.0792  151.1685 H   0  0  0  0  0  0  0  0  0  0  0  0  # atno 10718 bound_to 10713
  153.7641  135.6917  153.4919 H   0  0  0  0  0  0  0  0  0  0  0  0  # atno 10763 bound_to 10752
  153.1918  135.4468  155.0158 H   0  0  0  0  0  0  0  0  0  0  0  0  # atno 10764 bound_to 10752
  154.8142  135.3391  154.7154 H   0  0  0  0  0  0  0  0  0  0  0  0  # atno 10765 bound_to 10752
  140.3634  134.7092  157.4346 H   0  0  0  0  0  0  0  0  0  0  0  0  # atno 11005 bound_to 11000
  146.0279  139.3308  143.0773 LP  0  0  0  0  0  0  0  0  0  0  0  0  # atno 17320 bound_to 7965
  145.8489  140.9540  143.0760 LP  0  0  0  0  0  0  0  0  0  0  0  0  # atno 17321 bound_to 7965
  140.4931  143.2341  151.8789 LP  0  0  0  0  0  0  0  0  0  0  0  0  # atno 17342 bound_to 10162
  139.4795  144.5143  151.8889 LP  0  0  0  0  0  0  0  0  0  0  0  0  # atno 17343 bound_to 10162
  157.3207  130.6935  149.6267 LP  0  0  0  0  0  0  0  0  0  0  0  0  # atno 17370 bound_to 10713
  155.9664  130.4336  150.5014 LP  0  0  0  0  0  0  0  0  0  0  0  0  # atno 17371 bound_to 10713
  140.0608  134.5998  155.8751 LP  0  0  0  0  0  0  0  0  0  0  0  0  # atno 17394 bound_to 11000
  141.1977  133.6597  156.5754 LP  0  0  0  0  0  0  0  0  0  0  0  0  # atno 17395 bound_to 11000

$$$$
