AV-unprocessed.smi:2432|AV-procd|sdf|9588|dock6
  -GOLD-   2272013223D 1   1.00000     0.00000
 Structure written by MMmdl.
 33 34  0  0  0  0  0  0  0  0  1 V2000
  146.4700  142.4142  154.3313 C   0  0  0  0  0  0  0  0  0  0  0  0
  147.8572  142.2773  154.7468 N   0  0  0  0  0  0  0  0  0  0  0  0
  148.5075  141.1080  154.8432 C   0  0  0  0  0  0  0  0  0  0  0  0
  147.9776  140.0262  154.5863 O   0  0  0  0  0  0  0  0  0  0  0  0
  149.9645  141.1744  155.3225 C   0  0  1  0  0  0  0  0  0  0  0  0
  150.1065  141.8404  156.7099 C   0  0  0  0  0  0  0  0  0  0  0  0
  151.4931  141.7981  157.1565 N   0  0  0  0  0  0  0  0  0  0  0  0
  151.8229  142.5891  158.2407 C   0  0  0  0  0  0  0  0  0  0  0  0
  151.4423  143.8720  158.2099 N   0  0  0  0  0  0  0  0  0  0  0  0
  151.7723  144.6330  159.2759 C   0  0  0  0  0  0  0  0  0  0  0  0
  152.4841  144.1065  160.3726 C   0  0  0  0  0  0  0  0  0  0  0  0
  152.8306  142.7413  160.2917 C   0  0  0  0  0  0  0  0  0  0  0  0
  153.5968  142.0508  161.3999 C   0  0  0  0  0  0  0  0  0  0  0  0
  152.4964  141.9846  159.2233 N   0  0  0  0  0  0  0  0  0  0  0  0
  152.0438  140.4502  157.1392 C   0  0  0  0  0  0  0  0  0  0  0  0
  151.8636  139.8217  155.7482 C   0  0  0  0  0  0  0  0  0  0  0  0
  150.4858  139.8463  155.3895 O   0  0  0  0  0  0  0  0  0  0  0  0
  146.1565  143.4543  154.4187 H   0  0  0  0  0  0  0  0  0  0  0  0
  145.8139  141.8073  154.9566 H   0  0  0  0  0  0  0  0  0  0  0  0
  146.3453  142.1054  153.2928 H   0  0  0  0  0  0  0  0  0  0  0  0
  148.3603  143.1231  154.9733 H   0  0  0  0  0  0  0  0  0  0  0  0
  150.5282  141.7440  154.5812 H   0  0  0  0  0  0  0  0  0  0  0  0
  149.7757  142.8792  156.6651 H   0  0  0  0  0  0  0  0  0  0  0  0
  149.4769  141.3333  157.4428 H   0  0  0  0  0  0  0  0  0  0  0  0
  151.4664  145.6685  159.2542 H   0  0  0  0  0  0  0  0  0  0  0  0
  152.7473  144.7180  161.2231 H   0  0  0  0  0  0  0  0  0  0  0  0
  153.8526  142.7497  162.1968 H   0  0  0  0  0  0  0  0  0  0  0  0
  154.5220  141.6232  161.0124 H   0  0  0  0  0  0  0  0  0  0  0  0
  152.9992  141.2467  161.8301 H   0  0  0  0  0  0  0  0  0  0  0  0
  153.1015  140.4800  157.4031 H   0  0  0  0  0  0  0  0  0  0  0  0
  151.5401  139.8439  157.8931 H   0  0  0  0  0  0  0  0  0  0  0  0
  152.4550  140.3531  155.0005 H   0  0  0  0  0  0  0  0  0  0  0  0
  152.2106  138.7884  155.7543 H   0  0  0  0  0  0  0  0  0  0  0  0
  1  2  1  0  0  0  0
  1 18  1  0  0  0  0
  1 19  1  0  0  0  0
  1 20  1  0  0  0  0
  2  3  1  0  0  0  0
  2 21  1  0  0  0  0
  3  4  2  0  0  0  0
  3  5  1  0  0  0  0
  5 17  1  0  0  0  0
  5  6  1  0  0  0  0
  5 22  1  0  0  0  0
  6  7  1  0  0  0  0
  6 23  1  0  0  0  0
  6 24  1  0  0  0  0
  7  8  1  0  0  0  0
  7 15  1  0  0  0  0
  8 14  1  0  0  0  0
  8  9  2  0  0  0  0
  9 10  1  0  0  0  0
 10 11  2  0  0  0  0
 10 25  1  0  0  0  0
 11 12  1  0  0  0  0
 11 26  1  0  0  0  0
 12 13  1  0  0  0  0
 12 14  2  0  0  0  0
 13 27  1  0  0  0  0
 13 28  1  0  0  0  0
 13 29  1  0  0  0  0
 15 16  1  0  0  0  0
 15 30  1  0  0  0  0
 15 31  1  0  0  0  0
 16 17  1  0  0  0  0
 16 32  1  0  0  0  0
 16 33  1  0  0  0  0
M  END
> <s_m_source_file>
AV-unprocessed.smi

> <i_m_source_file_index>
2432

> <i_lp_mmshare_version>
43012

> <i_f3d_flags>
0

> <s_epik_input>
W0NIM11bTkhdQyg9TylbQ0BASF0xW0NIMl1OKFtDSDJdW0NIMl1PMSljMm5bY0hdW2NIXWMobjIpW0NIM10=

> <s_epik_cmdline>
J2VwaWtfcHl0aG9uJywgJy1waCcsICc3LjAnLCAnLXRuJywgJzgnLCAnLW1hJywgJzIwMCcsICctbWV0YWxfYmluZGluZycsICctaW1hZScsICc8aW5maWxlLm1hZT4nLCAnLW9tYWUnLCAnPG91dGZpbGUubWFlPic=

> <r_lp_tautomer_probability>
1

> <r_epik_Ionization_Penalty>
3.16085e-05

> <r_epik_Ionization_Penalty_Charging>
0

> <r_epik_Ionization_Penalty_Neutral>
3.16085e-05

> <r_epik_State_Penalty>
-0

> <r_epik_Charging_Adjusted_Penalty>
0

> <i_epik_Tot_Q>
0

> <i_epik_Tot_abs_Q>
0

> <r_epik_Metal_State_Penalty>
-0

> <b_epik_Metal_Only>
0

> <s_lp_Force_Field>
OPLS_2005

> <r_lp_Energy>
12.5177

> <b_lp_Chiralities_Consistent>
1

> <s_lp_Variant>
AV-unprocessed.smi:2432-2

> <Gold.Version>
5.8.1

> <Gold.Id.Protein>
6NUR|6NUR_protein|mol2

> <Gold.PLP.Fitness>
39.3131

> <Gold.PLP.PLP>
-36.3256

> <Gold.PLP.part.hbond>
-1.0000

> <Gold.PLP.part.metal>
0.0000

> <Gold.PLP.part.buried>
-5.1742

> <Gold.PLP.part.nonpolar>
-30.2226

> <Gold.PLP.part.repulsive>
0.4606

> <Gold.PLP.ligand.clash>
0.0000

> <Gold.PLP.ligand.torsion>
0.1497

> <Gold.PLP.Chemscore.Hbond>
1.0000

> <Gold.PLP.Chemscore.CHOScore>
0.0000

> <Gold.PLP.Chemscore.Metal>
0.0000

> <Gold.Chemscore.Hbonds>
donor molecule, donor type, donor heavy atom, donor atom, acceptor molecule, acceptor atom, score
      L1  H     2    21       P1  8028  1.00

> <Gold.PLP.Chemscore.Internal.Correction>
0.2870

> <Gold.Rescore>
     Score         DG    S(hbond)    S(metal)    S(lipo)     H(rot)  DE(clash)    DE(int)     intcor
     14.70     -15.02       1.00        0.00      81.79       1.31       0.14       0.19       ----

> <Gold.Chemscore.Fitness>
14.6973

> <Gold.Chemscore.DG>
-15.0222

> <Gold.Chemscore.ZeroCoef>
-5.4800

> <Gold.Chemscore.Hbond>
0.9951

> <Gold.Chemscore.Metal>
0.0000

> <Gold.Chemscore.Lipo>
81.7911

> <Gold.Chemscore.Internal_Hbond>
0.0000

> <Gold.Chemscore.DEClash>
0.1357

> <Gold.Chemscore.DEInternal>
0.1892

> <Gold.Chemscore.Rot>
1.3089

> <Gold.Chemscore.Internal.Correction>
   9.000000E+99

> <Gold.Chemscore.Hbonds>
donor molecule, donor type, donor heavy atom, donor atom, acceptor molecule, acceptor atom, score
      L1  H     2    21       P1  8028  0.99

> <Gold.Chemscore.Hbond.Weighted>
-3.3235

> <Gold.Chemscore.Metal.Weighted>
-0.0000

> <Gold.Chemscore.Lipo.Weighted>
-9.5696

> <Gold.Chemscore.Internal_Hbond.Weighted>
0.0000

> <Gold.Chemscore.DEClash.Weighted>
0.1357

> <Gold.Chemscore.DEInternal.Weighted>
0.1892

> <Gold.Chemscore.Rot.Weighted>
3.3509

> <Gold.Chemscore.Internal.Correction.Weighted>
   9.000000E+99

> <Gold.Protein.RotatedTorsions>
[ 6907 6896 6895 6894 ] final -166.09 input  -60.11 | X-H torsion
[ 7974 7965 7964 7962 ] final -110.62 input  175.53 | X-H torsion
[ 8008 7997 7996 7995 ] final   10.17 input   59.86 | X-H torsion
[ 10167 10162 10161 10158 ] final  -94.85 input  -65.29 | X-H torsion
[ 10718 10713 10712 10709 ] final -162.25 input   66.30 | X-H torsion
[ 10763 10752 10751 10750 ] final  128.30 input  -60.55 | X-H torsion
[ 11005 11000 10999 10996 ] final   50.23 input  -57.11 | X-H torsion

> <Gold.Protein.ActiveResidues>
 VAL166  LYS551  ARG553  GLY616  TRP617  ASP618  TYR619  PRO620  LYS621  CYS622 
 ASP623  PHE694  ASN695  SER759  ASP760  ASP761  ALA762  ILE779  LEU786  VAL792 
 PHE793  MET794  SER795  GLU796  ALA797  LYS798  CYS799  TRP800  GLU811  SER814 

> <Gold.Protein.RotatedAtoms>
  151.4381  133.3651  159.2777 H   0  0  0  0  0  0  0  0  0  0  0  0  # atno 6907 bound_to 6896
  150.9177  134.8596  159.7478 H   0  0  0  0  0  0  0  0  0  0  0  0  # atno 6908 bound_to 6896
  152.4965  134.4316  159.9566 H   0  0  0  0  0  0  0  0  0  0  0  0  # atno 6909 bound_to 6896
  145.1660  140.8902  143.3563 H   0  0  0  0  0  0  0  0  0  0  0  0  # atno 7974 bound_to 7965
  154.7897  140.2833  155.6001 H   0  0  0  0  0  0  0  0  0  0  0  0  # atno 8008 bound_to 7997
  156.2962  140.2607  156.2671 H   0  0  0  0  0  0  0  0  0  0  0  0  # atno 8009 bound_to 7997
  154.9685  140.0376  157.2213 H   0  0  0  0  0  0  0  0  0  0  0  0  # atno 8010 bound_to 7997
  140.3102  143.3110  152.0157 H   0  0  0  0  0  0  0  0  0  0  0  0  # atno 10167 bound_to 10162
  156.6078  130.8837  151.2929 H   0  0  0  0  0  0  0  0  0  0  0  0  # atno 10718 bound_to 10713
  153.7233  135.3250  155.3271 H   0  0  0  0  0  0  0  0  0  0  0  0  # atno 10763 bound_to 10752
  154.8349  135.4504  154.1196 H   0  0  0  0  0  0  0  0  0  0  0  0  # atno 10764 bound_to 10752
  153.2322  135.6961  153.7957 H   0  0  0  0  0  0  0  0  0  0  0  0  # atno 10765 bound_to 10752
  140.1036  134.5049  155.8740 H   0  0  0  0  0  0  0  0  0  0  0  0  # atno 11005 bound_to 11000
  145.0281  139.3365  143.6038 LP  0  0  0  0  0  0  0  0  0  0  0  0  # atno 17320 bound_to 7965
  146.3475  139.9608  142.8717 LP  0  0  0  0  0  0  0  0  0  0  0  0  # atno 17321 bound_to 7965
  139.4895  144.6390  151.6915 LP  0  0  0  0  0  0  0  0  0  0  0  0  # atno 17342 bound_to 10162
  140.5575  144.0324  150.6154 LP  0  0  0  0  0  0  0  0  0  0  0  0  # atno 17343 bound_to 10162
  157.7262  130.9627  150.1648 LP  0  0  0  0  0  0  0  0  0  0  0  0  # atno 17370 bound_to 10713
  156.2415  130.3691  149.8331 LP  0  0  0  0  0  0  0  0  0  0  0  0  # atno 17371 bound_to 10713
  141.2112  133.6704  156.6566 LP  0  0  0  0  0  0  0  0  0  0  0  0  # atno 17394 bound_to 11000
  140.3187  134.8026  157.4235 LP  0  0  0  0  0  0  0  0  0  0  0  0  # atno 17395 bound_to 11000

$$$$
