AV-unprocessed.smi:218|AV-procd|sdf|1677|dock4
  -GOLD-   2262020103D 1   1.00000     0.00000
 Structure written by MMmdl.
 54 57  0  0  0  0  0  0  0  0  1 V2000
  150.7130  137.5513  155.3464 C   0  0  0  0  0  0  0  0  0  0  0  0
  151.3991  138.7018  154.6002 C   0  0  0  0  0  0  0  0  0  0  0  0
  152.9204  138.6843  154.8291 C   0  0  0  0  0  0  0  0  0  0  0  0
  150.8352  139.9148  155.1024 O   0  0  0  0  0  0  0  0  0  0  0  0
  149.6079  140.3523  154.6428 C   0  0  0  0  0  0  0  0  0  0  0  0
  148.8300  139.4653  153.8717 C   0  0  0  0  0  0  0  0  0  0  0  0
  147.5708  139.8933  153.4009 C   0  0  0  0  0  0  0  0  0  0  0  0
  146.6901  138.9711  152.5738 C   0  0  0  0  0  0  0  0  0  0  0  0
  145.3456  138.7695  153.1040 N   0  0  0  0  0  0  0  0  0  0  0  0
  144.8639  137.5197  153.2811 C   0  0  0  0  0  0  0  0  0  0  0  0
  144.1171  137.2029  154.3715 N   0  0  0  0  0  0  0  0  0  0  0  0
  143.6482  135.9604  154.5232 C   0  0  0  0  0  0  0  0  0  0  0  0
  143.8006  134.9061  153.7177 N   0  0  0  0  0  0  0  0  0  0  0  0
  144.5461  135.2235  152.6198 C   0  0  0  0  0  0  0  0  0  0  0  0
  145.1110  136.4960  152.3309 C   0  0  0  0  0  0  0  0  0  0  0  0
  145.8088  136.4388  151.1315 N   0  0  0  0  0  0  0  0  0  0  0  0
  145.6603  135.2018  150.7381 C   0  0  0  0  0  0  0  0  0  0  0  0
  144.9105  134.4029  151.5757 N   0  0  0  0  0  0  0  0  0  0  0  0
  144.5445  132.9606  151.4335 C   0  0  1  0  0  0  0  0  0  0  0  0
  143.6160  132.8551  150.3924 O   0  0  0  0  0  0  0  0  0  0  0  0
  144.1476  132.0973  149.3068 C   0  0  1  0  0  0  0  0  0  0  0  0
  143.6595  132.6877  147.9743 C   0  0  0  0  0  0  0  0  0  0  0  0
  143.5838  134.0950  148.0557 O   0  0  0  0  0  0  0  0  0  0  0  0
  145.6632  132.1453  149.5132 C   0  0  2  0  0  0  0  0  0  0  0  0
  146.3484  131.0593  148.9195 O   0  0  0  0  0  0  0  0  0  0  0  0
  145.7869  132.1579  151.0298 C   0  0  2  0  0  0  0  0  0  0  0  0
  145.7603  130.8645  151.6058 O   0  0  0  0  0  0  0  0  0  0  0  0
  147.1453  141.2000  153.7107 C   0  0  0  0  0  0  0  0  0  0  0  0
  147.9942  142.0160  154.4830 C   0  0  0  0  0  0  0  0  0  0  0  0
  149.1969  141.6097  154.9415 N   0  0  0  0  0  0  0  0  0  0  0  0
  144.1153  132.6881  152.3988 H   0  0  0  0  0  0  0  0  0  0  0  0
  143.7841  131.0751  149.4270 H   0  0  0  0  0  0  0  0  0  0  0  0
  146.0619  133.0790  149.1139 H   0  0  0  0  0  0  0  0  0  0  0  0
  146.7010  132.6536  151.3607 H   0  0  0  0  0  0  0  0  0  0  0  0
  151.0868  136.5845  155.0084 H   0  0  0  0  0  0  0  0  0  0  0  0
  149.6358  137.5666  155.1793 H   0  0  0  0  0  0  0  0  0  0  0  0
  150.8838  137.6191  156.4212 H   0  0  0  0  0  0  0  0  0  0  0  0
  151.1790  138.5750  153.5391 H   0  0  0  0  0  0  0  0  0  0  0  0
  153.3550  137.7444  154.4884 H   0  0  0  0  0  0  0  0  0  0  0  0
  153.1592  138.7974  155.8869 H   0  0  0  0  0  0  0  0  0  0  0  0
  153.4209  139.4885  154.2904 H   0  0  0  0  0  0  0  0  0  0  0  0
  149.1939  138.4720  153.6534 H   0  0  0  0  0  0  0  0  0  0  0  0
  146.6242  139.3397  151.5492 H   0  0  0  0  0  0  0  0  0  0  0  0
  147.1792  137.9986  152.5166 H   0  0  0  0  0  0  0  0  0  0  0  0
  144.7518  139.5864  153.1084 H   0  0  0  0  0  0  0  0  0  0  0  0
  143.0674  135.7870  155.4171 H   0  0  0  0  0  0  0  0  0  0  0  0
  146.0967  134.8417  149.8184 H   0  0  0  0  0  0  0  0  0  0  0  0
  144.3552  132.4328  147.1746 H   0  0  0  0  0  0  0  0  0  0  0  0
  142.6864  132.2830  147.6957 H   0  0  0  0  0  0  0  0  0  0  0  0
  144.4623  134.4447  148.0504 H   0  0  0  0  0  0  0  0  0  0  0  0
  147.1837  130.9642  149.3523 H   0  0  0  0  0  0  0  0  0  0  0  0
  145.3592  130.9256  152.4594 H   0  0  0  0  0  0  0  0  0  0  0  0
  146.1894  141.5702  153.3705 H   0  0  0  0  0  0  0  0  0  0  0  0
  147.6988  143.0221  154.7406 H   0  0  0  0  0  0  0  0  0  0  0  0
  1  2  1  0  0  0  0
  1 35  1  0  0  0  0
  1 36  1  0  0  0  0
  1 37  1  0  0  0  0
  2  3  1  0  0  0  0
  2  4  1  0  0  0  0
  2 38  1  0  0  0  0
  3 39  1  0  0  0  0
  3 40  1  0  0  0  0
  3 41  1  0  0  0  0
  4  5  1  0  0  0  0
  5 30  1  0  0  0  0
  5  6  2  0  0  0  0
  6  7  1  0  0  0  0
  6 42  1  0  0  0  0
  7  8  1  0  0  0  0
  7 28  2  0  0  0  0
  8  9  1  0  0  0  0
  8 43  1  0  0  0  0
  8 44  1  0  0  0  0
  9 10  1  0  0  0  0
  9 45  1  0  0  0  0
 10 15  1  0  0  0  0
 10 11  2  0  0  0  0
 11 12  1  0  0  0  0
 12 13  2  0  0  0  0
 12 46  1  0  0  0  0
 13 14  1  0  0  0  0
 14 18  1  0  0  0  0
 14 15  2  0  0  0  0
 15 16  1  0  0  0  0
 16 17  2  0  0  0  0
 17 18  1  0  0  0  0
 17 47  1  0  0  0  0
 18 19  1  0  0  0  0
 19 31  1  0  0  0  0
 19 26  1  0  0  0  0
 19 20  1  0  0  0  0
 20 21  1  0  0  0  0
 21 32  1  0  0  0  0
 21 22  1  0  0  0  0
 21 24  1  0  0  0  0
 22 23  1  0  0  0  0
 22 48  1  0  0  0  0
 22 49  1  0  0  0  0
 23 50  1  0  0  0  0
 24 33  1  0  0  0  0
 24 25  1  0  0  0  0
 24 26  1  0  0  0  0
 25 51  1  0  0  0  0
 26 34  1  0  0  0  0
 26 27  1  0  0  0  0
 27 52  1  0  0  0  0
 28 29  1  0  0  0  0
 28 53  1  0  0  0  0
 29 30  2  0  0  0  0
 29 54  1  0  0  0  0
M  END
> <s_m_source_file>
AV-unprocessed.smi

> <i_m_source_file_index>
218

> <i_lp_mmshare_version>
43012

> <i_f3d_flags>
0

> <s_epik_input>
W0NIM11bQ0hdKFtDSDNdKU9jMVtjSF1jKFtjSF1bY0hdbjEpW0NIMl1bTkhdYyhuW2NIXW4yKWMoYzIzKW5bY0hdbjNbQ0BASF00T1tDQEhdKFtDSDJdW09IXSlbQ0BASF0oW09IXSlbQ0BIXTRbT0hd

> <s_epik_cmdline>
J2VwaWtfcHl0aG9uJywgJy1waCcsICc3LjAnLCAnLXRuJywgJzgnLCAnLW1hJywgJzIwMCcsICctbWV0YWxfYmluZGluZycsICctaW1hZScsICc8aW5maWxlLm1hZT4nLCAnLW9tYWUnLCAnPG91dGZpbGUubWFlPic=

> <r_lp_tautomer_probability>
1

> <r_epik_Ionization_Penalty>
0.00457014

> <r_epik_Ionization_Penalty_Charging>
0

> <r_epik_Ionization_Penalty_Neutral>
0.00457014

> <r_epik_State_Penalty>
-0

> <r_epik_Charging_Adjusted_Penalty>
0

> <i_epik_Tot_Q>
0

> <i_epik_Tot_abs_Q>
0

> <r_epik_Metal_State_Penalty>
-0

> <b_epik_Metal_Only>
0

> <s_epik_Chemistry_Notes>
This compound contains an acetal/aminal-like group ( X-CH(R)-Y where X, Y are N, S, or O) that may be acid/base labile, releasing an aldehyde.

> <s_lp_Force_Field>
OPLS_2005

> <r_lp_Energy>
38.234

> <b_lp_Chiralities_Consistent>
1

> <s_lp_Variant>
AV-unprocessed.smi:218-16

> <Gold.Version>
5.8.1

> <Gold.Id.Protein>
6NUR|6NUR_protein|mol2

> <Gold.PLP.Fitness>
66.8391

> <Gold.PLP.PLP>
-51.1405

> <Gold.PLP.part.hbond>
-6.1555

> <Gold.PLP.part.metal>
0.0000

> <Gold.PLP.part.buried>
-0.8566

> <Gold.PLP.part.nonpolar>
-45.3223

> <Gold.PLP.part.repulsive>
0.8156

> <Gold.PLP.ligand.clash>
0.0000

> <Gold.PLP.ligand.torsion>
1.1892

> <Gold.PLP.Chemscore.Hbond>
4.0025

> <Gold.PLP.Chemscore.CHOScore>
2.0000

> <Gold.PLP.Chemscore.Metal>
0.0000

> <Gold.Chemscore.Hbonds>
donor molecule, donor type, donor heavy atom, donor atom, acceptor molecule, acceptor atom, score
      L1  H     9    45       P1 10175  0.99
      L1  H    23    50       P1  7921  1.00
      L1  H    25    51       P1 10747  1.00
      P1  H  7989  7998       L1     4  0.14
      P1  H 10192 10197       L1    23  0.83
      L1  C    17    47       P1  7921  1.00
      L1  C    29    54       P1  8028  1.00

> <Gold.PLP.Chemscore.Internal.Correction>
0.0693

> <Gold.Rescore>
     Score         DG    S(hbond)    S(metal)    S(lipo)     H(rot)  DE(clash)    DE(int)     intcor
     13.84     -16.84       3.44        0.00     106.08       4.90       1.75       1.24       ----

> <Gold.Chemscore.Fitness>
13.8411

> <Gold.Chemscore.DG>
-16.8365

> <Gold.Chemscore.ZeroCoef>
-5.4800

> <Gold.Chemscore.Hbond>
3.4422

> <Gold.Chemscore.Metal>
0.0000

> <Gold.Chemscore.Lipo>
106.0789

> <Gold.Chemscore.Internal_Hbond>
0.0000

> <Gold.Chemscore.DEClash>
1.7541

> <Gold.Chemscore.DEInternal>
1.2413

> <Gold.Chemscore.Rot>
4.9029

> <Gold.Chemscore.Internal.Correction>
   9.000000E+99

> <Gold.Chemscore.Hbonds>
donor molecule, donor type, donor heavy atom, donor atom, acceptor molecule, acceptor atom, score
      L1  H     9    45       P1 10175  0.88
      L1  H    23    50       P1  7921  1.00
      L1  H    25    51       P1 10747  0.97
      P1  H 10192 10197       L1    23  0.77

> <Gold.Chemscore.Hbond.Weighted>
-11.4968

> <Gold.Chemscore.Metal.Weighted>
-0.0000

> <Gold.Chemscore.Lipo.Weighted>
-12.4112

> <Gold.Chemscore.Internal_Hbond.Weighted>
0.0000

> <Gold.Chemscore.DEClash.Weighted>
1.7541

> <Gold.Chemscore.DEInternal.Weighted>
1.2413

> <Gold.Chemscore.Rot.Weighted>
12.5515

> <Gold.Chemscore.Internal.Correction.Weighted>
   9.000000E+99

> <Gold.Protein.RotatedTorsions>
[ 6907 6896 6895 6894 ] final -120.53 input  -60.11 | X-H torsion
[ 7974 7965 7964 7962 ] final   26.57 input  175.53 | X-H torsion
[ 8008 7997 7996 7995 ] final  -36.21 input   59.86 | X-H torsion
[ 10167 10162 10161 10158 ] final -136.65 input  -65.29 | X-H torsion
[ 10718 10713 10712 10709 ] final    3.15 input   66.30 | X-H torsion
[ 10763 10752 10751 10750 ] final  -94.82 input  -60.55 | X-H torsion
[ 11005 11000 10999 10996 ] final -143.93 input  -57.11 | X-H torsion

> <Gold.Protein.ActiveResidues>
 VAL166  LYS551  ARG553  GLY616  TRP617  ASP618  TYR619  PRO620  LYS621  CYS622 
 ASP623  PHE694  ASN695  SER759  ASP760  ASP761  ALA762  ILE779  LEU786  VAL792 
 PHE793  MET794  SER795  GLU796  ALA797  LYS798  CYS799  TRP800  GLU811  SER814 

> <Gold.Protein.RotatedAtoms>
  150.8401  133.7949  159.3063 H   0  0  0  0  0  0  0  0  0  0  0  0  # atno 6907 bound_to 6896
  151.5653  135.1062  159.9992 H   0  0  0  0  0  0  0  0  0  0  0  0  # atno 6908 bound_to 6896
  152.4467  133.7507  159.6748 H   0  0  0  0  0  0  0  0  0  0  0  0  # atno 6909 bound_to 6896
  146.1830  139.7310  142.8886 H   0  0  0  0  0  0  0  0  0  0  0  0  # atno 7974 bound_to 7965
  154.4078  140.1636  156.2337 H   0  0  0  0  0  0  0  0  0  0  0  0  # atno 8008 bound_to 7997
  155.9260  140.3418  155.6188 H   0  0  0  0  0  0  0  0  0  0  0  0  # atno 8009 bound_to 7997
  155.7164  140.0763  157.2340 H   0  0  0  0  0  0  0  0  0  0  0  0  # atno 8010 bound_to 7997
  139.8656  143.7021  152.2645 H   0  0  0  0  0  0  0  0  0  0  0  0  # atno 10167 bound_to 10162
  156.8735  130.5628  149.5656 H   0  0  0  0  0  0  0  0  0  0  0  0  # atno 10718 bound_to 10713
  154.7091  135.5143  153.8639 H   0  0  0  0  0  0  0  0  0  0  0  0  # atno 10763 bound_to 10752
  153.0766  135.6618  154.0142 H   0  0  0  0  0  0  0  0  0  0  0  0  # atno 10764 bound_to 10752
  153.9988  135.3013  155.3384 H   0  0  0  0  0  0  0  0  0  0  0  0  # atno 10765 bound_to 10752
  140.8076  134.2783  157.4954 H   0  0  0  0  0  0  0  0  0  0  0  0  # atno 11005 bound_to 11000
  145.4020  141.0386  143.3065 LP  0  0  0  0  0  0  0  0  0  0  0  0  # atno 17320 bound_to 7965
  144.8348  139.5568  143.6927 LP  0  0  0  0  0  0  0  0  0  0  0  0  # atno 17321 bound_to 7965
  139.7332  144.7577  151.0769 LP  0  0  0  0  0  0  0  0  0  0  0  0  # atno 17342 bound_to 10162
  140.7768  143.5063  150.9708 LP  0  0  0  0  0  0  0  0  0  0  0  0  # atno 17343 bound_to 10162
  156.0714  130.5746  150.9390 LP  0  0  0  0  0  0  0  0  0  0  0  0  # atno 17370 bound_to 10713
  157.6182  131.0931  150.8671 LP  0  0  0  0  0  0  0  0  0  0  0  0  # atno 17371 bound_to 10713
  139.8716  134.9465  156.3940 LP  0  0  0  0  0  0  0  0  0  0  0  0  # atno 17394 bound_to 11000
  140.9231  133.7631  155.9931 LP  0  0  0  0  0  0  0  0  0  0  0  0  # atno 17395 bound_to 11000

$$$$
