AV-unprocessed.smi:3248|AV-procd|sdf|12413|dock4
  -GOLD-   2272018293D 1   1.00000     0.00000
 Structure written by MMmdl.
 38 39  0  0  0  0  0  0  0  0  1 V2000
  151.4323  139.7846  156.1937 C   0  0  0  0  0  0  0  0  0  0  0  0
  150.5390  140.9924  156.5215 C   0  0  2  0  0  0  0  0  0  0  0  0
  149.9536  141.6735  155.2634 C   0  0  0  0  0  0  0  0  0  0  0  0
  149.0119  140.8339  154.5450 N   0  0  0  0  0  0  0  0  0  0  0  0
  147.8192  141.1951  153.9538 C   0  0  0  0  0  0  0  0  0  0  0  0
  147.2753  140.0657  153.4127 C   0  0  0  0  0  0  0  0  0  0  0  0
  148.2188  139.0495  153.7331 C   0  0  0  0  0  0  0  0  0  0  0  0
  149.2542  139.5115  154.4152 N   0  0  0  0  0  0  0  0  0  0  0  0
  151.3074  141.9555  157.3051 N   0  0  0  0  0  0  0  0  0  0  0  0
  151.7734  141.7581  158.5506 C   0  0  0  0  0  0  0  0  0  0  0  0
  151.6286  140.6911  159.1469 O   0  0  0  0  0  0  0  0  0  0  0  0
  152.5090  142.7967  159.0195 N   0  0  0  0  0  0  0  0  0  0  0  0
  152.1803  144.1844  158.6592 C   0  0  0  0  0  0  0  0  0  0  0  0
  151.2937  144.7775  159.7717 C   0  0  0  0  0  0  0  0  0  0  0  0
  151.9745  144.7102  161.0227 O   0  0  0  0  0  0  0  0  0  0  0  0
  152.3616  143.3865  161.3867 C   0  0  0  0  0  0  0  0  0  0  0  0
  153.2683  142.8003  160.2859 C   0  0  1  0  0  0  0  0  0  0  0  0
  153.8992  141.4514  160.6909 C   0  0  0  0  0  0  0  0  0  0  0  0
  150.8729  138.9998  155.6842 H   0  0  0  0  0  0  0  0  0  0  0  0
  151.8466  139.3465  157.1023 H   0  0  0  0  0  0  0  0  0  0  0  0
  152.2659  140.0706  155.5515 H   0  0  0  0  0  0  0  0  0  0  0  0
  149.7148  140.6290  157.1383 H   0  0  0  0  0  0  0  0  0  0  0  0
  149.4431  142.5998  155.5309 H   0  0  0  0  0  0  0  0  0  0  0  0
  150.7572  141.9492  154.5788 H   0  0  0  0  0  0  0  0  0  0  0  0
  147.4611  142.2142  153.9666 H   0  0  0  0  0  0  0  0  0  0  0  0
  146.3448  139.9779  152.8718 H   0  0  0  0  0  0  0  0  0  0  0  0
  148.1810  137.9969  153.4943 H   0  0  0  0  0  0  0  0  0  0  0  0
  151.5076  142.8415  156.8645 H   0  0  0  0  0  0  0  0  0  0  0  0
  153.0969  144.7669  158.5559 H   0  0  0  0  0  0  0  0  0  0  0  0
  151.6664  144.2730  157.7016 H   0  0  0  0  0  0  0  0  0  0  0  0
  151.0606  145.8198  159.5535 H   0  0  0  0  0  0  0  0  0  0  0  0
  150.3434  144.2449  159.8377 H   0  0  0  0  0  0  0  0  0  0  0  0
  152.8947  143.4310  162.3365 H   0  0  0  0  0  0  0  0  0  0  0  0
  151.4780  142.7656  161.5436 H   0  0  0  0  0  0  0  0  0  0  0  0
  154.1100  143.4818  160.1506 H   0  0  0  0  0  0  0  0  0  0  0  0
  154.6036  141.5929  161.5109 H   0  0  0  0  0  0  0  0  0  0  0  0
  154.4506  141.0063  159.8620 H   0  0  0  0  0  0  0  0  0  0  0  0
  153.1586  140.7308  161.0367 H   0  0  0  0  0  0  0  0  0  0  0  0
  1  2  1  0  0  0  0
  1 19  1  0  0  0  0
  1 20  1  0  0  0  0
  1 21  1  0  0  0  0
  2  3  1  0  0  0  0
  2  9  1  0  0  0  0
  2 22  1  0  0  0  0
  3  4  1  0  0  0  0
  3 23  1  0  0  0  0
  3 24  1  0  0  0  0
  4  8  1  0  0  0  0
  4  5  1  0  0  0  0
  5  6  2  0  0  0  0
  5 25  1  0  0  0  0
  6  7  1  0  0  0  0
  6 26  1  0  0  0  0
  7  8  2  0  0  0  0
  7 27  1  0  0  0  0
  9 10  1  0  0  0  0
  9 28  1  0  0  0  0
 10 11  2  0  0  0  0
 10 12  1  0  0  0  0
 12 17  1  0  0  0  0
 12 13  1  0  0  0  0
 13 14  1  0  0  0  0
 13 29  1  0  0  0  0
 13 30  1  0  0  0  0
 14 15  1  0  0  0  0
 14 31  1  0  0  0  0
 14 32  1  0  0  0  0
 15 16  1  0  0  0  0
 16 17  1  0  0  0  0
 16 33  1  0  0  0  0
 16 34  1  0  0  0  0
 17 18  1  0  0  0  0
 17 35  1  0  0  0  0
 18 36  1  0  0  0  0
 18 37  1  0  0  0  0
 18 38  1  0  0  0  0
M  END
> <s_m_source_file>
AV-unprocessed.smi

> <i_m_source_file_index>
3248

> <i_lp_mmshare_version>
43012

> <i_f3d_flags>
0

> <s_epik_input>
bjFbY0hdW2NIXVtjSF1uMVtDSDJdW0NAQEhdKFtDSDNdKVtOSF1DKD1PKU4yW0NIMl1bQ0gyXU9bQ0gyXVtDQEhdMltDSDNd

> <s_epik_cmdline>
J2VwaWtfcHl0aG9uJywgJy1waCcsICc3LjAnLCAnLXRuJywgJzgnLCAnLW1hJywgJzIwMCcsICctbWV0YWxfYmluZGluZycsICctaW1hZScsICc8aW5maWxlLm1hZT4nLCAnLW9tYWUnLCAnPG91dGZpbGUubWFlPic=

> <r_lp_tautomer_probability>
1

> <r_epik_Ionization_Penalty>
4.45233e-05

> <r_epik_Ionization_Penalty_Charging>
0

> <r_epik_Ionization_Penalty_Neutral>
4.45233e-05

> <r_epik_State_Penalty>
-0

> <r_epik_Charging_Adjusted_Penalty>
0

> <i_epik_Tot_Q>
0

> <i_epik_Tot_abs_Q>
0

> <r_epik_Metal_State_Penalty>
-0

> <b_epik_Metal_Only>
0

> <s_lp_Force_Field>
OPLS_2005

> <r_lp_Energy>
31.5175

> <b_lp_Chiralities_Consistent>
1

> <s_lp_Variant>
AV-unprocessed.smi:3248-1

> <Gold.Version>
5.8.1

> <Gold.Id.Protein>
6NUR|6NUR_protein|mol2

> <Gold.PLP.Fitness>
44.4130

> <Gold.PLP.PLP>
-42.1648

> <Gold.PLP.part.hbond>
0.0000

> <Gold.PLP.part.metal>
0.0000

> <Gold.PLP.part.buried>
-4.1486

> <Gold.PLP.part.nonpolar>
-38.5870

> <Gold.PLP.part.repulsive>
0.3775

> <Gold.PLP.ligand.clash>
0.0000

> <Gold.PLP.ligand.torsion>
0.5989

> <Gold.PLP.Chemscore.Hbond>
0.0000

> <Gold.PLP.Chemscore.CHOScore>
1.0000

> <Gold.PLP.Chemscore.Metal>
0.0000

> <Gold.Chemscore.Hbonds>
donor molecule, donor type, donor heavy atom, donor atom, acceptor molecule, acceptor atom, score
      L1  C     7    27       P1  7948  1.00

> <Gold.PLP.Chemscore.Internal.Correction>
0.4461

> <Gold.Rescore>
     Score         DG    S(hbond)    S(metal)    S(lipo)     H(rot)  DE(clash)    DE(int)     intcor
     10.33     -13.54       0.00        0.00      99.92       1.42       0.01       3.19       ----

> <Gold.Chemscore.Fitness>
10.3336

> <Gold.Chemscore.DG>
-13.5381

> <Gold.Chemscore.ZeroCoef>
-5.4800

> <Gold.Chemscore.Hbond>
0.0000

> <Gold.Chemscore.Metal>
0.0000

> <Gold.Chemscore.Lipo>
99.9234

> <Gold.Chemscore.Internal_Hbond>
0.0000

> <Gold.Chemscore.DEClash>
0.0149

> <Gold.Chemscore.DEInternal>
3.1896

> <Gold.Chemscore.Rot>
1.4191

> <Gold.Chemscore.Internal.Correction>
   9.000000E+99

> <Gold.Chemscore.Hbond.Weighted>
-0.0000

> <Gold.Chemscore.Metal.Weighted>
-0.0000

> <Gold.Chemscore.Lipo.Weighted>
-11.6910

> <Gold.Chemscore.Internal_Hbond.Weighted>
0.0000

> <Gold.Chemscore.DEClash.Weighted>
0.0149

> <Gold.Chemscore.DEInternal.Weighted>
3.1896

> <Gold.Chemscore.Rot.Weighted>
3.6330

> <Gold.Chemscore.Internal.Correction.Weighted>
   9.000000E+99

> <Gold.Protein.RotatedTorsions>
[ 6907 6896 6895 6894 ] final   88.04 input  -60.11 | X-H torsion
[ 7974 7965 7964 7962 ] final  106.95 input  175.53 | X-H torsion
[ 8008 7997 7996 7995 ] final  173.94 input   59.86 | X-H torsion
[ 10167 10162 10161 10158 ] final   -1.56 input  -65.29 | X-H torsion
[ 10718 10713 10712 10709 ] final  158.34 input   66.30 | X-H torsion
[ 10763 10752 10751 10750 ] final -130.16 input  -60.55 | X-H torsion
[ 11005 11000 10999 10996 ] final -124.86 input  -57.11 | X-H torsion

> <Gold.Protein.ActiveResidues>
 VAL166  LYS551  ARG553  GLY616  TRP617  ASP618  TYR619  PRO620  LYS621  CYS622 
 ASP623  PHE694  ASN695  SER759  ASP760  ASP761  ALA762  ILE779  LEU786  VAL792 
 PHE793  MET794  SER795  GLU796  ALA797  LYS798  CYS799  TRP800  GLU811  SER814 

> <Gold.Protein.RotatedAtoms>
  152.5420  134.2183  159.8777 H   0  0  0  0  0  0  0  0  0  0  0  0  # atno 6907 bound_to 6896
  151.2161  133.4521  159.2607 H   0  0  0  0  0  0  0  0  0  0  0  0  # atno 6908 bound_to 6896
  151.0850  134.9894  159.8430 H   0  0  0  0  0  0  0  0  0  0  0  0  # atno 6909 bound_to 6896
  145.3000  139.2572  143.3819 H   0  0  0  0  0  0  0  0  0  0  0  0  # atno 7974 bound_to 7965
  156.1025  140.1447  156.9448 H   0  0  0  0  0  0  0  0  0  0  0  0  # atno 8008 bound_to 7997
  154.4712  140.0909  156.7193 H   0  0  0  0  0  0  0  0  0  0  0  0  # atno 8009 bound_to 7997
  155.4736  140.3442  155.4331 H   0  0  0  0  0  0  0  0  0  0  0  0  # atno 8010 bound_to 7997
  140.6815  143.6761  150.8145 H   0  0  0  0  0  0  0  0  0  0  0  0  # atno 10167 bound_to 10162
  157.1792  131.0628  151.2141 H   0  0  0  0  0  0  0  0  0  0  0  0  # atno 10718 bound_to 10713
  154.8756  135.3871  154.4038 H   0  0  0  0  0  0  0  0  0  0  0  0  # atno 10763 bound_to 10752
  153.4759  135.7030  153.5971 H   0  0  0  0  0  0  0  0  0  0  0  0  # atno 10764 bound_to 10752
  153.4408  135.3856  155.2194 H   0  0  0  0  0  0  0  0  0  0  0  0  # atno 10765 bound_to 10752
  140.9808  134.0676  157.3767 H   0  0  0  0  0  0  0  0  0  0  0  0  # atno 11005 bound_to 11000
  146.3155  140.3512  142.8656 LP  0  0  0  0  0  0  0  0  0  0  0  0  # atno 17320 bound_to 7965
  144.9101  140.7747  143.5812 LP  0  0  0  0  0  0  0  0  0  0  0  0  # atno 17321 bound_to 7965
  140.0462  143.5296  152.2695 LP  0  0  0  0  0  0  0  0  0  0  0  0  # atno 17342 bound_to 10162
  139.6141  144.7615  151.2885 LP  0  0  0  0  0  0  0  0  0  0  0  0  # atno 17343 bound_to 10162
  157.3968  130.7312  149.6738 LP  0  0  0  0  0  0  0  0  0  0  0  0  # atno 17370 bound_to 10713
  155.9727  130.4131  150.4067 LP  0  0  0  0  0  0  0  0  0  0  0  0  # atno 17371 bound_to 10713
  139.8949  135.0138  156.6976 LP  0  0  0  0  0  0  0  0  0  0  0  0  # atno 17394 bound_to 11000
  140.7190  133.9157  155.8134 LP  0  0  0  0  0  0  0  0  0  0  0  0  # atno 17395 bound_to 11000

$$$$
