#       Name:                AV-unprocessed.smi:35
#       Creating user name   scv26
#       Creation time:       Thu Mar 26 16:04:25 2020


#       File generated by GOLD software.
#

@<TRIPOS>MOLECULE
AV-unprocessed.smi:35
    41    42     1
SMALL
NO_CHARGES


@<TRIPOS>ATOM
      1 ****        -4.2447   2.5088   2.1159 O.2            1 S1                 0.0000
      2 ****        -3.3120   2.1323   1.4084 C.2            1 S1                 0.0000
      3 ****        -3.4185   1.9880   0.0565 N.pl3          1 S1                -1.0000
      4 ****        -2.3829   1.5585  -0.7233 C.2            1 S1                 0.0000
      5 ****        -2.4639   1.4575  -1.9473 O.2            1 S1                 0.0000
      6 ****        -1.1469   1.2140  -0.1062 N.am           1 S1                 0.0000
      7 ****         0.0054   0.7531  -0.9859 C.3            1 S1                 0.0000
      8 ****         1.1673   0.6160  -0.2234 O.3            1 S1                 0.0000
      9 ****         1.2933  -0.7288   0.2185 C.3            1 S1                 0.0000
     10 ****         2.7554  -0.9995   0.6064 C.3            1 S1                 0.0000
     11 ****         2.8911  -2.2872   1.1697 O.3            1 S1                 0.0000
     12 ****         0.7848  -1.5377  -0.9779 C.3            1 S1                 0.0000
     13 ****         0.2046  -2.7479  -0.5329 O.3            1 S1                 0.0000
     14 ****        -0.2740  -0.6335  -1.6106 C.3            1 S1                 0.0000
     15 ****        -0.1116  -0.6081  -3.0147 O.3            1 S1                 0.0000
     16 ****        -1.0002   1.3918   1.2614 C.2            1 S1                 0.0000
     17 ****        -2.0240   1.8268   2.0234 C.2            1 S1                 0.0000
     18 ****        -1.6666   2.0293   3.9621 Br             1 S1                 0.0000
     19 ****         0.1333   1.5586  -1.7116 H              1 S1                 0.0000
     20 ****         0.6404  -0.8741   1.0808 H              1 S1                 0.0000
     21 ****         3.4137  -0.9064  -0.2578 H              1 S1                 0.0000
     22 ****         3.0867  -0.2674   1.3434 H              1 S1                 0.0000
     23 ****         3.7944  -2.4123   1.4182 H              1 S1                 0.0000
     24 ****         1.5998  -1.7410  -1.6746 H              1 S1                 0.0000
     25 ****         0.8646  -3.2415  -0.0701 H              1 S1                 0.0000
     26 ****        -1.2847  -0.9637  -1.3648 H              1 S1                 0.0000
     27 ****         0.7515  -0.2777  -3.2096 H              1 S1                 0.0000
     28 ****        -0.0573   1.1927   1.7458 H              1 S1                 0.0000
     29 ****        -4.1169   2.6032   3.1032 LP             1 S1                 0.0000
     30 ****        -5.1309   2.7205   1.7039 LP             1 S1                 0.0000
     31 ****        -4.2906   2.2056  -0.3817 LP             1 S1                 0.0000
     32 ****        -3.3162   1.6949  -2.4133 LP             1 S1                 0.0000
     33 ****        -1.6773   1.1380  -2.4758 LP             1 S1                 0.0000
     34 ****         1.1184   1.2234   0.5695 LP             1 S1                 0.0000
     35 ****         1.9614   0.8587  -0.7807 LP             1 S1                 0.0000
     36 ****         2.6273  -2.9790   0.4975 LP             1 S1                 0.0000
     37 ****         2.3054  -2.3659   1.9764 LP             1 S1                 0.0000
     38 ****        -0.1229  -3.2743  -1.3175 LP             1 S1                 0.0000
     39 ****        -0.5611  -2.5506   0.0792 LP             1 S1                 0.0000
     40 ****        -0.8018  -0.0112  -3.4236 LP             1 S1                 0.0000
     41 ****        -0.2102  -1.5327  -3.3827 LP             1 S1                 0.0000
@<TRIPOS>BOND
    1    1    2 2     
    2    2   17 1     
    3    2    3 1     
    4    3    4 1     
    5    4    5 2     
    6    4    6 am    
    7    6    7 1     
    8    6   16 1     
    9    7   14 1     
   10    7    8 1     
   11    7   19 1     
   12    8    9 1     
   13    9   10 1     
   14    9   12 1     
   15    9   20 1     
   16   10   11 1     
   17   10   21 1     
   18   10   22 1     
   19   11   23 1     
   20   12   13 1     
   21   12   14 1     
   22   12   24 1     
   23   13   25 1     
   24   14   15 1     
   25   14   26 1     
   26   15   27 1     
   27   16   17 2     
   28   16   28 1     
   29   17   18 1     
   30    1   29 1     
   31    1   30 1     
   32    3   31 1     
   33    5   32 1     
   34    5   33 1     
   35    8   34 1     
   36    8   35 1     
   37   11   36 1     
   38   11   37 1     
   39   13   38 1     
   40   13   39 1     
   41   15   40 1     
   42   15   41 1     
@<TRIPOS>SUBSTRUCTURE
      1 S1             1
@<TRIPOS>SET
LONE_PAIRS      STATIC     ATOMS    <user>   **** ""
13 29 30 31 32 33 34 35 36 37 38 39 40 41
DONOR_HYDROGENS      STATIC     ATOMS    <user>   **** ""
3 23 25 27
ATOM$BLUE        STATIC     ATOMS    COLORGROUP SYSTEM
13 29 30 31 32 33 34 35 36 37 38 39 40 41
ATOM$RED        STATIC     ATOMS    COLORGROUP SYSTEM
3 23 25 27
