AV-unprocessed.smi:2106|AV-procd|sdf|8593|dock1
  -GOLD-   2272011323D 1   1.00000     0.00000
 Structure written by MMmdl.
 47 48  0  0  0  0  0  0  0  0  1 V2000
  151.9514  144.7889  160.0949 C   0  0  0  0  0  0  0  0  0  0  0  0
  152.4353  143.3814  160.2825 C   0  0  0  0  0  0  0  0  0  0  0  0
  153.0186  142.7977  161.4415 C   0  0  0  0  0  0  0  0  0  0  0  0
  153.2761  141.5063  161.0767 C   0  0  0  0  0  0  0  0  0  0  0  0
  153.8870  140.3897  161.8578 C   0  0  0  0  0  0  0  0  0  0  0  0
  152.8541  141.3680  159.7659 N   0  0  0  0  0  0  0  0  0  0  0  0
  152.9088  140.1992  158.9018 C   0  0  0  0  0  0  0  0  0  0  0  0
  151.6752  140.1213  158.0012 C   0  0  0  0  0  0  0  0  0  0  0  0
  150.5487  140.1292  158.4969 O   0  0  0  0  0  0  0  0  0  0  0  0
  151.9039  140.0424  156.6815 N   0  0  0  0  0  0  0  0  0  0  0  0
  150.8747  139.9412  155.6550 C   0  0  0  0  0  0  0  0  0  0  0  0
  149.9329  141.1588  155.6904 C   0  0  0  0  0  0  0  0  0  0  0  0
  149.0732  141.3099  154.5174 N   0  0  0  0  0  0  0  0  0  0  0  0
  148.4521  140.0512  154.1113 C   0  0  0  0  0  0  0  0  0  0  0  0
  147.5237  140.2298  152.8944 C   0  0  1  0  0  0  0  0  0  0  0  0
  146.8030  138.9302  152.5210 C   0  0  0  0  0  0  0  0  0  0  0  0
  146.5406  141.2157  153.1963 O   0  0  0  0  0  0  0  0  0  0  0  0
  147.1007  142.4779  153.5471 C   0  0  1  0  0  0  0  0  0  0  0  0
  145.9512  143.4502  153.8324 C   0  0  0  0  0  0  0  0  0  0  0  0
  148.0256  142.2945  154.7655 C   0  0  0  0  0  0  0  0  0  0  0  0
  152.3384  142.5202  159.2831 N   0  0  0  0  0  0  0  0  0  0  0  0
  152.0677  145.3699  161.0099 H   0  0  0  0  0  0  0  0  0  0  0  0
  150.8961  144.8090  159.8217 H   0  0  0  0  0  0  0  0  0  0  0  0
  152.5109  145.2948  159.3077 H   0  0  0  0  0  0  0  0  0  0  0  0
  153.2193  143.2590  162.3971 H   0  0  0  0  0  0  0  0  0  0  0  0
  154.1516  140.7173  162.8635 H   0  0  0  0  0  0  0  0  0  0  0  0
  154.7945  140.0268  161.3752 H   0  0  0  0  0  0  0  0  0  0  0  0
  153.1931  139.5542  161.9500 H   0  0  0  0  0  0  0  0  0  0  0  0
  153.8123  140.2432  158.2931 H   0  0  0  0  0  0  0  0  0  0  0  0
  152.9858  139.2990  159.5138 H   0  0  0  0  0  0  0  0  0  0  0  0
  152.8637  140.0358  156.3679 H   0  0  0  0  0  0  0  0  0  0  0  0
  151.3317  139.8384  154.6694 H   0  0  0  0  0  0  0  0  0  0  0  0
  150.3245  139.0200  155.8430 H   0  0  0  0  0  0  0  0  0  0  0  0
  149.3204  141.1198  156.5924 H   0  0  0  0  0  0  0  0  0  0  0  0
  150.5489  142.0540  155.7872 H   0  0  0  0  0  0  0  0  0  0  0  0
  149.2167  139.3179  153.8575 H   0  0  0  0  0  0  0  0  0  0  0  0
  147.8838  139.6357  154.9451 H   0  0  0  0  0  0  0  0  0  0  0  0
  148.1081  140.5651  152.0357 H   0  0  0  0  0  0  0  0  0  0  0  0
  147.5160  138.1456  152.2668 H   0  0  0  0  0  0  0  0  0  0  0  0
  146.1517  139.0794  151.6594 H   0  0  0  0  0  0  0  0  0  0  0  0
  146.1872  138.5696  153.3453 H   0  0  0  0  0  0  0  0  0  0  0  0
  147.6783  142.8563  152.7019 H   0  0  0  0  0  0  0  0  0  0  0  0
  146.3295  144.4392  154.0917 H   0  0  0  0  0  0  0  0  0  0  0  0
  145.3338  143.0994  154.6598 H   0  0  0  0  0  0  0  0  0  0  0  0
  145.3075  143.5591  152.9593 H   0  0  0  0  0  0  0  0  0  0  0  0
  147.4313  141.9899  155.6285 H   0  0  0  0  0  0  0  0  0  0  0  0
  148.4765  143.2539  155.0217 H   0  0  0  0  0  0  0  0  0  0  0  0
  1  2  1  0  0  0  0
  1 22  1  0  0  0  0
  1 23  1  0  0  0  0
  1 24  1  0  0  0  0
  2 21  2  0  0  0  0
  2  3  1  0  0  0  0
  3  4  2  0  0  0  0
  3 25  1  0  0  0  0
  4  5  1  0  0  0  0
  4  6  1  0  0  0  0
  5 26  1  0  0  0  0
  5 27  1  0  0  0  0
  5 28  1  0  0  0  0
  6  7  1  0  0  0  0
  6 21  1  0  0  0  0
  7  8  1  0  0  0  0
  7 29  1  0  0  0  0
  7 30  1  0  0  0  0
  8  9  2  0  0  0  0
  8 10  1  0  0  0  0
 10 11  1  0  0  0  0
 10 31  1  0  0  0  0
 11 12  1  0  0  0  0
 11 32  1  0  0  0  0
 11 33  1  0  0  0  0
 12 13  1  0  0  0  0
 12 34  1  0  0  0  0
 12 35  1  0  0  0  0
 13 20  1  0  0  0  0
 13 14  1  0  0  0  0
 14 15  1  0  0  0  0
 14 36  1  0  0  0  0
 14 37  1  0  0  0  0
 15 16  1  0  0  0  0
 15 17  1  0  0  0  0
 15 38  1  0  0  0  0
 16 39  1  0  0  0  0
 16 40  1  0  0  0  0
 16 41  1  0  0  0  0
 17 18  1  0  0  0  0
 18 19  1  0  0  0  0
 18 20  1  0  0  0  0
 18 42  1  0  0  0  0
 19 43  1  0  0  0  0
 19 44  1  0  0  0  0
 19 45  1  0  0  0  0
 20 46  1  0  0  0  0
 20 47  1  0  0  0  0
M  END
> <s_m_source_file>
AV-unprocessed.smi

> <i_m_source_file_index>
2106

> <i_lp_mmshare_version>
43012

> <i_f3d_flags>
0

> <s_epik_input>
W0NIM11jMVtjSF1jKFtDSDNdKW4objEpW0NIMl1DKD1PKVtOSF1bQ0gyXVtDSDJdTjJbQ0gyXVtDQEBIXShbQ0gzXSlPW0NAQEhdKFtDSDNdKVtDSDJdMg==

> <s_epik_cmdline>
J2VwaWtfcHl0aG9uJywgJy1waCcsICc3LjAnLCAnLXRuJywgJzgnLCAnLW1hJywgJzIwMCcsICctbWV0YWxfYmluZGluZycsICctaW1hZScsICc8aW5maWxlLm1hZT4nLCAnLW9tYWUnLCAnPG91dGZpbGUubWFlPic=

> <r_lp_tautomer_probability>
1

> <r_epik_Ionization_Penalty>
0.197284

> <r_epik_Ionization_Penalty_Charging>
0

> <r_epik_Ionization_Penalty_Neutral>
0.197284

> <r_epik_State_Penalty>
0.186684

> <r_epik_Charging_Adjusted_Penalty>
0.186684

> <i_epik_Tot_Q>
0

> <i_epik_Tot_abs_Q>
0

> <r_epik_Metal_State_Penalty>
0.186634

> <b_epik_Metal_Only>
0

> <s_lp_Force_Field>
OPLS_2005

> <r_lp_Energy>
17.5566

> <b_lp_Chiralities_Consistent>
1

> <s_lp_Variant>
AV-unprocessed.smi:2106-1

> <Gold.Version>
5.8.1

> <Gold.Id.Protein>
6NUR|6NUR_protein|mol2

> <Gold.PLP.Fitness>
41.4221

> <Gold.PLP.PLP>
-42.3497

> <Gold.PLP.part.hbond>
0.0000

> <Gold.PLP.part.metal>
0.0000

> <Gold.PLP.part.buried>
-1.9824

> <Gold.PLP.part.nonpolar>
-42.0296

> <Gold.PLP.part.repulsive>
1.8879

> <Gold.PLP.ligand.clash>
0.0000

> <Gold.PLP.ligand.torsion>
0.4952

> <Gold.PLP.Chemscore.Hbond>
0.0000

> <Gold.PLP.Chemscore.CHOScore>
0.0000

> <Gold.PLP.Chemscore.Metal>
0.0000

> <Gold.PLP.Chemscore.Internal.Correction>
0.0628

> <Gold.Rescore>
     Score         DG    S(hbond)    S(metal)    S(lipo)     H(rot)  DE(clash)    DE(int)     intcor
     13.20     -14.71       0.00        0.00     115.36       1.67       1.28       0.23       ----

> <Gold.Chemscore.Fitness>
13.1985

> <Gold.Chemscore.DG>
-14.7135

> <Gold.Chemscore.ZeroCoef>
-5.4800

> <Gold.Chemscore.Hbond>
0.0000

> <Gold.Chemscore.Metal>
0.0000

> <Gold.Chemscore.Lipo>
115.3638

> <Gold.Chemscore.Internal_Hbond>
0.0000

> <Gold.Chemscore.DEClash>
1.2848

> <Gold.Chemscore.DEInternal>
0.2302

> <Gold.Chemscore.Rot>
1.6657

> <Gold.Chemscore.Internal.Correction>
   9.000000E+99

> <Gold.Chemscore.Hbond.Weighted>
-0.0000

> <Gold.Chemscore.Metal.Weighted>
-0.0000

> <Gold.Chemscore.Lipo.Weighted>
-13.4976

> <Gold.Chemscore.Internal_Hbond.Weighted>
0.0000

> <Gold.Chemscore.DEClash.Weighted>
1.2848

> <Gold.Chemscore.DEInternal.Weighted>
0.2302

> <Gold.Chemscore.Rot.Weighted>
4.2641

> <Gold.Chemscore.Internal.Correction.Weighted>
   9.000000E+99

> <Gold.Protein.RotatedTorsions>
[ 6907 6896 6895 6894 ] final   56.67 input  -60.11 | X-H torsion
[ 7974 7965 7964 7962 ] final -105.12 input  175.53 | X-H torsion
[ 8008 7997 7996 7995 ] final   31.87 input   59.86 | X-H torsion
[ 10167 10162 10161 10158 ] final -169.10 input  -65.29 | X-H torsion
[ 10718 10713 10712 10709 ] final  -15.81 input   66.30 | X-H torsion
[ 10763 10752 10751 10750 ] final  149.86 input  -60.55 | X-H torsion
[ 11005 11000 10999 10996 ] final  -26.55 input  -57.11 | X-H torsion

> <Gold.Protein.ActiveResidues>
 VAL166  LYS551  ARG553  GLY616  TRP617  ASP618  TYR619  PRO620  LYS621  CYS622 
 ASP623  PHE694  ASN695  SER759  ASP760  ASP761  ALA762  ILE779  LEU786  VAL792 
 PHE793  MET794  SER795  GLU796  ALA797  LYS798  CYS799  TRP800  GLU811  SER814 

> <Gold.Protein.RotatedAtoms>
  152.3658  134.6806  160.0192 H   0  0  0  0  0  0  0  0  0  0  0  0  # atno 6907 bound_to 6896
  151.7115  133.3307  159.3300 H   0  0  0  0  0  0  0  0  0  0  0  0  # atno 6908 bound_to 6896
  150.7637  134.6463  159.6308 H   0  0  0  0  0  0  0  0  0  0  0  0  # atno 6909 bound_to 6896
  145.2344  140.9182  143.3186 H   0  0  0  0  0  0  0  0  0  0  0  0  # atno 7974 bound_to 7965
  155.1133  140.3241  155.4516 H   0  0  0  0  0  0  0  0  0  0  0  0  # atno 8008 bound_to 7997
  156.2684  140.2040  156.6204 H   0  0  0  0  0  0  0  0  0  0  0  0  # atno 8009 bound_to 7997
  154.6739  140.0533  157.0182 H   0  0  0  0  0  0  0  0  0  0  0  0  # atno 8010 bound_to 7997
  139.5943  144.1145  152.1671 H   0  0  0  0  0  0  0  0  0  0  0  0  # atno 10167 bound_to 10162
  156.5964  130.4812  149.6257 H   0  0  0  0  0  0  0  0  0  0  0  0  # atno 10718 bound_to 10713
  154.0781  135.2861  155.3295 H   0  0  0  0  0  0  0  0  0  0  0  0  # atno 10763 bound_to 10752
  154.6702  135.5302  153.8132 H   0  0  0  0  0  0  0  0  0  0  0  0  # atno 10764 bound_to 10752
  153.0459  135.6556  154.0958 H   0  0  0  0  0  0  0  0  0  0  0  0  # atno 10765 bound_to 10752
  140.9039  133.7506  156.0580 H   0  0  0  0  0  0  0  0  0  0  0  0  # atno 11005 bound_to 11000
  144.9646  139.3943  143.6339 LP  0  0  0  0  0  0  0  0  0  0  0  0  # atno 17320 bound_to 7965
  146.3344  139.8715  142.8839 LP  0  0  0  0  0  0  0  0  0  0  0  0  # atno 17321 bound_to 7965
  140.0726  144.5766  150.7180 LP  0  0  0  0  0  0  0  0  0  0  0  0  # atno 17342 bound_to 10162
  140.7199  143.2579  151.4312 LP  0  0  0  0  0  0  0  0  0  0  0  0  # atno 17343 bound_to 10162
  156.2506  130.6904  151.1641 LP  0  0  0  0  0  0  0  0  0  0  0  0  # atno 17370 bound_to 10713
  157.7290  131.0627  150.5791 LP  0  0  0  0  0  0  0  0  0  0  0  0  # atno 17371 bound_to 10713
  140.8195  134.3305  157.5386 LP  0  0  0  0  0  0  0  0  0  0  0  0  # atno 17394 bound_to 11000
  139.8746  134.9301  156.3494 LP  0  0  0  0  0  0  0  0  0  0  0  0  # atno 17395 bound_to 11000

$$$$
