#       Name:                AV-unprocessed.smi:683
#       Creating user name   scv26
#       Creation time:       Fri Mar 27 00:29:57 2020


#       File generated by GOLD software.
#

@<TRIPOS>MOLECULE
AV-unprocessed.smi:683
    37    38     1
SMALL
NO_CHARGES


@<TRIPOS>ATOM
      1 ****        -1.0342   5.5821  -0.2347 N.1            1 S1                 0.0000
      2 ****        -1.5980   4.5741  -0.1651 C.1            1 S1                 0.0000
      3 ****        -2.3057   3.3077  -0.0775 C.ar           1 S1                 0.0000
      4 ****        -3.7136   3.2900  -0.0240 C.ar           1 S1                 0.0000
      5 ****        -4.3961   2.0626   0.0618 C.ar           1 S1                 0.0000
      6 ****        -3.6727   0.8553   0.0939 C.ar           1 S1                 0.0000
      7 ****        -2.2636   0.8556   0.0410 C.ar           1 S1                 0.0000
      8 ****        -1.6372  -0.3718   0.0782 O.3            1 S1                 0.0000
      9 ****        -0.2189  -0.4060   0.0031 C.3            1 S1                 0.0000
     10 ****         0.2367  -1.8727   0.0451 C.3            1 S1                 0.0000
     11 ****         1.6712  -2.0150   0.0221 N.am           1 S1                 0.0000
     12 ****         2.4179  -2.2187   1.1723 C.2            1 S1                 0.0000
     13 ****         3.7676  -2.3390   1.1696 C.2            1 S1                 0.0000
     14 ****         4.6285  -2.5909   2.6459 Cl             1 S1                 0.0000
     15 ****         4.5077  -2.2526  -0.0890 C.2            1 S1                 0.0000
     16 ****         5.7276  -2.3504  -0.2060 O.2            1 S1                 0.0000
     17 ****         3.7150  -2.0382  -1.2206 N.am           1 S1                 0.0000
     18 ****         2.3257  -1.9103  -1.2268 C.2            1 S1                 0.0000
     19 ****         1.7319  -1.7134  -2.2871 O.2            1 S1                 0.0000
     20 ****        -1.5829   2.0969  -0.0452 C.ar           1 S1                 0.0000
     21 ****         4.1892  -1.9685  -2.1094 H              1 S1                 0.0000
     22 ****        -4.2756   4.2129  -0.0484 H              1 S1                 0.0000
     23 ****        -5.4752   2.0466   0.1028 H              1 S1                 0.0000
     24 ****        -4.2055  -0.0821   0.1589 H              1 S1                 0.0000
     25 ****         0.1171   0.0671  -0.9208 H              1 S1                 0.0000
     26 ****         0.2161   0.1379   0.8434 H              1 S1                 0.0000
     27 ****        -0.1037  -2.3557   0.9624 H              1 S1                 0.0000
     28 ****        -0.1692  -2.4620  -0.7800 H              1 S1                 0.0000
     29 ****         1.9035  -2.2832   2.1207 H              1 S1                 0.0000
     30 ****        -0.5045   2.1404  -0.0871 H              1 S1                 0.0000
     31 ****        -0.5469   6.4533  -0.2948 LP             1 S1                 0.0000
     32 ****        -1.9875  -0.9065  -0.6908 LP             1 S1                 0.0000
     33 ****        -1.8990  -0.8120   0.9371 LP             1 S1                 0.0000
     34 ****         6.2969  -2.5019   0.6021 LP             1 S1                 0.0000
     35 ****         6.1507  -2.2784  -1.1092 LP             1 S1                 0.0000
     36 ****         0.7364  -1.6191  -2.2926 LP             1 S1                 0.0000
     37 ****         2.2451  -1.6477  -3.1428 LP             1 S1                 0.0000
@<TRIPOS>BOND
    1    1    2 3     
    2    2    3 1     
    3    3   20 ar    
    4    3    4 ar    
    5    4    5 ar    
    6    4   22 1     
    7    5    6 ar    
    8    5   23 1     
    9    6    7 ar    
   10    6   24 1     
   11    7    8 1     
   12    7   20 ar    
   13    8    9 1     
   14    9   10 1     
   15    9   25 1     
   16    9   26 1     
   17   10   11 1     
   18   10   27 1     
   19   10   28 1     
   20   11   18 1     
   21   11   12 1     
   22   12   13 2     
   23   12   29 1     
   24   13   14 1     
   25   13   15 1     
   26   15   16 2     
   27   15   17 1     
   28   17   21 1     
   29   17   18 1     
   30   18   19 2     
   31   20   30 1     
   32    1   31 1     
   33    8   32 1     
   34    8   33 1     
   35   16   34 1     
   36   16   35 1     
   37   19   36 1     
   38   19   37 1     
@<TRIPOS>SUBSTRUCTURE
      1 S1             1
@<TRIPOS>SET
LONE_PAIRS      STATIC     ATOMS    <user>   **** ""
7 31 32 33 34 35 36 37
DONOR_HYDROGENS      STATIC     ATOMS    <user>   **** ""
1 21
ATOM$BLUE        STATIC     ATOMS    COLORGROUP SYSTEM
7 31 32 33 34 35 36 37
ATOM$RED        STATIC     ATOMS    COLORGROUP SYSTEM
1 21
