AV-unprocessed.smi:846|AV-procd|sdf|3936|dock4
  -GOLD-   22720 1403D 1   1.00000     0.00000
 Structure written by MMmdl.
 37 38  0  0  0  0  0  0  0  0  1 V2000
  146.5853  135.6203  149.9924 C   0  0  0  0  0  0  0  0  0  0  0  0
  145.5925  136.1817  151.0136 C   0  0  0  0  0  0  0  0  0  0  0  0
  146.3303  136.8290  152.0434 O   0  0  0  0  0  0  0  0  0  0  0  0
  145.6518  137.3431  153.1316 C   0  0  0  0  0  0  0  0  0  0  0  0
  144.2981  137.2614  153.1528 N   0  0  0  0  0  0  0  0  0  0  0  0
  143.6438  137.7658  154.2197 C   0  0  0  0  0  0  0  0  0  0  0  0
  144.2962  138.3766  155.3072 C   0  0  0  0  0  0  0  0  0  0  0  0
  145.7009  138.4625  155.2862 C   0  0  0  0  0  0  0  0  0  0  0  0
  146.4000  137.9256  154.1794 C   0  0  0  0  0  0  0  0  0  0  0  0
  147.8115  137.9687  154.0359 N   0  0  0  0  0  0  0  0  0  0  0  0
  148.7306  138.5229  154.8481 C   0  0  0  0  0  0  0  0  0  0  0  0
  148.4734  139.2162  155.8296 O   0  0  0  0  0  0  0  0  0  0  0  0
  150.0006  138.2438  154.5002 N   0  0  0  0  0  0  0  0  0  0  0  0
  151.2321  138.6830  155.1616 C   0  0  1  0  0  0  0  0  0  0  0  0
  152.4467  138.5424  154.2256 C   0  0  0  0  0  0  0  0  0  0  0  0
  153.6262  139.3204  154.8253 C   0  0  0  0  0  0  0  0  0  0  0  0
  152.8954  140.6985  155.7899 S   0  0  0  0  0  0  0  0  0  0  0  0
  153.3007  140.5611  157.1971 O   0  0  0  0  0  0  0  0  0  0  0  0
  153.0830  141.9656  155.0674 O   0  0  0  0  0  0  0  0  0  0  0  0
  151.1581  140.1536  155.6065 C   0  0  0  0  0  0  0  0  0  0  0  0
  146.0647  135.1125  149.1804 H   0  0  0  0  0  0  0  0  0  0  0  0
  147.2622  134.9028  150.4575 H   0  0  0  0  0  0  0  0  0  0  0  0
  147.1908  136.4158  149.5567 H   0  0  0  0  0  0  0  0  0  0  0  0
  144.9204  136.8885  150.5244 H   0  0  0  0  0  0  0  0  0  0  0  0
  144.9913  135.3700  151.4259 H   0  0  0  0  0  0  0  0  0  0  0  0
  142.5669  137.6852  154.2035 H   0  0  0  0  0  0  0  0  0  0  0  0
  143.7311  138.7753  156.1368 H   0  0  0  0  0  0  0  0  0  0  0  0
  146.2096  138.9472  156.1050 H   0  0  0  0  0  0  0  0  0  0  0  0
  148.1800  137.3897  153.2956 H   0  0  0  0  0  0  0  0  0  0  0  0
  150.1242  137.6597  153.6856 H   0  0  0  0  0  0  0  0  0  0  0  0
  151.4224  138.0592  156.0368 H   0  0  0  0  0  0  0  0  0  0  0  0
  152.7055  137.4976  154.0508 H   0  0  0  0  0  0  0  0  0  0  0  0
  152.2030  138.9756  153.2543 H   0  0  0  0  0  0  0  0  0  0  0  0
  154.1946  138.6940  155.5132 H   0  0  0  0  0  0  0  0  0  0  0  0
  154.3057  139.7100  154.0673 H   0  0  0  0  0  0  0  0  0  0  0  0
  150.6930  140.7740  154.8396 H   0  0  0  0  0  0  0  0  0  0  0  0
  150.6223  140.2991  156.5447 H   0  0  0  0  0  0  0  0  0  0  0  0
  1  2  1  0  0  0  0
  1 21  1  0  0  0  0
  1 22  1  0  0  0  0
  1 23  1  0  0  0  0
  2  3  1  0  0  0  0
  2 24  1  0  0  0  0
  2 25  1  0  0  0  0
  3  4  1  0  0  0  0
  4  9  1  0  0  0  0
  4  5  2  0  0  0  0
  5  6  1  0  0  0  0
  6  7  2  0  0  0  0
  6 26  1  0  0  0  0
  7  8  1  0  0  0  0
  7 27  1  0  0  0  0
  8  9  2  0  0  0  0
  8 28  1  0  0  0  0
  9 10  1  0  0  0  0
 10 11  1  0  0  0  0
 10 29  1  0  0  0  0
 11 12  2  0  0  0  0
 11 13  1  0  0  0  0
 13 14  1  0  0  0  0
 13 30  1  0  0  0  0
 14 20  1  0  0  0  0
 14 15  1  0  0  0  0
 14 31  1  0  0  0  0
 15 16  1  0  0  0  0
 15 32  1  0  0  0  0
 15 33  1  0  0  0  0
 16 17  1  0  0  0  0
 16 34  1  0  0  0  0
 16 35  1  0  0  0  0
 17 18  2  0  0  0  0
 17 19  2  0  0  0  0
 17 20  1  0  0  0  0
 20 36  1  0  0  0  0
 20 37  1  0  0  0  0
M  END
> <s_m_source_file>
AV-unprocessed.smi

> <i_m_source_file_index>
846

> <i_lp_mmshare_version>
43012

> <i_f3d_flags>
0

> <s_epik_input>
W0NIM11bQ0gyXU9jMW5bY0hdW2NIXVtjSF1jMVtOSF1DKD1PKVtOSF1bQ0BASF0oW0NIMl0yKVtDSDJdW0NIMl1TMig9Tyk9Tw==

> <s_epik_cmdline>
J2VwaWtfcHl0aG9uJywgJy1waCcsICc3LjAnLCAnLXRuJywgJzgnLCAnLW1hJywgJzIwMCcsICctbWV0YWxfYmluZGluZycsICctaW1hZScsICc8aW5maWxlLm1hZT4nLCAnLW9tYWUnLCAnPG91dGZpbGUubWFlPic=

> <r_lp_tautomer_probability>
1

> <r_epik_Ionization_Penalty>
9.45557e-05

> <r_epik_Ionization_Penalty_Charging>
0

> <r_epik_Ionization_Penalty_Neutral>
9.45557e-05

> <r_epik_State_Penalty>
-0

> <r_epik_Charging_Adjusted_Penalty>
0

> <i_epik_Tot_Q>
0

> <i_epik_Tot_abs_Q>
0

> <r_epik_Metal_State_Penalty>
-0

> <b_epik_Metal_Only>
0

> <s_lp_Force_Field>
OPLS_2005

> <r_lp_Energy>
17.3952

> <b_lp_Chiralities_Consistent>
1

> <s_lp_Variant>
AV-unprocessed.smi:846-2

> <Gold.Version>
5.8.1

> <Gold.Id.Protein>
6NUR|6NUR_protein|mol2

> <Gold.PLP.Fitness>
43.1423

> <Gold.PLP.PLP>
-33.5155

> <Gold.PLP.part.hbond>
-4.7251

> <Gold.PLP.part.metal>
0.0000

> <Gold.PLP.part.buried>
-3.1106

> <Gold.PLP.part.nonpolar>
-26.7913

> <Gold.PLP.part.repulsive>
0.7208

> <Gold.PLP.ligand.clash>
0.0000

> <Gold.PLP.ligand.torsion>
0.2689

> <Gold.PLP.Chemscore.Hbond>
3.3874

> <Gold.PLP.Chemscore.CHOScore>
0.0000

> <Gold.PLP.Chemscore.Metal>
0.0000

> <Gold.Chemscore.Hbonds>
donor molecule, donor type, donor heavy atom, donor atom, acceptor molecule, acceptor atom, score
      L1  H    10    29       P1  7948  1.00
      P1  H  7997  8008       L1    18  0.15

> <Gold.PLP.Chemscore.Internal.Correction>
0.0023

> <Gold.Rescore>
     Score         DG    S(hbond)    S(metal)    S(lipo)     H(rot)  DE(clash)    DE(int)     intcor
     13.42     -15.66       2.21        0.00      56.91       1.50       1.00       1.23       ----

> <Gold.Chemscore.Fitness>
13.4228

> <Gold.Chemscore.DG>
-15.6559

> <Gold.Chemscore.ZeroCoef>
-5.4800

> <Gold.Chemscore.Hbond>
2.2053

> <Gold.Chemscore.Metal>
0.0000

> <Gold.Chemscore.Lipo>
56.9105

> <Gold.Chemscore.Internal_Hbond>
0.0000

> <Gold.Chemscore.DEClash>
1.0045

> <Gold.Chemscore.DEInternal>
1.2286

> <Gold.Chemscore.Rot>
1.5033

> <Gold.Chemscore.Internal.Correction>
   9.000000E+99

> <Gold.Chemscore.Hbonds>
donor molecule, donor type, donor heavy atom, donor atom, acceptor molecule, acceptor atom, score
      L1  H    10    29       P1  7948  0.97
      P1  H  7997  8008       L1    18  0.01

> <Gold.Chemscore.Hbond.Weighted>
-7.3658

> <Gold.Chemscore.Metal.Weighted>
-0.0000

> <Gold.Chemscore.Lipo.Weighted>
-6.6585

> <Gold.Chemscore.Internal_Hbond.Weighted>
0.0000

> <Gold.Chemscore.DEClash.Weighted>
1.0045

> <Gold.Chemscore.DEInternal.Weighted>
1.2286

> <Gold.Chemscore.Rot.Weighted>
3.8484

> <Gold.Chemscore.Internal.Correction.Weighted>
   9.000000E+99

> <Gold.Protein.RotatedTorsions>
[ 6907 6896 6895 6894 ] final   62.87 input  -60.11 | X-H torsion
[ 7974 7965 7964 7962 ] final  175.08 input  175.53 | X-H torsion
[ 8008 7997 7996 7995 ] final  -73.33 input   59.86 | X-H torsion
[ 10167 10162 10161 10158 ] final  159.20 input  -65.29 | X-H torsion
[ 10718 10713 10712 10709 ] final   55.13 input   66.30 | X-H torsion
[ 10763 10752 10751 10750 ] final  -36.66 input  -60.55 | X-H torsion
[ 11005 11000 10999 10996 ] final  -35.87 input  -57.11 | X-H torsion

> <Gold.Protein.ActiveResidues>
 VAL166  LYS551  ARG553  GLY616  TRP617  ASP618  TYR619  PRO620  LYS621  CYS622 
 ASP623  PHE694  ASN695  SER759  ASP760  ASP761  ALA762  ILE779  LEU786  VAL792 
 PHE793  MET794  SER795  GLU796  ALA797  LYS798  CYS799  TRP800  GLU811  SER814 

> <Gold.Protein.RotatedAtoms>
  152.4207  134.5960  159.9987 H   0  0  0  0  0  0  0  0  0  0  0  0  # atno 6907 bound_to 6896
  151.6111  133.3341  159.3075 H   0  0  0  0  0  0  0  0  0  0  0  0  # atno 6908 bound_to 6896
  150.8095  134.7279  159.6741 H   0  0  0  0  0  0  0  0  0  0  0  0  # atno 6909 bound_to 6896
  144.7208  139.9894  143.6439 H   0  0  0  0  0  0  0  0  0  0  0  0  # atno 7974 bound_to 7965
  154.5239  140.0781  156.8222 H   0  0  0  0  0  0  0  0  0  0  0  0  # atno 8008 bound_to 7997
  155.3518  140.3413  155.4221 H   0  0  0  0  0  0  0  0  0  0  0  0  # atno 8009 bound_to 7997
  156.1710  140.1620  156.8433 H   0  0  0  0  0  0  0  0  0  0  0  0  # atno 8010 bound_to 7997
  139.4831  144.4753  151.8520 H   0  0  0  0  0  0  0  0  0  0  0  0  # atno 10167 bound_to 10162
  157.5318  130.8635  149.8697 H   0  0  0  0  0  0  0  0  0  0  0  0  # atno 10718 bound_to 10713
  153.8834  135.6819  153.4765 H   0  0  0  0  0  0  0  0  0  0  0  0  # atno 10763 bound_to 10752
  153.1221  135.4735  154.9210 H   0  0  0  0  0  0  0  0  0  0  0  0  # atno 10764 bound_to 10752
  154.7657  135.3223  154.8242 H   0  0  0  0  0  0  0  0  0  0  0  0  # atno 10765 bound_to 10752
  140.9830  133.7046  156.1717 H   0  0  0  0  0  0  0  0  0  0  0  0  # atno 11005 bound_to 11000
  146.0424  139.3434  143.0689 LP  0  0  0  0  0  0  0  0  0  0  0  0  # atno 17320 bound_to 7965
  145.8318  140.9627  143.0845 LP  0  0  0  0  0  0  0  0  0  0  0  0  # atno 17321 bound_to 7965
  140.4225  144.2225  150.5887 LP  0  0  0  0  0  0  0  0  0  0  0  0  # atno 17342 bound_to 10162
  140.4860  143.2363  151.8887 LP  0  0  0  0  0  0  0  0  0  0  0  0  # atno 17343 bound_to 10162
  156.0428  130.3735  150.1392 LP  0  0  0  0  0  0  0  0  0  0  0  0  # atno 17370 bound_to 10713
  156.9577  130.9795  151.3485 LP  0  0  0  0  0  0  0  0  0  0  0  0  # atno 17371 bound_to 10713
  140.7157  134.4413  157.5578 LP  0  0  0  0  0  0  0  0  0  0  0  0  # atno 17394 bound_to 11000
  139.8958  134.8673  156.2114 LP  0  0  0  0  0  0  0  0  0  0  0  0  # atno 17395 bound_to 11000

$$$$
