AV-unprocessed.smi:160|AV-procd|sdf|1366|dock5
  -GOLD-   2262019 83D 1   1.00000     0.00000
 Structure written by MMmdl.
 28 29  0  0  0  0  0  0  0  0  2 V2000
  149.4333  134.8408  157.9788 N   0  5  0  0  0  0  0  0  0  0  0  0
  149.8087  136.1268  158.1537 C   0  0  0  0  0  0  0  0  0  0  0  0
  149.8433  136.7364  159.2223 O   0  0  0  0  0  0  0  0  0  0  0  0
  150.2181  136.8376  156.8858 C   0  0  0  0  0  0  0  0  0  0  0  0
  150.1753  136.1948  155.6794 N   0  0  0  0  0  0  0  0  0  0  0  0
  150.5948  137.1816  154.8989 C   0  0  0  0  0  0  0  0  0  0  0  0
  150.8803  138.3138  155.5490 N   0  0  0  0  0  0  0  0  0  0  0  0
  151.3489  139.6348  155.0104 C   0  0  1  0  0  0  0  0  0  0  0  0
  150.2665  140.2357  154.3699 O   0  0  0  0  0  0  0  0  0  0  0  0
  149.7304  141.3097  155.1459 C   0  0  1  0  0  0  0  0  0  0  0  0
  148.2150  141.1225  155.3307 C   0  0  0  0  0  0  0  0  0  0  0  0
  147.6845  142.1773  156.1050 O   0  0  0  0  0  0  0  0  0  0  0  0
  150.5123  141.3141  156.4714 C   0  0  2  0  0  0  0  0  0  0  0  0
  150.7723  142.6416  156.8843 O   0  0  0  0  0  0  0  0  0  0  0  0
  151.8085  140.6014  156.1135 C   0  0  1  0  0  0  0  0  0  0  0  0
  152.3852  139.9607  157.2370 O   0  0  0  0  0  0  0  0  0  0  0  0
  150.6295  138.1086  156.8654 N   0  0  0  0  0  0  0  0  0  0  0  0
  152.1368  139.3722  154.3037 H   0  0  0  0  0  0  0  0  0  0  0  0
  149.9366  142.2336  154.6019 H   0  0  0  0  0  0  0  0  0  0  0  0
  149.9686  140.7761  157.2496 H   0  0  0  0  0  0  0  0  0  0  0  0
  152.5220  141.2960  155.6672 H   0  0  0  0  0  0  0  0  0  0  0  0
  148.8018  134.6179  157.2002 H   0  0  0  0  0  0  0  0  0  0  0  0
  150.6952  137.0763  153.8288 H   0  0  0  0  0  0  0  0  0  0  0  0
  147.6980  141.0597  154.3732 H   0  0  0  0  0  0  0  0  0  0  0  0
  148.0142  140.1943  155.8666 H   0  0  0  0  0  0  0  0  0  0  0  0
  148.1187  142.9783  155.8545 H   0  0  0  0  0  0  0  0  0  0  0  0
  150.1121  143.2059  156.5123 H   0  0  0  0  0  0  0  0  0  0  0  0
  151.9988  139.1034  157.3274 H   0  0  0  0  0  0  0  0  0  0  0  0
  1  2  1  0  0  0  0
  1 22  1  0  0  0  0
  2  3  2  0  0  0  0
  2  4  1  0  0  0  0
  4 17  2  0  0  0  0
  4  5  1  0  0  0  0
  5  6  2  0  0  0  0
  6  7  1  0  0  0  0
  6 23  1  0  0  0  0
  7  8  1  0  0  0  0
  7 17  1  0  0  0  0
  8 18  1  0  0  0  0
  8 15  1  0  0  0  0
  8  9  1  0  0  0  0
  9 10  1  0  0  0  0
 10 19  1  0  0  0  0
 10 11  1  0  0  0  0
 10 13  1  0  0  0  0
 11 12  1  0  0  0  0
 11 24  1  0  0  0  0
 11 25  1  0  0  0  0
 12 26  1  0  0  0  0
 13 20  1  0  0  0  0
 13 14  1  0  0  0  0
 13 15  1  0  0  0  0
 14 27  1  0  0  0  0
 15 21  1  0  0  0  0
 15 16  1  0  0  0  0
 16 28  1  0  0  0  0
M  CHG  1   1  -1
M  END
> <s_m_source_file>
AV-unprocessed.smi

> <i_m_source_file_index>
160

> <i_lp_mmshare_version>
43012

> <i_f3d_flags>
0

> <s_epik_input>
W05IMl1DKD1PKWMxbltjSF1uKG4xKVtDQEBIXTJPW0NASF0oW0NIMl1bT0hdKVtDQEBIXShbT0hdKVtDQEhdMltPSF0=

> <s_epik_cmdline>
J2VwaWtfcHl0aG9uJywgJy1waCcsICc3LjAnLCAnLXRuJywgJzgnLCAnLW1hJywgJzIwMCcsICctbWV0YWxfYmluZGluZycsICctaW1hZScsICc8aW5maWxlLm1hZT4nLCAnLW9tYWUnLCAnPG91dGZpbGUubWFlPic=

> <r_lp_tautomer_probability>
1

> <r_epik_Ionization_Penalty>
6.6993

> <r_epik_Ionization_Penalty_Charging>
6.6993

> <r_epik_Ionization_Penalty_Neutral>
6.01698e-06

> <r_epik_State_Penalty>
6.69929

> <r_epik_Charging_Adjusted_Penalty>
13.3986

> <i_epik_Tot_Q>
-1

> <i_epik_Tot_abs_Q>
1

> <r_epik_Metal_State_Penalty>
2.62798

> <b_epik_Metal_Only>
1

> <s_epik_Chemistry_Notes>
This compound contains an acetal/aminal-like group ( X-CH(R)-Y where X, Y are N, S, or O) that may be acid/base labile, releasing an aldehyde.

> <s_lp_Force_Field>
OPLS_2005

> <r_lp_Energy>
43.6415

> <b_lp_Chiralities_Consistent>
1

> <s_lp_Variant>
AV-unprocessed.smi:160-24

> <Gold.Version>
5.8.1

> <Gold.Id.Protein>
6NUR|6NUR_protein|mol2

> <Gold.PLP.Fitness>
38.7019

> <Gold.PLP.PLP>
-20.8141

> <Gold.PLP.part.hbond>
-5.4621

> <Gold.PLP.part.metal>
0.0000

> <Gold.PLP.part.buried>
-0.0447

> <Gold.PLP.part.nonpolar>
-15.2691

> <Gold.PLP.part.repulsive>
0.5603

> <Gold.PLP.ligand.clash>
0.0000

> <Gold.PLP.ligand.torsion>
0.2956

> <Gold.PLP.Chemscore.Hbond>
5.0000

> <Gold.PLP.Chemscore.CHOScore>
1.1555

> <Gold.PLP.Chemscore.Metal>
0.0000

> <Gold.Chemscore.Hbonds>
donor molecule, donor type, donor heavy atom, donor atom, acceptor molecule, acceptor atom, score
      L1  H    12    26       P1  8028  1.00
      L1  H    14    27       P1  8028  0.76
      P1  H  6896  6907       L1     1  1.50
      P1  H  7997  8010       L1    16  0.39
      L1  C     6    23       P1  7948  0.31
      L1  C     6    23       P1  7949  0.58

> <Gold.PLP.Chemscore.Internal.Correction>
0.0126

> <Gold.Rescore>
     Score         DG    S(hbond)    S(metal)    S(lipo)     H(rot)  DE(clash)    DE(int)     intcor
      5.53      -9.16       3.24        0.00      27.22       4.04       1.62       2.00       ----

> <Gold.Chemscore.Fitness>
5.5312

> <Gold.Chemscore.DG>
-9.1555

> <Gold.Chemscore.ZeroCoef>
-5.4800

> <Gold.Chemscore.Hbond>
3.2436

> <Gold.Chemscore.Metal>
0.0000

> <Gold.Chemscore.Lipo>
27.2218

> <Gold.Chemscore.Internal_Hbond>
0.0000

> <Gold.Chemscore.DEClash>
1.6205

> <Gold.Chemscore.DEInternal>
2.0038

> <Gold.Chemscore.Rot>
4.0403

> <Gold.Chemscore.Internal.Correction>
   9.000000E+99

> <Gold.Chemscore.Hbonds>
donor molecule, donor type, donor heavy atom, donor atom, acceptor molecule, acceptor atom, score
      L1  H    12    26       P1  8028  0.82
      L1  H    14    27       P1  8028  0.77
      P1  H  6896  6907       L1     1  0.09
      P1  H  7997  8010       L1    16  0.02

> <Gold.Chemscore.Hbond.Weighted>
-10.8336

> <Gold.Chemscore.Metal.Weighted>
-0.0000

> <Gold.Chemscore.Lipo.Weighted>
-3.1849

> <Gold.Chemscore.Internal_Hbond.Weighted>
0.0000

> <Gold.Chemscore.DEClash.Weighted>
1.6205

> <Gold.Chemscore.DEInternal.Weighted>
2.0038

> <Gold.Chemscore.Rot.Weighted>
10.3431

> <Gold.Chemscore.Internal.Correction.Weighted>
   9.000000E+99

> <Gold.Protein.RotatedTorsions>
[ 6907 6896 6895 6894 ] final -101.29 input  -60.11 | X-H torsion
[ 7974 7965 7964 7962 ] final -149.23 input  175.53 | X-H torsion
[ 8008 7997 7996 7995 ] final   77.00 input   59.86 | X-H torsion
[ 10167 10162 10161 10158 ] final -169.56 input  -65.29 | X-H torsion
[ 10718 10713 10712 10709 ] final   -2.79 input   66.30 | X-H torsion
[ 10763 10752 10751 10750 ] final -121.41 input  -60.55 | X-H torsion
[ 11005 11000 10999 10996 ] final  131.88 input  -57.11 | X-H torsion

> <Gold.Protein.ActiveResidues>
 VAL166  LYS551  ARG553  GLY616  TRP617  ASP618  TYR619  PRO620  LYS621  CYS622 
 ASP623  PHE694  ASN695  SER759  ASP760  ASP761  ALA762  ILE779  LEU786  VAL792 
 PHE793  MET794  SER795  GLU796  ALA797  LYS798  CYS799  TRP800  GLU811  SER814 

> <Gold.Protein.RotatedAtoms>
  150.7149  134.0757  159.3879 H   0  0  0  0  0  0  0  0  0  0  0  0  # atno 6907 bound_to 6896
  151.8740  135.0476  160.0491 H   0  0  0  0  0  0  0  0  0  0  0  0  # atno 6908 bound_to 6896
  152.2621  133.5271  159.5424 H   0  0  0  0  0  0  0  0  0  0  0  0  # atno 6909 bound_to 6896
  144.7980  140.5092  143.5726 H   0  0  0  0  0  0  0  0  0  0  0  0  # atno 7974 bound_to 7965
  155.8354  140.3464  155.5598 H   0  0  0  0  0  0  0  0  0  0  0  0  # atno 8008 bound_to 7997
  155.8198  140.0911  157.1875 H   0  0  0  0  0  0  0  0  0  0  0  0  # atno 8009 bound_to 7997
  154.4004  140.1432  156.3473 H   0  0  0  0  0  0  0  0  0  0  0  0  # atno 8010 bound_to 7997
  139.5915  144.1203  152.1640 H   0  0  0  0  0  0  0  0  0  0  0  0  # atno 10167 bound_to 10162
  156.7857  130.5345  149.5744 H   0  0  0  0  0  0  0  0  0  0  0  0  # atno 10718 bound_to 10713
  154.8667  135.4169  154.2616 H   0  0  0  0  0  0  0  0  0  0  0  0  # atno 10763 bound_to 10752
  153.3543  135.7000  153.6769 H   0  0  0  0  0  0  0  0  0  0  0  0  # atno 10764 bound_to 10752
  153.5696  135.3594  155.2805 H   0  0  0  0  0  0  0  0  0  0  0  0  # atno 10765 bound_to 10752
  139.9756  134.9564  156.9502 H   0  0  0  0  0  0  0  0  0  0  0  0  # atno 11005 bound_to 11000
  145.5624  139.1480  143.3334 LP  0  0  0  0  0  0  0  0  0  0  0  0  # atno 17320 bound_to 7965
  146.2254  140.5759  142.8999 LP  0  0  0  0  0  0  0  0  0  0  0  0  # atno 17321 bound_to 7965
  140.0778  144.5726  150.7144 LP  0  0  0  0  0  0  0  0  0  0  0  0  # atno 17342 bound_to 10162
  140.7177  143.2559  151.4380 LP  0  0  0  0  0  0  0  0  0  0  0  0  # atno 17343 bound_to 10162
  156.1190  130.6096  151.0165 LP  0  0  0  0  0  0  0  0  0  0  0  0  # atno 17370 bound_to 10713
  157.6625  131.0878  150.7805 LP  0  0  0  0  0  0  0  0  0  0  0  0  # atno 17371 bound_to 10713
  140.5201  134.0916  155.7290 LP  0  0  0  0  0  0  0  0  0  0  0  0  # atno 17394 bound_to 11000
  141.1434  133.9099  157.2274 LP  0  0  0  0  0  0  0  0  0  0  0  0  # atno 17395 bound_to 11000

$$$$
