#       Name:                AV-unprocessed.smi:2329
#       Creating user name   scv26
#       Creation time:       Fri Mar 27 12:52:36 2020


#       File generated by GOLD software.
#

@<TRIPOS>MOLECULE
AV-unprocessed.smi:2329
    50    53     1
SMALL
NO_CHARGES


@<TRIPOS>ATOM
      1 ****        -5.8913   2.6661   0.1751 C.3            1 S1                 0.0000
      2 ****        -5.1656   1.3616  -0.0781 C.ar           1 S1                 0.0000
      3 ****        -5.8752   0.1870  -0.3958 C.ar           1 S1                 0.0000
      4 ****        -5.1400  -0.9901  -0.6227 C.ar           1 S1                 0.0000
      5 ****        -3.7360  -0.9444  -0.5242 C.ar           1 S1                 0.0000
      6 ****        -3.1013   0.2760  -0.2011 C.ar           1 S1                 0.0000
      7 ****        -1.6848   0.2163  -0.1285 N.am           1 S1                 0.0000
      8 ****        -0.8198   1.2063   0.1691 C.2            1 S1                 0.0000
      9 ****        -1.1418   2.3558   0.4638 O.2            1 S1                 0.0000
     10 ****         0.4705   0.8286   0.1509 N.am           1 S1                 0.0000
     11 ****         1.6535   1.6537   0.4261 C.3            1 S1                 0.0000
     12 ****         2.3438   2.2012  -0.8470 C.3            1 S1                 0.0000
     13 ****         1.7129   2.1503  -2.2178 C.3            1 S1                 0.0000
     14 ****         2.3220   0.8847  -2.8284 C.3            1 S1                 0.0000
     15 ****         2.7808   0.1235  -1.7132 O.3            1 S1                 0.0000
     16 ****         3.3122   1.0326  -0.7526 C.3            1 S1                 0.0000
     17 ****         2.9062   0.7932   0.7160 C.3            1 S1                 0.0000
     18 ****         2.7608  -0.6550   1.1860 C.3            1 S1                 0.0000
     19 ****         4.1295  -1.0913   1.7116 C.3            1 S1                 0.0000
     20 ****         4.8374   0.2000   2.1319 C.3            1 S1                 0.0000
     21 ****         3.8840   1.3392   1.7561 C.3            1 S1                 0.0000
     22 ****        -3.8192   1.4059   0.0160 N.ar           1 S1                 0.0000
     23 ****        -6.9674   2.5101   0.2570 H              1 S1                 0.0000
     24 ****        -5.7077   3.3638  -0.6424 H              1 S1                 0.0000
     25 ****        -5.5433   3.1231   1.1020 H              1 S1                 0.0000
     26 ****        -6.9532   0.1857  -0.4651 H              1 S1                 0.0000
     27 ****        -5.6435  -1.9132  -0.8692 H              1 S1                 0.0000
     28 ****        -3.1561  -1.8395  -0.6960 H              1 S1                 0.0000
     29 ****        -1.2767  -0.6844  -0.3304 H              1 S1                 0.0000
     30 ****         0.6516  -0.1489  -0.0264 H              1 S1                 0.0000
     31 ****         1.4967   2.4180   1.1891 H              1 S1                 0.0000
     32 ****         2.8502   3.1439  -0.6339 H              1 S1                 0.0000
     33 ****         0.6269   2.0843  -2.1725 H              1 S1                 0.0000
     34 ****         1.9574   3.0287  -2.8157 H              1 S1                 0.0000
     35 ****         1.6072   0.3221  -3.4290 H              1 S1                 0.0000
     36 ****         3.1751   1.1371  -3.4599 H              1 S1                 0.0000
     37 ****         4.3552   1.2985  -0.9310 H              1 S1                 0.0000
     38 ****         2.0312  -0.7108   1.9952 H              1 S1                 0.0000
     39 ****         2.4084  -1.3233   0.3997 H              1 S1                 0.0000
     40 ****         4.0391  -1.8005   2.5349 H              1 S1                 0.0000
     41 ****         4.6959  -1.5792   0.9173 H              1 S1                 0.0000
     42 ****         5.0642   0.2111   3.1984 H              1 S1                 0.0000
     43 ****         5.7814   0.2990   1.5946 H              1 S1                 0.0000
     44 ****         4.4313   2.2121   1.3985 H              1 S1                 0.0000
     45 ****         3.3387   1.6567   2.6460 H              1 S1                 0.0000
     46 ****        -2.1080   2.6120   0.4952 LP             1 S1                 0.0000
     47 ****        -0.4376   3.0345   0.6721 LP             1 S1                 0.0000
     48 ****         3.4922  -0.5150  -2.0069 LP             1 S1                 0.0000
     49 ****         2.0194  -0.3868  -1.3135 LP             1 S1                 0.0000
     50 ****        -3.3565   2.2628   0.2434 LP             1 S1                 0.0000
@<TRIPOS>BOND
    1    1    2 1     
    2    1   23 1     
    3    1   24 1     
    4    1   25 1     
    5    2   22 ar    
    6    2    3 ar    
    7    3    4 ar    
    8    3   26 1     
    9    4    5 ar    
   10    4   27 1     
   11    5    6 ar    
   12    5   28 1     
   13    6    7 1     
   14    6   22 ar    
   15    7    8 am    
   16    7   29 1     
   17    8    9 2     
   18    8   10 am    
   19   10   11 1     
   20   10   30 1     
   21   11   17 1     
   22   11   12 1     
   23   11   31 1     
   24   12   16 1     
   25   12   13 1     
   26   12   32 1     
   27   13   14 1     
   28   13   33 1     
   29   13   34 1     
   30   14   15 1     
   31   14   35 1     
   32   14   36 1     
   33   15   16 1     
   34   16   17 1     
   35   16   37 1     
   36   17   21 1     
   37   17   18 1     
   38   18   19 1     
   39   18   38 1     
   40   18   39 1     
   41   19   20 1     
   42   19   40 1     
   43   19   41 1     
   44   20   21 1     
   45   20   42 1     
   46   20   43 1     
   47   21   44 1     
   48   21   45 1     
   49    9   46 1     
   50    9   47 1     
   51   15   48 1     
   52   15   49 1     
   53   22   50 1     
@<TRIPOS>SUBSTRUCTURE
      1 S1             1
@<TRIPOS>SET
LONE_PAIRS      STATIC     ATOMS    <user>   **** ""
5 46 47 48 49 50
DONOR_HYDROGENS      STATIC     ATOMS    <user>   **** ""
2 29 30
ATOM$BLUE        STATIC     ATOMS    COLORGROUP SYSTEM
5 46 47 48 49 50
ATOM$RED        STATIC     ATOMS    COLORGROUP SYSTEM
2 29 30
