#       Name:                AV-unprocessed.smi:2119
#       Creating user name   scv26
#       Creation time:       Fri Mar 27 11:38:08 2020


#       File generated by GOLD software.
#

@<TRIPOS>MOLECULE
AV-unprocessed.smi:2119
    55    57     1
SMALL
NO_CHARGES


@<TRIPOS>ATOM
      1 ****        -0.9492   1.0066   1.9709 O.2            1 S1                 0.0000
      2 ****        -1.5084   1.3590   0.9325 C.2            1 S1                 0.0000
      3 ****        -1.6912   0.5463  -0.1172 N.am           1 S1                 0.0000
      4 ****        -1.2450  -0.8404  -0.1825 C.3            1 S1                 0.0000
      5 ****         0.2905  -0.9969  -0.3786 C.3            1 S1                 0.0000
      6 ****         0.8157  -0.4245  -1.7260 C.3            1 S1                 0.0000
      7 ****         2.2973  -0.6676  -1.9692 C.3            1 S1                 0.0000
      8 ****         2.6154   0.3368  -3.0693 C.3            1 S1                 0.0000
      9 ****         1.7822   1.4578  -2.8053 O.3            1 S1                 0.0000
     10 ****         0.7710   1.1033  -1.8674 C.3            1 S1                 0.0000
     11 ****         0.7249  -2.4175  -0.2247 N.4            1 S1                 1.0000
     12 ****         0.8094  -2.8771   1.1831 C.3            1 S1                 0.0000
     13 ****         1.4537  -4.2722   1.2427 C.3            1 S1                 0.0000
     14 ****         0.7098  -5.1794   0.4373 O.3            1 S1                 0.0000
     15 ****         0.6872  -4.7884  -0.9307 C.3            1 S1                 0.0000
     16 ****         0.0099  -3.4143  -1.0615 C.3            1 S1                 0.0000
     17 ****        -2.0189   2.5793   0.6975 N.am           1 S1                 0.0000
     18 ****        -1.9784   3.7272   1.5335 C.ar           1 S1                 0.0000
     19 ****        -1.0158   3.9360   2.5508 C.ar           1 S1                 0.0000
     20 ****        -1.0663   5.1273   3.2997 C.ar           1 S1                 0.0000
     21 ****        -2.0705   6.0681   3.0002 C.ar           1 S1                 0.0000
     22 ****        -2.9854   5.8886   2.0244 N.ar           1 S1                 0.0000
     23 ****        -2.9304   4.7445   1.3098 C.ar           1 S1                 0.0000
     24 ****        -2.1685   0.9127  -0.9281 H              1 S1                 0.0000
     25 ****        -1.5775  -1.3489   0.7230 H              1 S1                 0.0000
     26 ****        -1.7810  -1.3074  -1.0088 H              1 S1                 0.0000
     27 ****         0.7943  -0.4390   0.4119 H              1 S1                 0.0000
     28 ****         0.2563  -0.8586  -2.5556 H              1 S1                 0.0000
     29 ****         2.8750  -0.4347  -1.0733 H              1 S1                 0.0000
     30 ****         2.5243  -1.6922  -2.2655 H              1 S1                 0.0000
     31 ****         3.6692   0.6157  -3.0903 H              1 S1                 0.0000
     32 ****         2.3517  -0.0717  -4.0457 H              1 S1                 0.0000
     33 ****        -0.2014   1.4650  -2.2017 H              1 S1                 0.0000
     34 ****         1.0056   1.5898  -0.9197 H              1 S1                 0.0000
     35 ****         1.4034  -2.1771   1.7717 H              1 S1                 0.0000
     36 ****        -0.1842  -2.9105   1.6309 H              1 S1                 0.0000
     37 ****         2.4910  -4.2357   0.9059 H              1 S1                 0.0000
     38 ****         1.4655  -4.6376   2.2697 H              1 S1                 0.0000
     39 ****         1.7015  -4.7631  -1.3326 H              1 S1                 0.0000
     40 ****         0.1363  -5.5351  -1.5027 H              1 S1                 0.0000
     41 ****        -1.0312  -3.4973  -0.7477 H              1 S1                 0.0000
     42 ****         0.0103  -3.1071  -2.1070 H              1 S1                 0.0000
     43 ****        -2.5325   2.6905  -0.1645 H              1 S1                 0.0000
     44 ****        -0.2367   3.2194   2.7602 H              1 S1                 0.0000
     45 ****        -0.3476   5.3175   4.0832 H              1 S1                 0.0000
     46 ****        -2.1363   6.9924   3.5551 H              1 S1                 0.0000
     47 ****        -3.6757   4.6366   0.5351 H              1 S1                 0.0000
     48 ****         1.6802  -2.4260  -0.5531 H              1 S1                 0.0000
     49 ****        -0.6049   0.0721   2.0610 LP             1 S1                 0.0000
     50 ****        -0.8392   1.6548   2.7244 LP             1 S1                 0.0000
     51 ****         1.3531   1.7592  -3.6568 LP             1 S1                 0.0000
     52 ****         2.3361   2.2010  -2.4299 LP             1 S1                 0.0000
     53 ****        -0.2299  -5.2162   0.7774 LP             1 S1                 0.0000
     54 ****         1.1250  -6.0865   0.5063 LP             1 S1                 0.0000
     55 ****        -3.6819   6.5811   1.8366 LP             1 S1                 0.0000
@<TRIPOS>BOND
    1    1    2 2     
    2    2    3 am    
    3    2   17 am    
    4    3    4 1     
    5    3   24 1     
    6    4    5 1     
    7    4   25 1     
    8    4   26 1     
    9    5    6 1     
   10    5   11 1     
   11    5   27 1     
   12    6   10 1     
   13    6    7 1     
   14    6   28 1     
   15    7    8 1     
   16    7   29 1     
   17    7   30 1     
   18    8    9 1     
   19    8   31 1     
   20    8   32 1     
   21    9   10 1     
   22   10   33 1     
   23   10   34 1     
   24   11   16 1     
   25   11   12 1     
   26   11   48 1     
   27   12   13 1     
   28   12   35 1     
   29   12   36 1     
   30   13   14 1     
   31   13   37 1     
   32   13   38 1     
   33   14   15 1     
   34   15   16 1     
   35   15   39 1     
   36   15   40 1     
   37   16   41 1     
   38   16   42 1     
   39   17   18 1     
   40   17   43 1     
   41   18   23 ar    
   42   18   19 ar    
   43   19   20 ar    
   44   19   44 1     
   45   20   21 ar    
   46   20   45 1     
   47   21   22 ar    
   48   21   46 1     
   49   22   23 ar    
   50   23   47 1     
   51    1   49 1     
   52    1   50 1     
   53    9   51 1     
   54    9   52 1     
   55   14   53 1     
   56   14   54 1     
   57   22   55 1     
@<TRIPOS>SUBSTRUCTURE
      1 S1             1
@<TRIPOS>SET
LONE_PAIRS      STATIC     ATOMS    <user>   **** ""
7 49 50 51 52 53 54 55
DONOR_HYDROGENS      STATIC     ATOMS    <user>   **** ""
3 24 48 43
ATOM$BLUE        STATIC     ATOMS    COLORGROUP SYSTEM
7 49 50 51 52 53 54 55
ATOM$RED        STATIC     ATOMS    COLORGROUP SYSTEM
3 24 48 43
