AV-unprocessed.smi:3348|AV-procd|sdf|12916|dock4
  -GOLD-   2272019333D 1   1.00000     0.00000
 Structure written by MMmdl.
 47 48  0  0  0  0  0  0  0  0  2 V2000
  144.3449  136.0460  152.9424 C   0  0  0  0  0  0  0  0  0  0  0  0
  145.7542  135.7946  152.3821 C   0  0  1  0  0  0  0  0  0  0  0  0
  145.6930  135.4644  150.8765 C   0  0  0  0  0  0  0  0  0  0  0  0
  145.4278  134.0595  150.6139 N   0  0  0  0  0  0  0  0  0  0  0  0
  144.2362  133.4668  150.2515 C   0  0  0  0  0  0  0  0  0  0  0  0
  144.4687  132.1269  150.1293 C   0  0  0  0  0  0  0  0  0  0  0  0
  145.8473  131.9916  150.4535 C   0  0  0  0  0  0  0  0  0  0  0  0
  146.4170  133.1493  150.7473 N   0  0  0  0  0  0  0  0  0  0  0  0
  146.6334  136.9636  152.6125 N   0  3  0  0  0  0  0  0  0  0  0  0
  146.1708  138.2305  152.0093 C   0  0  0  0  0  0  0  0  0  0  0  0
  147.0698  139.3952  152.4346 C   0  0  0  0  0  0  0  0  0  0  0  0
  147.5940  139.1129  153.7238 O   0  0  0  0  0  0  0  0  0  0  0  0
  148.8672  139.6913  153.9877 C   0  0  2  0  0  0  0  0  0  0  0  0
  149.8062  138.6386  154.6160 C   0  0  0  0  0  0  0  0  0  0  0  0
  151.1462  139.2579  155.0394 C   0  0  0  0  0  0  0  0  0  0  0  0
  150.9306  140.4375  155.9971 C   0  0  0  0  0  0  0  0  0  0  0  0
  150.0051  141.4917  155.3718 C   0  0  0  0  0  0  0  0  0  0  0  0
  148.6527  140.8852  154.9460 C   0  0  1  0  0  0  0  0  0  0  0  0
  147.7480  141.9620  154.3242 C   0  0  0  0  0  0  0  0  0  0  0  0
  143.6910  135.1960  152.7469 H   0  0  0  0  0  0  0  0  0  0  0  0
  143.8882  136.9260  152.4882 H   0  0  0  0  0  0  0  0  0  0  0  0
  144.3599  136.1973  154.0217 H   0  0  0  0  0  0  0  0  0  0  0  0
  146.1794  134.9346  152.9019 H   0  0  0  0  0  0  0  0  0  0  0  0
  144.9083  136.0492  150.3943 H   0  0  0  0  0  0  0  0  0  0  0  0
  146.6296  135.7382  150.3885 H   0  0  0  0  0  0  0  0  0  0  0  0
  143.3321  134.0407  150.1098 H   0  0  0  0  0  0  0  0  0  0  0  0
  143.7605  131.3590  149.8553 H   0  0  0  0  0  0  0  0  0  0  0  0
  146.4462  131.0933  150.4854 H   0  0  0  0  0  0  0  0  0  0  0  0
  146.6841  137.1109  153.6106 H   0  0  0  0  0  0  0  0  0  0  0  0
  146.1487  138.1531  150.9221 H   0  0  0  0  0  0  0  0  0  0  0  0
  145.1498  138.4249  152.3402 H   0  0  0  0  0  0  0  0  0  0  0  0
  147.8801  139.5084  151.7146 H   0  0  0  0  0  0  0  0  0  0  0  0
  146.5024  140.3273  152.4391 H   0  0  0  0  0  0  0  0  0  0  0  0
  149.3068  140.0681  153.0619 H   0  0  0  0  0  0  0  0  0  0  0  0
  149.3235  138.1904  155.4855 H   0  0  0  0  0  0  0  0  0  0  0  0
  149.9984  137.8255  153.9168 H   0  0  0  0  0  0  0  0  0  0  0  0
  151.7724  138.5022  155.5147 H   0  0  0  0  0  0  0  0  0  0  0  0
  151.6875  139.5981  154.1556 H   0  0  0  0  0  0  0  0  0  0  0  0
  150.4979  140.0774  156.9314 H   0  0  0  0  0  0  0  0  0  0  0  0
  151.8897  140.8886  156.2536 H   0  0  0  0  0  0  0  0  0  0  0  0
  149.8438  142.3010  156.0850 H   0  0  0  0  0  0  0  0  0  0  0  0
  150.4979  141.9380  154.5068 H   0  0  0  0  0  0  0  0  0  0  0  0
  148.1566  140.5140  155.8442 H   0  0  0  0  0  0  0  0  0  0  0  0
  148.1811  142.3630  153.4075 H   0  0  0  0  0  0  0  0  0  0  0  0
  147.6000  142.7940  155.0134 H   0  0  0  0  0  0  0  0  0  0  0  0
  146.7629  141.5631  154.0812 H   0  0  0  0  0  0  0  0  0  0  0  0
  147.5608  136.7520  152.2726 H   0  0  0  0  0  0  0  0  0  0  0  0
  1  2  1  0  0  0  0
  1 20  1  0  0  0  0
  1 21  1  0  0  0  0
  1 22  1  0  0  0  0
  2  3  1  0  0  0  0
  2  9  1  0  0  0  0
  2 23  1  0  0  0  0
  3  4  1  0  0  0  0
  3 24  1  0  0  0  0
  3 25  1  0  0  0  0
  4  8  1  0  0  0  0
  4  5  1  0  0  0  0
  5  6  2  0  0  0  0
  5 26  1  0  0  0  0
  6  7  1  0  0  0  0
  6 27  1  0  0  0  0
  7  8  2  0  0  0  0
  7 28  1  0  0  0  0
  9 10  1  0  0  0  0
  9 29  1  0  0  0  0
  9 47  1  0  0  0  0
 10 11  1  0  0  0  0
 10 30  1  0  0  0  0
 10 31  1  0  0  0  0
 11 12  1  0  0  0  0
 11 32  1  0  0  0  0
 11 33  1  0  0  0  0
 12 13  1  0  0  0  0
 13 18  1  0  0  0  0
 13 14  1  0  0  0  0
 13 34  1  0  0  0  0
 14 15  1  0  0  0  0
 14 35  1  0  0  0  0
 14 36  1  0  0  0  0
 15 16  1  0  0  0  0
 15 37  1  0  0  0  0
 15 38  1  0  0  0  0
 16 17  1  0  0  0  0
 16 39  1  0  0  0  0
 16 40  1  0  0  0  0
 17 18  1  0  0  0  0
 17 41  1  0  0  0  0
 17 42  1  0  0  0  0
 18 19  1  0  0  0  0
 18 43  1  0  0  0  0
 19 44  1  0  0  0  0
 19 45  1  0  0  0  0
 19 46  1  0  0  0  0
M  CHG  1   9   1
M  END
> <s_m_source_file>
AV-unprocessed.smi

> <i_m_source_file_index>
3348

> <i_lp_mmshare_version>
43012

> <i_f3d_flags>
0

> <s_epik_input>
bjFbY0hdW2NIXVtjSF1uMVtDSDJdW0NAQEhdKFtDSDNdKVtOSF1bQ0gyXVtDSDJdT1tDQEBIXTJbQ0gyXVtDSDJdW0NIMl1bQ0gyXVtDQEhdMltDSDNd

> <s_epik_cmdline>
J2VwaWtfcHl0aG9uJywgJy1waCcsICc3LjAnLCAnLXRuJywgJzgnLCAnLW1hJywgJzIwMCcsICctbWV0YWxfYmluZGluZycsICctaW1hZScsICc8aW5maWxlLm1hZT4nLCAnLW9tYWUnLCAnPG91dGZpbGUubWFlPic=

> <r_lp_tautomer_probability>
1

> <r_epik_Ionization_Penalty>
0.00925088

> <r_epik_Ionization_Penalty_Charging>
0.00924645

> <r_epik_Ionization_Penalty_Neutral>
4.42413e-06

> <r_epik_State_Penalty>
0.0070118

> <r_epik_Charging_Adjusted_Penalty>
0.0162583

> <i_epik_Tot_Q>
1

> <i_epik_Tot_abs_Q>
1

> <r_epik_Metal_State_Penalty>
0.00701222

> <b_epik_Metal_Only>
0

> <s_lp_Force_Field>
OPLS_2005

> <r_lp_Energy>
16.0091

> <b_lp_Chiralities_Consistent>
1

> <s_lp_Variant>
AV-unprocessed.smi:3348-2

> <Gold.Version>
5.8.1

> <Gold.Id.Protein>
6NUR|6NUR_protein|mol2

> <Gold.PLP.Fitness>
48.0372

> <Gold.PLP.PLP>
-38.9984

> <Gold.PLP.part.hbond>
-1.0000

> <Gold.PLP.part.metal>
0.0000

> <Gold.PLP.part.buried>
1.7035

> <Gold.PLP.part.nonpolar>
-39.5545

> <Gold.PLP.part.repulsive>
0.4380

> <Gold.PLP.ligand.clash>
0.0000

> <Gold.PLP.ligand.torsion>
1.5839

> <Gold.PLP.Chemscore.Hbond>
2.0000

> <Gold.PLP.Chemscore.CHOScore>
1.9850

> <Gold.PLP.Chemscore.Metal>
0.0000

> <Gold.Chemscore.Hbonds>
donor molecule, donor type, donor heavy atom, donor atom, acceptor molecule, acceptor atom, score
      L1  H     9    47       P1  7948  2.00
      L1  C     5    26       P1 10186  1.00
      L1  C     7    28       P1 10747  0.96

> <Gold.PLP.Chemscore.Internal.Correction>
0.2516

> <Gold.Rescore>
     Score         DG    S(hbond)    S(metal)    S(lipo)     H(rot)  DE(clash)    DE(int)     intcor
     14.63     -16.28       0.97        0.00     104.34       1.82       0.28       1.38       ----

> <Gold.Chemscore.Fitness>
14.6289

> <Gold.Chemscore.DG>
-16.2844

> <Gold.Chemscore.ZeroCoef>
-5.4800

> <Gold.Chemscore.Hbond>
0.9720

> <Gold.Chemscore.Metal>
0.0000

> <Gold.Chemscore.Lipo>
104.3401

> <Gold.Chemscore.Internal_Hbond>
0.0000

> <Gold.Chemscore.DEClash>
0.2753

> <Gold.Chemscore.DEInternal>
1.3802

> <Gold.Chemscore.Rot>
1.8163

> <Gold.Chemscore.Internal.Correction>
   9.000000E+99

> <Gold.Chemscore.Hbonds>
donor molecule, donor type, donor heavy atom, donor atom, acceptor molecule, acceptor atom, score
      L1  H     9    47       P1  7948  0.93

> <Gold.Chemscore.Hbond.Weighted>
-3.2464

> <Gold.Chemscore.Metal.Weighted>
-0.0000

> <Gold.Chemscore.Lipo.Weighted>
-12.2078

> <Gold.Chemscore.Internal_Hbond.Weighted>
0.0000

> <Gold.Chemscore.DEClash.Weighted>
0.2753

> <Gold.Chemscore.DEInternal.Weighted>
1.3802

> <Gold.Chemscore.Rot.Weighted>
4.6497

> <Gold.Chemscore.Internal.Correction.Weighted>
   9.000000E+99

> <Gold.Protein.RotatedTorsions>
[ 6907 6896 6895 6894 ] final  139.29 input  -60.11 | X-H torsion
[ 7974 7965 7964 7962 ] final -111.95 input  175.53 | X-H torsion
[ 8008 7997 7996 7995 ] final    1.06 input   59.86 | X-H torsion
[ 10167 10162 10161 10158 ] final  -62.54 input  -65.29 | X-H torsion
[ 10718 10713 10712 10709 ] final  -49.35 input   66.30 | X-H torsion
[ 10763 10752 10751 10750 ] final -108.54 input  -60.55 | X-H torsion
[ 11005 11000 10999 10996 ] final   -1.51 input  -57.11 | X-H torsion

> <Gold.Protein.ActiveResidues>
 VAL166  LYS551  ARG553  GLY616  TRP617  ASP618  TYR619  PRO620  LYS621  CYS622 
 ASP623  PHE694  ASN695  SER759  ASP760  ASP761  ALA762  ILE779  LEU786  VAL792 
 PHE793  MET794  SER795  GLU796  ALA797  LYS798  CYS799  TRP800  GLU811  SER814 

> <Gold.Protein.RotatedAtoms>
  152.2566  133.5261  159.5356 H   0  0  0  0  0  0  0  0  0  0  0  0  # atno 6907 bound_to 6896
  150.7111  134.0887  159.3933 H   0  0  0  0  0  0  0  0  0  0  0  0  # atno 6908 bound_to 6896
  151.8806  135.0455  160.0539 H   0  0  0  0  0  0  0  0  0  0  0  0  # atno 6909 bound_to 6896
  145.1499  140.8823  143.3652 H   0  0  0  0  0  0  0  0  0  0  0  0  # atno 7974 bound_to 7965
  154.6753  140.2621  155.6964 H   0  0  0  0  0  0  0  0  0  0  0  0  # atno 8008 bound_to 7997
  156.2675  140.2821  156.1200 H   0  0  0  0  0  0  0  0  0  0  0  0  # atno 8009 bound_to 7997
  155.1109  140.0375  157.2714 H   0  0  0  0  0  0  0  0  0  0  0  0  # atno 8010 bound_to 7997
  140.5932  143.2345  151.6094 H   0  0  0  0  0  0  0  0  0  0  0  0  # atno 10167 bound_to 10162
  156.1902  130.4152  149.9383 H   0  0  0  0  0  0  0  0  0  0  0  0  # atno 10718 bound_to 10713
  154.8141  135.4634  154.0596 H   0  0  0  0  0  0  0  0  0  0  0  0  # atno 10763 bound_to 10752
  153.2003  135.6868  153.8247 H   0  0  0  0  0  0  0  0  0  0  0  0  # atno 10764 bound_to 10752
  153.7734  135.3267  155.3332 H   0  0  0  0  0  0  0  0  0  0  0  0  # atno 10765 bound_to 10752
  140.6481  133.9429  155.8364 H   0  0  0  0  0  0  0  0  0  0  0  0  # atno 11005 bound_to 11000
  145.0442  139.3235  143.5961 LP  0  0  0  0  0  0  0  0  0  0  0  0  # atno 17320 bound_to 7965
  146.3496  139.9826  142.8694 LP  0  0  0  0  0  0  0  0  0  0  0  0  # atno 17321 bound_to 7965
  139.5241  144.3114  152.0989 LP  0  0  0  0  0  0  0  0  0  0  0  0  # atno 17342 bound_to 10162
  140.2282  144.4396  150.6311 LP  0  0  0  0  0  0  0  0  0  0  0  0  # atno 17343 bound_to 10162
  156.7126  130.8976  151.3611 LP  0  0  0  0  0  0  0  0  0  0  0  0  # atno 17370 bound_to 10713
  157.6924  130.9247  150.0550 LP  0  0  0  0  0  0  0  0  0  0  0  0  # atno 17371 bound_to 10713
  141.0557  134.0420  157.3725 LP  0  0  0  0  0  0  0  0  0  0  0  0  # atno 17394 bound_to 11000
  139.9056  135.0178  156.7468 LP  0  0  0  0  0  0  0  0  0  0  0  0  # atno 17395 bound_to 11000

$$$$
