AV-unprocessed.smi:1049|AV-procd|sdf|4611|dock8
  -GOLD-   22720 3113D 1   1.00000     0.00000
 Structure written by MMmdl.
 41 42  0  0  0  0  0  0  0  0  2 V2000
  152.7238  143.5911  162.4242 C   0  0  0  0  0  0  0  0  0  0  0  0
  152.0841  143.6967  161.0329 C   0  0  1  0  0  0  0  0  0  0  0  0
  152.0809  145.1535  160.5202 C   0  0  0  0  0  0  0  0  0  0  0  0
  151.5569  145.2551  159.0753 C   0  0  0  0  0  0  0  0  0  0  0  0
  152.2833  144.2568  158.1569 C   0  0  0  0  0  0  0  0  0  0  0  0
  152.1192  142.9011  158.7092 N   0  0  0  0  0  0  0  0  0  0  0  0
  151.3294  141.9174  158.2073 C   0  0  0  0  0  0  0  0  0  0  0  0
  151.2967  140.7753  158.6679 O   0  0  0  0  0  0  0  0  0  0  0  0
  150.5829  142.2762  157.1485 N   0  0  0  0  0  0  0  0  0  0  0  0
  149.6584  141.4013  156.4375 C   0  0  0  0  0  0  0  0  0  0  0  0
  149.6644  141.6866  154.9253 C   0  0  0  0  0  0  0  0  0  0  0  0
  148.5868  140.9653  154.1705 C   0  0  0  0  0  0  0  0  0  0  0  0
  148.7195  139.7762  153.5691 N   0  3  0  0  0  0  0  0  0  0  0  0
  147.5536  139.4185  152.9500 C   0  0  0  0  0  0  0  0  0  0  0  0
  146.6711  140.4432  153.1682 C   0  0  0  0  0  0  0  0  0  0  0  0
  147.3366  141.3869  153.9086 N   0  0  0  0  0  0  0  0  0  0  0  0
  146.7848  142.6636  154.3735 C   0  0  0  0  0  0  0  0  0  0  0  0
  146.2389  143.3293  153.3559 F   0  0  0  0  0  0  0  0  0  0  0  0
  145.8843  142.4619  155.3359 F   0  0  0  0  0  0  0  0  0  0  0  0
  152.7858  142.7747  160.0125 C   0  0  0  0  0  0  0  0  0  0  0  0
  153.7683  143.9043  162.4055 H   0  0  0  0  0  0  0  0  0  0  0  0
  152.6901  142.5663  162.7945 H   0  0  0  0  0  0  0  0  0  0  0  0
  152.2003  144.2194  163.1453 H   0  0  0  0  0  0  0  0  0  0  0  0
  151.0470  143.3691  161.1224 H   0  0  0  0  0  0  0  0  0  0  0  0
  151.4819  145.7849  161.1772 H   0  0  0  0  0  0  0  0  0  0  0  0
  153.0967  145.5500  160.5554 H   0  0  0  0  0  0  0  0  0  0  0  0
  150.4850  145.0534  159.0588 H   0  0  0  0  0  0  0  0  0  0  0  0
  151.6872  146.2717  158.7032 H   0  0  0  0  0  0  0  0  0  0  0  0
  151.9246  144.3666  157.1339 H   0  0  0  0  0  0  0  0  0  0  0  0
  153.3465  144.4978  158.1142 H   0  0  0  0  0  0  0  0  0  0  0  0
  150.6590  143.2278  156.8188 H   0  0  0  0  0  0  0  0  0  0  0  0
  149.9102  140.3584  156.6381 H   0  0  0  0  0  0  0  0  0  0  0  0
  148.6593  141.5643  156.8424 H   0  0  0  0  0  0  0  0  0  0  0  0
  149.5392  142.7544  154.7490 H   0  0  0  0  0  0  0  0  0  0  0  0
  150.6098  141.3869  154.4718 H   0  0  0  0  0  0  0  0  0  0  0  0
  147.4438  138.4883  152.4118 H   0  0  0  0  0  0  0  0  0  0  0  0
  145.6451  140.5698  152.8540 H   0  0  0  0  0  0  0  0  0  0  0  0
  147.5858  143.2775  154.7870 H   0  0  0  0  0  0  0  0  0  0  0  0
  153.8353  143.0549  159.9093 H   0  0  0  0  0  0  0  0  0  0  0  0
  152.7923  141.7473  160.3798 H   0  0  0  0  0  0  0  0  0  0  0  0
  149.5666  139.2217  153.5739 H   0  0  0  0  0  0  0  0  0  0  0  0
  1  2  1  0  0  0  0
  1 21  1  0  0  0  0
  1 22  1  0  0  0  0
  1 23  1  0  0  0  0
  2 20  1  0  0  0  0
  2  3  1  0  0  0  0
  2 24  1  0  0  0  0
  3  4  1  0  0  0  0
  3 25  1  0  0  0  0
  3 26  1  0  0  0  0
  4  5  1  0  0  0  0
  4 27  1  0  0  0  0
  4 28  1  0  0  0  0
  5  6  1  0  0  0  0
  5 29  1  0  0  0  0
  5 30  1  0  0  0  0
  6  7  1  0  0  0  0
  6 20  1  0  0  0  0
  7  8  2  0  0  0  0
  7  9  1  0  0  0  0
  9 10  1  0  0  0  0
  9 31  1  0  0  0  0
 10 11  1  0  0  0  0
 10 32  1  0  0  0  0
 10 33  1  0  0  0  0
 11 12  1  0  0  0  0
 11 34  1  0  0  0  0
 11 35  1  0  0  0  0
 12 16  1  0  0  0  0
 12 13  2  0  0  0  0
 13 14  1  0  0  0  0
 13 41  1  0  0  0  0
 14 15  2  0  0  0  0
 14 36  1  0  0  0  0
 15 16  1  0  0  0  0
 15 37  1  0  0  0  0
 16 17  1  0  0  0  0
 17 18  1  0  0  0  0
 17 19  1  0  0  0  0
 17 38  1  0  0  0  0
 20 39  1  0  0  0  0
 20 40  1  0  0  0  0
M  CHG  1  13   1
M  END
> <s_m_source_file>
AV-unprocessed.smi

> <i_m_source_file_index>
1049

> <i_lp_mmshare_version>
43012

> <i_f3d_flags>
0

> <s_epik_input>
W0NIM11bQ0BASF0xW0NIMl1bQ0gyXVtDSDJdTihbQ0gyXTEpQyg9TylbTkhdW0NIMl1bQ0gyXWMybltjSF1bY0hdbjJbQ0hdKEYpRg==

> <s_epik_cmdline>
J2VwaWtfcHl0aG9uJywgJy1waCcsICc3LjAnLCAnLXRuJywgJzgnLCAnLW1hJywgJzIwMCcsICctbWV0YWxfYmluZGluZycsICctaW1hZScsICc8aW5maWxlLm1hZT4nLCAnLW9tYWUnLCAnPG91dGZpbGUubWFlPic=

> <r_lp_tautomer_probability>
1

> <r_epik_Ionization_Penalty>
1.09766

> <r_epik_Ionization_Penalty_Charging>
0

> <r_epik_Ionization_Penalty_Neutral>
1.09766

> <r_epik_State_Penalty>
1.15444

> <r_epik_Charging_Adjusted_Penalty>
1.15444

> <i_epik_Tot_Q>
1

> <i_epik_Tot_abs_Q>
1

> <r_epik_Metal_State_Penalty>
1.24204

> <b_epik_Metal_Only>
0

> <s_lp_Force_Field>
OPLS_2005

> <r_lp_Energy>
35.939

> <b_lp_Chiralities_Consistent>
1

> <s_lp_Variant>
AV-unprocessed.smi:1049-4

> <Gold.Version>
5.8.1

> <Gold.Id.Protein>
6NUR|6NUR_protein|mol2

> <Gold.PLP.Fitness>
51.8996

> <Gold.PLP.PLP>
-50.4154

> <Gold.PLP.part.hbond>
-1.0302

> <Gold.PLP.part.metal>
0.0000

> <Gold.PLP.part.buried>
-1.2518

> <Gold.PLP.part.nonpolar>
-47.3240

> <Gold.PLP.part.repulsive>
0.1489

> <Gold.PLP.ligand.clash>
0.0000

> <Gold.PLP.ligand.torsion>
0.7865

> <Gold.PLP.Chemscore.Hbond>
0.0000

> <Gold.PLP.Chemscore.CHOScore>
1.0000

> <Gold.PLP.Chemscore.Metal>
0.0000

> <Gold.Chemscore.Hbonds>
donor molecule, donor type, donor heavy atom, donor atom, acceptor molecule, acceptor atom, score
      L1  C    15    37       P1 10175  0.91

> <Gold.PLP.Chemscore.Internal.Correction>
0.0573

> <Gold.Rescore>
     Score         DG    S(hbond)    S(metal)    S(lipo)     H(rot)  DE(clash)    DE(int)     intcor
     12.36     -14.93       0.16        0.00     111.21       1.61       1.87       0.70       ----

> <Gold.Chemscore.Fitness>
12.3574

> <Gold.Chemscore.DG>
-14.9319

> <Gold.Chemscore.ZeroCoef>
-5.4800

> <Gold.Chemscore.Hbond>
0.1645

> <Gold.Chemscore.Metal>
0.0000

> <Gold.Chemscore.Lipo>
111.2093

> <Gold.Chemscore.Internal_Hbond>
0.0000

> <Gold.Chemscore.DEClash>
1.8735

> <Gold.Chemscore.DEInternal>
0.7009

> <Gold.Chemscore.Rot>
1.6051

> <Gold.Chemscore.Internal.Correction>
   9.000000E+99

> <Gold.Chemscore.Hbond.Weighted>
-0.5495

> <Gold.Chemscore.Metal.Weighted>
-0.0000

> <Gold.Chemscore.Lipo.Weighted>
-13.0115

> <Gold.Chemscore.Internal_Hbond.Weighted>
0.0000

> <Gold.Chemscore.DEClash.Weighted>
1.8735

> <Gold.Chemscore.DEInternal.Weighted>
0.7009

> <Gold.Chemscore.Rot.Weighted>
4.1092

> <Gold.Chemscore.Internal.Correction.Weighted>
   9.000000E+99

> <Gold.Protein.RotatedTorsions>
[ 6907 6896 6895 6894 ] final -170.86 input  -60.11 | X-H torsion
[ 7974 7965 7964 7962 ] final  179.40 input  175.53 | X-H torsion
[ 8008 7997 7996 7995 ] final -139.25 input   59.86 | X-H torsion
[ 10167 10162 10161 10158 ] final -156.17 input  -65.29 | X-H torsion
[ 10718 10713 10712 10709 ] final  114.36 input   66.30 | X-H torsion
[ 10763 10752 10751 10750 ] final -153.20 input  -60.55 | X-H torsion
[ 11005 11000 10999 10996 ] final    3.11 input  -57.11 | X-H torsion

> <Gold.Protein.ActiveResidues>
 VAL166  LYS551  ARG553  GLY616  TRP617  ASP618  TYR619  PRO620  LYS621  CYS622 
 ASP623  PHE694  ASN695  SER759  ASP760  ASP761  ALA762  ILE779  LEU786  VAL792 
 PHE793  MET794  SER795  GLU796  ALA797  LYS798  CYS799  TRP800  GLU811  SER814 

> <Gold.Protein.RotatedAtoms>
  151.5145  133.3478  159.2890 H   0  0  0  0  0  0  0  0  0  0  0  0  # atno 6907 bound_to 6896
  150.8691  134.8063  159.7152 H   0  0  0  0  0  0  0  0  0  0  0  0  # atno 6908 bound_to 6896
  152.4685  134.5026  159.9781 H   0  0  0  0  0  0  0  0  0  0  0  0  # atno 6909 bound_to 6896
  144.7146  140.0542  143.6434 H   0  0  0  0  0  0  0  0  0  0  0  0  # atno 7974 bound_to 7965
  155.4418  140.0532  157.3009 H   0  0  0  0  0  0  0  0  0  0  0  0  # atno 8008 bound_to 7997
  154.4815  140.2083  155.9710 H   0  0  0  0  0  0  0  0  0  0  0  0  # atno 8009 bound_to 7997
  156.1212  140.3188  155.8216 H   0  0  0  0  0  0  0  0  0  0  0  0  # atno 8010 bound_to 7997
  139.6872  143.9481  152.2367 H   0  0  0  0  0  0  0  0  0  0  0  0  # atno 10167 bound_to 10162
  157.6285  131.0997  150.7175 H   0  0  0  0  0  0  0  0  0  0  0  0  # atno 10718 bound_to 10713
  154.7943  135.3218  154.7703 H   0  0  0  0  0  0  0  0  0  0  0  0  # atno 10763 bound_to 10752
  153.8385  135.6873  153.4810 H   0  0  0  0  0  0  0  0  0  0  0  0  # atno 10764 bound_to 10752
  153.1628  135.4654  154.9736 H   0  0  0  0  0  0  0  0  0  0  0  0  # atno 10765 bound_to 10752
  140.5967  133.9873  155.8113 H   0  0  0  0  0  0  0  0  0  0  0  0  # atno 11005 bound_to 11000
  145.9919  139.3021  143.0980 LP  0  0  0  0  0  0  0  0  0  0  0  0  # atno 17320 bound_to 7965
  145.8893  140.9313  143.0560 LP  0  0  0  0  0  0  0  0  0  0  0  0  # atno 17321 bound_to 7965
  139.9288  144.6754  150.8385 LP  0  0  0  0  0  0  0  0  0  0  0  0  # atno 17342 bound_to 10162
  140.7671  143.3323  151.2383 LP  0  0  0  0  0  0  0  0  0  0  0  0  # atno 17343 bound_to 10162
  156.7518  130.4771  149.5455 LP  0  0  0  0  0  0  0  0  0  0  0  0  # atno 17370 bound_to 10713
  156.1473  130.6286  151.0549 LP  0  0  0  0  0  0  0  0  0  0  0  0  # atno 17371 bound_to 10713
  141.0899  133.9933  157.3254 LP  0  0  0  0  0  0  0  0  0  0  0  0  # atno 17394 bound_to 11000
  139.9250  135.0201  156.8202 LP  0  0  0  0  0  0  0  0  0  0  0  0  # atno 17395 bound_to 11000

$$$$
