AV-unprocessed.smi:437|AV-procd|sdf|2560|dock1
  -GOLD-   2262022523D 1   1.00000     0.00000
 Structure written by MMmdl.
 48 49  0  0  0  0  0  0  0  0  1 V2000
  145.6716  135.0529  155.2607 C   0  0  0  0  0  0  0  0  0  0  0  0
  146.7186  135.3612  156.2970 C   0  0  0  0  0  0  0  0  0  0  0  0
  147.9522  135.2463  155.9286 N   0  0  0  0  0  0  0  0  0  0  0  0
  148.9910  135.5032  156.8023 N   0  0  0  0  0  0  0  0  0  0  0  0
  150.3266  135.3057  156.2187 C   0  0  0  0  0  0  0  0  0  0  0  0
  150.9024  136.5743  155.5694 C   0  0  0  0  0  0  0  0  0  0  0  0
  152.1053  136.6478  155.3045 O   0  0  0  0  0  0  0  0  0  0  0  0
  149.9982  137.5441  155.3237 N   0  0  0  0  0  0  0  0  0  0  0  0
  150.2191  138.7509  154.7676 C   0  0  0  0  0  0  0  0  0  0  0  0
  151.3238  139.2317  154.5061 O   0  0  0  0  0  0  0  0  0  0  0  0
  149.0630  139.3842  154.5207 N   0  0  0  0  0  0  0  0  0  0  0  0
  148.9229  140.8061  154.2023 C   0  0  1  0  0  0  0  0  0  0  0  0
  147.5319  141.1062  153.6011 C   0  0  0  0  0  0  0  0  0  0  0  0
  146.4086  140.9724  154.6430 C   0  0  0  0  0  0  0  0  0  0  0  0
  146.6804  141.8576  155.8682 C   0  0  0  0  0  0  0  0  0  0  0  0
  148.0543  141.5519  156.4858 C   0  0  0  0  0  0  0  0  0  0  0  0
  149.1885  141.6875  155.4482 C   0  0  1  0  0  0  0  0  0  0  0  0
  150.5672  141.4289  156.0802 C   0  0  0  0  0  0  0  0  0  0  0  0
  148.8357  135.9072  158.0962 C   0  0  0  0  0  0  0  0  0  0  0  0
  149.7926  136.1389  158.8367 O   0  0  0  0  0  0  0  0  0  0  0  0
  147.4356  136.0303  158.5082 C   0  0  0  0  0  0  0  0  0  0  0  0
  147.2281  136.4377  159.8603 C   0  0  0  0  0  0  0  0  0  0  0  0
  147.0726  136.7837  160.9541 N   0  0  0  0  0  0  0  0  0  0  0  0
  146.4071  135.7729  157.6619 C   0  0  0  0  0  0  0  0  0  0  0  0
  144.9365  135.8870  158.0386 C   0  0  0  0  0  0  0  0  0  0  0  0
  145.0441  135.9246  155.0741 H   0  0  0  0  0  0  0  0  0  0  0  0
  145.0286  134.2366  155.5906 H   0  0  0  0  0  0  0  0  0  0  0  0
  146.1153  134.7580  154.3085 H   0  0  0  0  0  0  0  0  0  0  0  0
  151.0254  134.9730  156.9885 H   0  0  0  0  0  0  0  0  0  0  0  0
  150.3006  134.5014  155.4811 H   0  0  0  0  0  0  0  0  0  0  0  0
  149.0447  137.3393  155.5837 H   0  0  0  0  0  0  0  0  0  0  0  0
  148.2102  138.8451  154.5510 H   0  0  0  0  0  0  0  0  0  0  0  0
  149.6769  141.0574  153.4539 H   0  0  0  0  0  0  0  0  0  0  0  0
  147.5281  142.1225  153.2052 H   0  0  0  0  0  0  0  0  0  0  0  0
  147.3317  140.4539  152.7504 H   0  0  0  0  0  0  0  0  0  0  0  0
  145.4529  141.2442  154.1943 H   0  0  0  0  0  0  0  0  0  0  0  0
  146.3160  139.9314  154.9551 H   0  0  0  0  0  0  0  0  0  0  0  0
  146.6371  142.9075  155.5760 H   0  0  0  0  0  0  0  0  0  0  0  0
  145.8973  141.7119  156.6128 H   0  0  0  0  0  0  0  0  0  0  0  0
  148.2331  142.2289  157.3217 H   0  0  0  0  0  0  0  0  0  0  0  0
  148.0494  140.5446  156.9042 H   0  0  0  0  0  0  0  0  0  0  0  0
  149.1903  142.7247  155.1093 H   0  0  0  0  0  0  0  0  0  0  0  0
  150.6398  140.4245  156.4981 H   0  0  0  0  0  0  0  0  0  0  0  0
  150.7644  142.1350  156.8870 H   0  0  0  0  0  0  0  0  0  0  0  0
  151.3628  141.5418  155.3433 H   0  0  0  0  0  0  0  0  0  0  0  0
  144.7976  136.2118  159.0691 H   0  0  0  0  0  0  0  0  0  0  0  0
  144.4385  134.9232  157.9288 H   0  0  0  0  0  0  0  0  0  0  0  0
  144.4322  136.6100  157.3972 H   0  0  0  0  0  0  0  0  0  0  0  0
  1  2  1  0  0  0  0
  1 26  1  0  0  0  0
  1 27  1  0  0  0  0
  1 28  1  0  0  0  0
  2 24  1  0  0  0  0
  2  3  2  0  0  0  0
  3  4  1  0  0  0  0
  4  5  1  0  0  0  0
  4 19  1  0  0  0  0
  5  6  1  0  0  0  0
  5 29  1  0  0  0  0
  5 30  1  0  0  0  0
  6  7  2  0  0  0  0
  6  8  1  0  0  0  0
  8  9  1  0  0  0  0
  8 31  1  0  0  0  0
  9 10  2  0  0  0  0
  9 11  1  0  0  0  0
 11 12  1  0  0  0  0
 11 32  1  0  0  0  0
 12 17  1  0  0  0  0
 12 13  1  0  0  0  0
 12 33  1  0  0  0  0
 13 14  1  0  0  0  0
 13 34  1  0  0  0  0
 13 35  1  0  0  0  0
 14 15  1  0  0  0  0
 14 36  1  0  0  0  0
 14 37  1  0  0  0  0
 15 16  1  0  0  0  0
 15 38  1  0  0  0  0
 15 39  1  0  0  0  0
 16 17  1  0  0  0  0
 16 40  1  0  0  0  0
 16 41  1  0  0  0  0
 17 18  1  0  0  0  0
 17 42  1  0  0  0  0
 18 43  1  0  0  0  0
 18 44  1  0  0  0  0
 18 45  1  0  0  0  0
 19 20  2  0  0  0  0
 19 21  1  0  0  0  0
 21 22  1  0  0  0  0
 21 24  2  0  0  0  0
 22 23  3  0  0  0  0
 24 25  1  0  0  0  0
 25 46  1  0  0  0  0
 25 47  1  0  0  0  0
 25 48  1  0  0  0  0
M  END
> <s_m_source_file>
AV-unprocessed.smi

> <i_m_source_file_index>
437

> <i_lp_mmshare_version>
43012

> <i_f3d_flags>
0

> <s_epik_input>
TiNDYyhjMVtDSDNdKWMoPU8pbihuYzFbQ0gzXSlbQ0gyXUMoPU8pW05IXUMoPU8pW05IXVtDQEBIXTJbQ0gyXVtDSDJdW0NIMl1bQ0gyXVtDQEhdMltDSDNd

> <s_epik_cmdline>
J2VwaWtfcHl0aG9uJywgJy1waCcsICc3LjAnLCAnLXRuJywgJzgnLCAnLW1hJywgJzIwMCcsICctbWV0YWxfYmluZGluZycsICctaW1hZScsICc8aW5maWxlLm1hZT4nLCAnLW9tYWUnLCAnPG91dGZpbGUubWFlPic=

> <r_lp_tautomer_probability>
1

> <r_epik_Ionization_Penalty>
3.27035e-05

> <r_epik_Ionization_Penalty_Charging>
1.6965e-11

> <r_epik_Ionization_Penalty_Neutral>
3.27035e-05

> <r_epik_State_Penalty>
-0

> <r_epik_Charging_Adjusted_Penalty>
1.6965e-11

> <i_epik_Tot_Q>
0

> <i_epik_Tot_abs_Q>
0

> <r_epik_Metal_State_Penalty>
-0

> <b_epik_Metal_Only>
0

> <s_lp_Force_Field>
OPLS_2005

> <r_lp_Energy>
26.066

> <b_lp_Chiralities_Consistent>
1

> <s_lp_Variant>
AV-unprocessed.smi:437-2

> <Gold.Version>
5.8.1

> <Gold.Id.Protein>
6NUR|6NUR_protein|mol2

> <Gold.PLP.Fitness>
40.6503

> <Gold.PLP.PLP>
-27.6553

> <Gold.PLP.part.hbond>
-4.7631

> <Gold.PLP.part.metal>
0.0000

> <Gold.PLP.part.buried>
-2.2782

> <Gold.PLP.part.nonpolar>
-20.4021

> <Gold.PLP.part.repulsive>
0.2782

> <Gold.PLP.ligand.clash>
0.0000

> <Gold.PLP.ligand.torsion>
0.8102

> <Gold.PLP.Chemscore.Hbond>
4.8560

> <Gold.PLP.Chemscore.CHOScore>
0.0000

> <Gold.PLP.Chemscore.Metal>
0.0000

> <Gold.Chemscore.Hbonds>
donor molecule, donor type, donor heavy atom, donor atom, acceptor molecule, acceptor atom, score
      P1  H  6896  6909       L1    20  1.00
      P1  H  6934  6947       L1    23  0.47
      P1  H  7989  7998       L1    10  1.00
      P1  H 10752 10765       L1     7  0.93

> <Gold.PLP.Chemscore.Internal.Correction>
0.0475

> <Gold.Rescore>
     Score         DG    S(hbond)    S(metal)    S(lipo)     H(rot)  DE(clash)    DE(int)     intcor
     15.72     -20.39       4.00        0.00      47.53       1.57       0.09       4.58       ----

> <Gold.Chemscore.Fitness>
15.7189

> <Gold.Chemscore.DG>
-20.3886

> <Gold.Chemscore.ZeroCoef>
-5.4800

> <Gold.Chemscore.Hbond>
3.9986

> <Gold.Chemscore.Metal>
0.0000

> <Gold.Chemscore.Lipo>
47.5310

> <Gold.Chemscore.Internal_Hbond>
0.0000

> <Gold.Chemscore.DEClash>
0.0869

> <Gold.Chemscore.DEInternal>
4.5828

> <Gold.Chemscore.Rot>
1.5656

> <Gold.Chemscore.Internal.Correction>
   9.000000E+99

> <Gold.Chemscore.Hbonds>
donor molecule, donor type, donor heavy atom, donor atom, acceptor molecule, acceptor atom, score
      P1  H  6896  6909       L1    20  1.00
      P1  H  6934  6947       L1    23  0.26
      P1  H  7989  7998       L1    10  0.99
      P1  H 10752 10765       L1     7  0.86

> <Gold.Chemscore.Hbond.Weighted>
-13.3553

> <Gold.Chemscore.Metal.Weighted>
-0.0000

> <Gold.Chemscore.Lipo.Weighted>
-5.5611

> <Gold.Chemscore.Internal_Hbond.Weighted>
0.0000

> <Gold.Chemscore.DEClash.Weighted>
0.0869

> <Gold.Chemscore.DEInternal.Weighted>
4.5828

> <Gold.Chemscore.Rot.Weighted>
4.0079

> <Gold.Chemscore.Internal.Correction.Weighted>
   9.000000E+99

> <Gold.Protein.RotatedTorsions>
[ 6907 6896 6895 6894 ] final   68.05 input  -60.11 | X-H torsion
[ 7974 7965 7964 7962 ] final   11.97 input  175.53 | X-H torsion
[ 8008 7997 7996 7995 ] final   31.60 input   59.86 | X-H torsion
[ 10167 10162 10161 10158 ] final  169.42 input  -65.29 | X-H torsion
[ 10718 10713 10712 10709 ] final  157.29 input   66.30 | X-H torsion
[ 10763 10752 10751 10750 ] final -176.37 input  -60.55 | X-H torsion
[ 11005 11000 10999 10996 ] final  -41.11 input  -57.11 | X-H torsion

> <Gold.Protein.ActiveResidues>
 VAL166  LYS551  ARG553  GLY616  TRP617  ASP618  TYR619  PRO620  LYS621  CYS622 
 ASP623  PHE694  ASN695  SER759  ASP760  ASP761  ALA762  ILE779  LEU786  VAL792 
 PHE793  MET794  SER795  GLU796  ALA797  LYS798  CYS799  TRP800  GLU811  SER814 

> <Gold.Protein.RotatedAtoms>
  152.4594  134.5218  159.9784 H   0  0  0  0  0  0  0  0  0  0  0  0  # atno 6907 bound_to 6896
  151.5271  133.3450  159.2919 H   0  0  0  0  0  0  0  0  0  0  0  0  # atno 6908 bound_to 6896
  150.8551  134.7917  159.7102 H   0  0  0  0  0  0  0  0  0  0  0  0  # atno 6909 bound_to 6896
  146.2361  139.9406  142.8483 H   0  0  0  0  0  0  0  0  0  0  0  0  # atno 7974 bound_to 7965
  155.1091  140.3237  155.4526 H   0  0  0  0  0  0  0  0  0  0  0  0  # atno 8008 bound_to 7997
  156.2695  140.2047  156.6163 H   0  0  0  0  0  0  0  0  0  0  0  0  # atno 8009 bound_to 7997
  154.6770  140.0530  157.0213 H   0  0  0  0  0  0  0  0  0  0  0  0  # atno 8010 bound_to 7997
  139.4992  144.3708  151.9727 H   0  0  0  0  0  0  0  0  0  0  0  0  # atno 10167 bound_to 10162
  157.1935  131.0660  151.2066 H   0  0  0  0  0  0  0  0  0  0  0  0  # atno 10718 bound_to 10713
  154.5732  135.2829  155.0806 H   0  0  0  0  0  0  0  0  0  0  0  0  # atno 10763 bound_to 10752
  154.2171  135.6398  153.5137 H   0  0  0  0  0  0  0  0  0  0  0  0  # atno 10764 bound_to 10752
  153.0064  135.5505  154.6362 H   0  0  0  0  0  0  0  0  0  0  0  0  # atno 10765 bound_to 10752
  141.0223  133.6857  156.2413 H   0  0  0  0  0  0  0  0  0  0  0  0  # atno 11005 bound_to 11000
  145.1956  140.9831  143.4185 LP  0  0  0  0  0  0  0  0  0  0  0  0  # atno 17320 bound_to 7965
  144.9818  139.3775  143.6258 LP  0  0  0  0  0  0  0  0  0  0  0  0  # atno 17321 bound_to 7965
  140.3144  144.3501  150.6025 LP  0  0  0  0  0  0  0  0  0  0  0  0  # atno 17342 bound_to 10162
  140.5773  143.2175  151.7492 LP  0  0  0  0  0  0  0  0  0  0  0  0  # atno 17343 bound_to 10162
  157.3837  130.7245  149.6648 LP  0  0  0  0  0  0  0  0  0  0  0  0  # atno 17370 bound_to 10713
  155.9709  130.4165  150.4235 LP  0  0  0  0  0  0  0  0  0  0  0  0  # atno 17371 bound_to 10713
  140.6552  134.5025  157.5580 LP  0  0  0  0  0  0  0  0  0  0  0  0  # atno 17394 bound_to 11000
  139.9153  134.8258  156.1386 LP  0  0  0  0  0  0  0  0  0  0  0  0  # atno 17395 bound_to 11000

$$$$
