AV-unprocessed.smi:37|AV-procd|sdf|334|dock5
  -GOLD-   2262016173D 1   1.00000     0.00000
 Structure written by MMmdl.
 43 44  0  0  0  0  0  0  0  0  2 V2000
  148.7405  132.5946  153.7863 C   0  0  0  0  0  0  0  0  0  0  0  0
  149.8320  132.3292  154.8337 C   0  0  0  0  0  0  0  0  0  0  0  0
  149.4655  132.8120  156.2388 C   0  0  0  0  0  0  0  0  0  0  0  0
  150.2754  132.8195  157.1678 O   0  0  0  0  0  0  0  0  0  0  0  0
  148.1875  133.2122  156.3128 O   0  0  0  0  0  0  0  0  0  0  0  0
  147.7155  133.8490  157.4902 C   0  0  0  0  0  0  0  0  0  0  0  0
  148.6644  134.9818  157.9047 C   0  0  1  0  0  0  0  0  0  0  0  0
  149.2472  135.6144  156.7661 O   0  0  0  0  0  0  0  0  0  0  0  0
  149.1156  137.0003  156.8852 C   0  0  2  0  0  0  0  0  0  0  0  0
  150.3445  137.6898  156.3389 N   0  0  0  0  0  0  0  0  0  0  0  0
  151.6171  137.2119  156.6048 C   0  0  0  0  0  0  0  0  0  0  0  0
  152.7113  137.8315  156.1172 C   0  0  0  0  0  0  0  0  0  0  0  0
  153.9338  137.3480  156.3965 F   0  0  0  0  0  0  0  0  0  0  0  0
  152.5577  139.0274  155.2906 C   0  0  0  0  0  0  0  0  0  0  0  0
  153.5592  139.5849  154.8442 O   0  0  0  0  0  0  0  0  0  0  0  0
  151.2922  139.4774  155.0488 N   0  5  0  0  0  0  0  0  0  0  0  0
  150.1819  138.8553  155.5430 C   0  0  0  0  0  0  0  0  0  0  0  0
  149.0358  139.2548  155.3357 O   0  0  0  0  0  0  0  0  0  0  0  0
  148.8774  137.2935  158.3711 C   0  0  2  0  0  0  0  0  0  0  0  0
  150.5821  137.2735  159.4197 Br  0  0  0  0  0  0  0  0  0  0  0  0
  148.0176  136.0958  158.7368 C   0  0  2  0  0  0  0  0  0  0  0  0
  148.0362  135.7968  160.1264 O   0  0  0  0  0  0  0  0  0  0  0  0
  147.2769  136.5050  160.9813 C   0  0  0  0  0  0  0  0  0  0  0  0
  146.5540  137.4570  160.6874 O   0  0  0  0  0  0  0  0  0  0  0  0
  147.4007  136.0155  162.4222 C   0  0  0  0  0  0  0  0  0  0  0  0
  146.8790  134.5824  162.5945 C   0  0  0  0  0  0  0  0  0  0  0  0
  149.0584  132.2425  152.8048 H   0  0  0  0  0  0  0  0  0  0  0  0
  148.5227  133.6597  153.6995 H   0  0  0  0  0  0  0  0  0  0  0  0
  147.8129  132.0783  154.0368 H   0  0  0  0  0  0  0  0  0  0  0  0
  150.0424  131.2606  154.8807 H   0  0  0  0  0  0  0  0  0  0  0  0
  150.7573  132.8193  154.5304 H   0  0  0  0  0  0  0  0  0  0  0  0
  146.7213  134.2603  157.3092 H   0  0  0  0  0  0  0  0  0  0  0  0
  147.6247  133.1182  158.2947 H   0  0  0  0  0  0  0  0  0  0  0  0
  149.4954  134.5530  158.4668 H   0  0  0  0  0  0  0  0  0  0  0  0
  148.2843  137.3134  156.2502 H   0  0  0  0  0  0  0  0  0  0  0  0
  151.7516  136.3349  157.2199 H   0  0  0  0  0  0  0  0  0  0  0  0
  148.3835  138.2543  158.5193 H   0  0  0  0  0  0  0  0  0  0  0  0
  146.9994  136.2652  158.3833 H   0  0  0  0  0  0  0  0  0  0  0  0
  148.4461  136.0730  162.7259 H   0  0  0  0  0  0  0  0  0  0  0  0
  146.8448  136.6915  163.0726 H   0  0  0  0  0  0  0  0  0  0  0  0
  146.9344  134.2773  163.6393 H   0  0  0  0  0  0  0  0  0  0  0  0
  147.4659  133.8704  162.0129 H   0  0  0  0  0  0  0  0  0  0  0  0
  145.8381  134.4980  162.2803 H   0  0  0  0  0  0  0  0  0  0  0  0
  1  2  1  0  0  0  0
  1 27  1  0  0  0  0
  1 28  1  0  0  0  0
  1 29  1  0  0  0  0
  2  3  1  0  0  0  0
  2 30  1  0  0  0  0
  2 31  1  0  0  0  0
  3  4  2  0  0  0  0
  3  5  1  0  0  0  0
  5  6  1  0  0  0  0
  6  7  1  0  0  0  0
  6 32  1  0  0  0  0
  6 33  1  0  0  0  0
  7 21  1  0  0  0  0
  7  8  1  0  0  0  0
  7 34  1  0  0  0  0
  8  9  1  0  0  0  0
  9 10  1  0  0  0  0
  9 19  1  0  0  0  0
  9 35  1  0  0  0  0
 10 17  1  0  0  0  0
 10 11  1  0  0  0  0
 11 12  2  0  0  0  0
 11 36  1  0  0  0  0
 12 13  1  0  0  0  0
 12 14  1  0  0  0  0
 14 15  2  0  0  0  0
 14 16  1  0  0  0  0
 16 17  1  0  0  0  0
 17 18  2  0  0  0  0
 19 20  1  0  0  0  0
 19 21  1  0  0  0  0
 19 37  1  0  0  0  0
 21 22  1  0  0  0  0
 21 38  1  0  0  0  0
 22 23  1  0  0  0  0
 23 24  2  0  0  0  0
 23 25  1  0  0  0  0
 25 26  1  0  0  0  0
 25 39  1  0  0  0  0
 25 40  1  0  0  0  0
 26 41  1  0  0  0  0
 26 42  1  0  0  0  0
 26 43  1  0  0  0  0
M  CHG  1  16  -1
M  END
> <s_m_source_file>
AV-unprocessed.smi

> <i_m_source_file_index>
37

> <i_lp_mmshare_version>
43012

> <i_f3d_flags>
0

> <s_epik_input>
W0NIM11bQ0gyXUMoPU8pT1tDSDJdW0NAQEhdMU9bQ0BASF0objJbY0hdYyhGKWMoPU8pW25IXWMyPU8pW0NAQEhdKEJyKVtDQEhdMU9DKD1PKVtDSDJdW0NIM10=

> <s_epik_cmdline>
J2VwaWtfcHl0aG9uJywgJy1waCcsICc3LjAnLCAnLXRuJywgJzgnLCAnLW1hJywgJzIwMCcsICctbWV0YWxfYmluZGluZycsICctaW1hZScsICc8aW5maWxlLm1hZT4nLCAnLW9tYWUnLCAnPG91dGZpbGUubWFlPic=

> <r_epik_Ionization_Penalty>
1.08158

> <r_epik_Ionization_Penalty_Charging>
9.05154e-09

> <r_epik_Ionization_Penalty_Neutral>
1.08158

> <r_epik_State_Penalty>
1.13706

> <r_epik_Charging_Adjusted_Penalty>
1.13706

> <i_epik_Tot_Q>
-1

> <i_epik_Tot_abs_Q>
1

> <r_epik_Metal_State_Penalty>
0.00343535

> <b_epik_Metal_Only>
0

> <s_epik_Chemistry_Notes>
This compound has an ester and may undergo hydrolysis at high or low pH. This compound contains an acetal/aminal-like group ( X-CH(R)-Y where X, Y are N, S, or O) that may be acid/base labile, releasing an aldehyde.

> <s_lp_Force_Field>
OPLS_2005

> <r_lp_Energy>
36.4441

> <b_lp_Chiralities_Consistent>
1

> <s_lp_Variant>
AV-unprocessed.smi:37-32

> <Gold.Version>
5.8.1

> <Gold.Id.Protein>
6NUR|6NUR_protein|mol2

> <Gold.PLP.Fitness>
42.3927

> <Gold.PLP.PLP>
-32.3040

> <Gold.PLP.part.hbond>
-5.0000

> <Gold.PLP.part.metal>
0.0000

> <Gold.PLP.part.buried>
-1.7744

> <Gold.PLP.part.nonpolar>
-26.8519

> <Gold.PLP.part.repulsive>
0.1679

> <Gold.PLP.ligand.clash>
0.0099

> <Gold.PLP.ligand.torsion>
1.0686

> <Gold.PLP.Chemscore.Hbond>
3.9600

> <Gold.PLP.Chemscore.CHOScore>
0.0000

> <Gold.PLP.Chemscore.Metal>
0.0000

> <Gold.Chemscore.Hbonds>
donor molecule, donor type, donor heavy atom, donor atom, acceptor molecule, acceptor atom, score
      P1  H  6896  6907       L1     4  0.31
      P1  H  6934  6947       L1    24  1.00
      P1  H  7989  7998       L1    16  0.81
      P1  H  7997  8009       L1    15  1.00

> <Gold.PLP.Chemscore.Internal.Correction>
0.3557

> <Gold.Rescore>
     Score         DG    S(hbond)    S(metal)    S(lipo)     H(rot)  DE(clash)    DE(int)     intcor
     10.92     -13.83       2.91        0.00      59.80       3.27       0.69       2.23       ----

> <Gold.Chemscore.Fitness>
10.9176

> <Gold.Chemscore.DG>
-13.8318

> <Gold.Chemscore.ZeroCoef>
-5.4800

> <Gold.Chemscore.Hbond>
2.9099

> <Gold.Chemscore.Metal>
0.0000

> <Gold.Chemscore.Lipo>
59.7957

> <Gold.Chemscore.Internal_Hbond>
0.0000

> <Gold.Chemscore.DEClash>
0.6880

> <Gold.Chemscore.DEInternal>
2.2261

> <Gold.Chemscore.Rot>
3.2669

> <Gold.Chemscore.Internal.Correction>
   9.000000E+99

> <Gold.Chemscore.Hbonds>
donor molecule, donor type, donor heavy atom, donor atom, acceptor molecule, acceptor atom, score
      P1  H  6896  6907       L1     4  0.31
      P1  H  6934  6947       L1    24  0.96
      P1  H  7989  7998       L1    16  0.24
      P1  H  7997  8009       L1    15  0.71

> <Gold.Chemscore.Hbond.Weighted>
-9.7190

> <Gold.Chemscore.Metal.Weighted>
-0.0000

> <Gold.Chemscore.Lipo.Weighted>
-6.9961

> <Gold.Chemscore.Internal_Hbond.Weighted>
0.0000

> <Gold.Chemscore.DEClash.Weighted>
0.6880

> <Gold.Chemscore.DEInternal.Weighted>
2.2261

> <Gold.Chemscore.Rot.Weighted>
8.3634

> <Gold.Chemscore.Internal.Correction.Weighted>
   9.000000E+99

> <Gold.Protein.RotatedTorsions>
[ 6907 6896 6895 6894 ] final -151.56 input  -60.11 | X-H torsion
[ 7974 7965 7964 7962 ] final    8.73 input  175.53 | X-H torsion
[ 8008 7997 7996 7995 ] final -143.31 input   59.86 | X-H torsion
[ 10167 10162 10161 10158 ] final -111.87 input  -65.29 | X-H torsion
[ 10718 10713 10712 10709 ] final  174.23 input   66.30 | X-H torsion
[ 10763 10752 10751 10750 ] final  -54.49 input  -60.55 | X-H torsion
[ 11005 11000 10999 10996 ] final  164.91 input  -57.11 | X-H torsion

> <Gold.Protein.ActiveResidues>
 VAL166  LYS551  ARG553  GLY616  TRP617  ASP618  TYR619  PRO620  LYS621  CYS622 
 ASP623  PHE694  ASN695  SER759  ASP760  ASP761  ALA762  ILE779  LEU786  VAL792 
 PHE793  MET794  SER795  GLU796  ALA797  LYS798  CYS799  TRP800  GLU811  SER814 

> <Gold.Protein.RotatedAtoms>
  151.2149  133.4535  159.2598 H   0  0  0  0  0  0  0  0  0  0  0  0  # atno 6907 bound_to 6896
  151.0941  134.9934  159.8427 H   0  0  0  0  0  0  0  0  0  0  0  0  # atno 6908 bound_to 6896
  152.5437  134.2080  159.8791 H   0  0  0  0  0  0  0  0  0  0  0  0  # atno 6909 bound_to 6896
  146.2412  139.9889  142.8428 H   0  0  0  0  0  0  0  0  0  0  0  0  # atno 7974 bound_to 7965
  155.5086  140.0581  157.2927 H   0  0  0  0  0  0  0  0  0  0  0  0  # atno 8008 bound_to 7997
  154.4560  140.1973  156.0327 H   0  0  0  0  0  0  0  0  0  0  0  0  # atno 8009 bound_to 7997
  156.0800  140.3248  155.7686 H   0  0  0  0  0  0  0  0  0  0  0  0  # atno 8010 bound_to 7997
  140.1289  143.4378  152.1641 H   0  0  0  0  0  0  0  0  0  0  0  0  # atno 10167 bound_to 10162
  156.9526  131.0036  151.2945 H   0  0  0  0  0  0  0  0  0  0  0  0  # atno 10718 bound_to 10713
  154.1757  135.6451  153.5021 H   0  0  0  0  0  0  0  0  0  0  0  0  # atno 10763 bound_to 10752
  153.0072  135.5394  154.6566 H   0  0  0  0  0  0  0  0  0  0  0  0  # atno 10764 bound_to 10752
  154.5917  135.2935  155.0601 H   0  0  0  0  0  0  0  0  0  0  0  0  # atno 10765 bound_to 10752
  140.2507  134.7979  157.3499 H   0  0  0  0  0  0  0  0  0  0  0  0  # atno 11005 bound_to 11000
  145.1521  140.9628  143.4426 LP  0  0  0  0  0  0  0  0  0  0  0  0  # atno 17320 bound_to 7965
  145.0195  139.3437  143.6079 LP  0  0  0  0  0  0  0  0  0  0  0  0  # atno 17321 bound_to 7965
  139.5530  144.7352  151.4378 LP  0  0  0  0  0  0  0  0  0  0  0  0  # atno 17342 bound_to 10162
  140.6829  143.8041  150.7145 LP  0  0  0  0  0  0  0  0  0  0  0  0  # atno 17343 bound_to 10162
  157.5711  130.8311  149.8393 LP  0  0  0  0  0  0  0  0  0  0  0  0  # atno 17370 bound_to 10713
  156.0356  130.3752  150.1570 LP  0  0  0  0  0  0  0  0  0  0  0  0  # atno 17371 bound_to 10713
  140.1561  134.4788  155.7927 LP  0  0  0  0  0  0  0  0  0  0  0  0  # atno 17394 bound_to 11000
  141.2201  133.6882  156.7463 LP  0  0  0  0  0  0  0  0  0  0  0  0  # atno 17395 bound_to 11000

$$$$
