AV-unprocessed.smi:1889|AV-procd|sdf|7662|dock7
  -GOLD-   22720 9393D 1   1.00000     0.00000
 Structure written by MMmdl.
 35 36  0  0  0  0  0  0  0  0  2 V2000
  150.7238  144.6769  158.8302 C   0  0  0  0  0  0  0  0  0  0  0  0
  151.9133  145.2965  159.5717 C   0  0  0  0  0  0  0  0  0  0  0  0
  152.3606  144.4546  160.7749 C   0  0  0  0  0  0  0  0  0  0  0  0
  152.9396  143.1402  160.3700 C   0  0  0  0  0  0  0  0  0  0  0  0
  153.6044  142.3498  161.2167 N   0  0  0  0  0  0  0  0  0  0  0  0
  154.0710  141.1983  160.5999 N   0  0  0  0  0  0  0  0  0  0  0  0
  153.7749  141.1442  159.2936 C   0  0  0  0  0  0  0  0  0  0  0  0
  154.1371  140.1100  158.5166 N   0  5  0  0  0  0  0  0  0  0  0  0
  153.2101  139.2132  158.1095 C   0  0  0  0  0  0  0  0  0  0  0  0
  152.1382  138.9646  158.6667 O   0  0  0  0  0  0  0  0  0  0  0  0
  153.5450  138.5620  156.9879 N   0  0  0  0  0  0  0  0  0  0  0  0
  152.7300  137.5478  156.3302 C   0  0  0  0  0  0  0  0  0  0  0  0
  152.1070  138.0930  155.0343 C   0  0  1  0  0  0  0  0  0  0  0  0
  150.8612  137.3398  154.5820 C   0  0  0  0  0  0  0  0  0  0  0  0
  149.9307  138.4305  154.0403 C   0  0  0  0  0  0  0  0  0  0  0  0
  150.7015  139.6237  154.0420 O   0  0  0  0  0  0  0  0  0  0  0  0
  151.6126  139.5362  155.1241 C   0  0  0  0  0  0  0  0  0  0  0  0
  152.8577  142.5383  158.7230 S   0  0  0  0  0  0  0  0  0  0  0  0
  150.4266  145.2987  157.9855 H   0  0  0  0  0  0  0  0  0  0  0  0
  149.8605  144.5738  159.4879 H   0  0  0  0  0  0  0  0  0  0  0  0
  150.9724  143.6880  158.4443 H   0  0  0  0  0  0  0  0  0  0  0  0
  152.7467  145.4150  158.8782 H   0  0  0  0  0  0  0  0  0  0  0  0
  151.6454  146.2991  159.9068 H   0  0  0  0  0  0  0  0  0  0  0  0
  153.1027  144.9994  161.3598 H   0  0  0  0  0  0  0  0  0  0  0  0
  151.5149  144.2701  161.4381 H   0  0  0  0  0  0  0  0  0  0  0  0
  154.4300  138.7917  156.5602 H   0  0  0  0  0  0  0  0  0  0  0  0
  153.3540  136.6814  156.1071 H   0  0  0  0  0  0  0  0  0  0  0  0
  151.9462  137.2123  157.0113 H   0  0  0  0  0  0  0  0  0  0  0  0
  152.8435  138.0385  154.2310 H   0  0  0  0  0  0  0  0  0  0  0  0
  151.1075  136.6005  153.8194 H   0  0  0  0  0  0  0  0  0  0  0  0
  150.3806  136.8153  155.4090 H   0  0  0  0  0  0  0  0  0  0  0  0
  149.5623  138.2070  153.0389 H   0  0  0  0  0  0  0  0  0  0  0  0
  149.0699  138.5589  154.6981 H   0  0  0  0  0  0  0  0  0  0  0  0
  151.0875  139.7204  156.0631 H   0  0  0  0  0  0  0  0  0  0  0  0
  152.4178  140.2652  155.0291 H   0  0  0  0  0  0  0  0  0  0  0  0
  1  2  1  0  0  0  0
  1 19  1  0  0  0  0
  1 20  1  0  0  0  0
  1 21  1  0  0  0  0
  2  3  1  0  0  0  0
  2 22  1  0  0  0  0
  2 23  1  0  0  0  0
  3  4  1  0  0  0  0
  3 24  1  0  0  0  0
  3 25  1  0  0  0  0
  4 18  1  0  0  0  0
  4  5  2  0  0  0  0
  5  6  1  0  0  0  0
  6  7  2  0  0  0  0
  7  8  1  0  0  0  0
  7 18  1  0  0  0  0
  8  9  1  0  0  0  0
  9 10  2  0  0  0  0
  9 11  1  0  0  0  0
 11 12  1  0  0  0  0
 11 26  1  0  0  0  0
 12 13  1  0  0  0  0
 12 27  1  0  0  0  0
 12 28  1  0  0  0  0
 13 17  1  0  0  0  0
 13 14  1  0  0  0  0
 13 29  1  0  0  0  0
 14 15  1  0  0  0  0
 14 30  1  0  0  0  0
 14 31  1  0  0  0  0
 15 16  1  0  0  0  0
 15 32  1  0  0  0  0
 15 33  1  0  0  0  0
 16 17  1  0  0  0  0
 17 34  1  0  0  0  0
 17 35  1  0  0  0  0
M  CHG  1   8  -1
M  END
> <s_m_source_file>
AV-unprocessed.smi

> <i_m_source_file_index>
1889

> <i_lp_mmshare_version>
43012

> <i_f3d_flags>
0

> <s_epik_input>
W0NIM11bQ0gyXVtDSDJdYzFubmMoczEpW05IXUMoPU8pW05IXVtDSDJdW0NAQEhdMltDSDJdW0NIMl1PW0NIMl0y

> <s_epik_cmdline>
J2VwaWtfcHl0aG9uJywgJy1waCcsICc3LjAnLCAnLXRuJywgJzgnLCAnLW1hJywgJzIwMCcsICctbWV0YWxfYmluZGluZycsICctaW1hZScsICc8aW5maWxlLm1hZT4nLCAnLW9tYWUnLCAnPG91dGZpbGUubWFlPic=

> <r_lp_tautomer_probability>
1

> <r_epik_Ionization_Penalty>
4.29669

> <r_epik_Ionization_Penalty_Charging>
4.28522

> <r_epik_Ionization_Penalty_Neutral>
0.0114689

> <r_epik_State_Penalty>
4.28479

> <r_epik_Charging_Adjusted_Penalty>
8.57002

> <i_epik_Tot_Q>
-1

> <i_epik_Tot_abs_Q>
1

> <r_epik_Metal_State_Penalty>
0.72177

> <b_epik_Metal_Only>
1

> <s_lp_Force_Field>
OPLS_2005

> <r_lp_Energy>
12.2609

> <b_lp_Chiralities_Consistent>
1

> <s_lp_Variant>
AV-unprocessed.smi:1889-4

> <Gold.Version>
5.8.1

> <Gold.Id.Protein>
6NUR|6NUR_protein|mol2

> <Gold.PLP.Fitness>
44.1759

> <Gold.PLP.PLP>
-37.7845

> <Gold.PLP.part.hbond>
-2.0000

> <Gold.PLP.part.metal>
0.0000

> <Gold.PLP.part.buried>
-5.7821

> <Gold.PLP.part.nonpolar>
-30.8379

> <Gold.PLP.part.repulsive>
1.2500

> <Gold.PLP.ligand.clash>
0.0000

> <Gold.PLP.ligand.torsion>
1.2156

> <Gold.PLP.Chemscore.Hbond>
2.9000

> <Gold.PLP.Chemscore.CHOScore>
0.0000

> <Gold.PLP.Chemscore.Metal>
0.0000

> <Gold.Chemscore.Hbonds>
donor molecule, donor type, donor heavy atom, donor atom, acceptor molecule, acceptor atom, score
      P1  H  7989  7998       L1    16  0.35
      P1  H  7997  8010       L1     8  1.44

> <Gold.PLP.Chemscore.Internal.Correction>
0.1226

> <Gold.Rescore>
     Score         DG    S(hbond)    S(metal)    S(lipo)     H(rot)  DE(clash)    DE(int)     intcor
     14.08     -15.52       0.94        0.00      93.78       1.59       0.22       1.22       ----

> <Gold.Chemscore.Fitness>
14.0833

> <Gold.Chemscore.DG>
-15.5239

> <Gold.Chemscore.ZeroCoef>
-5.4800

> <Gold.Chemscore.Hbond>
0.9423

> <Gold.Chemscore.Metal>
0.0000

> <Gold.Chemscore.Lipo>
93.7827

> <Gold.Chemscore.Internal_Hbond>
0.0000

> <Gold.Chemscore.DEClash>
0.2228

> <Gold.Chemscore.DEInternal>
1.2178

> <Gold.Chemscore.Rot>
1.5922

> <Gold.Chemscore.Internal.Correction>
   9.000000E+99

> <Gold.Chemscore.Hbonds>
donor molecule, donor type, donor heavy atom, donor atom, acceptor molecule, acceptor atom, score
      P1  H  7989  7998       L1    16  0.01
      P1  H  7997  8010       L1     8  0.13

> <Gold.Chemscore.Hbond.Weighted>
-3.1474

> <Gold.Chemscore.Metal.Weighted>
-0.0000

> <Gold.Chemscore.Lipo.Weighted>
-10.9726

> <Gold.Chemscore.Internal_Hbond.Weighted>
0.0000

> <Gold.Chemscore.DEClash.Weighted>
0.2228

> <Gold.Chemscore.DEInternal.Weighted>
1.2178

> <Gold.Chemscore.Rot.Weighted>
4.0761

> <Gold.Chemscore.Internal.Correction.Weighted>
   9.000000E+99

> <Gold.Protein.RotatedTorsions>
[ 6907 6896 6895 6894 ] final  167.86 input  -60.11 | X-H torsion
[ 7974 7965 7964 7962 ] final -118.32 input  175.53 | X-H torsion
[ 8008 7997 7996 7995 ] final    2.00 input   59.86 | X-H torsion
[ 10167 10162 10161 10158 ] final  -12.79 input  -65.29 | X-H torsion
[ 10718 10713 10712 10709 ] final   32.10 input   66.30 | X-H torsion
[ 10763 10752 10751 10750 ] final  126.02 input  -60.55 | X-H torsion
[ 11005 11000 10999 10996 ] final  103.65 input  -57.11 | X-H torsion

> <Gold.Protein.ActiveResidues>
 VAL166  LYS551  ARG553  GLY616  TRP617  ASP618  TYR619  PRO620  LYS621  CYS622 
 ASP623  PHE694  ASN695  SER759  ASP760  ASP761  ALA762  ILE779  LEU786  VAL792 
 PHE793  MET794  SER795  GLU796  ALA797  LYS798  CYS799  TRP800  GLU811  SER814 

> <Gold.Protein.RotatedAtoms>
  151.8568  133.3450  159.3690 H   0  0  0  0  0  0  0  0  0  0  0  0  # atno 6907 bound_to 6896
  150.7190  134.5245  159.5679 H   0  0  0  0  0  0  0  0  0  0  0  0  # atno 6908 bound_to 6896
  152.2750  134.7891  160.0458 H   0  0  0  0  0  0  0  0  0  0  0  0  # atno 6909 bound_to 6896
  145.0752  140.8387  143.4072 H   0  0  0  0  0  0  0  0  0  0  0  0  # atno 7974 bound_to 7965
  154.6864  140.2644  155.6856 H   0  0  0  0  0  0  0  0  0  0  0  0  # atno 8008 bound_to 7997
  156.2716  140.2800  156.1350 H   0  0  0  0  0  0  0  0  0  0  0  0  # atno 8009 bound_to 7997
  155.0958  140.0374  157.2672 H   0  0  0  0  0  0  0  0  0  0  0  0  # atno 8010 bound_to 7997
  140.7169  143.5495  150.9317 H   0  0  0  0  0  0  0  0  0  0  0  0  # atno 10167 bound_to 10162
  157.2810  130.7255  149.6556 H   0  0  0  0  0  0  0  0  0  0  0  0  # atno 10718 bound_to 10713
  153.6866  135.3305  155.3192 H   0  0  0  0  0  0  0  0  0  0  0  0  # atno 10763 bound_to 10752
  154.8451  135.4422  154.1551 H   0  0  0  0  0  0  0  0  0  0  0  0  # atno 10764 bound_to 10752
  153.2581  135.6988  153.7684 H   0  0  0  0  0  0  0  0  0  0  0  0  # atno 10765 bound_to 10752
  139.8785  134.9271  156.5242 H   0  0  0  0  0  0  0  0  0  0  0  0  # atno 11005 bound_to 11000
  145.1244  139.2672  143.5572 LP  0  0  0  0  0  0  0  0  0  0  0  0  # atno 17320 bound_to 7965
  146.3530  140.0877  142.8614 LP  0  0  0  0  0  0  0  0  0  0  0  0  # atno 17321 bound_to 7965
  139.9219  143.6596  152.3095 LP  0  0  0  0  0  0  0  0  0  0  0  0  # atno 17342 bound_to 10162
  139.7016  144.7634  151.1264 LP  0  0  0  0  0  0  0  0  0  0  0  0  # atno 17343 bound_to 10162
  155.9664  130.4338  150.5022 LP  0  0  0  0  0  0  0  0  0  0  0  0  # atno 17370 bound_to 10713
  157.2966  131.0637  151.2097 LP  0  0  0  0  0  0  0  0  0  0  0  0  # atno 17371 bound_to 10713
  140.8428  133.8192  155.9092 LP  0  0  0  0  0  0  0  0  0  0  0  0  # atno 17394 bound_to 11000
  140.9220  134.2129  157.4920 LP  0  0  0  0  0  0  0  0  0  0  0  0  # atno 17395 bound_to 11000

$$$$
