AV-unprocessed.smi:493|AV-procd|sdf|2712|dock4
  -GOLD-   2262023153D 1   1.00000     0.00000
 Structure written by MMmdl.
 46 47  0  0  0  0  0  0  0  0  1 V2000
  145.2598  132.2826  152.1118 C   0  0  0  0  0  0  0  0  0  0  0  0
  146.0539  132.7745  150.8889 C   0  0  0  0  0  0  0  0  0  0  0  0
  145.8073  131.8095  149.7102 C   0  0  0  0  0  0  0  0  0  0  0  0
  145.5871  134.2010  150.5294 C   0  0  0  0  0  0  0  0  0  0  0  0
  147.4709  132.7741  151.2722 N   0  0  0  0  0  0  0  0  0  0  0  0
  148.0888  133.5345  152.1933 C   0  0  0  0  0  0  0  0  0  0  0  0
  147.5196  134.3956  152.8649 O   0  0  0  0  0  0  0  0  0  0  0  0
  149.5946  133.2848  152.3588 C   0  0  0  0  0  0  0  0  0  0  0  0
  150.2476  134.2513  153.2571 N   0  0  0  0  0  0  0  0  0  0  0  0
  150.1638  135.6121  152.9042 C   0  0  0  0  0  0  0  0  0  0  0  0
  150.7016  136.5755  153.6700 C   0  0  0  0  0  0  0  0  0  0  0  0
  150.6980  138.2997  153.1166 S   0  0  0  0  0  0  0  0  0  0  0  0
  151.3380  138.3296  151.7925 O   0  0  0  0  0  0  0  0  0  0  0  0
  149.3323  138.8216  153.2831 O   0  0  0  0  0  0  0  0  0  0  0  0
  151.7184  139.1746  154.2086 N   0  0  0  0  0  0  0  0  0  0  0  0
  152.9189  139.8204  153.6611 C   0  0  0  0  0  0  0  0  0  0  0  0
  152.8331  141.2848  154.0890 C   0  0  0  0  0  0  0  0  0  0  0  0
  152.0821  141.2125  155.4096 C   0  0  0  0  0  0  0  0  0  0  0  0
  151.0834  140.0786  155.1799 C   0  0  0  0  0  0  0  0  0  0  0  0
  151.4364  136.1854  154.8505 C   0  0  0  0  0  0  0  0  0  0  0  0
  151.5347  134.8840  155.1872 C   0  0  0  0  0  0  0  0  0  0  0  0
  150.9102  133.8299  154.3788 C   0  0  0  0  0  0  0  0  0  0  0  0
  150.9808  132.6405  154.6894 O   0  0  0  0  0  0  0  0  0  0  0  0
  144.1890  132.2576  151.9057 H   0  0  0  0  0  0  0  0  0  0  0  0
  145.4116  132.9334  152.9740 H   0  0  0  0  0  0  0  0  0  0  0  0
  145.5604  131.2755  152.4037 H   0  0  0  0  0  0  0  0  0  0  0  0
  146.1655  130.8049  149.9374 H   0  0  0  0  0  0  0  0  0  0  0  0
  146.3053  132.1390  148.7984 H   0  0  0  0  0  0  0  0  0  0  0  0
  144.7439  131.7335  149.4816 H   0  0  0  0  0  0  0  0  0  0  0  0
  144.5138  134.2258  150.3384 H   0  0  0  0  0  0  0  0  0  0  0  0
  146.0781  134.5793  149.6327 H   0  0  0  0  0  0  0  0  0  0  0  0
  145.7922  134.9031  151.3385 H   0  0  0  0  0  0  0  0  0  0  0  0
  148.0495  132.1079  150.7816 H   0  0  0  0  0  0  0  0  0  0  0  0
  149.7572  132.2681  152.7220 H   0  0  0  0  0  0  0  0  0  0  0  0
  150.0524  133.3105  151.3691 H   0  0  0  0  0  0  0  0  0  0  0  0
  149.6436  135.8164  151.9797 H   0  0  0  0  0  0  0  0  0  0  0  0
  153.8000  139.3414  154.0894 H   0  0  0  0  0  0  0  0  0  0  0  0
  152.9706  139.7174  152.5764 H   0  0  0  0  0  0  0  0  0  0  0  0
  153.8113  141.7577  154.1815 H   0  0  0  0  0  0  0  0  0  0  0  0
  152.2502  141.8508  153.3610 H   0  0  0  0  0  0  0  0  0  0  0  0
  152.7701  140.9456  156.2130 H   0  0  0  0  0  0  0  0  0  0  0  0
  151.6000  142.1534  155.6760 H   0  0  0  0  0  0  0  0  0  0  0  0
  150.1587  140.4750  154.7587 H   0  0  0  0  0  0  0  0  0  0  0  0
  150.8370  139.5498  156.1009 H   0  0  0  0  0  0  0  0  0  0  0  0
  151.9064  136.9361  155.4683 H   0  0  0  0  0  0  0  0  0  0  0  0
  152.0852  134.6080  156.0745 H   0  0  0  0  0  0  0  0  0  0  0  0
  1  2  1  0  0  0  0
  1 24  1  0  0  0  0
  1 25  1  0  0  0  0
  1 26  1  0  0  0  0
  2  3  1  0  0  0  0
  2  4  1  0  0  0  0
  2  5  1  0  0  0  0
  3 27  1  0  0  0  0
  3 28  1  0  0  0  0
  3 29  1  0  0  0  0
  4 30  1  0  0  0  0
  4 31  1  0  0  0  0
  4 32  1  0  0  0  0
  5  6  1  0  0  0  0
  5 33  1  0  0  0  0
  6  7  2  0  0  0  0
  6  8  1  0  0  0  0
  8  9  1  0  0  0  0
  8 34  1  0  0  0  0
  8 35  1  0  0  0  0
  9 22  1  0  0  0  0
  9 10  1  0  0  0  0
 10 11  2  0  0  0  0
 10 36  1  0  0  0  0
 11 12  1  0  0  0  0
 11 20  1  0  0  0  0
 12 13  2  0  0  0  0
 12 14  2  0  0  0  0
 12 15  1  0  0  0  0
 15 19  1  0  0  0  0
 15 16  1  0  0  0  0
 16 17  1  0  0  0  0
 16 37  1  0  0  0  0
 16 38  1  0  0  0  0
 17 18  1  0  0  0  0
 17 39  1  0  0  0  0
 17 40  1  0  0  0  0
 18 19  1  0  0  0  0
 18 41  1  0  0  0  0
 18 42  1  0  0  0  0
 19 43  1  0  0  0  0
 19 44  1  0  0  0  0
 20 21  2  0  0  0  0
 20 45  1  0  0  0  0
 21 22  1  0  0  0  0
 21 46  1  0  0  0  0
 22 23  2  0  0  0  0
M  END
> <s_m_source_file>
AV-unprocessed.smi

> <i_m_source_file_index>
493

> <i_lp_mmshare_version>
43012

> <i_f3d_flags>
0

> <s_epik_input>
W0NIM11DKFtDSDNdKShbQ0gzXSlbTkhdQyg9TylbQ0gyXW4xW2NIXWMoW2NIXVtjSF1jMT1PKVMoPU8pKD1PKU4yW0NIMl1bQ0gyXVtDSDJdW0NIMl0y

> <s_epik_cmdline>
J2VwaWtfcHl0aG9uJywgJy1waCcsICc3LjAnLCAnLXRuJywgJzgnLCAnLW1hJywgJzIwMCcsICctbWV0YWxfYmluZGluZycsICctaW1hZScsICc8aW5maWxlLm1hZT4nLCAnLW9tYWUnLCAnPG91dGZpbGUubWFlPic=

> <r_lp_tautomer_probability>
1

> <r_epik_Ionization_Penalty>
3.47616e-08

> <r_epik_Ionization_Penalty_Charging>
1.01201e-08

> <r_epik_Ionization_Penalty_Neutral>
2.46415e-08

> <r_epik_State_Penalty>
-0

> <r_epik_Charging_Adjusted_Penalty>
1.01201e-08

> <i_epik_Tot_Q>
0

> <i_epik_Tot_abs_Q>
0

> <r_epik_Metal_State_Penalty>
-0

> <b_epik_Metal_Only>
0

> <s_lp_Force_Field>
OPLS_2005

> <r_lp_Energy>
19.4052

> <b_lp_Chiralities_Consistent>
1

> <s_lp_Variant>
AV-unprocessed.smi:493-1

> <Gold.Version>
5.8.1

> <Gold.Id.Protein>
6NUR|6NUR_protein|mol2

> <Gold.PLP.Fitness>
42.2148

> <Gold.PLP.PLP>
-35.1982

> <Gold.PLP.part.hbond>
-2.0000

> <Gold.PLP.part.metal>
0.0000

> <Gold.PLP.part.buried>
-5.4289

> <Gold.PLP.part.nonpolar>
-28.1107

> <Gold.PLP.part.repulsive>
0.5633

> <Gold.PLP.ligand.clash>
0.0000

> <Gold.PLP.ligand.torsion>
1.5852

> <Gold.PLP.Chemscore.Hbond>
2.0000

> <Gold.PLP.Chemscore.CHOScore>
0.5724

> <Gold.PLP.Chemscore.Metal>
0.0000

> <Gold.Chemscore.Hbonds>
donor molecule, donor type, donor heavy atom, donor atom, acceptor molecule, acceptor atom, score
      L1  H     5    33       P1 10747  1.00

> <Gold.PLP.Chemscore.Internal.Correction>
2.4696

> <Gold.Rescore>
     Score         DG    S(hbond)    S(metal)    S(lipo)     H(rot)  DE(clash)    DE(int)     intcor
     14.96     -16.63       2.00        0.00      73.76       1.62       0.01       1.65       ----

> <Gold.Chemscore.Fitness>
14.9638

> <Gold.Chemscore.DG>
-16.6267

> <Gold.Chemscore.ZeroCoef>
-5.4800

> <Gold.Chemscore.Hbond>
1.9968

> <Gold.Chemscore.Metal>
0.0000

> <Gold.Chemscore.Lipo>
73.7629

> <Gold.Chemscore.Internal_Hbond>
0.0000

> <Gold.Chemscore.DEClash>
0.0121

> <Gold.Chemscore.DEInternal>
1.6508

> <Gold.Chemscore.Rot>
1.6222

> <Gold.Chemscore.Internal.Correction>
   9.000000E+99

> <Gold.Chemscore.Hbonds>
donor molecule, donor type, donor heavy atom, donor atom, acceptor molecule, acceptor atom, score
      L1  H     5    33       P1 10747  0.99

> <Gold.Chemscore.Hbond.Weighted>
-6.6693

> <Gold.Chemscore.Metal.Weighted>
-0.0000

> <Gold.Chemscore.Lipo.Weighted>
-8.6303

> <Gold.Chemscore.Internal_Hbond.Weighted>
0.0000

> <Gold.Chemscore.DEClash.Weighted>
0.0121

> <Gold.Chemscore.DEInternal.Weighted>
1.6508

> <Gold.Chemscore.Rot.Weighted>
4.1528

> <Gold.Chemscore.Internal.Correction.Weighted>
   9.000000E+99

> <Gold.Protein.RotatedTorsions>
[ 6907 6896 6895 6894 ] final -172.16 input  -60.11 | X-H torsion
[ 7974 7965 7964 7962 ] final  154.53 input  175.53 | X-H torsion
[ 8008 7997 7996 7995 ] final  103.46 input   59.86 | X-H torsion
[ 10167 10162 10161 10158 ] final   91.82 input  -65.29 | X-H torsion
[ 10718 10713 10712 10709 ] final  120.90 input   66.30 | X-H torsion
[ 10763 10752 10751 10750 ] final  157.14 input  -60.55 | X-H torsion
[ 11005 11000 10999 10996 ] final  141.12 input  -57.11 | X-H torsion

> <Gold.Protein.ActiveResidues>
 VAL166  LYS551  ARG553  GLY616  TRP617  ASP618  TYR619  PRO620  LYS621  CYS622 
 ASP623  PHE694  ASN695  SER759  ASP760  ASP761  ALA762  ILE779  LEU786  VAL792 
 PHE793  MET794  SER795  GLU796  ALA797  LYS798  CYS799  TRP800  GLU811  SER814 

> <Gold.Protein.RotatedAtoms>
  151.5355  133.3441  159.2925 H   0  0  0  0  0  0  0  0  0  0  0  0  # atno 6907 bound_to 6896
  150.8567  134.7910  159.7062 H   0  0  0  0  0  0  0  0  0  0  0  0  # atno 6908 bound_to 6896
  152.4599  134.5217  159.9836 H   0  0  0  0  0  0  0  0  0  0  0  0  # atno 6909 bound_to 6896
  144.8083  139.6946  143.6153 H   0  0  0  0  0  0  0  0  0  0  0  0  # atno 7974 bound_to 7965
  156.1486  140.3164  155.8610 H   0  0  0  0  0  0  0  0  0  0  0  0  # atno 8008 bound_to 7997
  155.4016  140.0500  157.3053 H   0  0  0  0  0  0  0  0  0  0  0  0  # atno 8009 bound_to 7997
  154.5038  140.2139  155.9305 H   0  0  0  0  0  0  0  0  0  0  0  0  # atno 8010 bound_to 7997
  139.8337  144.6675  150.9368 H   0  0  0  0  0  0  0  0  0  0  0  0  # atno 10167 bound_to 10162
  157.5857  131.1070  150.8099 H   0  0  0  0  0  0  0  0  0  0  0  0  # atno 10718 bound_to 10713
  154.1956  135.2793  155.3008 H   0  0  0  0  0  0  0  0  0  0  0  0  # atno 10763 bound_to 10752
  154.5895  135.5564  153.7267 H   0  0  0  0  0  0  0  0  0  0  0  0  # atno 10764 bound_to 10752
  153.0101  135.6364  154.2094 H   0  0  0  0  0  0  0  0  0  0  0  0  # atno 10765 bound_to 10752
  140.0378  134.9320  157.0786 H   0  0  0  0  0  0  0  0  0  0  0  0  # atno 11005 bound_to 11000
  146.2377  139.5939  142.9512 LP  0  0  0  0  0  0  0  0  0  0  0  0  # atno 17320 bound_to 7965
  145.5386  141.0422  143.2343 LP  0  0  0  0  0  0  0  0  0  0  0  0  # atno 17321 bound_to 7965
  140.7804  143.3977  151.1202 LP  0  0  0  0  0  0  0  0  0  0  0  0  # atno 17342 bound_to 10162
  139.7628  143.8609  152.3104 LP  0  0  0  0  0  0  0  0  0  0  0  0  # atno 17343 bound_to 10162
  156.8534  130.5088  149.5310 LP  0  0  0  0  0  0  0  0  0  0  0  0  # atno 17370 bound_to 10713
  156.0906  130.5893  150.9726 LP  0  0  0  0  0  0  0  0  0  0  0  0  # atno 17371 bound_to 10713
  140.4119  134.1972  155.7163 LP  0  0  0  0  0  0  0  0  0  0  0  0  # atno 17394 bound_to 11000
  141.1867  133.8297  157.1060 LP  0  0  0  0  0  0  0  0  0  0  0  0  # atno 17395 bound_to 11000

$$$$
