AV-unprocessed.smi:2344|AV-procd|sdf|9360|dock6
  -GOLD-   2272012583D 1   1.00000     0.00000
 Structure written by MMmdl.
 35 36  0  0  0  0  0  0  0  0  1 V2000
  153.8896  142.9044  163.9631 C   0  0  0  0  0  0  0  0  0  0  0  0
  153.4267  142.5200  162.5736 C   0  0  0  0  0  0  0  0  0  0  0  0
  152.5074  143.3173  161.8661 C   0  0  0  0  0  0  0  0  0  0  0  0
  152.1117  142.9144  160.5761 C   0  0  0  0  0  0  0  0  0  0  0  0
  152.6434  141.7273  160.0242 C   0  0  0  0  0  0  0  0  0  0  0  0
  152.1780  141.4096  158.7205 N   0  0  0  0  0  0  0  0  0  0  0  0
  152.5061  140.3543  157.9546 C   0  0  0  0  0  0  0  0  0  0  0  0
  153.2953  139.4623  158.2682 O   0  0  0  0  0  0  0  0  0  0  0  0
  151.8627  140.3902  156.7792 N   0  0  0  0  0  0  0  0  0  0  0  0
  152.0218  139.4099  155.7114 C   0  0  1  0  0  0  0  0  0  0  0  0
  151.4988  138.0688  156.1510 C   0  0  0  0  0  0  0  0  0  0  0  0
  150.5197  137.6163  155.3709 C   0  0  0  0  0  0  0  0  0  0  0  0
  150.1795  138.5703  154.2553 C   0  0  1  0  0  0  0  0  0  0  0  0
  148.6945  138.9812  154.2445 C   0  0  0  0  0  0  0  0  0  0  0  0
  148.4350  139.9835  153.2806 O   0  0  0  0  0  0  0  0  0  0  0  0
  151.1661  139.7485  154.4614 C   0  0  0  0  0  0  0  0  0  0  0  0
  153.5301  140.9666  160.7133 N   0  0  0  0  0  0  0  0  0  0  0  0
  153.9092  141.3534  161.9492 C   0  0  0  0  0  0  0  0  0  0  0  0
  153.0753  139.3040  155.4466 H   0  0  0  0  0  0  0  0  0  0  0  0
  150.4113  138.0693  153.3147 H   0  0  0  0  0  0  0  0  0  0  0  0
  153.1856  143.5907  164.4346 H   0  0  0  0  0  0  0  0  0  0  0  0
  154.8637  143.3911  163.9137 H   0  0  0  0  0  0  0  0  0  0  0  0
  153.9778  142.0216  164.5969 H   0  0  0  0  0  0  0  0  0  0  0  0
  152.1103  144.2228  162.3008 H   0  0  0  0  0  0  0  0  0  0  0  0
  151.4064  143.5145  160.0195 H   0  0  0  0  0  0  0  0  0  0  0  0
  151.5213  142.0647  158.3230 H   0  0  0  0  0  0  0  0  0  0  0  0
  151.2344  141.1596  156.6000 H   0  0  0  0  0  0  0  0  0  0  0  0
  151.9020  137.5466  157.0063 H   0  0  0  0  0  0  0  0  0  0  0  0
  150.0071  136.6744  155.4994 H   0  0  0  0  0  0  0  0  0  0  0  0
  148.0655  138.1165  154.0318 H   0  0  0  0  0  0  0  0  0  0  0  0
  148.3998  139.3560  155.2252 H   0  0  0  0  0  0  0  0  0  0  0  0
  148.8730  139.7479  152.4769 H   0  0  0  0  0  0  0  0  0  0  0  0
  150.6381  140.6965  154.5764 H   0  0  0  0  0  0  0  0  0  0  0  0
  151.8081  139.8596  153.5869 H   0  0  0  0  0  0  0  0  0  0  0  0
  154.6176  140.7120  162.4527 H   0  0  0  0  0  0  0  0  0  0  0  0
  1  2  1  0  0  0  0
  1 21  1  0  0  0  0
  1 22  1  0  0  0  0
  1 23  1  0  0  0  0
  2 18  1  0  0  0  0
  2  3  2  0  0  0  0
  3  4  1  0  0  0  0
  3 24  1  0  0  0  0
  4  5  2  0  0  0  0
  4 25  1  0  0  0  0
  5  6  1  0  0  0  0
  5 17  1  0  0  0  0
  6  7  1  0  0  0  0
  6 26  1  0  0  0  0
  7  8  2  0  0  0  0
  7  9  1  0  0  0  0
  9 10  1  0  0  0  0
  9 27  1  0  0  0  0
 10 19  1  0  0  0  0
 10 16  1  0  0  0  0
 10 11  1  0  0  0  0
 11 12  2  0  0  0  0
 11 28  1  0  0  0  0
 12 13  1  0  0  0  0
 12 29  1  0  0  0  0
 13 20  1  0  0  0  0
 13 14  1  0  0  0  0
 13 16  1  0  0  0  0
 14 15  1  0  0  0  0
 14 30  1  0  0  0  0
 14 31  1  0  0  0  0
 15 32  1  0  0  0  0
 16 33  1  0  0  0  0
 16 34  1  0  0  0  0
 17 18  2  0  0  0  0
 18 35  1  0  0  0  0
M  END
> <s_m_source_file>
AV-unprocessed.smi

> <i_m_source_file_index>
2344

> <i_lp_mmshare_version>
43012

> <i_f3d_flags>
0

> <s_epik_input>
W0NIM11jMVtjSF1bY0hdYyhuW2NIXTEpW05IXUMoPU8pW05IXVtDQEBIXTJbQ0hdPVtDSF1bQ0BASF0oW0NIMl0yKVtDSDJdW09IXQ==

> <s_epik_cmdline>
J2VwaWtfcHl0aG9uJywgJy1waCcsICc3LjAnLCAnLXRuJywgJzgnLCAnLW1hJywgJzIwMCcsICctbWV0YWxfYmluZGluZycsICctaW1hZScsICc8aW5maWxlLm1hZT4nLCAnLW9tYWUnLCAnPG91dGZpbGUubWFlPic=

> <r_lp_tautomer_probability>
1

> <r_epik_Ionization_Penalty>
5.7643e-05

> <r_epik_Ionization_Penalty_Charging>
0

> <r_epik_Ionization_Penalty_Neutral>
5.7643e-05

> <r_epik_State_Penalty>
-0

> <r_epik_Charging_Adjusted_Penalty>
0

> <i_epik_Tot_Q>
0

> <i_epik_Tot_abs_Q>
0

> <r_epik_Metal_State_Penalty>
-0

> <b_epik_Metal_Only>
0

> <s_lp_Force_Field>
OPLS_2005

> <r_lp_Energy>
18.1017

> <b_lp_Chiralities_Consistent>
1

> <s_lp_Variant>
AV-unprocessed.smi:2344-4

> <Gold.Version>
5.8.1

> <Gold.Id.Protein>
6NUR|6NUR_protein|mol2

> <Gold.PLP.Fitness>
42.8050

> <Gold.PLP.PLP>
-36.8623

> <Gold.PLP.part.hbond>
-2.0000

> <Gold.PLP.part.metal>
0.0000

> <Gold.PLP.part.buried>
-1.7476

> <Gold.PLP.part.nonpolar>
-31.9365

> <Gold.PLP.part.repulsive>
0.2311

> <Gold.PLP.ligand.clash>
0.0000

> <Gold.PLP.ligand.torsion>
0.0352

> <Gold.PLP.Chemscore.Hbond>
2.0000

> <Gold.PLP.Chemscore.CHOScore>
0.0000

> <Gold.PLP.Chemscore.Metal>
0.0000

> <Gold.Chemscore.Hbonds>
donor molecule, donor type, donor heavy atom, donor atom, acceptor molecule, acceptor atom, score
      L1  H    15    32       P1  7957  1.00
      P1  H  7997  8008       L1     8  0.95

> <Gold.PLP.Chemscore.Internal.Correction>
0.0132

> <Gold.Rescore>
     Score         DG    S(hbond)    S(metal)    S(lipo)     H(rot)  DE(clash)    DE(int)     intcor
     15.12     -18.18       1.79        0.00      97.37       1.82       1.62       1.44       ----

> <Gold.Chemscore.Fitness>
15.1211

> <Gold.Chemscore.DG>
-18.1823

> <Gold.Chemscore.ZeroCoef>
-5.4800

> <Gold.Chemscore.Hbond>
1.7860

> <Gold.Chemscore.Metal>
0.0000

> <Gold.Chemscore.Lipo>
97.3694

> <Gold.Chemscore.Internal_Hbond>
0.0000

> <Gold.Chemscore.DEClash>
1.6225

> <Gold.Chemscore.DEInternal>
1.4387

> <Gold.Chemscore.Rot>
1.8184

> <Gold.Chemscore.Internal.Correction>
   9.000000E+99

> <Gold.Chemscore.Hbonds>
donor molecule, donor type, donor heavy atom, donor atom, acceptor molecule, acceptor atom, score
      L1  H    15    32       P1  7957  0.92
      P1  H  7997  8008       L1     8  0.21

> <Gold.Chemscore.Hbond.Weighted>
-5.9651

> <Gold.Chemscore.Metal.Weighted>
-0.0000

> <Gold.Chemscore.Lipo.Weighted>
-11.3922

> <Gold.Chemscore.Internal_Hbond.Weighted>
0.0000

> <Gold.Chemscore.DEClash.Weighted>
1.6225

> <Gold.Chemscore.DEInternal.Weighted>
1.4387

> <Gold.Chemscore.Rot.Weighted>
4.6551

> <Gold.Chemscore.Internal.Correction.Weighted>
   9.000000E+99

> <Gold.Protein.RotatedTorsions>
[ 6907 6896 6895 6894 ] final  148.12 input  -60.11 | X-H torsion
[ 7974 7965 7964 7962 ] final   72.52 input  175.53 | X-H torsion
[ 8008 7997 7996 7995 ] final -103.90 input   59.86 | X-H torsion
[ 10167 10162 10161 10158 ] final  -69.65 input  -65.29 | X-H torsion
[ 10718 10713 10712 10709 ] final  -89.51 input   66.30 | X-H torsion
[ 10763 10752 10751 10750 ] final   22.75 input  -60.55 | X-H torsion
[ 11005 11000 10999 10996 ] final   58.87 input  -57.11 | X-H torsion

> <Gold.Protein.ActiveResidues>
 VAL166  LYS551  ARG553  GLY616  TRP617  ASP618  TYR619  PRO620  LYS621  CYS622 
 ASP623  PHE694  ASN695  SER759  ASP760  ASP761  ALA762  ILE779  LEU786  VAL792 
 PHE793  MET794  SER795  GLU796  ALA797  LYS798  CYS799  TRP800  GLU811  SER814 

> <Gold.Protein.RotatedAtoms>
  152.1457  133.4491  159.4788 H   0  0  0  0  0  0  0  0  0  0  0  0  # atno 6907 bound_to 6896
  150.6890  134.2251  159.4421 H   0  0  0  0  0  0  0  0  0  0  0  0  # atno 6908 bound_to 6896
  152.0144  134.9857  160.0619 H   0  0  0  0  0  0  0  0  0  0  0  0  # atno 6909 bound_to 6896
  145.7524  139.2765  143.1424 H   0  0  0  0  0  0  0  0  0  0  0  0  # atno 7974 bound_to 7965
  154.8776  140.0420  157.1763 H   0  0  0  0  0  0  0  0  0  0  0  0  # atno 8008 bound_to 7997
  154.8673  140.2953  155.5482 H   0  0  0  0  0  0  0  0  0  0  0  0  # atno 8009 bound_to 7997
  156.2999  140.2436  156.3656 H   0  0  0  0  0  0  0  0  0  0  0  0  # atno 8010 bound_to 7997
  140.5414  143.2315  151.7082 H   0  0  0  0  0  0  0  0  0  0  0  0  # atno 10167 bound_to 10162
  155.9984  130.4875  150.5182 H   0  0  0  0  0  0  0  0  0  0  0  0  # atno 10718 bound_to 10713
  153.0891  135.6641  153.9889 H   0  0  0  0  0  0  0  0  0  0  0  0  # atno 10763 bound_to 10752
  153.9491  135.2986  155.3441 H   0  0  0  0  0  0  0  0  0  0  0  0  # atno 10764 bound_to 10752
  154.7303  135.5126  153.9026 H   0  0  0  0  0  0  0  0  0  0  0  0  # atno 10765 bound_to 10752
  140.0346  134.5962  155.9462 H   0  0  0  0  0  0  0  0  0  0  0  0  # atno 11005 bound_to 11000
  146.0344  140.8227  142.9860 LP  0  0  0  0  0  0  0  0  0  0  0  0  # atno 17320 bound_to 7965
  144.6847  140.2816  143.7291 LP  0  0  0  0  0  0  0  0  0  0  0  0  # atno 17321 bound_to 7965
  139.4990  144.3962  152.0228 LP  0  0  0  0  0  0  0  0  0  0  0  0  # atno 17342 bound_to 10162
  140.3072  144.3580  150.6044 LP  0  0  0  0  0  0  0  0  0  0  0  0  # atno 17343 bound_to 10162
  157.3147  131.0670  151.1975 LP  0  0  0  0  0  0  0  0  0  0  0  0  # atno 17370 bound_to 10713
  157.2909  130.6796  149.6114 LP  0  0  0  0  0  0  0  0  0  0  0  0  # atno 17371 bound_to 10713
  141.1850  133.6554  156.5179 LP  0  0  0  0  0  0  0  0  0  0  0  0  # atno 17394 bound_to 11000
  140.4169  134.7222  157.4868 LP  0  0  0  0  0  0  0  0  0  0  0  0  # atno 17395 bound_to 11000

$$$$
