AV-unprocessed.smi:3148|AV-procd|sdf|11993|dock7
  -GOLD-   2272017403D 1   1.00000     0.00000
 Structure written by MMmdl.
 34 36  0  0  0  0  0  0  0  0  1 V2000
  154.6042  140.1428  161.7970 C   0  0  0  0  0  0  0  0  0  0  0  0
  154.2098  141.5033  161.6579 O   0  0  0  0  0  0  0  0  0  0  0  0
  153.4701  141.8548  160.5480 C   0  0  0  0  0  0  0  0  0  0  0  0
  153.0971  143.2013  160.3605 C   0  0  0  0  0  0  0  0  0  0  0  0
  152.3401  143.4877  159.2053 C   0  0  0  0  0  0  0  0  0  0  0  0
  151.8716  144.8932  158.8942 C   0  0  0  0  0  0  0  0  0  0  0  0
  151.9905  142.5239  158.3251 N   0  0  0  0  0  0  0  0  0  0  0  0
  152.3930  141.2807  158.5968 C   0  0  0  0  0  0  0  0  0  0  0  0
  152.0116  140.3182  157.6806 N   0  0  0  0  0  0  0  0  0  0  0  0
  151.7703  140.5814  156.2664 C   0  0  2  0  0  0  0  0  0  0  0  0
  150.6752  141.6225  156.0255 C   0  0  0  0  0  0  0  0  0  0  0  0
  149.7332  140.8726  155.0727 C   0  0  2  0  0  0  0  0  0  0  0  0
  148.9131  139.8084  155.8135 C   0  0  0  0  0  0  0  0  0  0  0  0
  149.9698  138.7414  156.0929 C   0  0  0  0  0  0  0  0  0  0  0  0
  151.2302  139.3725  155.4767 C   0  0  1  0  0  0  0  0  0  0  0  0
  150.6523  140.0498  154.3735 O   0  0  0  0  0  0  0  0  0  0  0  0
  153.1124  140.8968  159.6572 N   0  0  0  0  0  0  0  0  0  0  0  0
  155.1712  140.0244  162.7203 H   0  0  0  0  0  0  0  0  0  0  0  0
  155.2446  139.8263  160.9725 H   0  0  0  0  0  0  0  0  0  0  0  0
  153.7391  139.4804  161.8522 H   0  0  0  0  0  0  0  0  0  0  0  0
  153.3769  143.9686  161.0672 H   0  0  0  0  0  0  0  0  0  0  0  0
  152.3235  145.6173  159.5726 H   0  0  0  0  0  0  0  0  0  0  0  0
  150.7882  144.9603  158.9949 H   0  0  0  0  0  0  0  0  0  0  0  0
  152.1404  145.1689  157.8740 H   0  0  0  0  0  0  0  0  0  0  0  0
  152.0831  139.3552  157.9750 H   0  0  0  0  0  0  0  0  0  0  0  0
  152.6953  140.9321  155.8063 H   0  0  0  0  0  0  0  0  0  0  0  0
  150.1642  141.9441  156.9342 H   0  0  0  0  0  0  0  0  0  0  0  0
  151.0948  142.5060  155.5436 H   0  0  0  0  0  0  0  0  0  0  0  0
  149.1368  141.5254  154.4349 H   0  0  0  0  0  0  0  0  0  0  0  0
  148.4514  140.1965  156.7221 H   0  0  0  0  0  0  0  0  0  0  0  0
  148.1258  139.4082  155.1737 H   0  0  0  0  0  0  0  0  0  0  0  0
  150.0779  138.5158  157.1541 H   0  0  0  0  0  0  0  0  0  0  0  0
  149.7162  137.8145  155.5779 H   0  0  0  0  0  0  0  0  0  0  0  0
  151.9954  138.6468  155.2000 H   0  0  0  0  0  0  0  0  0  0  0  0
  1  2  1  0  0  0  0
  1 18  1  0  0  0  0
  1 19  1  0  0  0  0
  1 20  1  0  0  0  0
  2  3  1  0  0  0  0
  3 17  1  0  0  0  0
  3  4  2  0  0  0  0
  4  5  1  0  0  0  0
  4 21  1  0  0  0  0
  5  6  1  0  0  0  0
  5  7  2  0  0  0  0
  6 22  1  0  0  0  0
  6 23  1  0  0  0  0
  6 24  1  0  0  0  0
  7  8  1  0  0  0  0
  8  9  1  0  0  0  0
  8 17  2  0  0  0  0
  9 10  1  0  0  0  0
  9 25  1  0  0  0  0
 10 15  1  0  0  0  0
 10 11  1  0  0  0  0
 10 26  1  0  0  0  0
 11 12  1  0  0  0  0
 11 27  1  0  0  0  0
 11 28  1  0  0  0  0
 12 16  1  0  0  0  0
 12 13  1  0  0  0  0
 12 29  1  0  0  0  0
 13 14  1  0  0  0  0
 13 30  1  0  0  0  0
 13 31  1  0  0  0  0
 14 15  1  0  0  0  0
 14 32  1  0  0  0  0
 14 33  1  0  0  0  0
 15 16  1  0  0  0  0
 15 34  1  0  0  0  0
M  END
> <s_m_source_file>
AV-unprocessed.smi

> <i_m_source_file_index>
3148

> <i_lp_mmshare_version>
43012

> <i_f3d_flags>
0

> <s_epik_input>
W0NIM11PYzFbY0hdYyhbQ0gzXSluYyhuMSlbTkhdW0NASF0oW0NIMl1bQ0BASF0yMylbQ0BASF0oTzMpW0NIMl1bQ0gyXTI=

> <s_epik_cmdline>
J2VwaWtfcHl0aG9uJywgJy1waCcsICc3LjAnLCAnLXRuJywgJzgnLCAnLW1hJywgJzIwMCcsICctbWV0YWxfYmluZGluZycsICctaW1hZScsICc8aW5maWxlLm1hZT4nLCAnLW9tYWUnLCAnPG91dGZpbGUubWFlPic=

> <r_lp_tautomer_probability>
1

> <r_epik_Ionization_Penalty>
0.101645

> <r_epik_Ionization_Penalty_Charging>
0

> <r_epik_Ionization_Penalty_Neutral>
0.101645

> <r_epik_State_Penalty>
0.0916212

> <r_epik_Charging_Adjusted_Penalty>
0.0916212

> <i_epik_Tot_Q>
0

> <i_epik_Tot_abs_Q>
0

> <r_epik_Metal_State_Penalty>
0.0781

> <b_epik_Metal_Only>
0

> <s_lp_Force_Field>
OPLS_2005

> <r_lp_Energy>
31.5885

> <b_lp_Chiralities_Consistent>
1

> <s_lp_Variant>
AV-unprocessed.smi:3148-3

> <Gold.Version>
5.8.1

> <Gold.Id.Protein>
6NUR|6NUR_protein|mol2

> <Gold.PLP.Fitness>
37.9066

> <Gold.PLP.PLP>
-35.2662

> <Gold.PLP.part.hbond>
-1.9327

> <Gold.PLP.part.metal>
0.0000

> <Gold.PLP.part.buried>
-5.5120

> <Gold.PLP.part.nonpolar>
-27.7981

> <Gold.PLP.part.repulsive>
0.2098

> <Gold.PLP.ligand.clash>
0.0000

> <Gold.PLP.ligand.torsion>
0.1848

> <Gold.PLP.Chemscore.Hbond>
1.0000

> <Gold.PLP.Chemscore.CHOScore>
0.0000

> <Gold.PLP.Chemscore.Metal>
0.0000

> <Gold.Chemscore.Hbonds>
donor molecule, donor type, donor heavy atom, donor atom, acceptor molecule, acceptor atom, score
      P1  H  7989  7998       L1    16  1.00

> <Gold.PLP.Chemscore.Internal.Correction>
0.0100

> <Gold.Rescore>
     Score         DG    S(hbond)    S(metal)    S(lipo)     H(rot)  DE(clash)    DE(int)     intcor
     13.19     -14.59       0.84        0.00      80.68       1.22       0.01       1.39       ----

> <Gold.Chemscore.Fitness>
13.1941

> <Gold.Chemscore.DG>
-14.5916

> <Gold.Chemscore.ZeroCoef>
-5.4800

> <Gold.Chemscore.Hbond>
0.8392

> <Gold.Chemscore.Metal>
0.0000

> <Gold.Chemscore.Lipo>
80.6836

> <Gold.Chemscore.Internal_Hbond>
0.0000

> <Gold.Chemscore.DEClash>
0.0114

> <Gold.Chemscore.DEInternal>
1.3861

> <Gold.Chemscore.Rot>
1.2232

> <Gold.Chemscore.Internal.Correction>
   9.000000E+99

> <Gold.Chemscore.Hbonds>
donor molecule, donor type, donor heavy atom, donor atom, acceptor molecule, acceptor atom, score
      P1  H  7989  7998       L1    16  0.72

> <Gold.Chemscore.Hbond.Weighted>
-2.8029

> <Gold.Chemscore.Metal.Weighted>
-0.0000

> <Gold.Chemscore.Lipo.Weighted>
-9.4400

> <Gold.Chemscore.Internal_Hbond.Weighted>
0.0000

> <Gold.Chemscore.DEClash.Weighted>
0.0114

> <Gold.Chemscore.DEInternal.Weighted>
1.3861

> <Gold.Chemscore.Rot.Weighted>
3.1314

> <Gold.Chemscore.Internal.Correction.Weighted>
   9.000000E+99

> <Gold.Protein.RotatedTorsions>
[ 6907 6896 6895 6894 ] final  -83.03 input  -60.11 | X-H torsion
[ 7974 7965 7964 7962 ] final   19.68 input  175.53 | X-H torsion
[ 8008 7997 7996 7995 ] final   38.74 input   59.86 | X-H torsion
[ 10167 10162 10161 10158 ] final -135.66 input  -65.29 | X-H torsion
[ 10718 10713 10712 10709 ] final  -80.05 input   66.30 | X-H torsion
[ 10763 10752 10751 10750 ] final  -32.70 input  -60.55 | X-H torsion
[ 11005 11000 10999 10996 ] final   46.48 input  -57.11 | X-H torsion

> <Gold.Protein.ActiveResidues>
 VAL166  LYS551  ARG553  GLY616  TRP617  ASP618  TYR619  PRO620  LYS621  CYS622 
 ASP623  PHE694  ASN695  SER759  ASP760  ASP761  ALA762  ILE779  LEU786  VAL792 
 PHE793  MET794  SER795  GLU796  ALA797  LYS798  CYS799  TRP800  GLU811  SER814 

> <Gold.Protein.RotatedAtoms>
  150.6890  134.3574  159.4935 H   0  0  0  0  0  0  0  0  0  0  0  0  # atno 6907 bound_to 6896
  152.1408  134.9061  160.0563 H   0  0  0  0  0  0  0  0  0  0  0  0  # atno 6908 bound_to 6896
  152.0196  133.3858  159.4289 H   0  0  0  0  0  0  0  0  0  0  0  0  # atno 6909 bound_to 6896
  146.2140  139.8278  142.8666 H   0  0  0  0  0  0  0  0  0  0  0  0  # atno 7974 bound_to 7965
  155.2251  140.3334  155.4310 H   0  0  0  0  0  0  0  0  0  0  0  0  # atno 8008 bound_to 7997
  156.2318  140.1854  156.7270 H   0  0  0  0  0  0  0  0  0  0  0  0  # atno 8009 bound_to 7997
  154.5990  140.0626  156.9328 H   0  0  0  0  0  0  0  0  0  0  0  0  # atno 8010 bound_to 7997
  139.8756  143.6902  152.2634 H   0  0  0  0  0  0  0  0  0  0  0  0  # atno 10167 bound_to 10162
  156.0079  130.4563  150.3741 H   0  0  0  0  0  0  0  0  0  0  0  0  # atno 10718 bound_to 10713
  153.8181  135.6876  153.4831 H   0  0  0  0  0  0  0  0  0  0  0  0  # atno 10763 bound_to 10752
  153.1586  135.4589  154.9738 H   0  0  0  0  0  0  0  0  0  0  0  0  # atno 10764 bound_to 10752
  154.7939  135.3312  154.7656 H   0  0  0  0  0  0  0  0  0  0  0  0  # atno 10765 bound_to 10752
  140.1365  134.4638  155.8482 H   0  0  0  0  0  0  0  0  0  0  0  0  # atno 11005 bound_to 11000
  145.3029  141.0199  143.3598 LP  0  0  0  0  0  0  0  0  0  0  0  0  # atno 17320 bound_to 7965
  144.8992  139.4671  143.6640 LP  0  0  0  0  0  0  0  0  0  0  0  0  # atno 17321 bound_to 7965
  139.7243  144.7596  151.0904 LP  0  0  0  0  0  0  0  0  0  0  0  0  # atno 17342 bound_to 10162
  140.7753  143.5168  150.9585 LP  0  0  0  0  0  0  0  0  0  0  0  0  # atno 17343 bound_to 10162
  157.1824  131.0395  151.2742 LP  0  0  0  0  0  0  0  0  0  0  0  0  # atno 17370 bound_to 10713
  157.4134  130.7397  149.6856 LP  0  0  0  0  0  0  0  0  0  0  0  0  # atno 17371 bound_to 10713
  141.2179  133.6816  156.7167 LP  0  0  0  0  0  0  0  0  0  0  0  0  # atno 17394 bound_to 11000
  140.2776  134.8342  157.3904 LP  0  0  0  0  0  0  0  0  0  0  0  0  # atno 17395 bound_to 11000

$$$$
