AV-unprocessed.smi:2988|AV-procd|sdf|11390|dock4
  -GOLD-   2272016313D 1   1.00000     0.00000
 Structure written by MMmdl.
 37 38  0  0  0  0  0  0  0  0  1 V2000
  144.4674  134.8013  153.2398 C   0  0  0  0  0  0  0  0  0  0  0  0
  144.7340  133.6155  152.2947 C   0  0  1  0  0  0  0  0  0  0  0  0
  143.4814  133.3035  151.4503 C   0  0  0  0  0  0  0  0  0  0  0  0
  143.7114  132.1176  150.5017 C   0  0  0  0  0  0  0  0  0  0  0  0
  144.9202  132.3679  149.5901 C   0  0  0  0  0  0  0  0  0  0  0  0
  146.1803  132.6670  150.4150 C   0  0  0  0  0  0  0  0  0  0  0  0
  145.9629  133.8497  151.3812 C   0  0  2  0  0  0  0  0  0  0  0  0
  147.1649  134.0481  152.1881 N   0  0  0  0  0  0  0  0  0  0  0  0
  147.6118  133.2149  153.1397 C   0  0  0  0  0  0  0  0  0  0  0  0
  147.0249  132.1829  153.4674 O   0  0  0  0  0  0  0  0  0  0  0  0
  148.9135  133.6274  153.8409 C   0  0  0  0  0  0  0  0  0  0  0  0
  149.6132  132.4921  154.4593 N   0  0  0  0  0  0  0  0  0  0  0  0
  149.3145  131.2658  153.8917 N   0  0  0  0  0  0  0  0  0  0  0  0
  149.8850  130.2024  154.3434 C   0  0  0  0  0  0  0  0  0  0  0  0
  150.8312  130.2405  155.4365 C   0  0  0  0  0  0  0  0  0  0  0  0
  151.5650  128.7804  155.9996 Cl  0  0  0  0  0  0  0  0  0  0  0  0
  151.1119  131.4470  155.9902 C   0  0  0  0  0  0  0  0  0  0  0  0
  152.2339  131.5731  157.3014 Cl  0  0  0  0  0  0  0  0  0  0  0  0
  150.4802  132.6806  155.5016 C   0  0  0  0  0  0  0  0  0  0  0  0
  150.7043  133.7937  155.9798 O   0  0  0  0  0  0  0  0  0  0  0  0
  144.2787  135.7179  152.6801 H   0  0  0  0  0  0  0  0  0  0  0  0
  145.3110  134.9865  153.9051 H   0  0  0  0  0  0  0  0  0  0  0  0
  143.5970  134.6121  153.8686 H   0  0  0  0  0  0  0  0  0  0  0  0
  144.9363  132.7419  152.9165 H   0  0  0  0  0  0  0  0  0  0  0  0
  142.6361  133.0859  152.1038 H   0  0  0  0  0  0  0  0  0  0  0  0
  143.2014  134.1826  150.8684 H   0  0  0  0  0  0  0  0  0  0  0  0
  143.8711  131.2086  151.0829 H   0  0  0  0  0  0  0  0  0  0  0  0
  142.8199  131.9464  149.8976 H   0  0  0  0  0  0  0  0  0  0  0  0
  145.0911  131.5005  148.9521 H   0  0  0  0  0  0  0  0  0  0  0  0
  144.7106  133.2063  148.9248 H   0  0  0  0  0  0  0  0  0  0  0  0
  146.4610  131.7761  150.9788 H   0  0  0  0  0  0  0  0  0  0  0  0
  147.0123  132.8803  149.7428 H   0  0  0  0  0  0  0  0  0  0  0  0
  145.7718  134.7474  150.7896 H   0  0  0  0  0  0  0  0  0  0  0  0
  147.7091  134.8758  151.9924 H   0  0  0  0  0  0  0  0  0  0  0  0
  149.5757  134.1316  153.1340 H   0  0  0  0  0  0  0  0  0  0  0  0
  148.6664  134.3774  154.5944 H   0  0  0  0  0  0  0  0  0  0  0  0
  149.6845  129.2158  153.9251 H   0  0  0  0  0  0  0  0  0  0  0  0
  1  2  1  0  0  0  0
  1 21  1  0  0  0  0
  1 22  1  0  0  0  0
  1 23  1  0  0  0  0
  2  7  1  0  0  0  0
  2  3  1  0  0  0  0
  2 24  1  0  0  0  0
  3  4  1  0  0  0  0
  3 25  1  0  0  0  0
  3 26  1  0  0  0  0
  4  5  1  0  0  0  0
  4 27  1  0  0  0  0
  4 28  1  0  0  0  0
  5  6  1  0  0  0  0
  5 29  1  0  0  0  0
  5 30  1  0  0  0  0
  6  7  1  0  0  0  0
  6 31  1  0  0  0  0
  6 32  1  0  0  0  0
  7  8  1  0  0  0  0
  7 33  1  0  0  0  0
  8  9  1  0  0  0  0
  8 34  1  0  0  0  0
  9 10  2  0  0  0  0
  9 11  1  0  0  0  0
 11 12  1  0  0  0  0
 11 35  1  0  0  0  0
 11 36  1  0  0  0  0
 12 19  1  0  0  0  0
 12 13  1  0  0  0  0
 13 14  2  0  0  0  0
 14 15  1  0  0  0  0
 14 37  1  0  0  0  0
 15 16  1  0  0  0  0
 15 17  2  0  0  0  0
 17 18  1  0  0  0  0
 17 19  1  0  0  0  0
 19 20  2  0  0  0  0
M  END
> <s_m_source_file>
AV-unprocessed.smi

> <i_m_source_file_index>
2988

> <i_lp_mmshare_version>
43012

> <i_f3d_flags>
0

> <s_epik_input>
W0NIM11bQ0BASF0xW0NIMl1bQ0gyXVtDSDJdW0NIMl1bQ0BIXTFbTkhdQyg9TylbQ0gyXW4ybltjSF1jKENsKWMoQ2wpYzI9Tw==

> <s_epik_cmdline>
J2VwaWtfcHl0aG9uJywgJy1waCcsICc3LjAnLCAnLXRuJywgJzgnLCAnLW1hJywgJzIwMCcsICctbWV0YWxfYmluZGluZycsICctaW1hZScsICc8aW5maWxlLm1hZT4nLCAnLW9tYWUnLCAnPG91dGZpbGUubWFlPic=

> <r_lp_tautomer_probability>
1

> <r_epik_Ionization_Penalty>
1.90782e-08

> <r_epik_Ionization_Penalty_Charging>
3.13143e-11

> <r_epik_Ionization_Penalty_Neutral>
1.90469e-08

> <r_epik_State_Penalty>
-0

> <r_epik_Charging_Adjusted_Penalty>
3.13143e-11

> <i_epik_Tot_Q>
0

> <i_epik_Tot_abs_Q>
0

> <r_epik_Metal_State_Penalty>
-0

> <b_epik_Metal_Only>
0

> <s_lp_Force_Field>
OPLS_2005

> <r_lp_Energy>
24.109

> <b_lp_Chiralities_Consistent>
1

> <s_lp_Variant>
AV-unprocessed.smi:2988-4

> <Gold.Version>
5.8.1

> <Gold.Id.Protein>
6NUR|6NUR_protein|mol2

> <Gold.PLP.Fitness>
38.4555

> <Gold.PLP.PLP>
-36.8913

> <Gold.PLP.part.hbond>
-1.0000

> <Gold.PLP.part.metal>
0.0000

> <Gold.PLP.part.buried>
-5.0143

> <Gold.PLP.part.nonpolar>
-31.1697

> <Gold.PLP.part.repulsive>
0.2084

> <Gold.PLP.ligand.clash>
0.0000

> <Gold.PLP.ligand.torsion>
0.7207

> <Gold.PLP.Chemscore.Hbond>
1.0000

> <Gold.PLP.Chemscore.CHOScore>
0.0000

> <Gold.PLP.Chemscore.Metal>
0.0000

> <Gold.Chemscore.Hbonds>
donor molecule, donor type, donor heavy atom, donor atom, acceptor molecule, acceptor atom, score
      L1  H     8    34       P1  7948  1.00

> <Gold.PLP.Chemscore.Internal.Correction>
0.0057

> <Gold.Rescore>
     Score         DG    S(hbond)    S(metal)    S(lipo)     H(rot)  DE(clash)    DE(int)     intcor
     10.59     -13.88       0.96        0.00      77.05       1.50       0.01       3.29       ----

> <Gold.Chemscore.Fitness>
10.5901

> <Gold.Chemscore.DG>
-13.8835

> <Gold.Chemscore.ZeroCoef>
-5.4800

> <Gold.Chemscore.Hbond>
0.9648

> <Gold.Chemscore.Metal>
0.0000

> <Gold.Chemscore.Lipo>
77.0519

> <Gold.Chemscore.Internal_Hbond>
0.0000

> <Gold.Chemscore.DEClash>
0.0075

> <Gold.Chemscore.DEInternal>
3.2859

> <Gold.Chemscore.Rot>
1.4977

> <Gold.Chemscore.Internal.Correction>
   9.000000E+99

> <Gold.Chemscore.Hbonds>
donor molecule, donor type, donor heavy atom, donor atom, acceptor molecule, acceptor atom, score
      L1  H     8    34       P1  7948  0.70

> <Gold.Chemscore.Hbond.Weighted>
-3.2225

> <Gold.Chemscore.Metal.Weighted>
-0.0000

> <Gold.Chemscore.Lipo.Weighted>
-9.0151

> <Gold.Chemscore.Internal_Hbond.Weighted>
0.0000

> <Gold.Chemscore.DEClash.Weighted>
0.0075

> <Gold.Chemscore.DEInternal.Weighted>
3.2859

> <Gold.Chemscore.Rot.Weighted>
3.8341

> <Gold.Chemscore.Internal.Correction.Weighted>
   9.000000E+99

> <Gold.Protein.RotatedTorsions>
[ 6907 6896 6895 6894 ] final   72.27 input  -60.11 | X-H torsion
[ 7974 7965 7964 7962 ] final   58.51 input  175.53 | X-H torsion
[ 8008 7997 7996 7995 ] final -113.37 input   59.86 | X-H torsion
[ 10167 10162 10161 10158 ] final   16.66 input  -65.29 | X-H torsion
[ 10718 10713 10712 10709 ] final   76.57 input   66.30 | X-H torsion
[ 10763 10752 10751 10750 ] final -159.77 input  -60.55 | X-H torsion
[ 11005 11000 10999 10996 ] final  -95.70 input  -57.11 | X-H torsion

> <Gold.Protein.ActiveResidues>
 VAL166  LYS551  ARG553  GLY616  TRP617  ASP618  TYR619  PRO620  LYS621  CYS622 
 ASP623  PHE694  ASN695  SER759  ASP760  ASP761  ALA762  ILE779  LEU786  VAL792 
 PHE793  MET794  SER795  GLU796  ALA797  LYS798  CYS799  TRP800  GLU811  SER814 

> <Gold.Protein.RotatedAtoms>
  152.4858  134.4597  159.9600 H   0  0  0  0  0  0  0  0  0  0  0  0  # atno 6907 bound_to 6896
  151.4593  133.3591  159.2814 H   0  0  0  0  0  0  0  0  0  0  0  0  # atno 6908 bound_to 6896
  150.8967  134.8401  159.7392 H   0  0  0  0  0  0  0  0  0  0  0  0  # atno 6909 bound_to 6896
  145.9173  139.3701  143.0499 H   0  0  0  0  0  0  0  0  0  0  0  0  # atno 7974 bound_to 7965
  155.0196  140.0393  157.2432 H   0  0  0  0  0  0  0  0  0  0  0  0  # atno 8008 bound_to 7997
  154.7389  140.2745  155.6367 H   0  0  0  0  0  0  0  0  0  0  0  0  # atno 8009 bound_to 7997
  156.2859  140.2669  156.2111 H   0  0  0  0  0  0  0  0  0  0  0  0  # atno 8010 bound_to 7997
  140.5782  143.9032  150.6767 H   0  0  0  0  0  0  0  0  0  0  0  0  # atno 10167 bound_to 10162
  157.6678  130.9780  150.1516 H   0  0  0  0  0  0  0  0  0  0  0  0  # atno 10718 bound_to 10713
  154.7447  135.3077  154.8666 H   0  0  0  0  0  0  0  0  0  0  0  0  # atno 10763 bound_to 10752
  153.9470  135.6768  153.4748 H   0  0  0  0  0  0  0  0  0  0  0  0  # atno 10764 bound_to 10752
  153.1044  135.4896  154.8850 H   0  0  0  0  0  0  0  0  0  0  0  0  # atno 10765 bound_to 10752
  141.1434  133.8045  157.0471 H   0  0  0  0  0  0  0  0  0  0  0  0  # atno 11005 bound_to 11000
  145.8595  140.9483  143.0708 LP  0  0  0  0  0  0  0  0  0  0  0  0  # atno 17320 bound_to 7965
  144.6749  140.0511  143.7478 LP  0  0  0  0  0  0  0  0  0  0  0  0  # atno 17321 bound_to 7965
  140.2525  143.3583  152.1393 LP  0  0  0  0  0  0  0  0  0  0  0  0  # atno 17342 bound_to 10162
  139.5154  144.6963  151.5621 LP  0  0  0  0  0  0  0  0  0  0  0  0  # atno 17343 bound_to 10162
  156.2314  130.3682  149.8441 LP  0  0  0  0  0  0  0  0  0  0  0  0  # atno 17370 bound_to 10713
  156.6267  130.8649  151.3487 LP  0  0  0  0  0  0  0  0  0  0  0  0  # atno 17371 bound_to 10713
  140.0656  134.9731  157.1379 LP  0  0  0  0  0  0  0  0  0  0  0  0  # atno 17394 bound_to 11000
  140.3785  134.2312  155.7172 LP  0  0  0  0  0  0  0  0  0  0  0  0  # atno 17395 bound_to 11000

$$$$
