AV-unprocessed.smi:195|AV-procd|sdf|1525|dock3
  -GOLD-   2262019373D 1   1.00000     0.00000
 Structure written by MMmdl.
 45 48  0  0  0  0  0  0  0  0  1 V2000
  146.8350  132.1844  151.6551 N   0  0  0  0  0  0  0  0  0  0  0  0
  146.4031  133.1944  151.2915 C   0  0  0  0  0  0  0  0  0  0  0  0
  145.8531  134.4788  150.8288 C   0  0  0  0  0  0  0  0  0  0  0  0
  144.3862  134.6863  151.2158 C   0  0  0  0  0  0  0  0  0  0  0  0
  143.6725  133.9193  150.2681 O   0  0  0  0  0  0  0  0  0  0  0  0
  143.9946  134.4354  152.6746 C   0  0  0  0  0  0  0  0  0  0  0  0
  143.7272  135.8623  152.8212 N   0  0  0  0  0  0  0  0  0  0  0  0
  144.6491  136.5326  153.6749 C   0  0  0  0  0  0  0  0  0  0  0  0
  144.6878  136.2938  155.0140 N   0  0  0  0  0  0  0  0  0  0  0  0
  145.5574  136.9340  155.8013 C   0  0  0  0  0  0  0  0  0  0  0  0
  146.4725  137.8438  155.4647 N   0  0  0  0  0  0  0  0  0  0  0  0
  146.4450  138.0917  154.1248 C   0  0  0  0  0  0  0  0  0  0  0  0
  145.5730  137.4895  153.1741 C   0  0  0  0  0  0  0  0  0  0  0  0
  145.8333  137.9948  151.9063 N   0  0  0  0  0  0  0  0  0  0  0  0
  146.8072  138.8434  152.0950 C   0  0  0  0  0  0  0  0  0  0  0  0
  147.2353  138.9638  153.3975 N   0  0  0  0  0  0  0  0  0  0  0  0
  148.2978  139.8271  153.8835 C   0  0  0  0  0  0  0  0  0  0  0  0
  149.5178  139.0334  154.3890 C   0  0  1  0  0  0  0  0  0  0  0  0
  150.0827  138.3092  153.3129 O   0  0  0  0  0  0  0  0  0  0  0  0
  150.5972  139.9514  154.9909 C   0  0  2  0  0  0  0  0  0  0  0  0
  151.6990  139.2191  155.7612 C   0  0  0  0  0  0  0  0  0  0  0  0
  152.1783  140.2441  156.7789 C   0  0  0  0  0  0  0  0  0  0  0  0
  151.1253  141.3528  156.7178 C   0  0  0  0  0  0  0  0  0  0  0  0
  150.0420  140.7847  155.9970 O   0  0  0  0  0  0  0  0  0  0  0  0
  143.8806  136.1220  151.3924 C   0  0  0  0  0  0  0  0  0  0  0  0
  146.4826  135.2750  151.2279 H   0  0  0  0  0  0  0  0  0  0  0  0
  145.9830  134.5063  149.7482 H   0  0  0  0  0  0  0  0  0  0  0  0
  142.7636  134.1692  150.3387 H   0  0  0  0  0  0  0  0  0  0  0  0
  143.0877  133.8401  152.7874 H   0  0  0  0  0  0  0  0  0  0  0  0
  144.8061  134.0580  153.2991 H   0  0  0  0  0  0  0  0  0  0  0  0
  145.5129  136.6808  156.8505 H   0  0  0  0  0  0  0  0  0  0  0  0
  147.2430  139.4101  151.2849 H   0  0  0  0  0  0  0  0  0  0  0  0
  148.5900  140.5112  153.0856 H   0  0  0  0  0  0  0  0  0  0  0  0
  147.8894  140.4432  154.6853 H   0  0  0  0  0  0  0  0  0  0  0  0
  149.1926  138.3156  155.1433 H   0  0  0  0  0  0  0  0  0  0  0  0
  150.0748  138.8597  152.5450 H   0  0  0  0  0  0  0  0  0  0  0  0
  151.0397  140.5817  154.2165 H   0  0  0  0  0  0  0  0  0  0  0  0
  151.2867  138.3548  156.2833 H   0  0  0  0  0  0  0  0  0  0  0  0
  152.4981  138.8651  155.1092 H   0  0  0  0  0  0  0  0  0  0  0  0
  152.2332  139.8005  157.7736 H   0  0  0  0  0  0  0  0  0  0  0  0
  153.1661  140.6329  156.5289 H   0  0  0  0  0  0  0  0  0  0  0  0
  150.8104  141.6893  157.7059 H   0  0  0  0  0  0  0  0  0  0  0  0
  151.5074  142.2152  156.1695 H   0  0  0  0  0  0  0  0  0  0  0  0
  144.6037  136.8974  151.1360 H   0  0  0  0  0  0  0  0  0  0  0  0
  142.9180  136.3026  150.9127 H   0  0  0  0  0  0  0  0  0  0  0  0
  1  2  3  0  0  0  0
  2  3  1  0  0  0  0
  3  4  1  0  0  0  0
  3 26  1  0  0  0  0
  3 27  1  0  0  0  0
  4 25  1  0  0  0  0
  4  5  1  0  0  0  0
  4  6  1  0  0  0  0
  5 28  1  0  0  0  0
  6  7  1  0  0  0  0
  6 29  1  0  0  0  0
  6 30  1  0  0  0  0
  7  8  1  0  0  0  0
  7 25  1  0  0  0  0
  8 13  1  0  0  0  0
  8  9  2  0  0  0  0
  9 10  1  0  0  0  0
 10 11  2  0  0  0  0
 10 31  1  0  0  0  0
 11 12  1  0  0  0  0
 12 16  1  0  0  0  0
 12 13  2  0  0  0  0
 13 14  1  0  0  0  0
 14 15  2  0  0  0  0
 15 16  1  0  0  0  0
 15 32  1  0  0  0  0
 16 17  1  0  0  0  0
 17 18  1  0  0  0  0
 17 33  1  0  0  0  0
 17 34  1  0  0  0  0
 18 19  1  0  0  0  0
 18 20  1  0  0  0  0
 18 35  1  0  0  0  0
 19 36  1  0  0  0  0
 20 24  1  0  0  0  0
 20 21  1  0  0  0  0
 20 37  1  0  0  0  0
 21 22  1  0  0  0  0
 21 38  1  0  0  0  0
 21 39  1  0  0  0  0
 22 23  1  0  0  0  0
 22 40  1  0  0  0  0
 22 41  1  0  0  0  0
 23 24  1  0  0  0  0
 23 42  1  0  0  0  0
 23 43  1  0  0  0  0
 25 44  1  0  0  0  0
 25 45  1  0  0  0  0
M  END
> <s_m_source_file>
AV-unprocessed.smi

> <i_m_source_file_index>
195

> <i_lp_mmshare_version>
43012

> <i_f3d_flags>
0

> <s_epik_input>
TiNDW0NIMl1DMShbT0hdKVtDSDJdTihbQ0gyXTEpYyhuW2NIXW4yKWMoYzIzKW5bY0hdbjNbQ0gyXVtDQEhdKFtPSF0pW0NAQEhdNFtDSDJdW0NIMl1bQ0gyXU80

> <s_epik_cmdline>
J2VwaWtfcHl0aG9uJywgJy1waCcsICc3LjAnLCAnLXRuJywgJzgnLCAnLW1hJywgJzIwMCcsICctbWV0YWxfYmluZGluZycsICctaW1hZScsICc8aW5maWxlLm1hZT4nLCAnLW9tYWUnLCAnPG91dGZpbGUubWFlPic=

> <r_lp_tautomer_probability>
1

> <r_epik_Ionization_Penalty>
0.00307146

> <r_epik_Ionization_Penalty_Charging>
0

> <r_epik_Ionization_Penalty_Neutral>
0.00307146

> <r_epik_State_Penalty>
0.0020279

> <r_epik_Charging_Adjusted_Penalty>
0.0020279

> <i_epik_Tot_Q>
0

> <i_epik_Tot_abs_Q>
0

> <r_epik_Metal_State_Penalty>
-0

> <b_epik_Metal_Only>
0

> <s_lp_Force_Field>
OPLS_2005

> <r_lp_Energy>
44.0633

> <b_lp_Chiralities_Consistent>
1

> <s_lp_Variant>
AV-unprocessed.smi:195-2

> <Gold.Version>
5.8.1

> <Gold.Id.Protein>
6NUR|6NUR_protein|mol2

> <Gold.PLP.Fitness>
40.1402

> <Gold.PLP.PLP>
-31.9449

> <Gold.PLP.part.hbond>
-3.2787

> <Gold.PLP.part.metal>
0.0000

> <Gold.PLP.part.buried>
-3.4200

> <Gold.PLP.part.nonpolar>
-28.1320

> <Gold.PLP.part.repulsive>
2.3517

> <Gold.PLP.ligand.clash>
0.0000

> <Gold.PLP.ligand.torsion>
0.5119

> <Gold.PLP.Chemscore.Hbond>
2.0000

> <Gold.PLP.Chemscore.CHOScore>
0.9757

> <Gold.PLP.Chemscore.Metal>
0.0000

> <Gold.Chemscore.Hbonds>
donor molecule, donor type, donor heavy atom, donor atom, acceptor molecule, acceptor atom, score
      L1  H     5    28       P1 10186  1.00
      L1  H    19    36       P1  7957  1.00
      L1  C    15    32       P1  7957  0.91

> <Gold.PLP.Chemscore.Internal.Correction>
0.2920

> <Gold.Rescore>
     Score         DG    S(hbond)    S(metal)    S(lipo)     H(rot)  DE(clash)    DE(int)     intcor
      5.97      -8.70       1.79        0.00      57.94       3.72       0.09       2.65       ----

> <Gold.Chemscore.Fitness>
5.9701

> <Gold.Chemscore.DG>
-8.7044

> <Gold.Chemscore.ZeroCoef>
-5.4800

> <Gold.Chemscore.Hbond>
1.7879

> <Gold.Chemscore.Metal>
0.0000

> <Gold.Chemscore.Lipo>
57.9351

> <Gold.Chemscore.Internal_Hbond>
0.0000

> <Gold.Chemscore.DEClash>
0.0885

> <Gold.Chemscore.DEInternal>
2.6458

> <Gold.Chemscore.Rot>
3.7210

> <Gold.Chemscore.Internal.Correction>
   9.000000E+99

> <Gold.Chemscore.Hbonds>
donor molecule, donor type, donor heavy atom, donor atom, acceptor molecule, acceptor atom, score
      L1  H     5    28       P1 10186  0.84
      L1  H    19    36       P1  7957  0.40

> <Gold.Chemscore.Hbond.Weighted>
-5.9716

> <Gold.Chemscore.Metal.Weighted>
-0.0000

> <Gold.Chemscore.Lipo.Weighted>
-6.7784

> <Gold.Chemscore.Internal_Hbond.Weighted>
0.0000

> <Gold.Chemscore.DEClash.Weighted>
0.0885

> <Gold.Chemscore.DEInternal.Weighted>
2.6458

> <Gold.Chemscore.Rot.Weighted>
9.5256

> <Gold.Chemscore.Internal.Correction.Weighted>
   9.000000E+99

> <Gold.Protein.RotatedTorsions>
[ 6907 6896 6895 6894 ] final   97.15 input  -60.11 | X-H torsion
[ 7974 7965 7964 7962 ] final  -53.65 input  175.53 | X-H torsion
[ 8008 7997 7996 7995 ] final -142.22 input   59.86 | X-H torsion
[ 10167 10162 10161 10158 ] final   26.46 input  -65.29 | X-H torsion
[ 10718 10713 10712 10709 ] final   36.94 input   66.30 | X-H torsion
[ 10763 10752 10751 10750 ] final  -18.17 input  -60.55 | X-H torsion
[ 11005 11000 10999 10996 ] final -115.40 input  -57.11 | X-H torsion

> <Gold.Protein.ActiveResidues>
 VAL166  LYS551  ARG553  GLY616  TRP617  ASP618  TYR619  PRO620  LYS621  CYS622 
 ASP623  PHE694  ASN695  SER759  ASP760  ASP761  ALA762  ILE779  LEU786  VAL792 
 PHE793  MET794  SER795  GLU796  ALA797  LYS798  CYS799  TRP800  GLU811  SER814 

> <Gold.Protein.RotatedAtoms>
  152.5427  134.0777  159.8221 H   0  0  0  0  0  0  0  0  0  0  0  0  # atno 6907 bound_to 6896
  151.0883  133.5328  159.2624 H   0  0  0  0  0  0  0  0  0  0  0  0  # atno 6908 bound_to 6896
  151.2129  135.0497  159.8973 H   0  0  0  0  0  0  0  0  0  0  0  0  # atno 6909 bound_to 6896
  145.8945  140.8044  142.9774 H   0  0  0  0  0  0  0  0  0  0  0  0  # atno 7974 bound_to 7965
  155.4906  140.0567  157.2954 H   0  0  0  0  0  0  0  0  0  0  0  0  # atno 8008 bound_to 7997
  154.4625  140.2003  156.0158 H   0  0  0  0  0  0  0  0  0  0  0  0  # atno 8009 bound_to 7997
  156.0915  140.3232  155.7826 H   0  0  0  0  0  0  0  0  0  0  0  0  # atno 8010 bound_to 7997
  140.5021  144.0298  150.6337 H   0  0  0  0  0  0  0  0  0  0  0  0  # atno 10167 bound_to 10162
  157.3410  130.7548  149.6912 H   0  0  0  0  0  0  0  0  0  0  0  0  # atno 10718 bound_to 10713
  153.5851  135.7004  153.5447 H   0  0  0  0  0  0  0  0  0  0  0  0  # atno 10763 bound_to 10752
  153.3227  135.4069  155.1430 H   0  0  0  0  0  0  0  0  0  0  0  0  # atno 10764 bound_to 10752
  154.8610  135.3699  154.5380 H   0  0  0  0  0  0  0  0  0  0  0  0  # atno 10765 bound_to 10752
  141.0490  133.9717  157.2869 H   0  0  0  0  0  0  0  0  0  0  0  0  # atno 11005 bound_to 11000
  144.6732  140.1581  143.7424 LP  0  0  0  0  0  0  0  0  0  0  0  0  # atno 17320 bound_to 7965
  145.8867  139.2353  143.1573 LP  0  0  0  0  0  0  0  0  0  0  0  0  # atno 17321 bound_to 7965
  140.3597  143.2915  152.0397 LP  0  0  0  0  0  0  0  0  0  0  0  0  # atno 17342 bound_to 10162
  139.4874  144.6312  151.7066 LP  0  0  0  0  0  0  0  0  0  0  0  0  # atno 17343 bound_to 10162
  155.9707  130.4168  150.4247 LP  0  0  0  0  0  0  0  0  0  0  0  0  # atno 17370 bound_to 10713
  157.2294  131.0501  151.2501 LP  0  0  0  0  0  0  0  0  0  0  0  0  # atno 17371 bound_to 10713
  139.9335  135.0198  156.8478 LP  0  0  0  0  0  0  0  0  0  0  0  0  # atno 17394 bound_to 11000
  140.6092  134.0099  155.7569 LP  0  0  0  0  0  0  0  0  0  0  0  0  # atno 17395 bound_to 11000

$$$$
