AV-unprocessed.smi:616|AV-procd|sdf|3072|dock7
  -GOLD-   2262023593D 1   1.00000     0.00000
 Structure written by MMmdl.
 34 35  0  0  0  0  0  0  0  0  1 V2000
  149.8519  135.9434  155.2963 C   0  0  0  0  0  0  0  0  0  0  0  0
  150.1613  134.4658  155.4726 C   0  0  0  0  0  0  0  0  0  0  0  0
  151.0056  134.0691  156.4508 C   0  0  0  0  0  0  0  0  0  0  0  0
  151.3484  132.6649  156.6803 C   0  0  0  0  0  0  0  0  0  0  0  0
  152.1232  132.3141  157.5707 O   0  0  0  0  0  0  0  0  0  0  0  0
  150.7534  131.7715  155.8429 N   0  0  0  0  0  0  0  0  0  0  0  0
  151.0304  130.3399  155.9888 C   0  0  0  0  0  0  0  0  0  0  0  0
  149.8790  132.1707  154.8177 C   0  0  0  0  0  0  0  0  0  0  0  0
  149.5587  133.4659  154.5993 C   0  0  0  0  0  0  0  0  0  0  0  0
  148.6975  133.9151  153.5827 N   0  0  0  0  0  0  0  0  0  0  0  0
  147.5759  133.3563  153.0895 C   0  0  0  0  0  0  0  0  0  0  0  0
  147.0588  132.3072  153.4725 O   0  0  0  0  0  0  0  0  0  0  0  0
  147.0667  134.1058  152.1016 N   0  0  0  0  0  0  0  0  0  0  0  0
  145.8508  133.7965  151.3604 C   0  0  0  0  0  0  0  0  0  0  0  0
  145.8598  132.4569  150.6495 C   0  0  0  0  0  0  0  0  0  0  0  0
  144.8321  132.1244  149.5924 C   0  0  0  0  0  0  0  0  0  0  0  0
  144.7830  131.4359  150.9342 C   0  0  0  0  0  0  0  0  0  0  0  0
  150.3834  136.5576  156.0238 H   0  0  0  0  0  0  0  0  0  0  0  0
  148.7839  136.1242  155.4212 H   0  0  0  0  0  0  0  0  0  0  0  0
  150.1440  136.2759  154.2998 H   0  0  0  0  0  0  0  0  0  0  0  0
  151.4518  134.8104  157.0978 H   0  0  0  0  0  0  0  0  0  0  0  0
  150.4201  129.7210  155.3306 H   0  0  0  0  0  0  0  0  0  0  0  0
  150.8338  130.0097  157.0101 H   0  0  0  0  0  0  0  0  0  0  0  0
  152.0763  130.1307  155.7598 H   0  0  0  0  0  0  0  0  0  0  0  0
  149.5082  131.3454  154.2328 H   0  0  0  0  0  0  0  0  0  0  0  0
  148.9700  134.7936  153.1665 H   0  0  0  0  0  0  0  0  0  0  0  0
  147.5515  134.9540  151.8471 H   0  0  0  0  0  0  0  0  0  0  0  0
  145.0246  133.7962  152.0717 H   0  0  0  0  0  0  0  0  0  0  0  0
  145.6360  134.5924  150.6448 H   0  0  0  0  0  0  0  0  0  0  0  0
  146.8576  132.0496  150.4968 H   0  0  0  0  0  0  0  0  0  0  0  0
  144.0642  132.8655  149.3799 H   0  0  0  0  0  0  0  0  0  0  0  0
  145.1642  131.5395  148.7374 H   0  0  0  0  0  0  0  0  0  0  0  0
  145.0804  130.3901  150.9739 H   0  0  0  0  0  0  0  0  0  0  0  0
  143.9802  131.7191  151.6121 H   0  0  0  0  0  0  0  0  0  0  0  0
  1  2  1  0  0  0  0
  1 18  1  0  0  0  0
  1 19  1  0  0  0  0
  1 20  1  0  0  0  0
  2  9  1  0  0  0  0
  2  3  2  0  0  0  0
  3  4  1  0  0  0  0
  3 21  1  0  0  0  0
  4  5  2  0  0  0  0
  4  6  1  0  0  0  0
  6  7  1  0  0  0  0
  6  8  1  0  0  0  0
  7 22  1  0  0  0  0
  7 23  1  0  0  0  0
  7 24  1  0  0  0  0
  8  9  2  0  0  0  0
  8 25  1  0  0  0  0
  9 10  1  0  0  0  0
 10 11  1  0  0  0  0
 10 26  1  0  0  0  0
 11 12  2  0  0  0  0
 11 13  1  0  0  0  0
 13 14  1  0  0  0  0
 13 27  1  0  0  0  0
 14 15  1  0  0  0  0
 14 28  1  0  0  0  0
 14 29  1  0  0  0  0
 15 17  1  0  0  0  0
 15 16  1  0  0  0  0
 15 30  1  0  0  0  0
 16 17  1  0  0  0  0
 16 31  1  0  0  0  0
 16 32  1  0  0  0  0
 17 33  1  0  0  0  0
 17 34  1  0  0  0  0
M  END
> <s_m_source_file>
AV-unprocessed.smi

> <i_m_source_file_index>
616

> <i_lp_mmshare_version>
43012

> <i_f3d_flags>
0

> <s_epik_input>
W0NIM11jMVtjSF1jKD1PKW4oW0NIM10pW2NIXWMxW05IXUMoPU8pW05IXVtDSDJdW0NIXTJbQ0gyXVtDSDJdMg==

> <s_epik_cmdline>
J2VwaWtfcHl0aG9uJywgJy1waCcsICc3LjAnLCAnLXRuJywgJzgnLCAnLW1hJywgJzIwMCcsICctbWV0YWxfYmluZGluZycsICctaW1hZScsICc8aW5maWxlLm1hZT4nLCAnLW9tYWUnLCAnPG91dGZpbGUubWFlPic=

> <r_lp_tautomer_probability>
1

> <r_epik_Ionization_Penalty>
2.97505e-05

> <r_epik_Ionization_Penalty_Charging>
8.23988e-06

> <r_epik_Ionization_Penalty_Neutral>
2.15106e-05

> <r_epik_State_Penalty>
-0

> <r_epik_Charging_Adjusted_Penalty>
8.23988e-06

> <i_epik_Tot_Q>
0

> <i_epik_Tot_abs_Q>
0

> <r_epik_Metal_State_Penalty>
-0

> <b_epik_Metal_Only>
0

> <s_lp_Force_Field>
OPLS_2005

> <r_lp_Energy>
26.2007

> <b_lp_Chiralities_Consistent>
1

> <s_lp_Variant>
AV-unprocessed.smi:616-1

> <Gold.Version>
5.8.1

> <Gold.Id.Protein>
6NUR|6NUR_protein|mol2

> <Gold.PLP.Fitness>
39.5458

> <Gold.PLP.PLP>
-31.8308

> <Gold.PLP.part.hbond>
-3.0000

> <Gold.PLP.part.metal>
0.0000

> <Gold.PLP.part.buried>
-5.0066

> <Gold.PLP.part.nonpolar>
-25.3218

> <Gold.PLP.part.repulsive>
0.1242

> <Gold.PLP.ligand.clash>
0.0000

> <Gold.PLP.ligand.torsion>
0.6868

> <Gold.PLP.Chemscore.Hbond>
2.8500

> <Gold.PLP.Chemscore.CHOScore>
0.0000

> <Gold.PLP.Chemscore.Metal>
0.0000

> <Gold.Chemscore.Hbonds>
donor molecule, donor type, donor heavy atom, donor atom, acceptor molecule, acceptor atom, score
      L1  H    10    26       P1  7948  0.80
      L1  H    13    27       P1  7948  1.00
      P1  H  6896  6907       L1     5  1.00

> <Gold.PLP.Chemscore.Internal.Correction>
0.5386

> <Gold.Rescore>
     Score         DG    S(hbond)    S(metal)    S(lipo)     H(rot)  DE(clash)    DE(int)     intcor
     17.03     -17.74       2.24        0.00      66.63       1.18       0.03       0.68       ----

> <Gold.Chemscore.Fitness>
17.0333

> <Gold.Chemscore.DG>
-17.7412

> <Gold.Chemscore.ZeroCoef>
-5.4800

> <Gold.Chemscore.Hbond>
2.2448

> <Gold.Chemscore.Metal>
0.0000

> <Gold.Chemscore.Lipo>
66.6278

> <Gold.Chemscore.Internal_Hbond>
0.0000

> <Gold.Chemscore.DEClash>
0.0276

> <Gold.Chemscore.DEInternal>
0.6804

> <Gold.Chemscore.Rot>
1.1844

> <Gold.Chemscore.Internal.Correction>
   9.000000E+99

> <Gold.Chemscore.Hbonds>
donor molecule, donor type, donor heavy atom, donor atom, acceptor molecule, acceptor atom, score
      L1  H    10    26       P1  7948  0.12
      L1  H    13    27       P1  7948  0.78
      P1  H  6896  6907       L1     5  0.81

> <Gold.Chemscore.Hbond.Weighted>
-7.4977

> <Gold.Chemscore.Metal.Weighted>
-0.0000

> <Gold.Chemscore.Lipo.Weighted>
-7.7955

> <Gold.Chemscore.Internal_Hbond.Weighted>
0.0000

> <Gold.Chemscore.DEClash.Weighted>
0.0276

> <Gold.Chemscore.DEInternal.Weighted>
0.6804

> <Gold.Chemscore.Rot.Weighted>
3.0320

> <Gold.Chemscore.Internal.Correction.Weighted>
   9.000000E+99

> <Gold.Protein.RotatedTorsions>
[ 6907 6896 6895 6894 ] final  166.14 input  -60.11 | X-H torsion
[ 7974 7965 7964 7962 ] final  136.96 input  175.53 | X-H torsion
[ 8008 7997 7996 7995 ] final   34.84 input   59.86 | X-H torsion
[ 10167 10162 10161 10158 ] final  -61.51 input  -65.29 | X-H torsion
[ 10718 10713 10712 10709 ] final -103.82 input   66.30 | X-H torsion
[ 10763 10752 10751 10750 ] final    7.48 input  -60.55 | X-H torsion
[ 11005 11000 10999 10996 ] final -177.14 input  -57.11 | X-H torsion

> <Gold.Protein.ActiveResidues>
 VAL166  LYS551  ARG553  GLY616  TRP617  ASP618  TYR619  PRO620  LYS621  CYS622 
 ASP623  PHE694  ASN695  SER759  ASP760  ASP761  ALA762  ILE779  LEU786  VAL792 
 PHE793  MET794  SER795  GLU796  ALA797  LYS798  CYS799  TRP800  GLU811  SER814 

> <Gold.Protein.RotatedAtoms>
  151.8835  133.3500  159.3773 H   0  0  0  0  0  0  0  0  0  0  0  0  # atno 6907 bound_to 6896
  150.7121  134.4995  159.5564 H   0  0  0  0  0  0  0  0  0  0  0  0  # atno 6908 bound_to 6896
  152.2551  134.8092  160.0490 H   0  0  0  0  0  0  0  0  0  0  0  0  # atno 6909 bound_to 6896
  144.9513  139.4815  143.5524 H   0  0  0  0  0  0  0  0  0  0  0  0  # atno 7974 bound_to 7965
  155.1614  140.3283  155.4411 H   0  0  0  0  0  0  0  0  0  0  0  0  # atno 8008 bound_to 7997
  156.2541  140.1959  156.6671 H   0  0  0  0  0  0  0  0  0  0  0  0  # atno 8009 bound_to 7997
  154.6402  140.0571  156.9823 H   0  0  0  0  0  0  0  0  0  0  0  0  # atno 8010 bound_to 7997
  140.6001  143.2359  151.5947 H   0  0  0  0  0  0  0  0  0  0  0  0  # atno 10167 bound_to 10162
  156.0280  130.5485  150.7307 H   0  0  0  0  0  0  0  0  0  0  0  0  # atno 10718 bound_to 10713
  153.2358  135.6898  153.7838 H   0  0  0  0  0  0  0  0  0  0  0  0  # atno 10763 bound_to 10752
  153.6985  135.3301  155.3220 H   0  0  0  0  0  0  0  0  0  0  0  0  # atno 10764 bound_to 10752
  154.8334  135.4562  154.1262 H   0  0  0  0  0  0  0  0  0  0  0  0  # atno 10765 bound_to 10752
  140.4442  134.6403  157.4772 H   0  0  0  0  0  0  0  0  0  0  0  0  # atno 11005 bound_to 11000
  146.3322  139.8601  142.8858 LP  0  0  0  0  0  0  0  0  0  0  0  0  # atno 17320 bound_to 7965
  145.2839  141.0147  143.3702 LP  0  0  0  0  0  0  0  0  0  0  0  0  # atno 17321 bound_to 7965
  139.5285  144.2986  152.1092 LP  0  0  0  0  0  0  0  0  0  0  0  0  # atno 17342 bound_to 10162
  140.2165  144.4509  150.6361 LP  0  0  0  0  0  0  0  0  0  0  0  0  # atno 17343 bound_to 10162
  157.4900  131.0910  151.0437 LP  0  0  0  0  0  0  0  0  0  0  0  0  # atno 17370 bound_to 10713
  157.0847  130.5917  149.5427 LP  0  0  0  0  0  0  0  0  0  0  0  0  # atno 17371 bound_to 10713
  140.0049  134.6779  155.9470 LP  0  0  0  0  0  0  0  0  0  0  0  0  # atno 17394 bound_to 11000
  141.1692  133.6537  156.4590 LP  0  0  0  0  0  0  0  0  0  0  0  0  # atno 17395 bound_to 11000

$$$$
