#       Name:                AV-unprocessed.smi:276
#       Creating user name   scv26
#       Creation time:       Thu Mar 26 21:35:07 2020


#       File generated by GOLD software.
#

@<TRIPOS>MOLECULE
AV-unprocessed.smi:276
    67    71     1
SMALL
NO_CHARGES


@<TRIPOS>ATOM
      1 ****        -6.3613   0.7650  -2.7953 C.3            1 S1                 0.0000
      2 ****        -5.2593   0.0025  -2.3359 O.3            1 S1                 0.0000
      3 ****        -4.3260   0.7811  -1.6038 C.3            1 S1                 0.0000
      4 ****        -4.7411   1.0799  -0.1580 C.3            1 S1                 0.0000
      5 ****        -3.2826   0.8203   0.2688 C.3            1 S1                 0.0000
      6 ****        -2.4988   2.0638   0.2959 N.3            1 S1                 0.0000
      7 ****        -2.8885   3.0473   1.3018 C.3            1 S1                 0.0000
      8 ****        -1.1549   1.9183   0.2923 C.ar           1 S1                 0.0000
      9 ****        -0.4553   2.7003  -0.5670 N.ar           1 S1                 0.0000
     10 ****         0.8763   2.6045  -0.6258 C.ar           1 S1                 0.0000
     11 ****         1.6887   1.8133   0.0781 N.ar           1 S1                 0.0000
     12 ****         0.9880   1.0357   0.9524 C.ar           1 S1                 0.0000
     13 ****        -0.4243   1.0257   1.1286 C.ar           1 S1                 0.0000
     14 ****        -0.7699   0.1094   2.1154 N.2            1 S1                 0.0000
     15 ****         0.3709  -0.4001   2.4926 C.2            1 S1                 0.0000
     16 ****         1.4774   0.0996   1.8450 N.pl3          1 S1                 0.0000
     17 ****         2.8626  -0.2767   2.0645 C.3            1 S1                 0.0000
     18 ****         3.4178  -1.1687   0.9366 C.3            1 S1                 0.0000
     19 ****         2.6481  -2.3540   0.8622 O.3            1 S1                 0.0000
     20 ****         4.8940  -1.5439   1.1647 C.3            1 S1                 0.0000
     21 ****         5.5093  -2.3991   0.0554 C.3            1 S1                 0.0000
     22 ****         6.9810  -2.0967   0.2176 C.3            1 S1                 0.0000
     23 ****         6.9556  -0.6090   0.5524 C.3            1 S1                 0.0000
     24 ****         5.7078  -0.3728   1.1999 O.3            1 S1                 0.0000
     25 ****        -3.1519  -0.0289  -1.0251 C.3            1 S1                 0.0000
     26 ****        -3.2495  -1.5628  -0.9325 C.3            1 S1                 0.0000
     27 ****        -2.3775  -1.6414  -2.1884 C.3            1 S1                 0.0000
     28 ****        -1.8598  -0.2447  -1.8363 C.3            1 S1                 0.0000
     29 ****        -7.0418   0.1235  -3.3549 H              1 S1                 0.0000
     30 ****        -6.0344   1.5681  -3.4572 H              1 S1                 0.0000
     31 ****        -6.9176   1.2008  -1.9644 H              1 S1                 0.0000
     32 ****        -3.9808   1.6682  -2.1395 H              1 S1                 0.0000
     33 ****        -5.1259   2.0873  -0.0022 H              1 S1                 0.0000
     34 ****        -5.4283   0.3328   0.2427 H              1 S1                 0.0000
     35 ****        -3.2226   0.2348   1.1861 H              1 S1                 0.0000
     36 ****        -2.0994   3.7750   1.5001 H              1 S1                 0.0000
     37 ****        -3.1369   2.5561   2.2431 H              1 S1                 0.0000
     38 ****        -3.7626   3.6048   0.9668 H              1 S1                 0.0000
     39 ****         1.3600   3.2549  -1.3395 H              1 S1                 0.0000
     40 ****         0.4359  -1.1596   3.2580 H              1 S1                 0.0000
     41 ****         3.4491   0.6389   2.1477 H              1 S1                 0.0000
     42 ****         2.9397  -0.7845   3.0269 H              1 S1                 0.0000
     43 ****         3.3239  -0.6464  -0.0165 H              1 S1                 0.0000
     44 ****         2.7378  -2.8215   1.6783 H              1 S1                 0.0000
     45 ****         5.0121  -2.0579   2.1203 H              1 S1                 0.0000
     46 ****         5.2782  -3.4598   0.1571 H              1 S1                 0.0000
     47 ****         5.1659  -2.0660  -0.9252 H              1 S1                 0.0000
     48 ****         7.3893  -2.6643   1.0551 H              1 S1                 0.0000
     49 ****         7.5690  -2.3253  -0.6716 H              1 S1                 0.0000
     50 ****         7.7940  -0.3118   1.1826 H              1 S1                 0.0000
     51 ****         6.9893  -0.0116  -0.3594 H              1 S1                 0.0000
     52 ****        -2.7467  -1.9619  -0.0500 H              1 S1                 0.0000
     53 ****        -4.2509  -1.9798  -1.0411 H              1 S1                 0.0000
     54 ****        -1.6220  -2.4273  -2.1729 H              1 S1                 0.0000
     55 ****        -2.9624  -1.6565  -3.1096 H              1 S1                 0.0000
     56 ****        -1.7334   0.4248  -2.6875 H              1 S1                 0.0000
     57 ****        -0.9560  -0.3019  -1.2303 H              1 S1                 0.0000
     58 ****        -4.7939  -0.3965  -3.1260 LP             1 S1                 0.0000
     59 ****        -5.5997  -0.7291  -1.7451 LP             1 S1                 0.0000
     60 ****        -2.7577   2.4369  -0.5950 LP             1 S1                 0.0000
     61 ****        -0.9362   3.3489  -1.1569 LP             1 S1                 0.0000
     62 ****         2.6834   1.7932  -0.0226 LP             1 S1                 0.0000
     63 ****        -1.6836  -0.1093   2.4579 LP             1 S1                 0.0000
     64 ****         2.9777  -2.9236   0.1092 LP             1 S1                 0.0000
     65 ****         1.6872  -2.1232   0.7096 LP             1 S1                 0.0000
     66 ****         5.8749  -0.1173   2.1522 LP             1 S1                 0.0000
     67 ****         5.2314   0.3725   0.7335 LP             1 S1                 0.0000
@<TRIPOS>BOND
    1    1    2 1     
    2    1   29 1     
    3    1   30 1     
    4    1   31 1     
    5    2    3 1     
    6    3   25 1     
    7    3    4 1     
    8    3   32 1     
    9    4    5 1     
   10    4   33 1     
   11    4   34 1     
   12    5    6 1     
   13    5   25 1     
   14    5   35 1     
   15    6    7 1     
   16    6    8 1     
   17    7   36 1     
   18    7   37 1     
   19    7   38 1     
   20    8   13 ar    
   21    8    9 ar    
   22    9   10 ar    
   23   10   11 ar    
   24   10   39 1     
   25   11   12 ar    
   26   12   16 1     
   27   12   13 ar    
   28   13   14 1     
   29   14   15 2     
   30   15   16 1     
   31   15   40 1     
   32   16   17 1     
   33   17   18 1     
   34   17   41 1     
   35   17   42 1     
   36   18   19 1     
   37   18   20 1     
   38   18   43 1     
   39   19   44 1     
   40   20   24 1     
   41   20   21 1     
   42   20   45 1     
   43   21   22 1     
   44   21   46 1     
   45   21   47 1     
   46   22   23 1     
   47   22   48 1     
   48   22   49 1     
   49   23   24 1     
   50   23   50 1     
   51   23   51 1     
   52   25   28 1     
   53   25   26 1     
   54   26   27 1     
   55   26   52 1     
   56   26   53 1     
   57   27   28 1     
   58   27   54 1     
   59   27   55 1     
   60   28   56 1     
   61   28   57 1     
   62    2   58 1     
   63    2   59 1     
   64    6   60 1     
   65    9   61 1     
   66   11   62 1     
   67   14   63 1     
   68   19   64 1     
   69   19   65 1     
   70   24   66 1     
   71   24   67 1     
@<TRIPOS>SUBSTRUCTURE
      1 S1             1
@<TRIPOS>SET
LONE_PAIRS      STATIC     ATOMS    <user>   **** ""
10 58 59 60 61 62 63 64 65 66 67
DONOR_HYDROGENS      STATIC     ATOMS    <user>   **** ""
1 44
ATOM$BLUE        STATIC     ATOMS    COLORGROUP SYSTEM
10 58 59 60 61 62 63 64 65 66 67
ATOM$RED        STATIC     ATOMS    COLORGROUP SYSTEM
1 44
