AV-unprocessed.smi:3127|AV-procd|sdf|11914|dock10
  -GOLD-   2272017293D 1   1.00000     0.00000
 Structure written by MMmdl.
 34 35  0  0  0  0  0  0  0  0  2 V2000
  149.8656  134.5831  155.0128 C   0  0  0  0  0  0  0  0  0  0  0  0
  148.8437  133.4586  154.7397 C   0  0  0  0  0  0  0  0  0  0  0  0
  149.5364  132.3871  153.8748 C   0  0  0  0  0  0  0  0  0  0  0  0
  148.4301  132.8517  156.0949 C   0  0  0  0  0  0  0  0  0  0  0  0
  147.6217  133.9925  154.0191 C   0  0  0  0  0  0  0  0  0  0  0  0
  146.6530  134.8418  154.5034 C   0  0  0  0  0  0  0  0  0  0  0  0
  145.4211  135.1849  153.3206 S   0  0  0  0  0  0  0  0  0  0  0  0
  146.2784  134.1640  152.1760 C   0  0  0  0  0  0  0  0  0  0  0  0
  145.7795  133.8947  150.7929 C   0  0  2  0  0  0  0  0  0  0  0  0
  144.3880  134.5056  150.5414 C   0  0  0  0  0  0  0  0  0  0  0  0
  143.9087  134.1318  149.1966 N   0  3  0  0  0  0  0  0  0  0  0  0
  143.9235  132.6680  149.0043 C   0  0  0  0  0  0  0  0  0  0  0  0
  145.3238  132.1072  149.3094 C   0  0  0  0  0  0  0  0  0  0  0  0
  145.7147  132.4797  150.6270 O   0  0  0  0  0  0  0  0  0  0  0  0
  147.3795  133.6117  152.6925 N   0  0  0  0  0  0  0  0  0  0  0  0
  150.7473  134.2015  155.5292 H   0  0  0  0  0  0  0  0  0  0  0  0
  149.4407  135.3691  155.6386 H   0  0  0  0  0  0  0  0  0  0  0  0
  150.2095  135.0449  154.0863 H   0  0  0  0  0  0  0  0  0  0  0  0
  149.8384  132.7929  152.9085 H   0  0  0  0  0  0  0  0  0  0  0  0
  148.8796  131.5378  153.6832 H   0  0  0  0  0  0  0  0  0  0  0  0
  150.4313  131.9997  154.3628 H   0  0  0  0  0  0  0  0  0  0  0  0
  149.2951  132.4772  156.6434 H   0  0  0  0  0  0  0  0  0  0  0  0
  147.7414  132.0156  155.9684 H   0  0  0  0  0  0  0  0  0  0  0  0
  147.9361  133.5921  156.7252 H   0  0  0  0  0  0  0  0  0  0  0  0
  146.5827  135.2865  155.4852 H   0  0  0  0  0  0  0  0  0  0  0  0
  146.5033  134.3062  150.0869 H   0  0  0  0  0  0  0  0  0  0  0  0
  143.6742  134.1477  151.2851 H   0  0  0  0  0  0  0  0  0  0  0  0
  144.4222  135.5923  150.6241 H   0  0  0  0  0  0  0  0  0  0  0  0
  142.9687  134.4784  149.0662 H   0  0  0  0  0  0  0  0  0  0  0  0
  143.1839  132.2119  149.6639 H   0  0  0  0  0  0  0  0  0  0  0  0
  143.6301  132.4341  147.9808 H   0  0  0  0  0  0  0  0  0  0  0  0
  145.3181  131.0195  149.2366 H   0  0  0  0  0  0  0  0  0  0  0  0
  146.0554  132.4707  148.5858 H   0  0  0  0  0  0  0  0  0  0  0  0
  144.5143  134.5551  148.5078 H   0  0  0  0  0  0  0  0  0  0  0  0
  1  2  1  0  0  0  0
  1 16  1  0  0  0  0
  1 17  1  0  0  0  0
  1 18  1  0  0  0  0
  2  3  1  0  0  0  0
  2  4  1  0  0  0  0
  2  5  1  0  0  0  0
  3 19  1  0  0  0  0
  3 20  1  0  0  0  0
  3 21  1  0  0  0  0
  4 22  1  0  0  0  0
  4 23  1  0  0  0  0
  4 24  1  0  0  0  0
  5 15  1  0  0  0  0
  5  6  2  0  0  0  0
  6  7  1  0  0  0  0
  6 25  1  0  0  0  0
  7  8  1  0  0  0  0
  8  9  1  0  0  0  0
  8 15  2  0  0  0  0
  9 14  1  0  0  0  0
  9 10  1  0  0  0  0
  9 26  1  0  0  0  0
 10 11  1  0  0  0  0
 10 27  1  0  0  0  0
 10 28  1  0  0  0  0
 11 12  1  0  0  0  0
 11 29  1  0  0  0  0
 11 34  1  0  0  0  0
 12 13  1  0  0  0  0
 12 30  1  0  0  0  0
 12 31  1  0  0  0  0
 13 14  1  0  0  0  0
 13 32  1  0  0  0  0
 13 33  1  0  0  0  0
M  CHG  1  11   1
M  END
> <s_m_source_file>
AV-unprocessed.smi

> <i_m_source_file_index>
3127

> <i_lp_mmshare_version>
43012

> <i_f3d_flags>
0

> <s_epik_input>
W0NIM11DKFtDSDNdKShbQ0gzXSljMVtjSF1zYyhuMSlbQ0BASF0yW0NIMl1bTkhdW0NIMl1bQ0gyXU8y

> <s_epik_cmdline>
J2VwaWtfcHl0aG9uJywgJy1waCcsICc3LjAnLCAnLXRuJywgJzgnLCAnLW1hJywgJzIwMCcsICctbWV0YWxfYmluZGluZycsICctaW1hZScsICc8aW5maWxlLm1hZT4nLCAnLW9tYWUnLCAnPG91dGZpbGUubWFlPic=

> <r_epik_Ionization_Penalty>
0.125708

> <r_epik_Ionization_Penalty_Charging>
0.125708

> <r_epik_Ionization_Penalty_Neutral>
5.37588e-07

> <r_epik_State_Penalty>
0.0155352

> <r_epik_Charging_Adjusted_Penalty>
0.141243

> <i_epik_Tot_Q>
1

> <i_epik_Tot_abs_Q>
1

> <r_epik_Metal_State_Penalty>
0.0155796

> <b_epik_Metal_Only>
0

> <s_lp_Force_Field>
OPLS_2005

> <r_lp_Energy>
5.69116

> <b_lp_Chiralities_Consistent>
1

> <s_lp_Variant>
AV-unprocessed.smi:3127-1

> <Gold.Version>
5.8.1

> <Gold.Id.Protein>
6NUR|6NUR_protein|mol2

> <Gold.PLP.Fitness>
34.5222

> <Gold.PLP.PLP>
-26.1550

> <Gold.PLP.part.hbond>
-2.0000

> <Gold.PLP.part.metal>
0.0000

> <Gold.PLP.part.buried>
-5.0809

> <Gold.PLP.part.nonpolar>
-19.7290

> <Gold.PLP.part.repulsive>
0.4198

> <Gold.PLP.ligand.clash>
0.0000

> <Gold.PLP.ligand.torsion>
0.2985

> <Gold.PLP.Chemscore.Hbond>
2.9840

> <Gold.PLP.Chemscore.CHOScore>
0.0000

> <Gold.PLP.Chemscore.Metal>
0.0000

> <Gold.Chemscore.Hbonds>
donor molecule, donor type, donor heavy atom, donor atom, acceptor molecule, acceptor atom, score
      L1  H    11    29       P1 10186  2.00
      L1  H    11    34       P1  7921  1.00

> <Gold.PLP.Chemscore.Internal.Correction>
0.0123

> <Gold.Rescore>
     Score         DG    S(hbond)    S(metal)    S(lipo)     H(rot)  DE(clash)    DE(int)     intcor
     17.06     -17.32       1.95        0.00      70.47       1.14       0.13       0.13       ----

> <Gold.Chemscore.Fitness>
17.0597

> <Gold.Chemscore.DG>
-17.3162

> <Gold.Chemscore.ZeroCoef>
-5.4800

> <Gold.Chemscore.Hbond>
1.9484

> <Gold.Chemscore.Metal>
0.0000

> <Gold.Chemscore.Lipo>
70.4731

> <Gold.Chemscore.Internal_Hbond>
0.0000

> <Gold.Chemscore.DEClash>
0.1268

> <Gold.Chemscore.DEInternal>
0.1296

> <Gold.Chemscore.Rot>
1.1393

> <Gold.Chemscore.Internal.Correction>
   9.000000E+99

> <Gold.Chemscore.Hbonds>
donor molecule, donor type, donor heavy atom, donor atom, acceptor molecule, acceptor atom, score
      L1  H    11    29       P1 10186  0.91
      L1  H    11    34       P1  7921  0.98

> <Gold.Chemscore.Hbond.Weighted>
-6.5076

> <Gold.Chemscore.Metal.Weighted>
-0.0000

> <Gold.Chemscore.Lipo.Weighted>
-8.2454

> <Gold.Chemscore.Internal_Hbond.Weighted>
0.0000

> <Gold.Chemscore.DEClash.Weighted>
0.1268

> <Gold.Chemscore.DEInternal.Weighted>
0.1296

> <Gold.Chemscore.Rot.Weighted>
2.9167

> <Gold.Chemscore.Internal.Correction.Weighted>
   9.000000E+99

> <Gold.Protein.RotatedTorsions>
[ 6907 6896 6895 6894 ] final  132.78 input  -60.11 | X-H torsion
[ 7974 7965 7964 7962 ] final  162.83 input  175.53 | X-H torsion
[ 8008 7997 7996 7995 ] final  -24.17 input   59.86 | X-H torsion
[ 10167 10162 10161 10158 ] final  -74.04 input  -65.29 | X-H torsion
[ 10718 10713 10712 10709 ] final -110.42 input   66.30 | X-H torsion
[ 10763 10752 10751 10750 ] final  100.94 input  -60.55 | X-H torsion
[ 11005 11000 10999 10996 ] final  155.09 input  -57.11 | X-H torsion

> <Gold.Protein.ActiveResidues>
 VAL166  LYS551  ARG553  GLY616  TRP617  ASP618  TYR619  PRO620  LYS621  CYS622 
 ASP623  PHE694  ASN695  SER759  ASP760  ASP761  ALA762  ILE779  LEU786  VAL792 
 PHE793  MET794  SER795  GLU796  ALA797  LYS798  CYS799  TRP800  GLU811  SER814 

> <Gold.Protein.RotatedAtoms>
  152.3288  133.5935  159.5795 H   0  0  0  0  0  0  0  0  0  0  0  0  # atno 6907 bound_to 6896
  150.7411  133.9899  159.3612 H   0  0  0  0  0  0  0  0  0  0  0  0  # atno 6908 bound_to 6896
  151.7776  135.0770  160.0420 H   0  0  0  0  0  0  0  0  0  0  0  0  # atno 6909 bound_to 6896
  144.7618  139.8096  143.6330 H   0  0  0  0  0  0  0  0  0  0  0  0  # atno 7974 bound_to 7965
  154.4544  140.1961  156.0424 H   0  0  0  0  0  0  0  0  0  0  0  0  # atno 8008 bound_to 7997
  156.0715  140.3284  155.7554 H   0  0  0  0  0  0  0  0  0  0  0  0  # atno 8009 bound_to 7997
  155.5256  140.0573  157.2889 H   0  0  0  0  0  0  0  0  0  0  0  0  # atno 8010 bound_to 7997
  140.5060  143.2353  151.7673 H   0  0  0  0  0  0  0  0  0  0  0  0  # atno 10167 bound_to 10162
  156.0590  130.5814  150.8234 H   0  0  0  0  0  0  0  0  0  0  0  0  # atno 10718 bound_to 10713
  153.3203  135.4061  155.1411 H   0  0  0  0  0  0  0  0  0  0  0  0  # atno 10763 bound_to 10752
  154.8599  135.3586  154.5605 H   0  0  0  0  0  0  0  0  0  0  0  0  # atno 10764 bound_to 10752
  153.6038  135.7070  153.5432 H   0  0  0  0  0  0  0  0  0  0  0  0  # atno 10765 bound_to 10752
  140.1549  134.8649  157.2501 H   0  0  0  0  0  0  0  0  0  0  0  0  # atno 11005 bound_to 11000
  146.1688  139.4830  142.9941 LP  0  0  0  0  0  0  0  0  0  0  0  0  # atno 17320 bound_to 7965
  145.6596  141.0244  143.1716 LP  0  0  0  0  0  0  0  0  0  0  0  0  # atno 17321 bound_to 7965
  139.4884  144.4456  151.9713 LP  0  0  0  0  0  0  0  0  0  0  0  0  # atno 17342 bound_to 10162
  140.3547  144.3046  150.5943 LP  0  0  0  0  0  0  0  0  0  0  0  0  # atno 17343 bound_to 10162
  157.5583  131.0945  150.9596 LP  0  0  0  0  0  0  0  0  0  0  0  0  # atno 17370 bound_to 10713
  156.9839  130.5537  149.5298 LP  0  0  0  0  0  0  0  0  0  0  0  0  # atno 17371 bound_to 10713
  140.2560  134.3627  155.7424 LP  0  0  0  0  0  0  0  0  0  0  0  0  # atno 17394 bound_to 11000
  141.2203  133.7343  156.9007 LP  0  0  0  0  0  0  0  0  0  0  0  0  # atno 17395 bound_to 11000

$$$$
