AV-unprocessed.smi:2489|AV-procd|sdf|9801|dock10
  -GOLD-   2272013433D 1   1.00000     0.00000
 Structure written by MMmdl.
 33 34  0  0  0  0  0  0  0  0  1 V2000
  152.7881  143.1482  162.0580 C   0  0  0  0  0  0  0  0  0  0  0  0
  153.0872  142.9098  160.6899 O   0  0  0  0  0  0  0  0  0  0  0  0
  152.1044  143.1865  159.7676 C   0  0  0  0  0  0  0  0  0  0  0  0
  151.6068  144.5344  159.5032 C   0  0  0  0  0  0  0  0  0  0  0  0
  150.6466  144.6871  158.5792 C   0  0  0  0  0  0  0  0  0  0  0  0
  150.1194  143.6144  157.8752 N   0  0  0  0  0  0  0  0  0  0  0  0
  150.5504  142.2914  158.0792 C   0  0  0  0  0  0  0  0  0  0  0  0
  150.0971  141.2446  157.4528 N   0  0  0  0  0  0  0  0  0  0  0  0
  149.1091  141.3227  156.4746 C   0  0  0  0  0  0  0  0  0  0  0  0
  147.9556  141.7538  156.5607 O   0  0  0  0  0  0  0  0  0  0  0  0
  149.6036  140.7827  155.1259 C   0  0  2  0  0  0  0  0  0  0  0  0
  148.6758  139.7107  154.5271 C   0  0  0  0  0  0  0  0  0  0  0  0
  149.4843  138.4336  154.6413 C   0  0  0  0  0  0  0  0  0  0  0  0
  150.9123  138.9556  154.5356 C   0  0  2  0  0  0  0  0  0  0  0  0
  151.9724  137.9951  155.0848 C   0  0  0  0  0  0  0  0  0  0  0  0
  150.8695  140.1461  155.3072 O   0  0  0  0  0  0  0  0  0  0  0  0
  151.5921  142.1356  159.0852 C   0  0  0  0  0  0  0  0  0  0  0  0
  153.6554  142.8881  162.6646 H   0  0  0  0  0  0  0  0  0  0  0  0
  151.9537  142.5336  162.3989 H   0  0  0  0  0  0  0  0  0  0  0  0
  152.5636  144.1999  162.2417 H   0  0  0  0  0  0  0  0  0  0  0  0
  151.9804  145.4038  160.0224 H   0  0  0  0  0  0  0  0  0  0  0  0
  150.2204  145.6454  158.3216 H   0  0  0  0  0  0  0  0  0  0  0  0
  149.7260  141.6073  154.4215 H   0  0  0  0  0  0  0  0  0  0  0  0
  147.7109  139.6262  155.0296 H   0  0  0  0  0  0  0  0  0  0  0  0
  148.4802  139.9380  153.4784 H   0  0  0  0  0  0  0  0  0  0  0  0
  149.3169  137.9752  155.6169 H   0  0  0  0  0  0  0  0  0  0  0  0
  149.2382  137.7018  153.8716 H   0  0  0  0  0  0  0  0  0  0  0  0
  151.1382  139.2172  153.5003 H   0  0  0  0  0  0  0  0  0  0  0  0
  151.9883  137.0647  154.5168 H   0  0  0  0  0  0  0  0  0  0  0  0
  151.7787  137.7477  156.1289 H   0  0  0  0  0  0  0  0  0  0  0  0
  152.9664  138.4391  155.0266 H   0  0  0  0  0  0  0  0  0  0  0  0
  151.9904  141.1573  159.3141 H   0  0  0  0  0  0  0  0  0  0  0  0
  149.3986  143.8295  157.2007 H   0  0  0  0  0  0  0  0  0  0  0  0
  1  2  1  0  0  0  0
  1 18  1  0  0  0  0
  1 19  1  0  0  0  0
  1 20  1  0  0  0  0
  2  3  1  0  0  0  0
  3 17  2  0  0  0  0
  3  4  1  0  0  0  0
  4  5  2  0  0  0  0
  4 21  1  0  0  0  0
  5  6  1  0  0  0  0
  5 22  1  0  0  0  0
  6  7  1  0  0  0  0
  6 33  1  0  0  0  0
  7  8  2  0  0  0  0
  7 17  1  0  0  0  0
  8  9  1  0  0  0  0
  9 10  2  0  0  0  0
  9 11  1  0  0  0  0
 11 16  1  0  0  0  0
 11 12  1  0  0  0  0
 11 23  1  0  0  0  0
 12 13  1  0  0  0  0
 12 24  1  0  0  0  0
 12 25  1  0  0  0  0
 13 14  1  0  0  0  0
 13 26  1  0  0  0  0
 13 27  1  0  0  0  0
 14 15  1  0  0  0  0
 14 16  1  0  0  0  0
 14 28  1  0  0  0  0
 15 29  1  0  0  0  0
 15 30  1  0  0  0  0
 15 31  1  0  0  0  0
 17 32  1  0  0  0  0
M  END
> <s_m_source_file>
AV-unprocessed.smi

> <i_m_source_file_index>
2489

> <i_lp_mmshare_version>
43012

> <i_f3d_flags>
0

> <s_epik_input>
W0NIM11PYzFbY0hdW2NIXW5jKFtjSF0xKVtOSF1DKD1PKVtDQEBIXTJbQ0gyXVtDSDJdW0NASF0oTzIpW0NIM10=

> <s_epik_cmdline>
J2VwaWtfcHl0aG9uJywgJy1waCcsICc3LjAnLCAnLXRuJywgJzgnLCAnLW1hJywgJzIwMCcsICctbWV0YWxfYmluZGluZycsICctaW1hZScsICc8aW5maWxlLm1hZT4nLCAnLW9tYWUnLCAnPG91dGZpbGUubWFlPic=

> <r_epik_Ionization_Penalty>
0.410206

> <r_epik_Ionization_Penalty_Charging>
0.410206

> <r_epik_Ionization_Penalty_Neutral>
6.57528e-13

> <r_epik_State_Penalty>
1.30987

> <r_epik_Charging_Adjusted_Penalty>
1.72007

> <i_epik_Tot_Q>
0

> <i_epik_Tot_abs_Q>
0

> <r_epik_Metal_State_Penalty>
1.32171

> <b_epik_Metal_Only>
0

> <s_lp_Force_Field>
OPLS_2005

> <r_lp_Energy>
35.4329

> <b_lp_Chiralities_Consistent>
1

> <s_lp_Variant>
AV-unprocessed.smi:2489-7

> <Gold.Version>
5.8.1

> <Gold.Id.Protein>
6NUR|6NUR_protein|mol2

> <Gold.PLP.Fitness>
40.3658

> <Gold.PLP.PLP>
-36.2526

> <Gold.PLP.part.hbond>
-2.2996

> <Gold.PLP.part.metal>
0.0000

> <Gold.PLP.part.buried>
-4.1409

> <Gold.PLP.part.nonpolar>
-30.0402

> <Gold.PLP.part.repulsive>
0.3156

> <Gold.PLP.ligand.clash>
0.0000

> <Gold.PLP.ligand.torsion>
0.7198

> <Gold.PLP.Chemscore.Hbond>
1.0000

> <Gold.PLP.Chemscore.CHOScore>
0.8490

> <Gold.PLP.Chemscore.Metal>
0.0000

> <Gold.Chemscore.Hbonds>
donor molecule, donor type, donor heavy atom, donor atom, acceptor molecule, acceptor atom, score
      L1  H     6    33       P1  8028  0.98
      L1  C     5    22       P1  8029  0.87

> <Gold.PLP.Chemscore.Internal.Correction>
0.0058

> <Gold.Rescore>
     Score         DG    S(hbond)    S(metal)    S(lipo)     H(rot)  DE(clash)    DE(int)     intcor
     15.52     -16.91       0.99        0.00      96.26       1.23       0.20       1.19       ----

> <Gold.Chemscore.Fitness>
15.5226

> <Gold.Chemscore.DG>
-16.9095

> <Gold.Chemscore.ZeroCoef>
-5.4800

> <Gold.Chemscore.Hbond>
0.9902

> <Gold.Chemscore.Metal>
0.0000

> <Gold.Chemscore.Lipo>
96.2558

> <Gold.Chemscore.Internal_Hbond>
0.0000

> <Gold.Chemscore.DEClash>
0.2011

> <Gold.Chemscore.DEInternal>
1.1858

> <Gold.Chemscore.Rot>
1.2264

> <Gold.Chemscore.Internal.Correction>
   9.000000E+99

> <Gold.Chemscore.Hbonds>
donor molecule, donor type, donor heavy atom, donor atom, acceptor molecule, acceptor atom, score
      L1  H     6    33       P1  8028  0.52

> <Gold.Chemscore.Hbond.Weighted>
-3.3071

> <Gold.Chemscore.Metal.Weighted>
-0.0000

> <Gold.Chemscore.Lipo.Weighted>
-11.2619

> <Gold.Chemscore.Internal_Hbond.Weighted>
0.0000

> <Gold.Chemscore.DEClash.Weighted>
0.2011

> <Gold.Chemscore.DEInternal.Weighted>
1.1858

> <Gold.Chemscore.Rot.Weighted>
3.1396

> <Gold.Chemscore.Internal.Correction.Weighted>
   9.000000E+99

> <Gold.Protein.RotatedTorsions>
[ 6907 6896 6895 6894 ] final   50.16 input  -60.11 | X-H torsion
[ 7974 7965 7964 7962 ] final -100.11 input  175.53 | X-H torsion
[ 8008 7997 7996 7995 ] final  -23.58 input   59.86 | X-H torsion
[ 10167 10162 10161 10158 ] final   19.81 input  -65.29 | X-H torsion
[ 10718 10713 10712 10709 ] final   19.58 input   66.30 | X-H torsion
[ 10763 10752 10751 10750 ] final   69.48 input  -60.55 | X-H torsion
[ 11005 11000 10999 10996 ] final  -70.83 input  -57.11 | X-H torsion

> <Gold.Protein.ActiveResidues>
 VAL166  LYS551  ARG553  GLY616  TRP617  ASP618  TYR619  PRO620  LYS621  CYS622 
 ASP623  PHE694  ASN695  SER759  ASP760  ASP761  ALA762  ILE779  LEU786  VAL792 
 PHE793  MET794  SER795  GLU796  ALA797  LYS798  CYS799  TRP800  GLU811  SER814 

> <Gold.Protein.RotatedAtoms>
  152.2987  134.7636  160.0362 H   0  0  0  0  0  0  0  0  0  0  0  0  # atno 6907 bound_to 6896
  151.8157  133.3382  159.3577 H   0  0  0  0  0  0  0  0  0  0  0  0  # atno 6908 bound_to 6896
  150.7263  134.5551  159.5858 H   0  0  0  0  0  0  0  0  0  0  0  0  # atno 6909 bound_to 6896
  145.2988  140.9372  143.2836 H   0  0  0  0  0  0  0  0  0  0  0  0  # atno 7974 bound_to 7965
  154.4577  140.1977  156.0332 H   0  0  0  0  0  0  0  0  0  0  0  0  # atno 8008 bound_to 7997
  156.0779  140.3275  155.7629 H   0  0  0  0  0  0  0  0  0  0  0  0  # atno 8009 bound_to 7997
  155.5158  140.0565  157.2906 H   0  0  0  0  0  0  0  0  0  0  0  0  # atno 8010 bound_to 7997
  140.5551  143.9440  150.6603 H   0  0  0  0  0  0  0  0  0  0  0  0  # atno 10167 bound_to 10162
  157.1125  130.6514  149.5901 H   0  0  0  0  0  0  0  0  0  0  0  0  # atno 10718 bound_to 10713
  153.0289  135.5209  154.7294 H   0  0  0  0  0  0  0  0  0  0  0  0  # atno 10763 bound_to 10752
  154.6326  135.2902  155.0200 H   0  0  0  0  0  0  0  0  0  0  0  0  # atno 10764 bound_to 10752
  154.1147  135.6617  153.4944 H   0  0  0  0  0  0  0  0  0  0  0  0  # atno 10765 bound_to 10752
  141.1581  133.6800  156.6813 H   0  0  0  0  0  0  0  0  0  0  0  0  # atno 11005 bound_to 11000
  144.9111  139.4527  143.6586 LP  0  0  0  0  0  0  0  0  0  0  0  0  # atno 17320 bound_to 7965
  146.3159  139.7920  142.8983 LP  0  0  0  0  0  0  0  0  0  0  0  0  # atno 17321 bound_to 7965
  140.2876  143.3346  152.1093 LP  0  0  0  0  0  0  0  0  0  0  0  0  # atno 17342 bound_to 10162
  139.5044  144.6775  151.6092 LP  0  0  0  0  0  0  0  0  0  0  0  0  # atno 17343 bound_to 10162
  155.9847  130.4873  150.6996 LP  0  0  0  0  0  0  0  0  0  0  0  0  # atno 17370 bound_to 10713
  157.4547  131.0876  151.0809 LP  0  0  0  0  0  0  0  0  0  0  0  0  # atno 17371 bound_to 10713
  140.3100  134.8093  157.4169 LP  0  0  0  0  0  0  0  0  0  0  0  0  # atno 17394 bound_to 11000
  140.1186  134.5249  155.8203 LP  0  0  0  0  0  0  0  0  0  0  0  0  # atno 17395 bound_to 11000

$$$$
