AV-unprocessed.smi:114|AV-procd|sdf|1107|dock4
  -GOLD-   2262018223D 1   1.00000     0.00000
 Structure written by MMmdl.
 32 34  0  0  0  0  0  0  0  0  1 V2000
  152.7653  140.3827  159.1380 N   0  0  0  0  0  0  0  0  0  0  0  0
  152.2919  140.1822  157.9001 C   0  0  0  0  0  0  0  0  0  0  0  0
  152.8729  139.2299  157.1336 N   0  0  0  0  0  0  0  0  0  0  0  0
  152.4300  138.9966  155.8912 C   0  0  0  0  0  0  0  0  0  0  0  0
  153.0697  138.0258  155.1979 F   0  0  0  0  0  0  0  0  0  0  0  0
  151.4271  139.6151  155.2578 N   0  0  0  0  0  0  0  0  0  0  0  0
  150.8418  140.5757  156.0295 C   0  0  0  0  0  0  0  0  0  0  0  0
  151.2118  140.9192  157.3563 C   0  0  0  0  0  0  0  0  0  0  0  0
  150.3927  141.9371  157.8277 N   0  0  0  0  0  0  0  0  0  0  0  0
  149.5840  142.1774  156.8295 C   0  0  0  0  0  0  0  0  0  0  0  0
  149.7884  141.4012  155.7082 N   0  0  0  0  0  0  0  0  0  0  0  0
  149.0501  141.4088  154.4092 C   0  0  2  0  0  0  0  0  0  0  0  0
  148.0617  142.3806  154.4784 O   0  0  0  0  0  0  0  0  0  0  0  0
  147.0713  142.0530  153.5178 C   0  0  2  0  0  0  0  0  0  0  0  0
  145.7727  142.8138  153.8238 C   0  0  0  0  0  0  0  0  0  0  0  0
  145.6875  143.0844  155.2065 O   0  0  0  0  0  0  0  0  0  0  0  0
  146.9423  140.5303  153.6699 C   0  0  1  0  0  0  0  0  0  0  0  0
  146.5932  139.9478  152.4302 O   0  0  0  0  0  0  0  0  0  0  0  0
  148.3367  140.0754  154.1049 C   0  0  2  0  0  0  0  0  0  0  0  0
  148.2565  139.1951  155.2123 O   0  0  0  0  0  0  0  0  0  0  0  0
  149.7895  141.6819  153.6544 H   0  0  0  0  0  0  0  0  0  0  0  0
  147.4483  142.2998  152.5224 H   0  0  0  0  0  0  0  0  0  0  0  0
  146.1958  140.2843  154.4270 H   0  0  0  0  0  0  0  0  0  0  0  0
  148.8816  139.5804  153.2997 H   0  0  0  0  0  0  0  0  0  0  0  0
  152.3475  141.0874  159.7287 H   0  0  0  0  0  0  0  0  0  0  0  0
  153.5393  139.8301  159.4774 H   0  0  0  0  0  0  0  0  0  0  0  0
  148.8109  142.9298  156.8865 H   0  0  0  0  0  0  0  0  0  0  0  0
  145.7675  143.7710  153.3019 H   0  0  0  0  0  0  0  0  0  0  0  0
  144.8970  142.2569  153.4893 H   0  0  0  0  0  0  0  0  0  0  0  0
  146.1630  142.4149  155.6743 H   0  0  0  0  0  0  0  0  0  0  0  0
  145.6508  139.9425  152.3566 H   0  0  0  0  0  0  0  0  0  0  0  0
  148.1335  138.3163  154.8878 H   0  0  0  0  0  0  0  0  0  0  0  0
  1  2  1  0  0  0  0
  1 25  1  0  0  0  0
  1 26  1  0  0  0  0
  2  8  1  0  0  0  0
  2  3  2  0  0  0  0
  3  4  1  0  0  0  0
  4  5  1  0  0  0  0
  4  6  2  0  0  0  0
  6  7  1  0  0  0  0
  7 11  1  0  0  0  0
  7  8  2  0  0  0  0
  8  9  1  0  0  0  0
  9 10  2  0  0  0  0
 10 11  1  0  0  0  0
 10 27  1  0  0  0  0
 11 12  1  0  0  0  0
 12 21  1  0  0  0  0
 12 19  1  0  0  0  0
 12 13  1  0  0  0  0
 13 14  1  0  0  0  0
 14 22  1  0  0  0  0
 14 15  1  0  0  0  0
 14 17  1  0  0  0  0
 15 16  1  0  0  0  0
 15 28  1  0  0  0  0
 15 29  1  0  0  0  0
 16 30  1  0  0  0  0
 17 23  1  0  0  0  0
 17 18  1  0  0  0  0
 17 19  1  0  0  0  0
 18 31  1  0  0  0  0
 19 24  1  0  0  0  0
 19 20  1  0  0  0  0
 20 32  1  0  0  0  0
M  END
> <s_m_source_file>
AV-unprocessed.smi

> <i_m_source_file_index>
114

> <i_lp_mmshare_version>
43012

> <i_f3d_flags>
0

> <s_epik_input>
RmMobjEpbmMoW05IMl0pYyhjMTIpbltjSF1uMltDQEBIXTNPW0NASF0oW0NIMl1bT0hdKVtDQEBIXShbT0hdKVtDQEBIXTNbT0hd

> <s_epik_cmdline>
J2VwaWtfcHl0aG9uJywgJy1waCcsICc3LjAnLCAnLXRuJywgJzgnLCAnLW1hJywgJzIwMCcsICctbWV0YWxfYmluZGluZycsICctaW1hZScsICc8aW5maWxlLm1hZT4nLCAnLW9tYWUnLCAnPG91dGZpbGUubWFlPic=

> <r_lp_tautomer_probability>
1

> <r_epik_Ionization_Penalty>
1.13199e-05

> <r_epik_Ionization_Penalty_Charging>
0

> <r_epik_Ionization_Penalty_Neutral>
1.13199e-05

> <r_epik_State_Penalty>
-0

> <r_epik_Charging_Adjusted_Penalty>
0

> <i_epik_Tot_Q>
0

> <i_epik_Tot_abs_Q>
0

> <r_epik_Metal_State_Penalty>
-0

> <b_epik_Metal_Only>
0

> <s_epik_Chemistry_Notes>
This compound contains an acetal/aminal-like group ( X-CH(R)-Y where X, Y are N, S, or O) that may be acid/base labile, releasing an aldehyde.

> <s_lp_Force_Field>
OPLS_2005

> <r_lp_Energy>
35.9839

> <b_lp_Chiralities_Consistent>
1

> <s_lp_Variant>
AV-unprocessed.smi:114-1

> <Gold.Version>
5.8.1

> <Gold.Id.Protein>
6NUR|6NUR_protein|mol2

> <Gold.PLP.Fitness>
40.1865

> <Gold.PLP.PLP>
-30.0747

> <Gold.PLP.part.hbond>
-3.0106

> <Gold.PLP.part.metal>
0.0000

> <Gold.PLP.part.buried>
-0.6839

> <Gold.PLP.part.nonpolar>
-28.0766

> <Gold.PLP.part.repulsive>
3.2639

> <Gold.PLP.ligand.clash>
0.0000

> <Gold.PLP.ligand.torsion>
0.3702

> <Gold.PLP.Chemscore.Hbond>
3.0000

> <Gold.PLP.Chemscore.CHOScore>
0.6133

> <Gold.PLP.Chemscore.Metal>
0.0000

> <Gold.Chemscore.Hbonds>
donor molecule, donor type, donor heavy atom, donor atom, acceptor molecule, acceptor atom, score
      L1  H    18    31       P1 10175  0.99
      P1  H  7989  7998       L1     6  0.53
      P1  H  7997  8010       L1     3  0.27
      L1  C    10    27       P1  8028  0.84

> <Gold.PLP.Chemscore.Internal.Correction>
0.0125

> <Gold.Rescore>
     Score         DG    S(hbond)    S(metal)    S(lipo)     H(rot)  DE(clash)    DE(int)     intcor
      2.15      -4.57       1.77        0.00      29.74       4.03       1.16       1.25       ----

> <Gold.Chemscore.Fitness>
2.1543

> <Gold.Chemscore.DG>
-4.5654

> <Gold.Chemscore.ZeroCoef>
-5.4800

> <Gold.Chemscore.Hbond>
1.7715

> <Gold.Chemscore.Metal>
0.0000

> <Gold.Chemscore.Lipo>
29.7388

> <Gold.Chemscore.Internal_Hbond>
0.0000

> <Gold.Chemscore.DEClash>
1.1590

> <Gold.Chemscore.DEInternal>
1.2521

> <Gold.Chemscore.Rot>
4.0277

> <Gold.Chemscore.Internal.Correction>
   9.000000E+99

> <Gold.Chemscore.Hbonds>
donor molecule, donor type, donor heavy atom, donor atom, acceptor molecule, acceptor atom, score
      L1  H    18    31       P1 10175  0.81
      P1  H  7989  7998       L1     6  0.08

> <Gold.Chemscore.Hbond.Weighted>
-5.9170

> <Gold.Chemscore.Metal.Weighted>
-0.0000

> <Gold.Chemscore.Lipo.Weighted>
-3.4794

> <Gold.Chemscore.Internal_Hbond.Weighted>
0.0000

> <Gold.Chemscore.DEClash.Weighted>
1.1590

> <Gold.Chemscore.DEInternal.Weighted>
1.2521

> <Gold.Chemscore.Rot.Weighted>
10.3110

> <Gold.Chemscore.Internal.Correction.Weighted>
   9.000000E+99

> <Gold.Protein.RotatedTorsions>
[ 6907 6896 6895 6894 ] final  134.60 input  -60.11 | X-H torsion
[ 7974 7965 7964 7962 ] final  178.24 input  175.53 | X-H torsion
[ 8008 7997 7996 7995 ] final   80.99 input   59.86 | X-H torsion
[ 10167 10162 10161 10158 ] final   17.09 input  -65.29 | X-H torsion
[ 10718 10713 10712 10709 ] final -130.18 input   66.30 | X-H torsion
[ 10763 10752 10751 10750 ] final  -75.40 input  -60.55 | X-H torsion
[ 11005 11000 10999 10996 ] final -127.68 input  -57.11 | X-H torsion

> <Gold.Protein.ActiveResidues>
 VAL166  LYS551  ARG553  GLY616  TRP617  ASP618  TYR619  PRO620  LYS621  CYS622 
 ASP623  PHE694  ASN695  SER759  ASP760  ASP761  ALA762  ILE779  LEU786  VAL792 
 PHE793  MET794  SER795  GLU796  ALA797  LYS798  CYS799  TRP800  GLU811  SER814 

> <Gold.Protein.RotatedAtoms>
  152.3095  133.5738  159.5671 H   0  0  0  0  0  0  0  0  0  0  0  0  # atno 6907 bound_to 6896
  150.7316  134.0173  159.3698 H   0  0  0  0  0  0  0  0  0  0  0  0  # atno 6908 bound_to 6896
  151.8067  135.0693  160.0458 H   0  0  0  0  0  0  0  0  0  0  0  0  # atno 6909 bound_to 6896
  144.7158  140.0368  143.6438 H   0  0  0  0  0  0  0  0  0  0  0  0  # atno 7974 bound_to 7965
  155.8910  140.3439  155.5956 H   0  0  0  0  0  0  0  0  0  0  0  0  # atno 8008 bound_to 7997
  155.7610  140.0832  157.2174 H   0  0  0  0  0  0  0  0  0  0  0  0  # atno 8009 bound_to 7997
  154.4033  140.1536  156.2820 H   0  0  0  0  0  0  0  0  0  0  0  0  # atno 8010 bound_to 7997
  140.5751  143.9088  150.6744 H   0  0  0  0  0  0  0  0  0  0  0  0  # atno 10167 bound_to 10162
  156.2119  130.6923  151.0659 H   0  0  0  0  0  0  0  0  0  0  0  0  # atno 10718 bound_to 10713
  154.4861  135.5832  153.6425 H   0  0  0  0  0  0  0  0  0  0  0  0  # atno 10763 bound_to 10752
  152.9855  135.6101  154.3185 H   0  0  0  0  0  0  0  0  0  0  0  0  # atno 10764 bound_to 10752
  154.3080  135.2845  155.2559 H   0  0  0  0  0  0  0  0  0  0  0  0  # atno 10765 bound_to 10752
  140.9580  134.0976  157.3997 H   0  0  0  0  0  0  0  0  0  0  0  0  # atno 11005 bound_to 11000
  146.0057  139.3127  143.0901 LP  0  0  0  0  0  0  0  0  0  0  0  0  # atno 17320 bound_to 7965
  145.8742  140.9402  143.0635 LP  0  0  0  0  0  0  0  0  0  0  0  0  # atno 17321 bound_to 7965
  140.2573  143.3549  152.1354 LP  0  0  0  0  0  0  0  0  0  0  0  0  # atno 17342 bound_to 10162
  139.5138  144.6938  151.5686 LP  0  0  0  0  0  0  0  0  0  0  0  0  # atno 17343 bound_to 10162
  157.7043  131.0763  150.6720 LP  0  0  0  0  0  0  0  0  0  0  0  0  # atno 17370 bound_to 10713
  156.6779  130.4558  149.5637 LP  0  0  0  0  0  0  0  0  0  0  0  0  # atno 17371 bound_to 10713
  139.8868  135.0085  156.6523 LP  0  0  0  0  0  0  0  0  0  0  0  0  # atno 17394 bound_to 11000
  140.7509  133.8898  155.8346 LP  0  0  0  0  0  0  0  0  0  0  0  0  # atno 17395 bound_to 11000

$$$$
