AV-unprocessed.smi:1573|AV-procd|sdf|6333|dock8
  -GOLD-   22720 6543D 1   1.00000     0.00000
 Structure written by MMmdl.
 41 41  0  0  0  0  0  0  0  0  1 V2000
  152.2540  137.8574  154.6487 C   0  0  0  0  0  0  0  0  0  0  0  0
  152.3332  138.4251  156.0730 C   0  0  0  0  0  0  0  0  0  0  0  0
  151.5566  139.6520  156.2043 N   0  0  0  0  0  0  0  0  0  0  0  0
  150.2731  139.7921  155.8399 C   0  0  0  0  0  0  0  0  0  0  0  0
  149.5982  138.8694  155.3800 O   0  0  0  0  0  0  0  0  0  0  0  0
  149.6635  141.1921  156.0116 C   0  0  2  0  0  0  0  0  0  0  0  0
  149.1575  141.6772  154.6422 C   0  0  0  0  0  0  0  0  0  0  0  0
  150.7103  142.1059  156.4603 N   0  0  0  0  0  0  0  0  0  0  0  0
  150.6627  142.8407  157.5830 C   0  0  0  0  0  0  0  0  0  0  0  0
  149.6752  142.8980  158.3158 O   0  0  0  0  0  0  0  0  0  0  0  0
  151.9355  143.6003  157.9545 C   0  0  0  0  0  0  0  0  0  0  0  0
  152.2672  143.3280  159.4003 C   0  0  0  0  0  0  0  0  0  0  0  0
  152.7163  142.0996  159.9674 C   0  0  0  0  0  0  0  0  0  0  0  0
  152.9563  140.7906  159.2710 C   0  0  0  0  0  0  0  0  0  0  0  0
  152.9372  142.1939  161.2680 N   0  0  0  0  0  0  0  0  0  0  0  0
  152.6456  143.4738  161.5745 N   0  0  0  0  0  0  0  0  0  0  0  0
  152.7907  143.9262  162.9444 C   0  0  0  0  0  0  0  0  0  0  0  0
  152.2298  144.1869  160.4671 C   0  0  0  0  0  0  0  0  0  0  0  0
  151.8485  145.6300  160.5477 C   0  0  0  0  0  0  0  0  0  0  0  0
  152.8691  136.9625  154.5544 H   0  0  0  0  0  0  0  0  0  0  0  0
  152.6067  138.5827  153.9151 H   0  0  0  0  0  0  0  0  0  0  0  0
  151.2321  137.5844  154.3835 H   0  0  0  0  0  0  0  0  0  0  0  0
  151.9938  137.6838  156.7981 H   0  0  0  0  0  0  0  0  0  0  0  0
  153.3703  138.6512  156.3207 H   0  0  0  0  0  0  0  0  0  0  0  0
  152.0376  140.4613  156.5697 H   0  0  0  0  0  0  0  0  0  0  0  0
  148.8348  141.1710  156.7224 H   0  0  0  0  0  0  0  0  0  0  0  0
  148.3842  141.0154  154.2501 H   0  0  0  0  0  0  0  0  0  0  0  0
  149.9578  141.7300  153.9022 H   0  0  0  0  0  0  0  0  0  0  0  0
  148.7206  142.6729  154.7222 H   0  0  0  0  0  0  0  0  0  0  0  0
  151.5645  142.1175  155.9220 H   0  0  0  0  0  0  0  0  0  0  0  0
  152.7540  143.3060  157.2963 H   0  0  0  0  0  0  0  0  0  0  0  0
  151.7699  144.6627  157.7741 H   0  0  0  0  0  0  0  0  0  0  0  0
  153.6734  140.9092  158.4587 H   0  0  0  0  0  0  0  0  0  0  0  0
  152.0321  140.4019  158.8439 H   0  0  0  0  0  0  0  0  0  0  0  0
  153.3497  140.0349  159.9517 H   0  0  0  0  0  0  0  0  0  0  0  0
  151.8071  144.0162  163.4055 H   0  0  0  0  0  0  0  0  0  0  0  0
  153.2835  144.8985  162.9622 H   0  0  0  0  0  0  0  0  0  0  0  0
  153.3909  143.2206  163.5202 H   0  0  0  0  0  0  0  0  0  0  0  0
  151.4127  145.9776  159.6115 H   0  0  0  0  0  0  0  0  0  0  0  0
  152.7212  146.2473  160.7597 H   0  0  0  0  0  0  0  0  0  0  0  0
  151.1156  145.7957  161.3374 H   0  0  0  0  0  0  0  0  0  0  0  0
  1  2  1  0  0  0  0
  1 20  1  0  0  0  0
  1 21  1  0  0  0  0
  1 22  1  0  0  0  0
  2  3  1  0  0  0  0
  2 23  1  0  0  0  0
  2 24  1  0  0  0  0
  3  4  1  0  0  0  0
  3 25  1  0  0  0  0
  4  5  2  0  0  0  0
  4  6  1  0  0  0  0
  6  7  1  0  0  0  0
  6  8  1  0  0  0  0
  6 26  1  0  0  0  0
  7 27  1  0  0  0  0
  7 28  1  0  0  0  0
  7 29  1  0  0  0  0
  8  9  1  0  0  0  0
  8 30  1  0  0  0  0
  9 10  2  0  0  0  0
  9 11  1  0  0  0  0
 11 12  1  0  0  0  0
 11 31  1  0  0  0  0
 11 32  1  0  0  0  0
 12 18  2  0  0  0  0
 12 13  1  0  0  0  0
 13 14  1  0  0  0  0
 13 15  2  0  0  0  0
 14 33  1  0  0  0  0
 14 34  1  0  0  0  0
 14 35  1  0  0  0  0
 15 16  1  0  0  0  0
 16 17  1  0  0  0  0
 16 18  1  0  0  0  0
 17 36  1  0  0  0  0
 17 37  1  0  0  0  0
 17 38  1  0  0  0  0
 18 19  1  0  0  0  0
 19 39  1  0  0  0  0
 19 40  1  0  0  0  0
 19 41  1  0  0  0  0
M  END
> <s_m_source_file>
AV-unprocessed.smi

> <i_m_source_file_index>
1573

> <i_lp_mmshare_version>
43012

> <i_f3d_flags>
0

> <s_epik_input>
W0NIM11bQ0gyXVtOSF1DKD1PKVtDQEhdKFtDSDNdKVtOSF1DKD1PKVtDSDJdYzFjKFtDSDNdKW5uKFtDSDNdKWMxW0NIM10=

> <s_epik_cmdline>
J2VwaWtfcHl0aG9uJywgJy1waCcsICc3LjAnLCAnLXRuJywgJzgnLCAnLW1hJywgJzIwMCcsICctbWV0YWxfYmluZGluZycsICctaW1hZScsICc8aW5maWxlLm1hZT4nLCAnLW9tYWUnLCAnPG91dGZpbGUubWFlPic=

> <r_lp_tautomer_probability>
1

> <r_epik_Ionization_Penalty>
0.00278414

> <r_epik_Ionization_Penalty_Charging>
0

> <r_epik_Ionization_Penalty_Neutral>
0.00278414

> <r_epik_State_Penalty>
0.00194489

> <r_epik_Charging_Adjusted_Penalty>
0.00194489

> <i_epik_Tot_Q>
0

> <i_epik_Tot_abs_Q>
0

> <r_epik_Metal_State_Penalty>
-0

> <b_epik_Metal_Only>
0

> <s_lp_Force_Field>
OPLS_2005

> <r_lp_Energy>
-3.80626

> <b_lp_Chiralities_Consistent>
1

> <s_lp_Variant>
AV-unprocessed.smi:1573-1

> <Gold.Version>
5.8.1

> <Gold.Id.Protein>
6NUR|6NUR_protein|mol2

> <Gold.PLP.Fitness>
39.7200

> <Gold.PLP.PLP>
-40.1906

> <Gold.PLP.part.hbond>
-0.3070

> <Gold.PLP.part.metal>
0.0000

> <Gold.PLP.part.buried>
-1.8548

> <Gold.PLP.part.nonpolar>
-38.7559

> <Gold.PLP.part.repulsive>
0.4592

> <Gold.PLP.ligand.clash>
0.0000

> <Gold.PLP.ligand.torsion>
0.2547

> <Gold.PLP.Chemscore.Hbond>
0.0000

> <Gold.PLP.Chemscore.CHOScore>
0.0000

> <Gold.PLP.Chemscore.Metal>
0.0000

> <Gold.PLP.Chemscore.Internal.Correction>
0.0387

> <Gold.Rescore>
     Score         DG    S(hbond)    S(metal)    S(lipo)     H(rot)  DE(clash)    DE(int)     intcor
     13.06     -13.42       0.00        0.00     109.62       1.91       0.17       0.19       ----

> <Gold.Chemscore.Fitness>
13.0610

> <Gold.Chemscore.DG>
-13.4154

> <Gold.Chemscore.ZeroCoef>
-5.4800

> <Gold.Chemscore.Hbond>
0.0000

> <Gold.Chemscore.Metal>
0.0000

> <Gold.Chemscore.Lipo>
109.6155

> <Gold.Chemscore.Internal_Hbond>
0.0000

> <Gold.Chemscore.DEClash>
0.1666

> <Gold.Chemscore.DEInternal>
0.1877

> <Gold.Chemscore.Rot>
1.9100

> <Gold.Chemscore.Internal.Correction>
   9.000000E+99

> <Gold.Chemscore.Hbond.Weighted>
-0.0000

> <Gold.Chemscore.Metal.Weighted>
-0.0000

> <Gold.Chemscore.Lipo.Weighted>
-12.8250

> <Gold.Chemscore.Internal_Hbond.Weighted>
0.0000

> <Gold.Chemscore.DEClash.Weighted>
0.1666

> <Gold.Chemscore.DEInternal.Weighted>
0.1877

> <Gold.Chemscore.Rot.Weighted>
4.8896

> <Gold.Chemscore.Internal.Correction.Weighted>
   9.000000E+99

> <Gold.Protein.RotatedTorsions>
[ 6907 6896 6895 6894 ] final -170.67 input  -60.11 | X-H torsion
[ 7974 7965 7964 7962 ] final   18.12 input  175.53 | X-H torsion
[ 8008 7997 7996 7995 ] final  177.40 input   59.86 | X-H torsion
[ 10167 10162 10161 10158 ] final   11.03 input  -65.29 | X-H torsion
[ 10718 10713 10712 10709 ] final  140.60 input   66.30 | X-H torsion
[ 10763 10752 10751 10750 ] final   58.19 input  -60.55 | X-H torsion
[ 11005 11000 10999 10996 ] final   14.36 input  -57.11 | X-H torsion

> <Gold.Protein.ActiveResidues>
 VAL166  LYS551  ARG553  GLY616  TRP617  ASP618  TYR619  PRO620  LYS621  CYS622 
 ASP623  PHE694  ASN695  SER759  ASP760  ASP761  ALA762  ILE779  LEU786  VAL792 
 PHE793  MET794  SER795  GLU796  ALA797  LYS798  CYS799  TRP800  GLU811  SER814 

> <Gold.Protein.RotatedAtoms>
  151.5115  133.3484  159.2885 H   0  0  0  0  0  0  0  0  0  0  0  0  # atno 6907 bound_to 6896
  150.8709  134.8085  159.7165 H   0  0  0  0  0  0  0  0  0  0  0  0  # atno 6908 bound_to 6896
  152.4698  134.4999  159.9773 H   0  0  0  0  0  0  0  0  0  0  0  0  # atno 6909 bound_to 6896
  146.2196  139.8504  142.8623 H   0  0  0  0  0  0  0  0  0  0  0  0  # atno 7974 bound_to 7965
  156.0660  140.1359  156.9885 H   0  0  0  0  0  0  0  0  0  0  0  0  # atno 8008 bound_to 7997
  154.4506  140.0981  156.6659 H   0  0  0  0  0  0  0  0  0  0  0  0  # atno 8009 bound_to 7997
  155.5303  140.3458  155.4427 H   0  0  0  0  0  0  0  0  0  0  0  0  # atno 8010 bound_to 7997
  140.6157  143.8312  150.7116 H   0  0  0  0  0  0  0  0  0  0  0  0  # atno 10167 bound_to 10162
  157.4015  131.1017  151.0547 H   0  0  0  0  0  0  0  0  0  0  0  0  # atno 10718 bound_to 10713
  152.9865  135.5615  154.5512 H   0  0  0  0  0  0  0  0  0  0  0  0  # atno 10763 bound_to 10752
  154.4949  135.2794  155.1469 H   0  0  0  0  0  0  0  0  0  0  0  0  # atno 10764 bound_to 10752
  154.2924  135.6323  153.5443 H   0  0  0  0  0  0  0  0  0  0  0  0  # atno 10765 bound_to 10752
  140.4704  134.1037  155.7731 H   0  0  0  0  0  0  0  0  0  0  0  0  # atno 11005 bound_to 11000
  145.2807  141.0138  143.3719 LP  0  0  0  0  0  0  0  0  0  0  0  0  # atno 17320 bound_to 7965
  144.9152  139.4479  143.6568 LP  0  0  0  0  0  0  0  0  0  0  0  0  # atno 17321 bound_to 7965
  140.1891  143.4051  152.1876 LP  0  0  0  0  0  0  0  0  0  0  0  0  # atno 17342 bound_to 10162
  139.5397  144.7244  151.4775 LP  0  0  0  0  0  0  0  0  0  0  0  0  # atno 17343 bound_to 10162
  157.1544  130.6198  149.5592 LP  0  0  0  0  0  0  0  0  0  0  0  0  # atno 17370 bound_to 10713
  155.9824  130.4838  150.6882 LP  0  0  0  0  0  0  0  0  0  0  0  0  # atno 17371 bound_to 10713
  141.1580  133.8847  157.1926 LP  0  0  0  0  0  0  0  0  0  0  0  0  # atno 17394 bound_to 11000
  139.9889  135.0072  156.9928 LP  0  0  0  0  0  0  0  0  0  0  0  0  # atno 17395 bound_to 11000

$$$$
