AV-unprocessed.smi:3308|AV-procd|sdf|12714|dock10
  -GOLD-   2272019 53D 1   1.00000     0.00000
 Structure written by MMmdl.
 40 41  0  0  0  0  0  0  0  0  1 V2000
  148.8537  141.0822  157.7529 C   0  0  0  0  0  0  0  0  0  0  0  0
  149.5970  139.9898  156.9532 C   0  0  2  0  0  0  0  0  0  0  0  0
  150.8728  139.7106  157.6067 N   0  0  0  0  0  0  0  0  0  0  0  0
  151.7348  140.8939  157.7214 C   0  0  0  0  0  0  0  0  0  0  0  0
  152.7922  140.7087  158.8148 C   0  0  0  0  0  0  0  0  0  0  0  0
  153.5901  139.7765  158.7137 O   0  0  0  0  0  0  0  0  0  0  0  0
  152.8187  141.5718  159.8528 N   0  0  0  0  0  0  0  0  0  0  0  0
  153.7831  141.4827  160.9477 C   0  0  0  0  0  0  0  0  0  0  0  0
  153.3060  142.4801  162.0036 C   0  0  0  0  0  0  0  0  0  0  0  0
  152.5105  143.5078  161.2111 C   0  0  0  0  0  0  0  0  0  0  0  0
  151.9180  142.7081  160.0506 C   0  0  0  0  0  0  0  0  0  0  0  0
  149.8873  140.3995  155.4841 C   0  0  1  0  0  0  0  0  0  0  0  0
  150.6335  139.3040  154.6988 C   0  0  0  0  0  0  0  0  0  0  0  0
  148.6693  140.7669  154.7720 N   0  0  0  0  0  0  0  0  0  0  0  0
  148.2647  142.0151  154.3415 C   0  0  0  0  0  0  0  0  0  0  0  0
  147.0594  141.8622  153.7188 C   0  0  0  0  0  0  0  0  0  0  0  0
  146.8029  140.4663  153.8184 C   0  0  0  0  0  0  0  0  0  0  0  0
  147.7667  139.8143  154.4480 N   0  0  0  0  0  0  0  0  0  0  0  0
  147.8739  141.2962  157.3263 H   0  0  0  0  0  0  0  0  0  0  0  0
  149.4181  142.0154  157.7646 H   0  0  0  0  0  0  0  0  0  0  0  0
  148.6800  140.7884  158.7874 H   0  0  0  0  0  0  0  0  0  0  0  0
  148.9857  139.0856  156.9382 H   0  0  0  0  0  0  0  0  0  0  0  0
  151.3351  138.9500  157.1296 H   0  0  0  0  0  0  0  0  0  0  0  0
  152.2166  141.1200  156.7710 H   0  0  0  0  0  0  0  0  0  0  0  0
  151.1258  141.7631  157.9752 H   0  0  0  0  0  0  0  0  0  0  0  0
  153.8490  140.4735  161.3574 H   0  0  0  0  0  0  0  0  0  0  0  0
  154.7696  141.7622  160.5745 H   0  0  0  0  0  0  0  0  0  0  0  0
  152.6468  141.9756  162.7114 H   0  0  0  0  0  0  0  0  0  0  0  0
  154.1268  142.9228  162.5686 H   0  0  0  0  0  0  0  0  0  0  0  0
  151.7506  144.0100  161.8107 H   0  0  0  0  0  0  0  0  0  0  0  0
  153.1865  144.2705  160.8220 H   0  0  0  0  0  0  0  0  0  0  0  0
  151.8232  143.3279  159.1583 H   0  0  0  0  0  0  0  0  0  0  0  0
  150.9271  142.3352  160.3138 H   0  0  0  0  0  0  0  0  0  0  0  0
  150.5290  141.2833  155.5010 H   0  0  0  0  0  0  0  0  0  0  0  0
  151.6021  139.0795  155.1457 H   0  0  0  0  0  0  0  0  0  0  0  0
  150.8176  139.6171  153.6706 H   0  0  0  0  0  0  0  0  0  0  0  0
  150.0623  138.3756  154.6666 H   0  0  0  0  0  0  0  0  0  0  0  0
  148.8630  142.8982  154.5117 H   0  0  0  0  0  0  0  0  0  0  0  0
  146.4530  142.6301  153.2618 H   0  0  0  0  0  0  0  0  0  0  0  0
  145.9511  139.9108  153.4545 H   0  0  0  0  0  0  0  0  0  0  0  0
  1  2  1  0  0  0  0
  1 19  1  0  0  0  0
  1 20  1  0  0  0  0
  1 21  1  0  0  0  0
  2  3  1  0  0  0  0
  2 12  1  0  0  0  0
  2 22  1  0  0  0  0
  3  4  1  0  0  0  0
  3 23  1  0  0  0  0
  4  5  1  0  0  0  0
  4 24  1  0  0  0  0
  4 25  1  0  0  0  0
  5  6  2  0  0  0  0
  5  7  1  0  0  0  0
  7 11  1  0  0  0  0
  7  8  1  0  0  0  0
  8  9  1  0  0  0  0
  8 26  1  0  0  0  0
  8 27  1  0  0  0  0
  9 10  1  0  0  0  0
  9 28  1  0  0  0  0
  9 29  1  0  0  0  0
 10 11  1  0  0  0  0
 10 30  1  0  0  0  0
 10 31  1  0  0  0  0
 11 32  1  0  0  0  0
 11 33  1  0  0  0  0
 12 13  1  0  0  0  0
 12 14  1  0  0  0  0
 12 34  1  0  0  0  0
 13 35  1  0  0  0  0
 13 36  1  0  0  0  0
 13 37  1  0  0  0  0
 14 18  1  0  0  0  0
 14 15  1  0  0  0  0
 15 16  2  0  0  0  0
 15 38  1  0  0  0  0
 16 17  1  0  0  0  0
 16 39  1  0  0  0  0
 17 18  2  0  0  0  0
 17 40  1  0  0  0  0
M  END
> <s_m_source_file>
AV-unprocessed.smi

> <i_m_source_file_index>
3308

> <i_lp_mmshare_version>
43012

> <i_f3d_flags>
0

> <s_epik_input>
bjFbY0hdW2NIXVtjSF1uMVtDQEBIXShbQ0gzXSlbQ0BIXShbQ0gzXSlbTkhdW0NIMl1DKD1PKU4yW0NIMl1bQ0gyXVtDSDJdW0NIMl0y

> <s_epik_cmdline>
J2VwaWtfcHl0aG9uJywgJy1waCcsICc3LjAnLCAnLXRuJywgJzgnLCAnLW1hJywgJzIwMCcsICctbWV0YWxfYmluZGluZycsICctaW1hZScsICc8aW5maWxlLm1hZT4nLCAnLW9tYWUnLCAnPG91dGZpbGUubWFlPic=

> <r_lp_tautomer_probability>
1

> <r_epik_Ionization_Penalty>
0.918676

> <r_epik_Ionization_Penalty_Charging>
0

> <r_epik_Ionization_Penalty_Neutral>
0.918676

> <r_epik_State_Penalty>
0.958258

> <r_epik_Charging_Adjusted_Penalty>
0.958258

> <i_epik_Tot_Q>
0

> <i_epik_Tot_abs_Q>
0

> <r_epik_Metal_State_Penalty>
0.956879

> <b_epik_Metal_Only>
0

> <s_lp_Force_Field>
OPLS_2005

> <r_lp_Energy>
36.0541

> <b_lp_Chiralities_Consistent>
1

> <s_lp_Variant>
AV-unprocessed.smi:3308-7

> <Gold.Version>
5.8.1

> <Gold.Id.Protein>
6NUR|6NUR_protein|mol2

> <Gold.PLP.Fitness>
46.0414

> <Gold.PLP.PLP>
-37.4939

> <Gold.PLP.part.hbond>
-1.0000

> <Gold.PLP.part.metal>
0.0000

> <Gold.PLP.part.buried>
-2.8059

> <Gold.PLP.part.nonpolar>
-33.6145

> <Gold.PLP.part.repulsive>
0.1064

> <Gold.PLP.ligand.clash>
0.0000

> <Gold.PLP.ligand.torsion>
0.2336

> <Gold.PLP.Chemscore.Hbond>
1.0000

> <Gold.PLP.Chemscore.CHOScore>
1.9825

> <Gold.PLP.Chemscore.Metal>
0.0000

> <Gold.Chemscore.Hbonds>
donor molecule, donor type, donor heavy atom, donor atom, acceptor molecule, acceptor atom, score
      P1  H  7997  8009       L1     6  1.00
      L1  C    15    38       P1  8028  1.00
      L1  C    17    40       P1 10175  0.99

> <Gold.PLP.Chemscore.Internal.Correction>
0.0673

> <Gold.Rescore>
     Score         DG    S(hbond)    S(metal)    S(lipo)     H(rot)  DE(clash)    DE(int)     intcor
     14.69     -14.99       0.96        0.00      91.51       1.72       0.09       0.20       ----

> <Gold.Chemscore.Fitness>
14.6918

> <Gold.Chemscore.DG>
-14.9861

> <Gold.Chemscore.ZeroCoef>
-5.4800

> <Gold.Chemscore.Hbond>
0.9587

> <Gold.Chemscore.Metal>
0.0000

> <Gold.Chemscore.Lipo>
91.5142

> <Gold.Chemscore.Internal_Hbond>
0.0000

> <Gold.Chemscore.DEClash>
0.0920

> <Gold.Chemscore.DEInternal>
0.2023

> <Gold.Chemscore.Rot>
1.7200

> <Gold.Chemscore.Internal.Correction>
   9.000000E+99

> <Gold.Chemscore.Hbonds>
donor molecule, donor type, donor heavy atom, donor atom, acceptor molecule, acceptor atom, score
      P1  H  7997  8009       L1     6  0.64

> <Gold.Chemscore.Hbond.Weighted>
-3.2020

> <Gold.Chemscore.Metal.Weighted>
-0.0000

> <Gold.Chemscore.Lipo.Weighted>
-10.7072

> <Gold.Chemscore.Internal_Hbond.Weighted>
0.0000

> <Gold.Chemscore.DEClash.Weighted>
0.0920

> <Gold.Chemscore.DEInternal.Weighted>
0.2023

> <Gold.Chemscore.Rot.Weighted>
4.4031

> <Gold.Chemscore.Internal.Correction.Weighted>
   9.000000E+99

> <Gold.Protein.RotatedTorsions>
[ 6907 6896 6895 6894 ] final -160.46 input  -60.11 | X-H torsion
[ 7974 7965 7964 7962 ] final -165.86 input  175.53 | X-H torsion
[ 8008 7997 7996 7995 ] final  150.54 input   59.86 | X-H torsion
[ 10167 10162 10161 10158 ] final  131.74 input  -65.29 | X-H torsion
[ 10718 10713 10712 10709 ] final -141.46 input   66.30 | X-H torsion
[ 10763 10752 10751 10750 ] final -177.74 input  -60.55 | X-H torsion
[ 11005 11000 10999 10996 ] final   16.60 input  -57.11 | X-H torsion

> <Gold.Protein.ActiveResidues>
 VAL166  LYS551  ARG553  GLY616  TRP617  ASP618  TYR619  PRO620  LYS621  CYS622 
 ASP623  PHE694  ASN695  SER759  ASP760  ASP761  ALA762  ILE779  LEU786  VAL792 
 PHE793  MET794  SER795  GLU796  ALA797  LYS798  CYS799  TRP800  GLU811  SER814 

> <Gold.Protein.RotatedAtoms>
  151.3494  133.3931  159.2678 H   0  0  0  0  0  0  0  0  0  0  0  0  # atno 6907 bound_to 6896
  150.9813  134.9168  159.7856 H   0  0  0  0  0  0  0  0  0  0  0  0  # atno 6908 bound_to 6896
  152.5218  134.3458  159.9286 H   0  0  0  0  0  0  0  0  0  0  0  0  # atno 6909 bound_to 6896
  144.7259  140.2751  143.6244 H   0  0  0  0  0  0  0  0  0  0  0  0  # atno 7974 bound_to 7965
  156.2712  140.2072  156.6033 H   0  0  0  0  0  0  0  0  0  0  0  0  # atno 8008 bound_to 7997
  154.6889  140.0532  157.0367 H   0  0  0  0  0  0  0  0  0  0  0  0  # atno 8009 bound_to 7997
  155.0894  140.3195  155.4581 H   0  0  0  0  0  0  0  0  0  0  0  0  # atno 8010 bound_to 7997
  139.5370  144.6693  151.4752 H   0  0  0  0  0  0  0  0  0  0  0  0  # atno 10167 bound_to 10162
  156.3343  130.7603  151.1727 H   0  0  0  0  0  0  0  0  0  0  0  0  # atno 10718 bound_to 10713
  154.5563  135.2816  155.0961 H   0  0  0  0  0  0  0  0  0  0  0  0  # atno 10763 bound_to 10752
  154.2387  135.6361  153.5203 H   0  0  0  0  0  0  0  0  0  0  0  0  # atno 10764 bound_to 10752
  153.0017  135.5554  154.6145 H   0  0  0  0  0  0  0  0  0  0  0  0  # atno 10765 bound_to 10752
  140.4453  134.1280  155.7695 H   0  0  0  0  0  0  0  0  0  0  0  0  # atno 11005 bound_to 11000
  145.8004  139.1962  143.2051 LP  0  0  0  0  0  0  0  0  0  0  0  0  # atno 17320 bound_to 7965
  146.0681  140.7899  142.9701 LP  0  0  0  0  0  0  0  0  0  0  0  0  # atno 17321 bound_to 7965
  140.6582  143.8555  150.6858 LP  0  0  0  0  0  0  0  0  0  0  0  0  # atno 17342 bound_to 10162
  140.1941  143.4012  152.1841 LP  0  0  0  0  0  0  0  0  0  0  0  0  # atno 17343 bound_to 10162
  157.7436  131.0472  150.4934 LP  0  0  0  0  0  0  0  0  0  0  0  0  # atno 17370 bound_to 10713
  156.5104  130.4138  149.6304 LP  0  0  0  0  0  0  0  0  0  0  0  0  # atno 17371 bound_to 10713
  141.1688  133.8650  157.1634 LP  0  0  0  0  0  0  0  0  0  0  0  0  # atno 17394 bound_to 11000
  140.0043  135.0015  157.0258 LP  0  0  0  0  0  0  0  0  0  0  0  0  # atno 17395 bound_to 11000

$$$$
