AV-unprocessed.smi:2397|AV-procd|sdf|9496|dock8
  -GOLD-   2272013123D 1   1.00000     0.00000
 Structure written by MMmdl.
 37 38  0  0  0  0  0  0  0  0  2 V2000
  150.6505  144.6155  159.1374 C   0  0  0  0  0  0  0  0  0  0  0  0
  151.9055  143.9765  158.5236 C   0  0  0  0  0  0  0  0  0  0  0  0
  152.7716  144.9795  157.7463 C   0  0  0  0  0  0  0  0  0  0  0  0
  151.5689  142.7491  157.6891 C   0  0  0  0  0  0  0  0  0  0  0  0
  150.7039  142.8723  156.6701 N   0  3  0  0  0  0  0  0  0  0  0  0
  150.3921  141.7885  155.9195 C   0  0  0  0  0  0  0  0  0  0  0  0
  150.9701  140.5372  156.2002 C   0  0  0  0  0  0  0  0  0  0  0  0
  151.8765  140.4765  157.2806 C   0  0  0  0  0  0  0  0  0  0  0  0
  152.5287  139.2916  157.6786 N   0  0  0  0  0  0  0  0  0  0  0  0
  152.3768  139.0686  159.1157 C   0  0  0  0  0  0  0  0  0  0  0  0
  153.2371  137.8854  159.5791 C   0  0  0  0  0  0  0  0  0  0  0  0
  152.8917  136.7371  158.8181 O   0  0  0  0  0  0  0  0  0  0  0  0
  153.1780  136.9209  157.4373 C   0  0  0  0  0  0  0  0  0  0  0  0
  152.3408  138.0848  156.8553 C   0  0  2  0  0  0  0  0  0  0  0  0
  152.7022  138.2219  155.3620 C   0  0  0  0  0  0  0  0  0  0  0  0
  151.7403  138.0251  154.4539 N   0  0  0  0  0  0  0  0  0  0  0  0
  153.8558  138.4880  155.0335 O   0  0  0  0  0  0  0  0  0  0  0  0
  152.1513  141.5834  158.0031 N   0  0  0  0  0  0  0  0  0  0  0  0
  150.0997  143.8953  159.7431 H   0  0  0  0  0  0  0  0  0  0  0  0
  149.9751  144.9886  158.3667 H   0  0  0  0  0  0  0  0  0  0  0  0
  150.9131  145.4555  159.7810 H   0  0  0  0  0  0  0  0  0  0  0  0
  152.5141  143.6326  159.3618 H   0  0  0  0  0  0  0  0  0  0  0  0
  153.6887  144.5112  157.3878 H   0  0  0  0  0  0  0  0  0  0  0  0
  153.0563  145.8222  158.3767 H   0  0  0  0  0  0  0  0  0  0  0  0
  152.2405  145.3783  156.8815 H   0  0  0  0  0  0  0  0  0  0  0  0
  149.6876  141.9578  155.1185 H   0  0  0  0  0  0  0  0  0  0  0  0
  150.7160  139.6730  155.6050 H   0  0  0  0  0  0  0  0  0  0  0  0
  152.6629  139.9578  159.6795 H   0  0  0  0  0  0  0  0  0  0  0  0
  151.3272  138.8733  159.3413 H   0  0  0  0  0  0  0  0  0  0  0  0
  154.3007  138.1065  159.4741 H   0  0  0  0  0  0  0  0  0  0  0  0
  153.0566  137.6793  160.6342 H   0  0  0  0  0  0  0  0  0  0  0  0
  154.2477  137.0979  157.3073 H   0  0  0  0  0  0  0  0  0  0  0  0
  152.9496  135.9893  156.9178 H   0  0  0  0  0  0  0  0  0  0  0  0
  151.2924  137.7902  156.9209 H   0  0  0  0  0  0  0  0  0  0  0  0
  151.9563  138.0872  153.4692 H   0  0  0  0  0  0  0  0  0  0  0  0
  150.8051  137.7930  154.7566 H   0  0  0  0  0  0  0  0  0  0  0  0
  150.2767  143.7739  156.4558 H   0  0  0  0  0  0  0  0  0  0  0  0
  1  2  1  0  0  0  0
  1 19  1  0  0  0  0
  1 20  1  0  0  0  0
  1 21  1  0  0  0  0
  2  3  1  0  0  0  0
  2  4  1  0  0  0  0
  2 22  1  0  0  0  0
  3 23  1  0  0  0  0
  3 24  1  0  0  0  0
  3 25  1  0  0  0  0
  4 18  1  0  0  0  0
  4  5  2  0  0  0  0
  5  6  1  0  0  0  0
  5 37  1  0  0  0  0
  6  7  2  0  0  0  0
  6 26  1  0  0  0  0
  7  8  1  0  0  0  0
  7 27  1  0  0  0  0
  8  9  1  0  0  0  0
  8 18  2  0  0  0  0
  9 14  1  0  0  0  0
  9 10  1  0  0  0  0
 10 11  1  0  0  0  0
 10 28  1  0  0  0  0
 10 29  1  0  0  0  0
 11 12  1  0  0  0  0
 11 30  1  0  0  0  0
 11 31  1  0  0  0  0
 12 13  1  0  0  0  0
 13 14  1  0  0  0  0
 13 32  1  0  0  0  0
 13 33  1  0  0  0  0
 14 15  1  0  0  0  0
 14 34  1  0  0  0  0
 15 16  1  0  0  0  0
 15 17  2  0  0  0  0
 16 35  1  0  0  0  0
 16 36  1  0  0  0  0
M  CHG  1   5   1
M  END
> <s_m_source_file>
AV-unprocessed.smi

> <i_m_source_file_index>
2397

> <i_lp_mmshare_version>
43012

> <i_f3d_flags>
0

> <s_epik_input>
W0NIM11bQ0hdKFtDSDNdKWMxbltjSF1bY0hdYyhuMSlOMltDSDJdW0NIMl1PW0NIMl1bQ0BIXTJDKD1PKVtOSDJd

> <s_epik_cmdline>
J2VwaWtfcHl0aG9uJywgJy1waCcsICc3LjAnLCAnLXRuJywgJzgnLCAnLW1hJywgJzIwMCcsICctbWV0YWxfYmluZGluZycsICctaW1hZScsICc8aW5maWxlLm1hZT4nLCAnLW9tYWUnLCAnPG91dGZpbGUubWFlPic=

> <r_lp_tautomer_probability>
0.999336

> <r_epik_Ionization_Penalty>
1.74009

> <r_epik_Ionization_Penalty_Charging>
1.74009

> <r_epik_Ionization_Penalty_Neutral>
2.46902e-07

> <r_epik_State_Penalty>
1.8491

> <r_epik_Charging_Adjusted_Penalty>
3.5892

> <i_epik_Tot_Q>
1

> <i_epik_Tot_abs_Q>
1

> <r_epik_Metal_State_Penalty>
1.87997

> <b_epik_Metal_Only>
0

> <s_lp_Force_Field>
OPLS_2005

> <r_lp_Energy>
12.8895

> <b_lp_Chiralities_Consistent>
1

> <s_lp_Variant>
AV-unprocessed.smi:2397-4

> <Gold.Version>
5.8.1

> <Gold.Id.Protein>
6NUR|6NUR_protein|mol2

> <Gold.PLP.Fitness>
42.2270

> <Gold.PLP.PLP>
-32.0029

> <Gold.PLP.part.hbond>
-3.0292

> <Gold.PLP.part.metal>
0.0000

> <Gold.PLP.part.buried>
-7.1241

> <Gold.PLP.part.nonpolar>
-22.9654

> <Gold.PLP.part.repulsive>
0.2033

> <Gold.PLP.ligand.clash>
0.0000

> <Gold.PLP.ligand.torsion>
0.2425

> <Gold.PLP.Chemscore.Hbond>
3.4720

> <Gold.PLP.Chemscore.CHOScore>
0.0000

> <Gold.PLP.Chemscore.Metal>
0.0000

> <Gold.Chemscore.Hbonds>
donor molecule, donor type, donor heavy atom, donor atom, acceptor molecule, acceptor atom, score
      L1  H     5    37       P1  8028  1.98
      P1  H  6896  6909       L1    12  0.31
      P1  H  7997  8008       L1    17  0.75

> <Gold.PLP.Chemscore.Internal.Correction>
0.2932

> <Gold.Rescore>
     Score         DG    S(hbond)    S(metal)    S(lipo)     H(rot)  DE(clash)    DE(int)     intcor
     17.19     -17.71       2.57        0.00      69.98       1.77       0.09       0.43       ----

> <Gold.Chemscore.Fitness>
17.1911

> <Gold.Chemscore.DG>
-17.7121

> <Gold.Chemscore.ZeroCoef>
-5.4800

> <Gold.Chemscore.Hbond>
2.5690

> <Gold.Chemscore.Metal>
0.0000

> <Gold.Chemscore.Lipo>
69.9775

> <Gold.Chemscore.Internal_Hbond>
0.0000

> <Gold.Chemscore.DEClash>
0.0944

> <Gold.Chemscore.DEInternal>
0.4266

> <Gold.Chemscore.Rot>
1.7717

> <Gold.Chemscore.Internal.Correction>
   9.000000E+99

> <Gold.Chemscore.Hbonds>
donor molecule, donor type, donor heavy atom, donor atom, acceptor molecule, acceptor atom, score
      L1  H     5    37       P1  8028  0.94
      P1  H  6896  6909       L1    12  0.27
      P1  H  7997  8008       L1    17  0.62

> <Gold.Chemscore.Hbond.Weighted>
-8.5804

> <Gold.Chemscore.Metal.Weighted>
-0.0000

> <Gold.Chemscore.Lipo.Weighted>
-8.1874

> <Gold.Chemscore.Internal_Hbond.Weighted>
0.0000

> <Gold.Chemscore.DEClash.Weighted>
0.0944

> <Gold.Chemscore.DEInternal.Weighted>
0.4266

> <Gold.Chemscore.Rot.Weighted>
4.5357

> <Gold.Chemscore.Internal.Correction.Weighted>
   9.000000E+99

> <Gold.Protein.RotatedTorsions>
[ 6907 6896 6895 6894 ] final  133.21 input  -60.11 | X-H torsion
[ 7974 7965 7964 7962 ] final   50.77 input  175.53 | X-H torsion
[ 8008 7997 7996 7995 ] final  -11.31 input   59.86 | X-H torsion
[ 10167 10162 10161 10158 ] final  140.06 input  -65.29 | X-H torsion
[ 10718 10713 10712 10709 ] final  160.10 input   66.30 | X-H torsion
[ 10763 10752 10751 10750 ] final   65.78 input  -60.55 | X-H torsion
[ 11005 11000 10999 10996 ] final -170.57 input  -57.11 | X-H torsion

> <Gold.Protein.ActiveResidues>
 VAL166  LYS551  ARG553  GLY616  TRP617  ASP618  TYR619  PRO620  LYS621  CYS622 
 ASP623  PHE694  ASN695  SER759  ASP760  ASP761  ALA762  ILE779  LEU786  VAL792 
 PHE793  MET794  SER795  GLU796  ALA797  LYS798  CYS799  TRP800  GLU811  SER814 

> <Gold.Protein.RotatedAtoms>
  152.3243  133.5888  159.5765 H   0  0  0  0  0  0  0  0  0  0  0  0  # atno 6907 bound_to 6896
  150.7388  133.9963  159.3632 H   0  0  0  0  0  0  0  0  0  0  0  0  # atno 6908 bound_to 6896
  151.7845  135.0753  160.0429 H   0  0  0  0  0  0  0  0  0  0  0  0  # atno 6909 bound_to 6896
  145.9980  139.4408  143.0033 H   0  0  0  0  0  0  0  0  0  0  0  0  # atno 7974 bound_to 7965
  154.5476  140.2306  155.8537 H   0  0  0  0  0  0  0  0  0  0  0  0  # atno 8008 bound_to 7997
  156.1917  140.3075  155.9308 H   0  0  0  0  0  0  0  0  0  0  0  0  # atno 8009 bound_to 7997
  155.3133  140.0437  157.3026 H   0  0  0  0  0  0  0  0  0  0  0  0  # atno 8010 bound_to 7997
  139.5060  144.6257  151.5943 H   0  0  0  0  0  0  0  0  0  0  0  0  # atno 10167 bound_to 10162
  157.1551  131.0573  151.2261 H   0  0  0  0  0  0  0  0  0  0  0  0  # atno 10718 bound_to 10713
  153.0111  135.5344  154.6721 H   0  0  0  0  0  0  0  0  0  0  0  0  # atno 10763 bound_to 10752
  154.5902  135.2858  155.0645 H   0  0  0  0  0  0  0  0  0  0  0  0  # atno 10764 bound_to 10752
  154.1741  135.6527  153.5069 H   0  0  0  0  0  0  0  0  0  0  0  0  # atno 10765 bound_to 10752
  140.5180  134.5737  157.5039 H   0  0  0  0  0  0  0  0  0  0  0  0  # atno 11005 bound_to 11000
  145.7531  140.9965  143.1240 LP  0  0  0  0  0  0  0  0  0  0  0  0  # atno 17320 bound_to 7965
  144.6910  139.9239  143.7469 LP  0  0  0  0  0  0  0  0  0  0  0  0  # atno 17321 bound_to 7965
  140.5973  143.9673  150.6363 LP  0  0  0  0  0  0  0  0  0  0  0  0  # atno 17342 bound_to 10162
  140.2873  143.3348  152.1096 LP  0  0  0  0  0  0  0  0  0  0  0  0  # atno 17343 bound_to 10162
  157.4185  130.7424  149.6894 LP  0  0  0  0  0  0  0  0  0  0  0  0  # atno 17370 bound_to 10713
  155.9763  130.4077  150.3785 LP  0  0  0  0  0  0  0  0  0  0  0  0  # atno 17371 bound_to 10713
  139.9621  134.7434  156.0214 LP  0  0  0  0  0  0  0  0  0  0  0  0  # atno 17394 bound_to 11000
  141.1350  133.6577  156.3567 LP  0  0  0  0  0  0  0  0  0  0  0  0  # atno 17395 bound_to 11000

$$$$
