#       Name:                AV-unprocessed.smi:716
#       Creating user name   scv26
#       Creation time:       Fri Mar 27 00:48:19 2020


#       File generated by GOLD software.
#

@<TRIPOS>MOLECULE
AV-unprocessed.smi:716
    55    57     1
SMALL
NO_CHARGES


@<TRIPOS>ATOM
      1 ****        -4.0819  -4.6370  -1.7817 C.3            1 S1                 0.0000
      2 ****        -3.7183  -3.1727  -2.0361 C.3            1 S1                 0.0000
      3 ****        -2.9788  -2.6869  -0.9290 O.3            1 S1                 0.0000
      4 ****        -2.5876  -1.3311  -1.0779 C.3            1 S1                 0.0000
      5 ****        -1.3928  -1.1110  -2.0111 C.3            1 S1                 0.0000
      6 ****        -0.9567  -0.0290  -1.0221 C.3            1 S1                 0.0000
      7 ****         0.4915   0.0258  -0.8609 N.am           1 S1                 0.0000
      8 ****         1.1488   0.9985  -0.2139 C.2            1 S1                 0.0000
      9 ****         0.5842   1.9494   0.3285 O.2            1 S1                 0.0000
     10 ****         2.6761   0.8547  -0.1535 C.3            1 S1                 0.0000
     11 ****         3.3786   2.1454  -0.1202 N.am           1 S1                 0.0000
     12 ****         3.8376   2.5110   1.1346 N.2            1 S1                 0.0000
     13 ****         4.4687   3.6249   1.3146 C.2            1 S1                 0.0000
     14 ****         4.9301   3.9461   2.7050 C.3            1 S1                 0.0000
     15 ****         4.7019   4.5051   0.1856 C.2            1 S1                 0.0000
     16 ****         4.2583   4.1439  -1.0374 C.2            1 S1                 0.0000
     17 ****         3.5471   2.8864  -1.2559 C.2            1 S1                 0.0000
     18 ****         3.1381   2.5248  -2.3591 O.2            1 S1                 0.0000
     19 ****        -1.7102  -0.8077   0.0869 C.3            1 S1                 0.0000
     20 ****        -0.9573  -1.8519   0.9223 C.3            1 S1                 0.0000
     21 ****        -1.8633  -2.2043   2.1045 C.3            1 S1                 0.0000
     22 ****        -2.7877  -0.9960   2.2895 C.3            1 S1                 0.0000
     23 ****        -2.4180  -0.0099   1.1764 C.3            1 S1                 0.0000
     24 ****        -4.6558  -5.0460  -2.6133 H              1 S1                 0.0000
     25 ****        -4.6825  -4.7397  -0.8777 H              1 S1                 0.0000
     26 ****        -3.1862  -5.2468  -1.6607 H              1 S1                 0.0000
     27 ****        -3.1312  -3.0907  -2.9517 H              1 S1                 0.0000
     28 ****        -4.6250  -2.5811  -2.1700 H              1 S1                 0.0000
     29 ****        -3.4239  -0.6639  -1.2994 H              1 S1                 0.0000
     30 ****        -0.7185  -1.9684  -2.0545 H              1 S1                 0.0000
     31 ****        -1.6510  -0.7454  -3.0052 H              1 S1                 0.0000
     32 ****        -1.4208   0.9344  -1.2480 H              1 S1                 0.0000
     33 ****         1.0292  -0.7232  -1.2724 H              1 S1                 0.0000
     34 ****         2.9220   0.2651   0.7316 H              1 S1                 0.0000
     35 ****         3.0267   0.2661  -1.0036 H              1 S1                 0.0000
     36 ****         5.5097   4.8694   2.7248 H              1 S1                 0.0000
     37 ****         5.5600   3.1488   3.1000 H              1 S1                 0.0000
     38 ****         4.0799   4.0706   3.3761 H              1 S1                 0.0000
     39 ****         5.2262   5.4382   0.3305 H              1 S1                 0.0000
     40 ****         4.4322   4.8001  -1.8773 H              1 S1                 0.0000
     41 ****        -0.6836  -2.7392   0.3506 H              1 S1                 0.0000
     42 ****        -0.0296  -1.4320   1.3122 H              1 S1                 0.0000
     43 ****        -2.4561  -3.0897   1.8716 H              1 S1                 0.0000
     44 ****        -1.2858  -2.4230   3.0031 H              1 S1                 0.0000
     45 ****        -3.8280  -1.3080   2.1891 H              1 S1                 0.0000
     46 ****        -2.6749  -0.5422   3.2744 H              1 S1                 0.0000
     47 ****        -1.7438   0.7494   1.5750 H              1 S1                 0.0000
     48 ****        -3.2972   0.5168   0.8044 H              1 S1                 0.0000
     49 ****        -2.1567  -3.2464  -0.8242 LP             1 S1                 0.0000
     50 ****        -3.5438  -2.7675  -0.1078 LP             1 S1                 0.0000
     51 ****        -0.4127   2.0221   0.2988 LP             1 S1                 0.0000
     52 ****         1.1227   2.6487   0.7986 LP             1 S1                 0.0000
     53 ****         3.6783   1.9040   1.9132 LP             1 S1                 0.0000
     54 ****         2.6578   1.6528  -2.4530 LP             1 S1                 0.0000
     55 ****         3.2861   3.1031  -3.1614 LP             1 S1                 0.0000
@<TRIPOS>BOND
    1    1    2 1     
    2    1   24 1     
    3    1   25 1     
    4    1   26 1     
    5    2    3 1     
    6    2   27 1     
    7    2   28 1     
    8    3    4 1     
    9    4   19 1     
   10    4    5 1     
   11    4   29 1     
   12    5    6 1     
   13    5   30 1     
   14    5   31 1     
   15    6    7 1     
   16    6   19 1     
   17    6   32 1     
   18    7    8 am    
   19    7   33 1     
   20    8    9 2     
   21    8   10 1     
   22   10   11 1     
   23   10   34 1     
   24   10   35 1     
   25   11   17 am    
   26   11   12 1     
   27   12   13 2     
   28   13   14 1     
   29   13   15 1     
   30   14   36 1     
   31   14   37 1     
   32   14   38 1     
   33   15   16 2     
   34   15   39 1     
   35   16   17 1     
   36   16   40 1     
   37   17   18 2     
   38   19   23 1     
   39   19   20 1     
   40   20   21 1     
   41   20   41 1     
   42   20   42 1     
   43   21   22 1     
   44   21   43 1     
   45   21   44 1     
   46   22   23 1     
   47   22   45 1     
   48   22   46 1     
   49   23   47 1     
   50   23   48 1     
   51    3   49 1     
   52    3   50 1     
   53    9   51 1     
   54    9   52 1     
   55   12   53 1     
   56   18   54 1     
   57   18   55 1     
@<TRIPOS>SUBSTRUCTURE
      1 S1             1
@<TRIPOS>SET
LONE_PAIRS      STATIC     ATOMS    <user>   **** ""
7 49 50 51 52 53 54 55
DONOR_HYDROGENS      STATIC     ATOMS    <user>   **** ""
1 33
ATOM$BLUE        STATIC     ATOMS    COLORGROUP SYSTEM
7 49 50 51 52 53 54 55
ATOM$RED        STATIC     ATOMS    COLORGROUP SYSTEM
1 33
