AV-unprocessed.smi:2180|AV-procd|sdf|8859|dock10
  -GOLD-   2272012 53D 1   1.00000     0.00000
 Structure written by MMmdl.
 39 40  0  0  0  0  0  0  0  0  1 V2000
  153.7673  141.0157  160.9745 C   0  0  0  0  0  0  0  0  0  0  0  0
  152.9861  142.1170  160.3202 C   0  0  0  0  0  0  0  0  0  0  0  0
  152.5375  143.3397  160.8929 C   0  0  0  0  0  0  0  0  0  0  0  0
  151.8812  143.9705  159.8737 C   0  0  0  0  0  0  0  0  0  0  0  0
  151.1849  145.2923  159.8571 C   0  0  0  0  0  0  0  0  0  0  0  0
  151.9559  143.1354  158.7709 N   0  0  0  0  0  0  0  0  0  0  0  0
  151.4191  143.3239  157.4316 C   0  0  0  0  0  0  0  0  0  0  0  0
  150.6324  142.0950  156.9731 C   0  0  0  0  0  0  0  0  0  0  0  0
  150.8401  140.9991  157.4935 O   0  0  0  0  0  0  0  0  0  0  0  0
  149.7275  142.2955  156.0025 N   0  0  0  0  0  0  0  0  0  0  0  0
  148.8282  141.2858  155.4465 C   0  0  2  0  0  0  0  0  0  0  0  0
  147.9328  140.6782  156.5566 C   0  0  0  0  0  0  0  0  0  0  0  0
  147.3846  139.2614  156.2854 C   0  0  0  0  0  0  0  0  0  0  0  0
  146.6340  139.0839  154.9498 C   0  0  0  0  0  0  0  0  0  0  0  0
  147.3975  139.4821  153.6638 C   0  0  0  0  0  0  0  0  0  0  0  0
  148.8542  139.4507  153.7908 N   0  0  0  0  0  0  0  0  0  0  0  0
  149.5836  140.2661  154.5720 C   0  0  0  0  0  0  0  0  0  0  0  0
  150.8115  140.1927  154.6072 O   0  0  0  0  0  0  0  0  0  0  0  0
  152.6376  142.0025  159.0497 N   0  0  0  0  0  0  0  0  0  0  0  0
  153.7932  141.1413  162.0570 H   0  0  0  0  0  0  0  0  0  0  0  0
  154.7969  141.0006  160.6164 H   0  0  0  0  0  0  0  0  0  0  0  0
  153.3267  140.0403  160.7657 H   0  0  0  0  0  0  0  0  0  0  0  0
  152.6757  143.6990  161.9019 H   0  0  0  0  0  0  0  0  0  0  0  0
  151.4537  145.8827  160.7332 H   0  0  0  0  0  0  0  0  0  0  0  0
  150.1031  145.1599  159.8646 H   0  0  0  0  0  0  0  0  0  0  0  0
  151.4521  145.8704  158.9726 H   0  0  0  0  0  0  0  0  0  0  0  0
  150.7890  144.2140  157.4217 H   0  0  0  0  0  0  0  0  0  0  0  0
  152.2373  143.5107  156.7339 H   0  0  0  0  0  0  0  0  0  0  0  0
  149.6265  143.2319  155.6378 H   0  0  0  0  0  0  0  0  0  0  0  0
  148.1728  141.8176  154.7555 H   0  0  0  0  0  0  0  0  0  0  0  0
  148.4943  140.6370  157.4913 H   0  0  0  0  0  0  0  0  0  0  0  0
  147.0992  141.3555  156.7460 H   0  0  0  0  0  0  0  0  0  0  0  0
  148.2018  138.5409  156.3370 H   0  0  0  0  0  0  0  0  0  0  0  0
  146.7154  138.9856  157.1008 H   0  0  0  0  0  0  0  0  0  0  0  0
  146.3531  138.0332  154.8694 H   0  0  0  0  0  0  0  0  0  0  0  0
  145.6927  139.6335  154.9850 H   0  0  0  0  0  0  0  0  0  0  0  0
  147.1091  138.8165  152.8501 H   0  0  0  0  0  0  0  0  0  0  0  0
  147.0903  140.4773  153.3404 H   0  0  0  0  0  0  0  0  0  0  0  0
  149.3473  138.7714  153.2290 H   0  0  0  0  0  0  0  0  0  0  0  0
  1  2  1  0  0  0  0
  1 20  1  0  0  0  0
  1 21  1  0  0  0  0
  1 22  1  0  0  0  0
  2 19  2  0  0  0  0
  2  3  1  0  0  0  0
  3  4  2  0  0  0  0
  3 23  1  0  0  0  0
  4  5  1  0  0  0  0
  4  6  1  0  0  0  0
  5 24  1  0  0  0  0
  5 25  1  0  0  0  0
  5 26  1  0  0  0  0
  6  7  1  0  0  0  0
  6 19  1  0  0  0  0
  7  8  1  0  0  0  0
  7 27  1  0  0  0  0
  7 28  1  0  0  0  0
  8  9  2  0  0  0  0
  8 10  1  0  0  0  0
 10 11  1  0  0  0  0
 10 29  1  0  0  0  0
 11 17  1  0  0  0  0
 11 12  1  0  0  0  0
 11 30  1  0  0  0  0
 12 13  1  0  0  0  0
 12 31  1  0  0  0  0
 12 32  1  0  0  0  0
 13 14  1  0  0  0  0
 13 33  1  0  0  0  0
 13 34  1  0  0  0  0
 14 15  1  0  0  0  0
 14 35  1  0  0  0  0
 14 36  1  0  0  0  0
 15 16  1  0  0  0  0
 15 37  1  0  0  0  0
 15 38  1  0  0  0  0
 16 17  1  0  0  0  0
 16 39  1  0  0  0  0
 17 18  2  0  0  0  0
M  END
> <s_m_source_file>
AV-unprocessed.smi

> <i_m_source_file_index>
2180

> <i_lp_mmshare_version>
43012

> <i_f3d_flags>
0

> <s_epik_input>
W0NIM11jMVtjSF1jKFtDSDNdKW4objEpW0NIMl1DKD1PKVtOSF1bQ0BASF0yW0NIMl1bQ0gyXVtDSDJdW0NIMl1bTkhdQzI9Tw==

> <s_epik_cmdline>
J2VwaWtfcHl0aG9uJywgJy1waCcsICc3LjAnLCAnLXRuJywgJzgnLCAnLW1hJywgJzIwMCcsICctbWV0YWxfYmluZGluZycsICctaW1hZScsICc8aW5maWxlLm1hZT4nLCAnLW9tYWUnLCAnPG91dGZpbGUubWFlPic=

> <r_lp_tautomer_probability>
1

> <r_epik_Ionization_Penalty>
0.000287215

> <r_epik_Ionization_Penalty_Charging>
0

> <r_epik_Ionization_Penalty_Neutral>
0.000287215

> <r_epik_State_Penalty>
-0

> <r_epik_Charging_Adjusted_Penalty>
0

> <i_epik_Tot_Q>
0

> <i_epik_Tot_abs_Q>
0

> <r_epik_Metal_State_Penalty>
-0

> <b_epik_Metal_Only>
0

> <s_lp_Force_Field>
OPLS_2005

> <r_lp_Energy>
13.5369

> <b_lp_Chiralities_Consistent>
1

> <s_lp_Variant>
AV-unprocessed.smi:2180-1

> <Gold.Version>
5.8.1

> <Gold.Id.Protein>
6NUR|6NUR_protein|mol2

> <Gold.PLP.Fitness>
44.6820

> <Gold.PLP.PLP>
-39.6075

> <Gold.PLP.part.hbond>
-2.9555

> <Gold.PLP.part.metal>
0.0000

> <Gold.PLP.part.buried>
-7.1714

> <Gold.PLP.part.nonpolar>
-30.6832

> <Gold.PLP.part.repulsive>
0.3218

> <Gold.PLP.ligand.clash>
0.0000

> <Gold.PLP.ligand.torsion>
0.4753

> <Gold.PLP.Chemscore.Hbond>
1.9906

> <Gold.PLP.Chemscore.CHOScore>
0.0000

> <Gold.PLP.Chemscore.Metal>
0.0000

> <Gold.Chemscore.Hbonds>
donor molecule, donor type, donor heavy atom, donor atom, acceptor molecule, acceptor atom, score
      L1  H    10    29       P1  8028  1.00
      P1  H  7989  7998       L1    18  1.00

> <Gold.PLP.Chemscore.Internal.Correction>
0.0534

> <Gold.Rescore>
     Score         DG    S(hbond)    S(metal)    S(lipo)     H(rot)  DE(clash)    DE(int)     intcor
     15.02     -18.17       2.29        0.00      75.58       1.48       0.00       3.15       ----

> <Gold.Chemscore.Fitness>
15.0200

> <Gold.Chemscore.DG>
-18.1665

> <Gold.Chemscore.ZeroCoef>
-5.4800

> <Gold.Chemscore.Hbond>
2.2884

> <Gold.Chemscore.Metal>
0.0000

> <Gold.Chemscore.Lipo>
75.5765

> <Gold.Chemscore.Internal_Hbond>
0.0000

> <Gold.Chemscore.DEClash>
0.0009

> <Gold.Chemscore.DEInternal>
3.1456

> <Gold.Chemscore.Rot>
1.4840

> <Gold.Chemscore.Internal.Correction>
   9.000000E+99

> <Gold.Chemscore.Hbonds>
donor molecule, donor type, donor heavy atom, donor atom, acceptor molecule, acceptor atom, score
      L1  H    10    29       P1  8028  0.95
      P1  H  7989  7998       L1    18  0.90

> <Gold.Chemscore.Hbond.Weighted>
-7.6432

> <Gold.Chemscore.Metal.Weighted>
-0.0000

> <Gold.Chemscore.Lipo.Weighted>
-8.8424

> <Gold.Chemscore.Internal_Hbond.Weighted>
0.0000

> <Gold.Chemscore.DEClash.Weighted>
0.0009

> <Gold.Chemscore.DEInternal.Weighted>
3.1456

> <Gold.Chemscore.Rot.Weighted>
3.7991

> <Gold.Chemscore.Internal.Correction.Weighted>
   9.000000E+99

> <Gold.Protein.RotatedTorsions>
[ 6907 6896 6895 6894 ] final   42.81 input  -60.11 | X-H torsion
[ 7974 7965 7964 7962 ] final  -57.54 input  175.53 | X-H torsion
[ 8008 7997 7996 7995 ] final  173.79 input   59.86 | X-H torsion
[ 10167 10162 10161 10158 ] final  175.46 input  -65.29 | X-H torsion
[ 10718 10713 10712 10709 ] final  -19.60 input   66.30 | X-H torsion
[ 10763 10752 10751 10750 ] final  152.49 input  -60.55 | X-H torsion
[ 11005 11000 10999 10996 ] final  174.90 input  -57.11 | X-H torsion

> <Gold.Protein.ActiveResidues>
 VAL166  LYS551  ARG553  GLY616  TRP617  ASP618  TYR619  PRO620  LYS621  CYS622 
 ASP623  PHE694  ASN695  SER759  ASP760  ASP761  ALA762  ILE779  LEU786  VAL792 
 PHE793  MET794  SER795  GLU796  ALA797  LYS798  CYS799  TRP800  GLU811  SER814 

> <Gold.Protein.RotatedAtoms>
  152.2125  134.8488  160.0495 H   0  0  0  0  0  0  0  0  0  0  0  0  # atno 6907 bound_to 6896
  151.9301  133.3604  159.3936 H   0  0  0  0  0  0  0  0  0  0  0  0  # atno 6908 bound_to 6896
  150.6980  134.4470  159.5363 H   0  0  0  0  0  0  0  0  0  0  0  0  # atno 6909 bound_to 6896
  145.8498  140.8360  142.9991 H   0  0  0  0  0  0  0  0  0  0  0  0  # atno 7974 bound_to 7965
  156.1040  140.1451  156.9429 H   0  0  0  0  0  0  0  0  0  0  0  0  # atno 8008 bound_to 7997
  154.4721  140.0906  156.7216 H   0  0  0  0  0  0  0  0  0  0  0  0  # atno 8009 bound_to 7997
  155.4711  140.3442  155.4328 H   0  0  0  0  0  0  0  0  0  0  0  0  # atno 8010 bound_to 7997
  139.5178  144.3029  152.0362 H   0  0  0  0  0  0  0  0  0  0  0  0  # atno 10167 bound_to 10162
  156.5434  130.4684  149.6487 H   0  0  0  0  0  0  0  0  0  0  0  0  # atno 10718 bound_to 10713
  154.1209  135.2833  155.3208 H   0  0  0  0  0  0  0  0  0  0  0  0  # atno 10763 bound_to 10752
  154.6424  135.5398  153.7808 H   0  0  0  0  0  0  0  0  0  0  0  0  # atno 10764 bound_to 10752
  153.0313  135.6489  154.1363 H   0  0  0  0  0  0  0  0  0  0  0  0  # atno 10765 bound_to 10752
  140.3564  134.7151  157.4302 H   0  0  0  0  0  0  0  0  0  0  0  0  # atno 11005 bound_to 11000
  144.6729  140.0936  143.7464 LP  0  0  0  0  0  0  0  0  0  0  0  0  # atno 17320 bound_to 7965
  145.9370  139.2644  143.1291 LP  0  0  0  0  0  0  0  0  0  0  0  0  # atno 17321 bound_to 7965
  140.2476  144.4203  150.6235 LP  0  0  0  0  0  0  0  0  0  0  0  0  # atno 17342 bound_to 10162
  140.6247  143.2180  151.6621 LP  0  0  0  0  0  0  0  0  0  0  0  0  # atno 17343 bound_to 10162
  156.2950  130.7145  151.2003 LP  0  0  0  0  0  0  0  0  0  0  0  0  # atno 17370 bound_to 10713
  157.7401  131.0521  150.5188 LP  0  0  0  0  0  0  0  0  0  0  0  0  # atno 17371 bound_to 10713
  140.0662  134.5927  155.8693 LP  0  0  0  0  0  0  0  0  0  0  0  0  # atno 17394 bound_to 11000
  141.1997  133.6608  156.5858 LP  0  0  0  0  0  0  0  0  0  0  0  0  # atno 17395 bound_to 11000

$$$$
