AV-unprocessed.smi:228|AV-procd|sdf|1746|dock5
  -GOLD-   2262020263D 1   1.00000     0.00000
 Structure written by MMmdl.
 59 62  0  0  0  0  0  0  0  0  1 V2000
  145.8139  141.1717  155.9331 C   0  0  0  0  0  0  0  0  0  0  0  0
  146.3654  140.3155  154.8905 N   0  0  0  0  0  0  0  0  0  0  0  0
  147.3830  140.8817  154.0007 C   0  0  0  0  0  0  0  0  0  0  0  0
  148.8216  140.6013  154.4804 C   0  0  1  0  0  0  0  0  0  0  0  0
  149.6790  140.8358  153.3825 O   0  0  0  0  0  0  0  0  0  0  0  0
  149.2638  141.5223  155.6399 C   0  0  0  0  0  0  0  0  0  0  0  0
  150.4990  141.1372  156.3233 N   0  0  0  0  0  0  0  0  0  0  0  0
  150.4123  139.8129  156.9381 C   0  0  0  0  0  0  0  0  0  0  0  0
  151.7019  139.4423  157.6917 C   0  0  0  0  0  0  0  0  0  0  0  0
  151.9910  140.4374  158.6678 O   0  0  0  0  0  0  0  0  0  0  0  0
  152.1330  141.7351  158.1001 C   0  0  0  0  0  0  0  0  0  0  0  0
  150.8421  142.1121  157.3538 C   0  0  0  0  0  0  0  0  0  0  0  0
  145.7241  139.1623  154.5485 C   0  0  0  0  0  0  0  0  0  0  0  0
  144.8215  138.6477  155.4258 N   0  0  0  0  0  0  0  0  0  0  0  0
  144.1645  137.5185  155.1510 C   0  0  0  0  0  0  0  0  0  0  0  0
  144.2592  136.7425  154.0721 N   0  0  0  0  0  0  0  0  0  0  0  0
  145.1671  137.2397  153.1853 C   0  0  0  0  0  0  0  0  0  0  0  0
  145.9312  138.4344  153.3356 C   0  0  0  0  0  0  0  0  0  0  0  0
  146.7405  138.6044  152.2160 N   0  0  0  0  0  0  0  0  0  0  0  0
  146.4601  137.5869  151.4496 C   0  0  0  0  0  0  0  0  0  0  0  0
  145.5461  136.7002  151.9685 N   0  0  0  0  0  0  0  0  0  0  0  0
  145.0299  135.5222  151.3347 C   0  0  0  0  0  0  0  0  0  0  0  0
  144.4556  134.3707  152.1648 C   0  0  0  0  0  0  0  0  0  0  0  0
  145.0249  133.3456  151.1592 C   0  0  0  0  0  0  0  0  0  0  0  0
  145.7525  132.1470  151.7880 C   0  0  0  0  0  0  0  0  0  0  0  0
  146.2724  131.2808  150.7995 O   0  0  0  0  0  0  0  0  0  0  0  0
  144.0486  132.7801  150.1031 C   0  0  0  0  0  0  0  0  0  0  0  0
  143.7087  133.7115  149.0960 O   0  0  0  0  0  0  0  0  0  0  0  0
  145.9584  134.4856  150.6927 C   0  0  0  0  0  0  0  0  0  0  0  0
  145.5375  140.5882  156.8118 H   0  0  0  0  0  0  0  0  0  0  0  0
  144.9343  141.7036  155.5696 H   0  0  0  0  0  0  0  0  0  0  0  0
  146.5466  141.9145  156.2496 H   0  0  0  0  0  0  0  0  0  0  0  0
  147.2409  140.4242  153.0209 H   0  0  0  0  0  0  0  0  0  0  0  0
  147.2404  141.9498  153.8364 H   0  0  0  0  0  0  0  0  0  0  0  0
  148.9021  139.5494  154.7505 H   0  0  0  0  0  0  0  0  0  0  0  0
  149.5102  140.1787  152.7247 H   0  0  0  0  0  0  0  0  0  0  0  0
  149.3675  142.5343  155.2457 H   0  0  0  0  0  0  0  0  0  0  0  0
  148.4702  141.5802  156.3842 H   0  0  0  0  0  0  0  0  0  0  0  0
  149.5693  139.7799  157.6301 H   0  0  0  0  0  0  0  0  0  0  0  0
  150.2260  139.0515  156.1825 H   0  0  0  0  0  0  0  0  0  0  0  0
  151.5876  138.4785  158.1881 H   0  0  0  0  0  0  0  0  0  0  0  0
  152.5400  139.3490  156.9993 H   0  0  0  0  0  0  0  0  0  0  0  0
  152.3345  142.4525  158.8958 H   0  0  0  0  0  0  0  0  0  0  0  0
  152.9901  141.7543  157.4252 H   0  0  0  0  0  0  0  0  0  0  0  0
  150.9636  143.0983  156.9044 H   0  0  0  0  0  0  0  0  0  0  0  0
  150.0241  142.1958  158.0711 H   0  0  0  0  0  0  0  0  0  0  0  0
  143.4645  137.1887  155.9045 H   0  0  0  0  0  0  0  0  0  0  0  0
  146.9227  137.4538  150.4824 H   0  0  0  0  0  0  0  0  0  0  0  0
  144.2939  135.8777  150.6129 H   0  0  0  0  0  0  0  0  0  0  0  0
  144.9197  134.3000  153.1501 H   0  0  0  0  0  0  0  0  0  0  0  0
  143.3683  134.3754  152.2474 H   0  0  0  0  0  0  0  0  0  0  0  0
  146.5675  132.4745  152.4345 H   0  0  0  0  0  0  0  0  0  0  0  0
  145.0763  131.5658  152.4157 H   0  0  0  0  0  0  0  0  0  0  0  0
  147.2104  131.3911  150.7658 H   0  0  0  0  0  0  0  0  0  0  0  0
  144.4751  131.9047  149.6123 H   0  0  0  0  0  0  0  0  0  0  0  0
  143.1182  132.4536  150.5684 H   0  0  0  0  0  0  0  0  0  0  0  0
  142.9077  134.1458  149.3467 H   0  0  0  0  0  0  0  0  0  0  0  0
  146.0599  134.5833  149.6114 H   0  0  0  0  0  0  0  0  0  0  0  0
  146.9381  134.4526  151.1720 H   0  0  0  0  0  0  0  0  0  0  0  0
  1  2  1  0  0  0  0
  1 30  1  0  0  0  0
  1 31  1  0  0  0  0
  1 32  1  0  0  0  0
  2  3  1  0  0  0  0
  2 13  1  0  0  0  0
  3  4  1  0  0  0  0
  3 33  1  0  0  0  0
  3 34  1  0  0  0  0
  4  5  1  0  0  0  0
  4  6  1  0  0  0  0
  4 35  1  0  0  0  0
  5 36  1  0  0  0  0
  6  7  1  0  0  0  0
  6 37  1  0  0  0  0
  6 38  1  0  0  0  0
  7 12  1  0  0  0  0
  7  8  1  0  0  0  0
  8  9  1  0  0  0  0
  8 39  1  0  0  0  0
  8 40  1  0  0  0  0
  9 10  1  0  0  0  0
  9 41  1  0  0  0  0
  9 42  1  0  0  0  0
 10 11  1  0  0  0  0
 11 12  1  0  0  0  0
 11 43  1  0  0  0  0
 11 44  1  0  0  0  0
 12 45  1  0  0  0  0
 12 46  1  0  0  0  0
 13 18  1  0  0  0  0
 13 14  2  0  0  0  0
 14 15  1  0  0  0  0
 15 16  2  0  0  0  0
 15 47  1  0  0  0  0
 16 17  1  0  0  0  0
 17 21  1  0  0  0  0
 17 18  2  0  0  0  0
 18 19  1  0  0  0  0
 19 20  2  0  0  0  0
 20 21  1  0  0  0  0
 20 48  1  0  0  0  0
 21 22  1  0  0  0  0
 22 29  1  0  0  0  0
 22 23  1  0  0  0  0
 22 49  1  0  0  0  0
 23 24  1  0  0  0  0
 23 50  1  0  0  0  0
 23 51  1  0  0  0  0
 24 25  1  0  0  0  0
 24 27  1  0  0  0  0
 24 29  1  0  0  0  0
 25 26  1  0  0  0  0
 25 52  1  0  0  0  0
 25 53  1  0  0  0  0
 26 54  1  0  0  0  0
 27 28  1  0  0  0  0
 27 55  1  0  0  0  0
 27 56  1  0  0  0  0
 28 57  1  0  0  0  0
 29 58  1  0  0  0  0
 29 59  1  0  0  0  0
M  END
> <s_m_source_file>
AV-unprocessed.smi

> <i_m_source_file_index>
228

> <i_lp_mmshare_version>
43012

> <i_f3d_flags>
0

> <s_epik_input>
W0NIMl0xW0NIMl1PW0NIMl1bQ0gyXU4xW0NIMl1bQ0BASF0oW09IXSlbQ0gyXU4oW0NIM10pYyhuW2NIXW4yKWMoYzIzKW5bY0hdbjNbQ0hdKFtDSDJdNClbQ0gyXUM0KFtDSDJdW09IXSlbQ0gyXVtPSF0=

> <s_epik_cmdline>
J2VwaWtfcHl0aG9uJywgJy1waCcsICc3LjAnLCAnLXRuJywgJzgnLCAnLW1hJywgJzIwMCcsICctbWV0YWxfYmluZGluZycsICctaW1hZScsICc8aW5maWxlLm1hZT4nLCAnLW9tYWUnLCAnPG91dGZpbGUubWFlPic=

> <r_lp_tautomer_probability>
1

> <r_epik_Ionization_Penalty>
0.423559

> <r_epik_Ionization_Penalty_Charging>
0

> <r_epik_Ionization_Penalty_Neutral>
0.423559

> <r_epik_State_Penalty>
0.438466

> <r_epik_Charging_Adjusted_Penalty>
0.438466

> <i_epik_Tot_Q>
0

> <i_epik_Tot_abs_Q>
0

> <r_epik_Metal_State_Penalty>
0.436601

> <b_epik_Metal_Only>
0

> <s_lp_Force_Field>
OPLS_2005

> <r_lp_Energy>
57.656

> <b_lp_Chiralities_Consistent>
1

> <s_lp_Variant>
AV-unprocessed.smi:228-4

> <Gold.Version>
5.8.1

> <Gold.Id.Protein>
6NUR|6NUR_protein|mol2

> <Gold.PLP.Fitness>
50.1358

> <Gold.PLP.PLP>
-39.2775

> <Gold.PLP.part.hbond>
-5.5249

> <Gold.PLP.part.metal>
0.0000

> <Gold.PLP.part.buried>
-2.3529

> <Gold.PLP.part.nonpolar>
-31.9933

> <Gold.PLP.part.repulsive>
0.5315

> <Gold.PLP.ligand.clash>
0.0000

> <Gold.PLP.ligand.torsion>
1.6144

> <Gold.PLP.Chemscore.Hbond>
4.0720

> <Gold.PLP.Chemscore.CHOScore>
0.1963

> <Gold.PLP.Chemscore.Metal>
0.0000

> <Gold.Chemscore.Hbonds>
donor molecule, donor type, donor heavy atom, donor atom, acceptor molecule, acceptor atom, score
      L1  H     5    36       P1  7957  0.75
      L1  H    26    54       P1 10747  1.00
      L1  H    28    57       P1 10186  1.00
      P1  H  7989  7998       L1     5  0.29
      P1  H  8011  8017       L1     5  1.00
      L1  C    20    48       P1  7948  0.08

> <Gold.PLP.Chemscore.Internal.Correction>
1.2821

> <Gold.Rescore>
     Score         DG    S(hbond)    S(metal)    S(lipo)     H(rot)  DE(clash)    DE(int)     intcor
     10.61     -15.05       3.37        0.00      87.45       4.66       1.01       3.43       ----

> <Gold.Chemscore.Fitness>
10.6082

> <Gold.Chemscore.DG>
-15.0504

> <Gold.Chemscore.ZeroCoef>
-5.4800

> <Gold.Chemscore.Hbond>
3.3737

> <Gold.Chemscore.Metal>
0.0000

> <Gold.Chemscore.Lipo>
87.4518

> <Gold.Chemscore.Internal_Hbond>
0.0000

> <Gold.Chemscore.DEClash>
1.0075

> <Gold.Chemscore.DEInternal>
3.4347

> <Gold.Chemscore.Rot>
4.6600

> <Gold.Chemscore.Internal.Correction>
   9.000000E+99

> <Gold.Chemscore.Hbonds>
donor molecule, donor type, donor heavy atom, donor atom, acceptor molecule, acceptor atom, score
      L1  H     5    36       P1  7957  0.74
      L1  H    26    54       P1 10747  0.97
      L1  H    28    57       P1 10186  0.99
      P1  H  7989  7998       L1     5  0.11
      P1  H  8011  8017       L1     5  0.30

> <Gold.Chemscore.Hbond.Weighted>
-11.2682

> <Gold.Chemscore.Metal.Weighted>
-0.0000

> <Gold.Chemscore.Lipo.Weighted>
-10.2319

> <Gold.Chemscore.Internal_Hbond.Weighted>
0.0000

> <Gold.Chemscore.DEClash.Weighted>
1.0075

> <Gold.Chemscore.DEInternal.Weighted>
3.4347

> <Gold.Chemscore.Rot.Weighted>
11.9297

> <Gold.Chemscore.Internal.Correction.Weighted>
   9.000000E+99

> <Gold.Protein.RotatedTorsions>
[ 6907 6896 6895 6894 ] final  -40.73 input  -60.11 | X-H torsion
[ 7974 7965 7964 7962 ] final -179.85 input  175.53 | X-H torsion
[ 8008 7997 7996 7995 ] final   47.13 input   59.86 | X-H torsion
[ 10167 10162 10161 10158 ] final   91.25 input  -65.29 | X-H torsion
[ 10718 10713 10712 10709 ] final  -17.92 input   66.30 | X-H torsion
[ 10763 10752 10751 10750 ] final  167.75 input  -60.55 | X-H torsion
[ 11005 11000 10999 10996 ] final   58.50 input  -57.11 | X-H torsion

> <Gold.Protein.ActiveResidues>
 VAL166  LYS551  ARG553  GLY616  TRP617  ASP618  TYR619  PRO620  LYS621  CYS622 
 ASP623  PHE694  ASN695  SER759  ASP760  ASP761  ALA762  ILE779  LEU786  VAL792 
 PHE793  MET794  SER795  GLU796  ALA797  LYS798  CYS799  TRP800  GLU811  SER814 

> <Gold.Protein.RotatedAtoms>
  150.9750  134.9116  159.7810 H   0  0  0  0  0  0  0  0  0  0  0  0  # atno 6907 bound_to 6896
  152.5203  134.3489  159.9254 H   0  0  0  0  0  0  0  0  0  0  0  0  # atno 6908 bound_to 6896
  151.3497  133.3889  159.2713 H   0  0  0  0  0  0  0  0  0  0  0  0  # atno 6909 bound_to 6896
  144.7139  140.0656  143.6431 H   0  0  0  0  0  0  0  0  0  0  0  0  # atno 7974 bound_to 7965
  155.3639  140.3420  155.4241 H   0  0  0  0  0  0  0  0  0  0  0  0  # atno 8008 bound_to 7997
  156.1699  140.1628  156.8501 H   0  0  0  0  0  0  0  0  0  0  0  0  # atno 8009 bound_to 7997
  154.5222  140.0764  156.8175 H   0  0  0  0  0  0  0  0  0  0  0  0  # atno 8010 bound_to 7997
  139.8392  144.6649  150.9304 H   0  0  0  0  0  0  0  0  0  0  0  0  # atno 10167 bound_to 10162
  156.5668  130.4739  149.6381 H   0  0  0  0  0  0  0  0  0  0  0  0  # atno 10718 bound_to 10713
  154.3585  135.2753  155.2333 H   0  0  0  0  0  0  0  0  0  0  0  0  # atno 10763 bound_to 10752
  154.4532  135.5926  153.6209 H   0  0  0  0  0  0  0  0  0  0  0  0  # atno 10764 bound_to 10752
  152.9845  135.6047  154.3803 H   0  0  0  0  0  0  0  0  0  0  0  0  # atno 10765 bound_to 10752
  140.0373  134.5925  155.9428 H   0  0  0  0  0  0  0  0  0  0  0  0  # atno 11005 bound_to 11000
  145.9827  139.2954  143.1032 LP  0  0  0  0  0  0  0  0  0  0  0  0  # atno 17320 bound_to 7965
  145.8992  140.9254  143.0512 LP  0  0  0  0  0  0  0  0  0  0  0  0  # atno 17321 bound_to 7965
  140.7799  143.3928  151.1281 LP  0  0  0  0  0  0  0  0  0  0  0  0  # atno 17342 bound_to 10162
  139.7576  143.8684  152.3092 LP  0  0  0  0  0  0  0  0  0  0  0  0  # atno 17343 bound_to 10162
  156.2749  130.7038  151.1846 LP  0  0  0  0  0  0  0  0  0  0  0  0  # atno 17370 bound_to 10713
  157.7357  131.0570  150.5457 LP  0  0  0  0  0  0  0  0  0  0  0  0  # atno 17371 bound_to 10713
  141.1864  133.6557  156.5238 LP  0  0  0  0  0  0  0  0  0  0  0  0  # atno 17394 bound_to 11000
  140.4127  134.7258  157.4845 LP  0  0  0  0  0  0  0  0  0  0  0  0  # atno 17395 bound_to 11000

$$$$
