AV-unprocessed.smi:1529|AV-procd|sdf|6154|dock3
  -GOLD-   22720 6303D 1   1.00000     0.00000
 Structure written by MMmdl.
 50 51  0  0  0  0  0  0  0  0  1 V2000
  145.8568  133.7389  151.2672 C   0  0  0  0  0  0  0  0  0  0  0  0
  145.3763  135.1713  151.0597 C   0  0  0  0  0  0  0  0  0  0  0  0
  144.1863  135.3989  150.8440 O   0  0  0  0  0  0  0  0  0  0  0  0
  146.3148  136.1276  151.1278 N   0  0  0  0  0  0  0  0  0  0  0  0
  146.0705  137.5563  150.9642 C   0  0  0  0  0  0  0  0  0  0  0  0
  146.3501  138.3343  152.2602 C   0  0  0  0  0  0  0  0  0  0  0  0
  146.7247  139.8004  151.9895 C   0  0  0  0  0  0  0  0  0  0  0  0
  147.5525  140.3522  153.0558 N   0  0  0  0  0  0  0  0  0  0  0  0
  147.1364  140.5868  154.3113 C   0  0  0  0  0  0  0  0  0  0  0  0
  145.9954  140.3446  154.7052 O   0  0  0  0  0  0  0  0  0  0  0  0
  148.1805  141.1089  155.2554 C   0  0  0  0  0  0  0  0  0  0  0  0
  149.5239  141.2844  154.8571 C   0  0  0  0  0  0  0  0  0  0  0  0
  150.4524  141.7967  155.7836 C   0  0  0  0  0  0  0  0  0  0  0  0
  150.0157  142.1299  157.0871 C   0  0  0  0  0  0  0  0  0  0  0  0
  150.9316  142.6409  158.0313 N   0  0  0  0  0  0  0  0  0  0  0  0
  151.5380  143.9240  157.6874 C   0  0  0  0  0  0  0  0  0  0  0  0
  152.2539  144.5417  158.9043 C   0  0  1  0  0  0  0  0  0  0  0  0
  151.2889  145.1454  159.9404 C   0  0  0  0  0  0  0  0  0  0  0  0
  153.1479  143.5913  159.4877 O   0  0  0  0  0  0  0  0  0  0  0  0
  152.5414  142.3588  159.8738 C   0  0  2  0  0  0  0  0  0  0  0  0
  153.6299  141.4609  160.4710 C   0  0  0  0  0  0  0  0  0  0  0  0
  151.8700  141.7094  158.6510 C   0  0  0  0  0  0  0  0  0  0  0  0
  148.7216  141.9787  157.4616 N   0  0  0  0  0  0  0  0  0  0  0  0
  147.8350  141.4870  156.5703 C   0  0  0  0  0  0  0  0  0  0  0  0
  146.6628  133.5019  150.5720 H   0  0  0  0  0  0  0  0  0  0  0  0
  145.0451  133.0297  151.1018 H   0  0  0  0  0  0  0  0  0  0  0  0
  146.2256  133.6050  152.2847 H   0  0  0  0  0  0  0  0  0  0  0  0
  147.2669  135.8451  151.3104 H   0  0  0  0  0  0  0  0  0  0  0  0
  146.6754  137.9483  150.1446 H   0  0  0  0  0  0  0  0  0  0  0  0
  145.0288  137.6876  150.6706 H   0  0  0  0  0  0  0  0  0  0  0  0
  145.4712  138.2967  152.9053 H   0  0  0  0  0  0  0  0  0  0  0  0
  147.1572  137.8474  152.8095 H   0  0  0  0  0  0  0  0  0  0  0  0
  147.2389  139.8933  151.0313 H   0  0  0  0  0  0  0  0  0  0  0  0
  145.8213  140.4065  151.9160 H   0  0  0  0  0  0  0  0  0  0  0  0
  148.5137  140.5596  152.8270 H   0  0  0  0  0  0  0  0  0  0  0  0
  149.8491  141.0390  153.8566 H   0  0  0  0  0  0  0  0  0  0  0  0
  151.4787  141.9434  155.4813 H   0  0  0  0  0  0  0  0  0  0  0  0
  152.2604  143.7533  156.8881 H   0  0  0  0  0  0  0  0  0  0  0  0
  150.8074  144.6325  157.2991 H   0  0  0  0  0  0  0  0  0  0  0  0
  152.8768  145.3597  158.5409 H   0  0  0  0  0  0  0  0  0  0  0  0
  150.7169  145.9638  159.5028 H   0  0  0  0  0  0  0  0  0  0  0  0
  151.8360  145.5453  160.7946 H   0  0  0  0  0  0  0  0  0  0  0  0
  150.5711  144.4151  160.3135 H   0  0  0  0  0  0  0  0  0  0  0  0
  151.7949  142.5428  160.6466 H   0  0  0  0  0  0  0  0  0  0  0  0
  153.2172  140.5042  160.7919 H   0  0  0  0  0  0  0  0  0  0  0  0
  154.0906  141.9323  161.3395 H   0  0  0  0  0  0  0  0  0  0  0  0
  154.4172  141.2595  159.7443 H   0  0  0  0  0  0  0  0  0  0  0  0
  151.3499  140.8031  158.9643 H   0  0  0  0  0  0  0  0  0  0  0  0
  152.6229  141.4168  157.9175 H   0  0  0  0  0  0  0  0  0  0  0  0
  146.8200  141.3902  156.9278 H   0  0  0  0  0  0  0  0  0  0  0  0
  1  2  1  0  0  0  0
  1 25  1  0  0  0  0
  1 26  1  0  0  0  0
  1 27  1  0  0  0  0
  2  3  2  0  0  0  0
  2  4  1  0  0  0  0
  4  5  1  0  0  0  0
  4 28  1  0  0  0  0
  5  6  1  0  0  0  0
  5 29  1  0  0  0  0
  5 30  1  0  0  0  0
  6  7  1  0  0  0  0
  6 31  1  0  0  0  0
  6 32  1  0  0  0  0
  7  8  1  0  0  0  0
  7 33  1  0  0  0  0
  7 34  1  0  0  0  0
  8  9  1  0  0  0  0
  8 35  1  0  0  0  0
  9 10  2  0  0  0  0
  9 11  1  0  0  0  0
 11 24  1  0  0  0  0
 11 12  2  0  0  0  0
 12 13  1  0  0  0  0
 12 36  1  0  0  0  0
 13 14  2  0  0  0  0
 13 37  1  0  0  0  0
 14 15  1  0  0  0  0
 14 23  1  0  0  0  0
 15 22  1  0  0  0  0
 15 16  1  0  0  0  0
 16 17  1  0  0  0  0
 16 38  1  0  0  0  0
 16 39  1  0  0  0  0
 17 18  1  0  0  0  0
 17 19  1  0  0  0  0
 17 40  1  0  0  0  0
 18 41  1  0  0  0  0
 18 42  1  0  0  0  0
 18 43  1  0  0  0  0
 19 20  1  0  0  0  0
 20 21  1  0  0  0  0
 20 22  1  0  0  0  0
 20 44  1  0  0  0  0
 21 45  1  0  0  0  0
 21 46  1  0  0  0  0
 21 47  1  0  0  0  0
 22 48  1  0  0  0  0
 22 49  1  0  0  0  0
 23 24  2  0  0  0  0
 24 50  1  0  0  0  0
M  END
> <s_m_source_file>
AV-unprocessed.smi

> <i_m_source_file_index>
1529

> <i_lp_mmshare_version>
43012

> <i_f3d_flags>
0

> <s_epik_input>
W0NIM11DKD1PKVtOSF1bQ0gyXVtDSDJdW0NIMl1bTkhdQyg9TyljMVtjSF1bY0hdYyhuW2NIXTEpTjJbQ0gyXVtDQEBIXShbQ0gzXSlPW0NAQEhdKFtDSDNdKVtDSDJdMg==

> <s_epik_cmdline>
J2VwaWtfcHl0aG9uJywgJy1waCcsICc3LjAnLCAnLXRuJywgJzgnLCAnLW1hJywgJzIwMCcsICctbWV0YWxfYmluZGluZycsICctaW1hZScsICc8aW5maWxlLm1hZT4nLCAnLW9tYWUnLCAnPG91dGZpbGUubWFlPic=

> <r_lp_tautomer_probability>
1

> <r_epik_Ionization_Penalty>
2.1474e-05

> <r_epik_Ionization_Penalty_Charging>
0

> <r_epik_Ionization_Penalty_Neutral>
2.1474e-05

> <r_epik_State_Penalty>
-0

> <r_epik_Charging_Adjusted_Penalty>
0

> <i_epik_Tot_Q>
0

> <i_epik_Tot_abs_Q>
0

> <r_epik_Metal_State_Penalty>
-0

> <b_epik_Metal_Only>
0

> <s_lp_Force_Field>
OPLS_2005

> <r_lp_Energy>
18.7347

> <b_lp_Chiralities_Consistent>
1

> <s_lp_Variant>
AV-unprocessed.smi:1529-3

> <Gold.Version>
5.8.1

> <Gold.Id.Protein>
6NUR|6NUR_protein|mol2

> <Gold.PLP.Fitness>
51.4659

> <Gold.PLP.PLP>
-47.6007

> <Gold.PLP.part.hbond>
-2.0000

> <Gold.PLP.part.metal>
0.0000

> <Gold.PLP.part.buried>
-0.4164

> <Gold.PLP.part.nonpolar>
-47.9777

> <Gold.PLP.part.repulsive>
0.7836

> <Gold.PLP.ligand.clash>
0.0000

> <Gold.PLP.ligand.torsion>
0.5583

> <Gold.PLP.Chemscore.Hbond>
1.5440

> <Gold.PLP.Chemscore.CHOScore>
0.0000

> <Gold.PLP.Chemscore.Metal>
0.0000

> <Gold.Chemscore.Hbonds>
donor molecule, donor type, donor heavy atom, donor atom, acceptor molecule, acceptor atom, score
      L1  H     4    28       P1  7948  1.00
      L1  H     8    35       P1  7957  0.56

> <Gold.PLP.Chemscore.Internal.Correction>
0.3498

> <Gold.Rescore>
     Score         DG    S(hbond)    S(metal)    S(lipo)     H(rot)  DE(clash)    DE(int)     intcor
     16.43     -19.94       1.49        0.00     126.33       2.07       2.72       0.78       ----

> <Gold.Chemscore.Fitness>
16.4314

> <Gold.Chemscore.DG>
-19.9375

> <Gold.Chemscore.ZeroCoef>
-5.4800

> <Gold.Chemscore.Hbond>
1.4907

> <Gold.Chemscore.Metal>
0.0000

> <Gold.Chemscore.Lipo>
126.3338

> <Gold.Chemscore.Internal_Hbond>
0.0000

> <Gold.Chemscore.DEClash>
2.7225

> <Gold.Chemscore.DEInternal>
0.7837

> <Gold.Chemscore.Rot>
2.0713

> <Gold.Chemscore.Internal.Correction>
   9.000000E+99

> <Gold.Chemscore.Hbonds>
donor molecule, donor type, donor heavy atom, donor atom, acceptor molecule, acceptor atom, score
      L1  H     4    28       P1  7948  0.95
      L1  H     8    35       P1  7957  0.52

> <Gold.Chemscore.Hbond.Weighted>
-4.9790

> <Gold.Chemscore.Metal.Weighted>
-0.0000

> <Gold.Chemscore.Lipo.Weighted>
-14.7811

> <Gold.Chemscore.Internal_Hbond.Weighted>
0.0000

> <Gold.Chemscore.DEClash.Weighted>
2.7225

> <Gold.Chemscore.DEInternal.Weighted>
0.7837

> <Gold.Chemscore.Rot.Weighted>
5.3025

> <Gold.Chemscore.Internal.Correction.Weighted>
   9.000000E+99

> <Gold.Protein.RotatedTorsions>
[ 6907 6896 6895 6894 ] final   -5.31 input  -60.11 | X-H torsion
[ 7974 7965 7964 7962 ] final  141.17 input  175.53 | X-H torsion
[ 8008 7997 7996 7995 ] final  -41.35 input   59.86 | X-H torsion
[ 10167 10162 10161 10158 ] final  -90.50 input  -65.29 | X-H torsion
[ 10718 10713 10712 10709 ] final   55.94 input   66.30 | X-H torsion
[ 10763 10752 10751 10750 ] final  137.60 input  -60.55 | X-H torsion
[ 11005 11000 10999 10996 ] final   16.36 input  -57.11 | X-H torsion

> <Gold.Protein.ActiveResidues>
 VAL166  LYS551  ARG553  GLY616  TRP617  ASP618  TYR619  PRO620  LYS621  CYS622 
 ASP623  PHE694  ASN695  SER759  ASP760  ASP761  ALA762  ILE779  LEU786  VAL792 
 PHE793  MET794  SER795  GLU796  ALA797  LYS798  CYS799  TRP800  GLU811  SER814 

> <Gold.Protein.RotatedAtoms>
  151.4836  135.1053  159.9784 H   0  0  0  0  0  0  0  0  0  0  0  0  # atno 6907 bound_to 6896
  152.4769  133.8156  159.7037 H   0  0  0  0  0  0  0  0  0  0  0  0  # atno 6908 bound_to 6896
  150.8813  133.7306  159.2957 H   0  0  0  0  0  0  0  0  0  0  0  0  # atno 6909 bound_to 6896
  144.9120  139.5280  143.5704 H   0  0  0  0  0  0  0  0  0  0  0  0  # atno 7974 bound_to 7965
  154.4005  140.1501  156.3177 H   0  0  0  0  0  0  0  0  0  0  0  0  # atno 8008 bound_to 7997
  155.8558  140.3456  155.5702 H   0  0  0  0  0  0  0  0  0  0  0  0  # atno 8009 bound_to 7997
  155.7934  140.0860  157.1987 H   0  0  0  0  0  0  0  0  0  0  0  0  # atno 8010 bound_to 7997
  140.3542  143.2875  151.9690 H   0  0  0  0  0  0  0  0  0  0  0  0  # atno 10167 bound_to 10162
  157.5388  130.8682  149.8792 H   0  0  0  0  0  0  0  0  0  0  0  0  # atno 10718 bound_to 10713
  153.8758  135.3050  155.3443 H   0  0  0  0  0  0  0  0  0  0  0  0  # atno 10763 bound_to 10752
  154.7784  135.4848  153.9796 H   0  0  0  0  0  0  0  0  0  0  0  0  # atno 10764 bound_to 10752
  153.1380  135.6818  153.9169 H   0  0  0  0  0  0  0  0  0  0  0  0  # atno 10765 bound_to 10752
  140.4480  134.1253  155.7698 H   0  0  0  0  0  0  0  0  0  0  0  0  # atno 11005 bound_to 11000
  146.3163  139.7934  142.8981 LP  0  0  0  0  0  0  0  0  0  0  0  0  # atno 17320 bound_to 7965
  145.3438  141.0293  143.3377 LP  0  0  0  0  0  0  0  0  0  0  0  0  # atno 17321 bound_to 7965
  139.4822  144.6049  151.7539 LP  0  0  0  0  0  0  0  0  0  0  0  0  # atno 17342 bound_to 10162
  140.5189  144.0909  150.6016 LP  0  0  0  0  0  0  0  0  0  0  0  0  # atno 17343 bound_to 10162
  156.0480  130.3723  150.1270 LP  0  0  0  0  0  0  0  0  0  0  0  0  # atno 17370 bound_to 10713
  156.9451  130.9757  151.3509 LP  0  0  0  0  0  0  0  0  0  0  0  0  # atno 17371 bound_to 10713
  141.1676  133.8671  157.1667 LP  0  0  0  0  0  0  0  0  0  0  0  0  # atno 17394 bound_to 11000
  140.0025  135.0022  157.0222 LP  0  0  0  0  0  0  0  0  0  0  0  0  # atno 17395 bound_to 11000

$$$$
