AV-unprocessed.smi:2458|AV-procd|sdf|9709|dock2
  -GOLD-   2272013343D 1   1.00000     0.00000
 Structure written by MMmdl.
 47 48  0  0  0  0  0  0  0  0  1 V2000
  152.6348  142.7913  161.2427 C   0  0  0  0  0  0  0  0  0  0  0  0
  152.3755  143.5876  159.9490 C   0  0  0  0  0  0  0  0  0  0  0  0
  151.1981  144.5524  160.1897 C   0  0  0  0  0  0  0  0  0  0  0  0
  152.1570  142.6699  158.7099 C   0  0  1  0  0  0  0  0  0  0  0  0
  151.4092  141.3623  159.0704 C   0  0  0  0  0  0  0  0  0  0  0  0
  151.1756  140.4606  157.8476 C   0  0  0  0  0  0  0  0  0  0  0  0
  150.4019  141.2030  156.7431 C   0  0  2  0  0  0  0  0  0  0  0  0
  150.1773  140.3090  155.5169 C   0  0  0  0  0  0  0  0  0  0  0  0
  151.1326  139.7832  154.9447 O   0  0  0  0  0  0  0  0  0  0  0  0
  148.9073  140.1623  155.1108 N   0  0  0  0  0  0  0  0  0  0  0  0
  148.4855  139.4235  153.9244 C   0  0  0  0  0  0  0  0  0  0  0  0
  146.9526  139.2429  153.8408 C   0  0  1  0  0  0  0  0  0  0  0  0
  146.3575  140.5203  153.7420 O   0  0  0  0  0  0  0  0  0  0  0  0
  146.5225  138.3212  152.7073 C   0  0  0  0  0  0  0  0  0  0  0  0
  145.7357  137.1790  152.9669 C   0  0  0  0  0  0  0  0  0  0  0  0
  145.3808  136.3383  151.8949 C   0  0  0  0  0  0  0  0  0  0  0  0
  145.8276  136.6758  150.6022 C   0  0  0  0  0  0  0  0  0  0  0  0
  146.5810  137.7651  150.3396 N   0  0  0  0  0  0  0  0  0  0  0  0
  146.9178  138.5656  151.3737 C   0  0  0  0  0  0  0  0  0  0  0  0
  151.1620  142.4826  156.3516 C   0  0  0  0  0  0  0  0  0  0  0  0
  151.3971  143.3906  157.5688 C   0  0  0  0  0  0  0  0  0  0  0  0
  153.1398  142.3915  158.3257 H   0  0  0  0  0  0  0  0  0  0  0  0
  149.4277  141.4907  157.1432 H   0  0  0  0  0  0  0  0  0  0  0  0
  151.8330  142.0784  161.4373 H   0  0  0  0  0  0  0  0  0  0  0  0
  152.7029  143.4544  162.1055 H   0  0  0  0  0  0  0  0  0  0  0  0
  153.5748  142.2423  161.2038 H   0  0  0  0  0  0  0  0  0  0  0  0
  153.2604  144.1985  159.7655 H   0  0  0  0  0  0  0  0  0  0  0  0
  150.2550  144.0128  160.2800 H   0  0  0  0  0  0  0  0  0  0  0  0
  151.0955  145.2817  159.3870 H   0  0  0  0  0  0  0  0  0  0  0  0
  151.3392  145.1245  161.1071 H   0  0  0  0  0  0  0  0  0  0  0  0
  151.9719  140.7855  159.8033 H   0  0  0  0  0  0  0  0  0  0  0  0
  150.4511  141.6018  159.5339 H   0  0  0  0  0  0  0  0  0  0  0  0
  152.1392  140.1157  157.4692 H   0  0  0  0  0  0  0  0  0  0  0  0
  150.6277  139.5682  158.1538 H   0  0  0  0  0  0  0  0  0  0  0  0
  148.1834  140.6290  155.6378 H   0  0  0  0  0  0  0  0  0  0  0  0
  148.8693  139.9023  153.0220 H   0  0  0  0  0  0  0  0  0  0  0  0
  148.9661  138.4461  153.9813 H   0  0  0  0  0  0  0  0  0  0  0  0
  146.6030  138.8096  154.7788 H   0  0  0  0  0  0  0  0  0  0  0  0
  145.6001  140.4553  153.1807 H   0  0  0  0  0  0  0  0  0  0  0  0
  145.4164  136.9428  153.9715 H   0  0  0  0  0  0  0  0  0  0  0  0
  144.7826  135.4544  152.0598 H   0  0  0  0  0  0  0  0  0  0  0  0
  145.5746  136.0530  149.7570 H   0  0  0  0  0  0  0  0  0  0  0  0
  147.5278  139.4231  151.1296 H   0  0  0  0  0  0  0  0  0  0  0  0
  152.1231  142.2282  155.9016 H   0  0  0  0  0  0  0  0  0  0  0  0
  150.6034  143.0327  155.5931 H   0  0  0  0  0  0  0  0  0  0  0  0
  150.4390  143.7579  157.9391 H   0  0  0  0  0  0  0  0  0  0  0  0
  151.9515  144.2633  157.2263 H   0  0  0  0  0  0  0  0  0  0  0  0
  1  2  1  0  0  0  0
  1 24  1  0  0  0  0
  1 25  1  0  0  0  0
  1 26  1  0  0  0  0
  2  3  1  0  0  0  0
  2  4  1  0  0  0  0
  2 27  1  0  0  0  0
  3 28  1  0  0  0  0
  3 29  1  0  0  0  0
  3 30  1  0  0  0  0
  4 22  1  0  0  0  0
  4 21  1  0  0  0  0
  4  5  1  0  0  0  0
  5  6  1  0  0  0  0
  5 31  1  0  0  0  0
  5 32  1  0  0  0  0
  6  7  1  0  0  0  0
  6 33  1  0  0  0  0
  6 34  1  0  0  0  0
  7 23  1  0  0  0  0
  7  8  1  0  0  0  0
  7 20  1  0  0  0  0
  8  9  2  0  0  0  0
  8 10  1  0  0  0  0
 10 11  1  0  0  0  0
 10 35  1  0  0  0  0
 11 12  1  0  0  0  0
 11 36  1  0  0  0  0
 11 37  1  0  0  0  0
 12 13  1  0  0  0  0
 12 14  1  0  0  0  0
 12 38  1  0  0  0  0
 13 39  1  0  0  0  0
 14 19  1  0  0  0  0
 14 15  2  0  0  0  0
 15 16  1  0  0  0  0
 15 40  1  0  0  0  0
 16 17  2  0  0  0  0
 16 41  1  0  0  0  0
 17 18  1  0  0  0  0
 17 42  1  0  0  0  0
 18 19  2  0  0  0  0
 19 43  1  0  0  0  0
 20 21  1  0  0  0  0
 20 44  1  0  0  0  0
 20 45  1  0  0  0  0
 21 46  1  0  0  0  0
 21 47  1  0  0  0  0
M  END
> <s_m_source_file>
AV-unprocessed.smi

> <i_m_source_file_index>
2458

> <i_lp_mmshare_version>
43012

> <i_f3d_flags>
0

> <s_epik_input>
W0NIM11bQ0hdKFtDSDNdKVtDQEhdMVtDSDJdW0NIMl1bQ0BASF0oW0NIMl1bQ0gyXTEpQyg9TylbTkhdW0NIMl1bQ0BIXShbT0hdKWMyW2NIXVtjSF1bY0hdbltjSF0y

> <s_epik_cmdline>
J2VwaWtfcHl0aG9uJywgJy1waCcsICc3LjAnLCAnLXRuJywgJzgnLCAnLW1hJywgJzIwMCcsICctbWV0YWxfYmluZGluZycsICctaW1hZScsICc8aW5maWxlLm1hZT4nLCAnLW9tYWUnLCAnPG91dGZpbGUubWFlPic=

> <r_epik_Ionization_Penalty>
0.00169206

> <r_epik_Ionization_Penalty_Charging>
0

> <r_epik_Ionization_Penalty_Neutral>
0.00169206

> <r_epik_State_Penalty>
0.0011427

> <r_epik_Charging_Adjusted_Penalty>
0.0011427

> <i_epik_Tot_Q>
0

> <i_epik_Tot_abs_Q>
0

> <r_epik_Metal_State_Penalty>
-0

> <b_epik_Metal_Only>
0

> <s_lp_Force_Field>
OPLS_2005

> <r_lp_Energy>
14.1606

> <b_lp_Chiralities_Consistent>
1

> <s_lp_Variant>
AV-unprocessed.smi:2458-2

> <Gold.Version>
5.8.1

> <Gold.Id.Protein>
6NUR|6NUR_protein|mol2

> <Gold.PLP.Fitness>
50.9832

> <Gold.PLP.PLP>
-39.2238

> <Gold.PLP.part.hbond>
-3.0000

> <Gold.PLP.part.metal>
0.0000

> <Gold.PLP.part.buried>
0.1090

> <Gold.PLP.part.nonpolar>
-40.3000

> <Gold.PLP.part.repulsive>
3.1779

> <Gold.PLP.ligand.clash>
0.0000

> <Gold.PLP.ligand.torsion>
0.7370

> <Gold.PLP.Chemscore.Hbond>
2.3910

> <Gold.PLP.Chemscore.CHOScore>
2.0000

> <Gold.PLP.Chemscore.Metal>
0.0000

> <Gold.Chemscore.Hbonds>
donor molecule, donor type, donor heavy atom, donor atom, acceptor molecule, acceptor atom, score
      L1  H    13    39       P1 10175  0.98
      P1  H  7954  7966       L1    18  0.30
      P1  H  7989  7998       L1     9  1.00
      L1  C    17    42       P1  7921  1.00
      L1  C    19    43       P1  7957  1.00

> <Gold.PLP.Chemscore.Internal.Correction>
0.0605

> <Gold.Rescore>
     Score         DG    S(hbond)    S(metal)    S(lipo)     H(rot)  DE(clash)    DE(int)     intcor
     17.70     -21.56       1.93        0.00     127.44       2.06       2.43       1.43       ----

> <Gold.Chemscore.Fitness>
17.6984

> <Gold.Chemscore.DG>
-21.5608

> <Gold.Chemscore.ZeroCoef>
-5.4800

> <Gold.Chemscore.Hbond>
1.9282

> <Gold.Chemscore.Metal>
0.0000

> <Gold.Chemscore.Lipo>
127.4443

> <Gold.Chemscore.Internal_Hbond>
0.0000

> <Gold.Chemscore.DEClash>
2.4279

> <Gold.Chemscore.DEInternal>
1.4345

> <Gold.Chemscore.Rot>
2.0588

> <Gold.Chemscore.Internal.Correction>
   9.000000E+99

> <Gold.Chemscore.Hbonds>
donor molecule, donor type, donor heavy atom, donor atom, acceptor molecule, acceptor atom, score
      L1  H    13    39       P1 10175  0.86
      P1  H  7954  7966       L1    18  0.01
      P1  H  7989  7998       L1     9  0.70

> <Gold.Chemscore.Hbond.Weighted>
-6.4403

> <Gold.Chemscore.Metal.Weighted>
-0.0000

> <Gold.Chemscore.Lipo.Weighted>
-14.9110

> <Gold.Chemscore.Internal_Hbond.Weighted>
0.0000

> <Gold.Chemscore.DEClash.Weighted>
2.4279

> <Gold.Chemscore.DEInternal.Weighted>
1.4345

> <Gold.Chemscore.Rot.Weighted>
5.2705

> <Gold.Chemscore.Internal.Correction.Weighted>
   9.000000E+99

> <Gold.Protein.RotatedTorsions>
[ 6907 6896 6895 6894 ] final -142.32 input  -60.11 | X-H torsion
[ 7974 7965 7964 7962 ] final   -3.49 input  175.53 | X-H torsion
[ 8008 7997 7996 7995 ] final  -53.09 input   59.86 | X-H torsion
[ 10167 10162 10161 10158 ] final  123.40 input  -65.29 | X-H torsion
[ 10718 10713 10712 10709 ] final  -99.81 input   66.30 | X-H torsion
[ 10763 10752 10751 10750 ] final   97.84 input  -60.55 | X-H torsion
[ 11005 11000 10999 10996 ] final  -74.13 input  -57.11 | X-H torsion

> <Gold.Protein.ActiveResidues>
 VAL166  LYS551  ARG553  GLY616  TRP617  ASP618  TYR619  PRO620  LYS621  CYS622 
 ASP623  PHE694  ASN695  SER759  ASP760  ASP761  ALA762  ILE779  LEU786  VAL792 
 PHE793  MET794  SER795  GLU796  ALA797  LYS798  CYS799  TRP800  GLU811  SER814 

> <Gold.Protein.RotatedAtoms>
  151.0854  133.5357  159.2617 H   0  0  0  0  0  0  0  0  0  0  0  0  # atno 6907 bound_to 6896
  151.2244  135.0530  159.8972 H   0  0  0  0  0  0  0  0  0  0  0  0  # atno 6908 bound_to 6896
  152.5428  134.0652  159.8223 H   0  0  0  0  0  0  0  0  0  0  0  0  # atno 6909 bound_to 6896
  146.2388  140.1729  142.8332 H   0  0  0  0  0  0  0  0  0  0  0  0  # atno 7974 bound_to 7965
  154.4124  140.1208  156.5097 H   0  0  0  0  0  0  0  0  0  0  0  0  # atno 8008 bound_to 7997
  155.6811  140.3496  155.4836 H   0  0  0  0  0  0  0  0  0  0  0  0  # atno 8009 bound_to 7997
  155.9550  140.1112  157.0934 H   0  0  0  0  0  0  0  0  0  0  0  0  # atno 8010 bound_to 7997
  139.5802  144.6982  151.3549 H   0  0  0  0  0  0  0  0  0  0  0  0  # atno 10167 bound_to 10162
  156.0144  130.5299  150.6724 H   0  0  0  0  0  0  0  0  0  0  0  0  # atno 10718 bound_to 10713
  153.2817  135.4169  155.1085 H   0  0  0  0  0  0  0  0  0  0  0  0  # atno 10763 bound_to 10752
  154.8491  135.3497  154.6102 H   0  0  0  0  0  0  0  0  0  0  0  0  # atno 10764 bound_to 10752
  153.6523  135.7052  153.5262 H   0  0  0  0  0  0  0  0  0  0  0  0  # atno 10765 bound_to 10752
  141.1631  133.6901  156.7318 H   0  0  0  0  0  0  0  0  0  0  0  0  # atno 11005 bound_to 11000
  144.9997  140.8621  143.5289 LP  0  0  0  0  0  0  0  0  0  0  0  0  # atno 17320 bound_to 7965
  145.1746  139.2385  143.5324 LP  0  0  0  0  0  0  0  0  0  0  0  0  # atno 17321 bound_to 7965
  140.7081  143.7463  150.7517 LP  0  0  0  0  0  0  0  0  0  0  0  0  # atno 17342 bound_to 10162
  140.0993  143.4803  152.2434 LP  0  0  0  0  0  0  0  0  0  0  0  0  # atno 17343 bound_to 10162
  157.4444  131.0865  151.0911 LP  0  0  0  0  0  0  0  0  0  0  0  0  # atno 17370 bound_to 10713
  157.1445  130.6157  149.5564 LP  0  0  0  0  0  0  0  0  0  0  0  0  # atno 17371 bound_to 10713
  140.2739  134.8370  157.3872 LP  0  0  0  0  0  0  0  0  0  0  0  0  # atno 17394 bound_to 11000
  140.1495  134.4867  155.7971 LP  0  0  0  0  0  0  0  0  0  0  0  0  # atno 17395 bound_to 11000

$$$$
