#       Name:                AV-unprocessed.smi:499
#       Creating user name   scv26
#       Creation time:       Thu Mar 26 23:18:27 2020


#       File generated by GOLD software.
#

@<TRIPOS>MOLECULE
AV-unprocessed.smi:499
    41    42     1
SMALL
NO_CHARGES


@<TRIPOS>ATOM
      1 ****        -2.6311  -2.0998   0.1053 C.3            1 S1                 0.0000
      2 ****        -2.3027  -1.0404  -0.9660 C.3            1 S1                 0.0000
      3 ****        -3.0317   0.2065  -0.6514 C.1            1 S1                 0.0000
      4 ****        -3.6025   1.1829  -0.4043 N.1            1 S1                 0.0000
      5 ****        -0.8568  -0.8039  -0.9820 N.am           1 S1                 0.0000
      6 ****        -0.1172  -0.2030  -0.0347 C.2            1 S1                 0.0000
      7 ****        -0.5885   0.2444   1.0114 O.2            1 S1                 0.0000
      8 ****         1.3838  -0.0853  -0.3368 C.3            1 S1                 0.0000
      9 ****         2.1905   0.2924   0.8362 N.am           1 S1                 0.0000
     10 ****         2.5121   1.6565   0.9807 C.2            1 S1                 0.0000
     11 ****         3.2279   2.1351   2.0165 C.2            1 S1                 0.0000
     12 ****         3.6062   3.6043   2.1203 C.3            1 S1                 0.0000
     13 ****         4.7879   3.7518   2.7196 F              1 S1                 0.0000
     14 ****         3.6737   4.1730   0.9158 F              1 S1                 0.0000
     15 ****         2.6934   4.2576   2.8377 F              1 S1                 0.0000
     16 ****         3.6942   1.1609   2.9833 C.2            1 S1                 0.0000
     17 ****         3.3998  -0.1479   2.8575 C.2            1 S1                 0.0000
     18 ****         2.5987  -0.6496   1.7386 C.2            1 S1                 0.0000
     19 ****         2.3131  -1.8413   1.6187 O.2            1 S1                 0.0000
     20 ****        -2.7604  -1.5695  -2.3239 C.3            1 S1                 0.0000
     21 ****        -3.1435  -0.6618  -3.4717 C.3            1 S1                 0.0000
     22 ****        -4.2003  -1.4958  -2.7814 C.3            1 S1                 0.0000
     23 ****        -3.6967  -2.3319   0.1117 H              1 S1                 0.0000
     24 ****        -2.3726  -1.7597   1.1084 H              1 S1                 0.0000
     25 ****        -2.0934  -3.0310  -0.0770 H              1 S1                 0.0000
     26 ****        -0.3691  -1.1291  -1.8040 H              1 S1                 0.0000
     27 ****         1.7407  -1.0306  -0.7502 H              1 S1                 0.0000
     28 ****         1.5135   0.6422  -1.1393 H              1 S1                 0.0000
     29 ****         2.1343   2.2925   0.1934 H              1 S1                 0.0000
     30 ****         4.2855   1.4871   3.8263 H              1 S1                 0.0000
     31 ****         3.7612  -0.8452   3.5991 H              1 S1                 0.0000
     32 ****        -2.2370  -2.4789  -2.6150 H              1 S1                 0.0000
     33 ****        -3.1595   0.4125  -3.3004 H              1 S1                 0.0000
     34 ****        -2.8387  -0.9653  -4.4711 H              1 S1                 0.0000
     35 ****        -4.5973  -2.3519  -3.3231 H              1 S1                 0.0000
     36 ****        -4.9169  -0.9766  -2.1484 H              1 S1                 0.0000
     37 ****        -4.0956   2.0263  -0.1909 LP             1 S1                 0.0000
     38 ****        -1.5696   0.1696   1.1900 LP             1 S1                 0.0000
     39 ****         0.0099   0.6824   1.6823 LP             1 S1                 0.0000
     40 ****         1.7647  -2.1483   0.8409 LP             1 S1                 0.0000
     41 ****         2.6296  -2.5023   2.2992 LP             1 S1                 0.0000
@<TRIPOS>BOND
    1    1    2 1     
    2    1   23 1     
    3    1   24 1     
    4    1   25 1     
    5    2    3 1     
    6    2    5 1     
    7    2   20 1     
    8    3    4 3     
    9    5    6 am    
   10    5   26 1     
   11    6    7 2     
   12    6    8 1     
   13    8    9 1     
   14    8   27 1     
   15    8   28 1     
   16    9   18 am    
   17    9   10 1     
   18   10   11 2     
   19   10   29 1     
   20   11   12 1     
   21   11   16 1     
   22   12   13 1     
   23   12   14 1     
   24   12   15 1     
   25   16   17 2     
   26   16   30 1     
   27   17   18 1     
   28   17   31 1     
   29   18   19 2     
   30   20   22 1     
   31   20   21 1     
   32   20   32 1     
   33   21   22 1     
   34   21   33 1     
   35   21   34 1     
   36   22   35 1     
   37   22   36 1     
   38    4   37 1     
   39    7   38 1     
   40    7   39 1     
   41   19   40 1     
   42   19   41 1     
@<TRIPOS>SUBSTRUCTURE
      1 S1             1
@<TRIPOS>SET
LONE_PAIRS      STATIC     ATOMS    <user>   **** ""
5 37 38 39 40 41
DONOR_HYDROGENS      STATIC     ATOMS    <user>   **** ""
1 26
ATOM$BLUE        STATIC     ATOMS    COLORGROUP SYSTEM
5 37 38 39 40 41
ATOM$RED        STATIC     ATOMS    COLORGROUP SYSTEM
1 26
