AV-unprocessed.smi:1403|AV-procd|sdf|5700|dock2
  -GOLD-   22720 5333D 1   1.00000     0.00000
 Structure written by MMmdl.
 36 37  0  0  0  0  0  0  0  0  1 V2000
  153.6840  141.6025  160.5809 C   0  0  0  0  0  0  0  0  0  0  0  0
  153.0950  142.1036  159.2534 C   0  0  1  0  0  0  0  0  0  0  0  0
  151.9105  141.3079  158.9412 N   0  0  0  0  0  0  0  0  0  0  0  0
  151.9033  140.1356  158.2880 C   0  0  0  0  0  0  0  0  0  0  0  0
  152.9272  139.5676  157.9053 O   0  0  0  0  0  0  0  0  0  0  0  0
  150.5224  139.5090  158.0472 C   0  0  0  0  0  0  0  0  0  0  0  0
  149.7303  140.2335  157.0423 N   0  0  0  0  0  0  0  0  0  0  0  0
  148.4520  140.6796  157.3463 C   0  0  0  0  0  0  0  0  0  0  0  0
  147.6633  141.3393  156.4652 C   0  0  0  0  0  0  0  0  0  0  0  0
  148.1379  141.6187  155.1142 C   0  0  0  0  0  0  0  0  0  0  0  0
  147.4994  142.2098  154.2464 O   0  0  0  0  0  0  0  0  0  0  0  0
  149.4277  141.1525  154.8461 N   0  0  0  0  0  0  0  0  0  0  0  0
  150.2453  140.4709  155.7489 C   0  0  0  0  0  0  0  0  0  0  0  0
  151.3678  140.0994  155.4081 O   0  0  0  0  0  0  0  0  0  0  0  0
  152.7169  143.5985  159.3048 C   0  0  1  0  0  0  0  0  0  0  0  0
  151.8936  144.0947  158.1144 C   0  0  0  0  0  0  0  0  0  0  0  0
  151.1236  145.2815  158.6742 C   0  0  0  0  0  0  0  0  0  0  0  0
  151.2912  145.1554  160.1903 C   0  0  0  0  0  0  0  0  0  0  0  0
  151.8419  143.8627  160.3910 O   0  0  0  0  0  0  0  0  0  0  0  0
  149.7979  141.3200  153.9218 H   0  0  0  0  0  0  0  0  0  0  0  0
  154.6025  142.1325  160.8336 H   0  0  0  0  0  0  0  0  0  0  0  0
  153.9286  140.5415  160.5240 H   0  0  0  0  0  0  0  0  0  0  0  0
  152.9825  141.7396  161.4044 H   0  0  0  0  0  0  0  0  0  0  0  0
  153.8521  141.9578  158.4807 H   0  0  0  0  0  0  0  0  0  0  0  0
  151.0211  141.6943  159.2213 H   0  0  0  0  0  0  0  0  0  0  0  0
  150.6698  138.4724  157.7407 H   0  0  0  0  0  0  0  0  0  0  0  0
  149.9711  139.4556  158.9884 H   0  0  0  0  0  0  0  0  0  0  0  0
  148.0570  140.4909  158.3343 H   0  0  0  0  0  0  0  0  0  0  0  0
  146.6752  141.6609  156.7615 H   0  0  0  0  0  0  0  0  0  0  0  0
  153.6118  144.2141  159.4174 H   0  0  0  0  0  0  0  0  0  0  0  0
  152.5137  144.3611  157.2580 H   0  0  0  0  0  0  0  0  0  0  0  0
  151.1906  143.3246  157.7936 H   0  0  0  0  0  0  0  0  0  0  0  0
  151.5300  146.2289  158.3189 H   0  0  0  0  0  0  0  0  0  0  0  0
  150.0742  145.2345  158.3814 H   0  0  0  0  0  0  0  0  0  0  0  0
  151.9913  145.9043  160.5634 H   0  0  0  0  0  0  0  0  0  0  0  0
  150.3500  145.2704  160.7281 H   0  0  0  0  0  0  0  0  0  0  0  0
  1  2  1  0  0  0  0
  1 21  1  0  0  0  0
  1 22  1  0  0  0  0
  1 23  1  0  0  0  0
  2  3  1  0  0  0  0
  2 15  1  0  0  0  0
  2 24  1  0  0  0  0
  3  4  1  0  0  0  0
  3 25  1  0  0  0  0
  4  5  2  0  0  0  0
  4  6  1  0  0  0  0
  6  7  1  0  0  0  0
  6 26  1  0  0  0  0
  6 27  1  0  0  0  0
  7 13  1  0  0  0  0
  7  8  1  0  0  0  0
  8  9  2  0  0  0  0
  8 28  1  0  0  0  0
  9 10  1  0  0  0  0
  9 29  1  0  0  0  0
 10 11  2  0  0  0  0
 10 12  1  0  0  0  0
 12 20  1  0  0  0  0
 12 13  1  0  0  0  0
 13 14  2  0  0  0  0
 15 19  1  0  0  0  0
 15 16  1  0  0  0  0
 15 30  1  0  0  0  0
 16 17  1  0  0  0  0
 16 31  1  0  0  0  0
 16 32  1  0  0  0  0
 17 18  1  0  0  0  0
 17 33  1  0  0  0  0
 17 34  1  0  0  0  0
 18 19  1  0  0  0  0
 18 35  1  0  0  0  0
 18 36  1  0  0  0  0
M  END
> <s_m_source_file>
AV-unprocessed.smi

> <i_m_source_file_index>
1403

> <i_lp_mmshare_version>
43012

> <i_f3d_flags>
0

> <s_epik_input>
TzFbQ0gyXVtDSDJdW0NIMl1bQ0BIXTFbQ0BIXShbQ0gzXSlbTkhdQyg9TylbQ0gyXW4yW2NIXVtjSF1jKD1PKVtuSF1jMj1P

> <s_epik_cmdline>
J2VwaWtfcHl0aG9uJywgJy1waCcsICc3LjAnLCAnLXRuJywgJzgnLCAnLW1hJywgJzIwMCcsICctbWV0YWxfYmluZGluZycsICctaW1hZScsICc8aW5maWxlLm1hZT4nLCAnLW9tYWUnLCAnPG91dGZpbGUubWFlPic=

> <r_lp_tautomer_probability>
0.999537

> <r_epik_Ionization_Penalty>
0.00331407

> <r_epik_Ionization_Penalty_Charging>
0.00331405

> <r_epik_Ionization_Penalty_Neutral>
2.30132e-08

> <r_epik_State_Penalty>
0.00234266

> <r_epik_Charging_Adjusted_Penalty>
0.00565671

> <i_epik_Tot_Q>
0

> <i_epik_Tot_abs_Q>
0

> <r_epik_Metal_State_Penalty>
0.365604

> <b_epik_Metal_Only>
0

> <s_lp_Force_Field>
OPLS_2005

> <r_lp_Energy>
17.8488

> <b_lp_Chiralities_Consistent>
1

> <s_lp_Variant>
AV-unprocessed.smi:1403-4

> <Gold.Version>
5.8.1

> <Gold.Id.Protein>
6NUR|6NUR_protein|mol2

> <Gold.PLP.Fitness>
42.5835

> <Gold.PLP.PLP>
-37.6955

> <Gold.PLP.part.hbond>
-2.0000

> <Gold.PLP.part.metal>
0.0000

> <Gold.PLP.part.buried>
-6.3725

> <Gold.PLP.part.nonpolar>
-29.0798

> <Gold.PLP.part.repulsive>
0.5721

> <Gold.PLP.ligand.clash>
0.0000

> <Gold.PLP.ligand.torsion>
0.5866

> <Gold.PLP.Chemscore.Hbond>
2.0000

> <Gold.PLP.Chemscore.CHOScore>
0.0000

> <Gold.PLP.Chemscore.Metal>
0.0000

> <Gold.Chemscore.Hbonds>
donor molecule, donor type, donor heavy atom, donor atom, acceptor molecule, acceptor atom, score
      P1  H  7989  7998       L1    14  0.89
      P1  H  7997  8010       L1     5  0.96

> <Gold.PLP.Chemscore.Internal.Correction>
0.0612

> <Gold.Rescore>
     Score         DG    S(hbond)    S(metal)    S(lipo)     H(rot)  DE(clash)    DE(int)     intcor
     14.98     -15.83       1.94        0.00      77.76       2.04       0.32       0.53       ----

> <Gold.Chemscore.Fitness>
14.9817

> <Gold.Chemscore.DG>
-15.8275

> <Gold.Chemscore.ZeroCoef>
-5.4800

> <Gold.Chemscore.Hbond>
1.9374

> <Gold.Chemscore.Metal>
0.0000

> <Gold.Chemscore.Lipo>
77.7574

> <Gold.Chemscore.Internal_Hbond>
0.0000

> <Gold.Chemscore.DEClash>
0.3183

> <Gold.Chemscore.DEInternal>
0.5275

> <Gold.Chemscore.Rot>
2.0395

> <Gold.Chemscore.Internal.Correction>
   9.000000E+99

> <Gold.Chemscore.Hbonds>
donor molecule, donor type, donor heavy atom, donor atom, acceptor molecule, acceptor atom, score
      P1  H  7989  7998       L1    14  0.42
      P1  H  7997  8010       L1     5  0.88

> <Gold.Chemscore.Hbond.Weighted>
-6.4710

> <Gold.Chemscore.Metal.Weighted>
-0.0000

> <Gold.Chemscore.Lipo.Weighted>
-9.0976

> <Gold.Chemscore.Internal_Hbond.Weighted>
0.0000

> <Gold.Chemscore.DEClash.Weighted>
0.3183

> <Gold.Chemscore.DEInternal.Weighted>
0.5275

> <Gold.Chemscore.Rot.Weighted>
5.2211

> <Gold.Chemscore.Internal.Correction.Weighted>
   9.000000E+99

> <Gold.Protein.RotatedTorsions>
[ 6907 6896 6895 6894 ] final -165.42 input  -60.11 | X-H torsion
[ 7974 7965 7964 7962 ] final  -68.49 input  175.53 | X-H torsion
[ 8008 7997 7996 7995 ] final   63.61 input   59.86 | X-H torsion
[ 10167 10162 10161 10158 ] final -123.28 input  -65.29 | X-H torsion
[ 10718 10713 10712 10709 ] final -158.14 input   66.30 | X-H torsion
[ 10763 10752 10751 10750 ] final   46.23 input  -60.55 | X-H torsion
[ 11005 11000 10999 10996 ] final   -2.07 input  -57.11 | X-H torsion

> <Gold.Protein.ActiveResidues>
 VAL166  LYS551  ARG553  GLY616  TRP617  ASP618  TYR619  PRO620  LYS621  CYS622 
 ASP623  PHE694  ASN695  SER759  ASP760  ASP761  ALA762  ILE779  LEU786  VAL792 
 PHE793  MET794  SER795  GLU796  ALA797  LYS798  CYS799  TRP800  GLU811  SER814 

> <Gold.Protein.RotatedAtoms>
  151.4273  133.3680  159.2763 H   0  0  0  0  0  0  0  0  0  0  0  0  # atno 6907 bound_to 6896
  150.9250  134.8668  159.7525 H   0  0  0  0  0  0  0  0  0  0  0  0  # atno 6908 bound_to 6896
  152.5000  134.4214  159.9534 H   0  0  0  0  0  0  0  0  0  0  0  0  # atno 6909 bound_to 6896
  145.7158  140.9059  143.0656 H   0  0  0  0  0  0  0  0  0  0  0  0  # atno 7974 bound_to 7965
  155.6330  140.3496  155.4689 H   0  0  0  0  0  0  0  0  0  0  0  0  # atno 8008 bound_to 7997
  155.9988  140.1209  157.0591 H   0  0  0  0  0  0  0  0  0  0  0  0  # atno 8009 bound_to 7997
  154.4242  140.1104  156.5654 H   0  0  0  0  0  0  0  0  0  0  0  0  # atno 8010 bound_to 7997
  140.0052  143.5498  152.2286 H   0  0  0  0  0  0  0  0  0  0  0  0  # atno 10167 bound_to 10162
  156.5500  130.8601  151.2777 H   0  0  0  0  0  0  0  0  0  0  0  0  # atno 10718 bound_to 10713
  152.9813  135.6014  154.3565 H   0  0  0  0  0  0  0  0  0  0  0  0  # atno 10763 bound_to 10752
  154.3251  135.2769  155.2502 H   0  0  0  0  0  0  0  0  0  0  0  0  # atno 10764 bound_to 10752
  154.4651  135.5956  153.6338 H   0  0  0  0  0  0  0  0  0  0  0  0  # atno 10765 bound_to 10752
  140.6543  133.9376  155.8398 H   0  0  0  0  0  0  0  0  0  0  0  0  # atno 11005 bound_to 11000
  144.6929  139.9136  143.7464 LP  0  0  0  0  0  0  0  0  0  0  0  0  # atno 17320 bound_to 7965
  146.0671  139.3661  143.0546 LP  0  0  0  0  0  0  0  0  0  0  0  0  # atno 17321 bound_to 7965
  139.6243  144.7634  151.2672 LP  0  0  0  0  0  0  0  0  0  0  0  0  # atno 17342 bound_to 10162
  140.7403  143.6592  150.8179 LP  0  0  0  0  0  0  0  0  0  0  0  0  # atno 17343 bound_to 10162
  157.7389  130.9822  150.2282 LP  0  0  0  0  0  0  0  0  0  0  0  0  # atno 17370 bound_to 10713
  156.2893  130.3743  149.7857 LP  0  0  0  0  0  0  0  0  0  0  0  0  # atno 17371 bound_to 10713
  141.0513  134.0481  157.3780 LP  0  0  0  0  0  0  0  0  0  0  0  0  # atno 17394 bound_to 11000
  139.9035  135.0172  156.7378 LP  0  0  0  0  0  0  0  0  0  0  0  0  # atno 17395 bound_to 11000

$$$$
