AV-unprocessed.smi:1422|AV-procd|sdf|5793|dock1
  -GOLD-   22720 5443D 1   1.00000     0.00000
 Structure written by MMmdl.
 31 32  0  0  0  0  0  0  0  0  1 V2000
  146.3234  130.1507  152.2023 C   0  0  0  0  0  0  0  0  0  0  0  0
  147.2411  131.1303  152.8495 C   0  0  0  0  0  0  0  0  0  0  0  0
  147.4832  132.4583  152.6371 C   0  0  0  0  0  0  0  0  0  0  0  0
  148.4757  132.7617  153.6068 C   0  0  0  0  0  0  0  0  0  0  0  0
  149.0072  134.0717  153.7186 N   0  0  0  0  0  0  0  0  0  0  0  0
  149.8502  134.5363  154.6563 C   0  0  0  0  0  0  0  0  0  0  0  0
  150.3059  133.8753  155.5901 O   0  0  0  0  0  0  0  0  0  0  0  0
  150.1395  135.8298  154.4522 N   0  0  0  0  0  0  0  0  0  0  0  0
  151.0219  136.6413  155.2852 C   0  0  0  0  0  0  0  0  0  0  0  0
  150.4976  138.0806  155.4463 C   0  0  1  0  0  0  0  0  0  0  0  0
  151.4296  139.0329  156.1710 C   0  0  0  0  0  0  0  0  0  0  0  0
  150.8897  140.3943  155.7422 C   0  0  0  0  0  0  0  0  0  0  0  0
  150.3343  140.2049  154.4438 O   0  0  0  0  0  0  0  0  0  0  0  0
  150.3101  138.8180  154.1212 C   0  0  0  0  0  0  0  0  0  0  0  0
  148.8095  131.7137  154.3442 N   0  0  0  0  0  0  0  0  0  0  0  0
  148.0203  130.6627  153.8623 O   0  0  0  0  0  0  0  0  0  0  0  0
  145.5500  130.6618  151.6287 H   0  0  0  0  0  0  0  0  0  0  0  0
  145.8318  129.5271  152.9493 H   0  0  0  0  0  0  0  0  0  0  0  0
  146.8728  129.4979  151.5238 H   0  0  0  0  0  0  0  0  0  0  0  0
  147.0229  133.1047  151.9048 H   0  0  0  0  0  0  0  0  0  0  0  0
  148.7145  134.7252  153.0075 H   0  0  0  0  0  0  0  0  0  0  0  0
  149.7177  136.2908  153.6592 H   0  0  0  0  0  0  0  0  0  0  0  0
  151.1752  136.1747  156.2598 H   0  0  0  0  0  0  0  0  0  0  0  0
  151.9997  136.6646  154.8037 H   0  0  0  0  0  0  0  0  0  0  0  0
  149.5402  138.0620  155.9700 H   0  0  0  0  0  0  0  0  0  0  0  0
  151.4279  138.8998  157.2533 H   0  0  0  0  0  0  0  0  0  0  0  0
  152.4531  138.9082  155.8140 H   0  0  0  0  0  0  0  0  0  0  0  0
  150.0935  140.7167  156.4141 H   0  0  0  0  0  0  0  0  0  0  0  0
  151.6616  141.1642  155.7378 H   0  0  0  0  0  0  0  0  0  0  0  0
  151.1387  138.6094  153.4427 H   0  0  0  0  0  0  0  0  0  0  0  0
  149.3837  138.5428  153.6166 H   0  0  0  0  0  0  0  0  0  0  0  0
  1  2  1  0  0  0  0
  1 17  1  0  0  0  0
  1 18  1  0  0  0  0
  1 19  1  0  0  0  0
  2 16  1  0  0  0  0
  2  3  2  0  0  0  0
  3  4  1  0  0  0  0
  3 20  1  0  0  0  0
  4  5  1  0  0  0  0
  4 15  2  0  0  0  0
  5  6  1  0  0  0  0
  5 21  1  0  0  0  0
  6  7  2  0  0  0  0
  6  8  1  0  0  0  0
  8  9  1  0  0  0  0
  8 22  1  0  0  0  0
  9 10  1  0  0  0  0
  9 23  1  0  0  0  0
  9 24  1  0  0  0  0
 10 14  1  0  0  0  0
 10 11  1  0  0  0  0
 10 25  1  0  0  0  0
 11 12  1  0  0  0  0
 11 26  1  0  0  0  0
 11 27  1  0  0  0  0
 12 13  1  0  0  0  0
 12 28  1  0  0  0  0
 12 29  1  0  0  0  0
 13 14  1  0  0  0  0
 14 30  1  0  0  0  0
 14 31  1  0  0  0  0
 15 16  1  0  0  0  0
M  END
> <s_m_source_file>
AV-unprocessed.smi

> <i_m_source_file_index>
1422

> <i_lp_mmshare_version>
43012

> <i_f3d_flags>
0

> <s_epik_input>
W0NIM11jMVtjSF1jKG5vMSlbTkhdQyg9TylbTkhdW0NIMl1bQ0BASF0yW0NIMl1bQ0gyXU9bQ0gyXTI=

> <s_epik_cmdline>
J2VwaWtfcHl0aG9uJywgJy1waCcsICc3LjAnLCAnLXRuJywgJzgnLCAnLW1hJywgJzIwMCcsICctbWV0YWxfYmluZGluZycsICctaW1hZScsICc8aW5maWxlLm1hZT4nLCAnLW9tYWUnLCAnPG91dGZpbGUubWFlPic=

> <r_lp_tautomer_probability>
1

> <r_epik_Ionization_Penalty>
2.27275e-05

> <r_epik_Ionization_Penalty_Charging>
0

> <r_epik_Ionization_Penalty_Neutral>
2.27275e-05

> <r_epik_State_Penalty>
-0

> <r_epik_Charging_Adjusted_Penalty>
0

> <i_epik_Tot_Q>
0

> <i_epik_Tot_abs_Q>
0

> <r_epik_Metal_State_Penalty>
-0

> <b_epik_Metal_Only>
0

> <s_lp_Force_Field>
OPLS_2005

> <r_lp_Energy>
16.3124

> <b_lp_Chiralities_Consistent>
1

> <s_lp_Variant>
AV-unprocessed.smi:1422-2

> <Gold.Version>
5.8.1

> <Gold.Id.Protein>
6NUR|6NUR_protein|mol2

> <Gold.PLP.Fitness>
34.9145

> <Gold.PLP.PLP>
-26.2649

> <Gold.PLP.part.hbond>
-3.5675

> <Gold.PLP.part.metal>
0.0000

> <Gold.PLP.part.buried>
-2.9896

> <Gold.PLP.part.nonpolar>
-19.9713

> <Gold.PLP.part.repulsive>
0.3065

> <Gold.PLP.ligand.clash>
0.0000

> <Gold.PLP.ligand.torsion>
0.1779

> <Gold.PLP.Chemscore.Hbond>
3.0000

> <Gold.PLP.Chemscore.CHOScore>
0.0000

> <Gold.PLP.Chemscore.Metal>
0.0000

> <Gold.Chemscore.Hbonds>
donor molecule, donor type, donor heavy atom, donor atom, acceptor molecule, acceptor atom, score
      L1  H     5    21       P1  7948  0.95
      L1  H     8    22       P1  7948  0.99
      P1  H  7989  7998       L1    13  0.95

> <Gold.PLP.Chemscore.Internal.Correction>
0.0054

> <Gold.Rescore>
     Score         DG    S(hbond)    S(metal)    S(lipo)     H(rot)  DE(clash)    DE(int)     intcor
     14.65     -16.09       2.55        0.00      46.30       1.30       0.00       1.44       ----

> <Gold.Chemscore.Fitness>
14.6519

> <Gold.Chemscore.DG>
-16.0900

> <Gold.Chemscore.ZeroCoef>
-5.4800

> <Gold.Chemscore.Hbond>
2.5484

> <Gold.Chemscore.Metal>
0.0000

> <Gold.Chemscore.Lipo>
46.3045

> <Gold.Chemscore.Internal_Hbond>
0.0000

> <Gold.Chemscore.DEClash>
0.0009

> <Gold.Chemscore.DEInternal>
1.4373

> <Gold.Chemscore.Rot>
1.2965

> <Gold.Chemscore.Internal.Correction>
   9.000000E+99

> <Gold.Chemscore.Hbonds>
donor molecule, donor type, donor heavy atom, donor atom, acceptor molecule, acceptor atom, score
      L1  H     5    21       P1  7948  0.21
      L1  H     8    22       P1  7948  0.33
      P1  H  7989  7998       L1    13  0.11

> <Gold.Chemscore.Hbond.Weighted>
-8.5116

> <Gold.Chemscore.Metal.Weighted>
-0.0000

> <Gold.Chemscore.Lipo.Weighted>
-5.4176

> <Gold.Chemscore.Internal_Hbond.Weighted>
0.0000

> <Gold.Chemscore.DEClash.Weighted>
0.0009

> <Gold.Chemscore.DEInternal.Weighted>
1.4373

> <Gold.Chemscore.Rot.Weighted>
3.3192

> <Gold.Chemscore.Internal.Correction.Weighted>
   9.000000E+99

> <Gold.Protein.RotatedTorsions>
[ 6907 6896 6895 6894 ] final   56.37 input  -60.11 | X-H torsion
[ 7974 7965 7964 7962 ] final  106.59 input  175.53 | X-H torsion
[ 8008 7997 7996 7995 ] final  -47.74 input   59.86 | X-H torsion
[ 10167 10162 10161 10158 ] final  174.40 input  -65.29 | X-H torsion
[ 10718 10713 10712 10709 ] final  -61.41 input   66.30 | X-H torsion
[ 10763 10752 10751 10750 ] final  -40.38 input  -60.55 | X-H torsion
[ 11005 11000 10999 10996 ] final  -74.15 input  -57.11 | X-H torsion

> <Gold.Protein.ActiveResidues>
 VAL166  LYS551  ARG553  GLY616  TRP617  ASP618  TYR619  PRO620  LYS621  CYS622 
 ASP623  PHE694  ASN695  SER759  ASP760  ASP761  ALA762  ILE779  LEU786  VAL792 
 PHE793  MET794  SER795  GLU796  ALA797  LYS798  CYS799  TRP800  GLU811  SER814 

> <Gold.Protein.RotatedAtoms>
  152.3629  134.6846  160.0201 H   0  0  0  0  0  0  0  0  0  0  0  0  # atno 6907 bound_to 6896
  151.7163  133.3308  159.3312 H   0  0  0  0  0  0  0  0  0  0  0  0  # atno 6908 bound_to 6896
  150.7618  134.6422  159.6287 H   0  0  0  0  0  0  0  0  0  0  0  0  # atno 6909 bound_to 6896
  145.3047  139.2558  143.3795 H   0  0  0  0  0  0  0  0  0  0  0  0  # atno 7974 bound_to 7965
  154.4020  140.1339  156.4225 H   0  0  0  0  0  0  0  0  0  0  0  0  # atno 8008 bound_to 7997
  155.7629  140.3485  155.5187 H   0  0  0  0  0  0  0  0  0  0  0  0  # atno 8009 bound_to 7997
  155.8841  140.0992  157.1455 H   0  0  0  0  0  0  0  0  0  0  0  0  # atno 8010 bound_to 7997
  139.5141  144.3150  152.0256 H   0  0  0  0  0  0  0  0  0  0  0  0  # atno 10167 bound_to 10162
  156.0923  130.4198  150.0990 H   0  0  0  0  0  0  0  0  0  0  0  0  # atno 10718 bound_to 10713
  153.9450  135.6757  153.4744 H   0  0  0  0  0  0  0  0  0  0  0  0  # atno 10763 bound_to 10752
  153.0913  135.4873  154.8691 H   0  0  0  0  0  0  0  0  0  0  0  0  # atno 10764 bound_to 10752
  154.7357  135.3148  154.8775 H   0  0  0  0  0  0  0  0  0  0  0  0  # atno 10765 bound_to 10752
  141.1632  133.6902  156.7321 H   0  0  0  0  0  0  0  0  0  0  0  0  # atno 11005 bound_to 11000
  146.3139  140.3569  142.8661 LP  0  0  0  0  0  0  0  0  0  0  0  0  # atno 17320 bound_to 7965
  144.9065  140.7705  143.5834 LP  0  0  0  0  0  0  0  0  0  0  0  0  # atno 17321 bound_to 7965
  140.2594  144.4084  150.6191 LP  0  0  0  0  0  0  0  0  0  0  0  0  # atno 17342 bound_to 10162
  140.6168  143.2173  151.6775 LP  0  0  0  0  0  0  0  0  0  0  0  0  # atno 17343 bound_to 10162
  156.8997  130.9616  151.3578 LP  0  0  0  0  0  0  0  0  0  0  0  0  # atno 17370 bound_to 10713
  157.6076  130.8559  149.8900 LP  0  0  0  0  0  0  0  0  0  0  0  0  # atno 17371 bound_to 10713
  140.2737  134.8372  157.3871 LP  0  0  0  0  0  0  0  0  0  0  0  0  # atno 17394 bound_to 11000
  140.1497  134.4865  155.7970 LP  0  0  0  0  0  0  0  0  0  0  0  0  # atno 17395 bound_to 11000

$$$$
