AV-unprocessed.smi:86|AV-procd|sdf|819|dock4
  -GOLD-   2262017223D 1   1.00000     0.00000
 Structure written by MMmdl.
 51 55  0  0  0  0  0  0  0  0  1 V2000
  153.8552  135.6486  165.7614 O   0  0  0  0  0  0  0  0  0  0  0  0
  154.1092  136.0365  164.4260 C   0  0  0  0  0  0  0  0  0  0  0  0
  154.9784  135.0040  163.6916 C   0  0  0  0  0  0  0  0  0  0  0  0
  154.7987  135.2326  162.1716 C   0  0  0  0  0  0  0  0  0  0  0  0
  154.4537  136.5927  161.7847 N   0  0  0  0  0  0  0  0  0  0  0  0
  153.4047  136.9832  160.9847 C   0  0  0  0  0  0  0  0  0  0  0  0
  153.3006  138.2695  160.7940 N   0  0  0  0  0  0  0  0  0  0  0  0
  154.3450  138.8163  161.5326 C   0  0  0  0  0  0  0  0  0  0  0  0
  154.8153  140.1413  161.7783 C   0  0  0  0  0  0  0  0  0  0  0  0
  154.2628  141.2670  161.2582 N   0  0  0  0  0  0  0  0  0  0  0  0
  153.8785  141.4177  159.8588 C   0  0  0  0  0  0  0  0  0  0  0  0
  153.3481  142.8488  159.7879 C   0  0  1  0  0  0  0  0  0  0  0  0
  152.3785  143.2250  158.6615 C   0  0  0  0  0  0  0  0  0  0  0  0
  151.9171  144.6851  158.8629 C   0  0  0  0  0  0  0  0  0  0  0  0
  151.3394  144.9318  160.2788 C   0  0  2  0  0  0  0  0  0  0  0  0
  151.0577  146.3059  160.4407 O   0  0  0  0  0  0  0  0  0  0  0  0
  152.2980  144.4675  161.3994 C   0  0  0  0  0  0  0  0  0  0  0  0
  152.6805  143.0041  161.1479 C   0  0  2  0  0  0  0  0  0  0  0  0
  153.6865  142.3297  162.0814 C   0  0  0  0  0  0  0  0  0  0  0  0
  155.8998  140.2752  162.5865 N   0  0  0  0  0  0  0  0  0  0  0  0
  156.4851  139.2014  163.1232 C   0  0  0  0  0  0  0  0  0  0  0  0
  156.1571  137.9167  162.9839 N   0  0  0  0  0  0  0  0  0  0  0  0
  155.0729  137.7696  162.1700 C   0  0  0  0  0  0  0  0  0  0  0  0
  156.4119  134.8912  164.2413 C   0  0  0  0  0  0  0  0  0  0  0  0
  156.0894  133.7029  164.9931 O   0  0  0  0  0  0  0  0  0  0  0  0
  154.8723  133.5670  164.2302 C   0  0  0  0  0  0  0  0  0  0  0  0
  153.3689  136.3385  166.1869 H   0  0  0  0  0  0  0  0  0  0  0  0
  153.1574  136.1835  163.9148 H   0  0  0  0  0  0  0  0  0  0  0  0
  154.6005  137.0101  164.4487 H   0  0  0  0  0  0  0  0  0  0  0  0
  155.7114  134.9676  161.6365 H   0  0  0  0  0  0  0  0  0  0  0  0
  154.0254  134.5723  161.7775 H   0  0  0  0  0  0  0  0  0  0  0  0
  152.7159  136.2791  160.5405 H   0  0  0  0  0  0  0  0  0  0  0  0
  154.7237  141.2736  159.1854 H   0  0  0  0  0  0  0  0  0  0  0  0
  153.1003  140.6947  159.6110 H   0  0  0  0  0  0  0  0  0  0  0  0
  154.2093  143.5188  159.7404 H   0  0  0  0  0  0  0  0  0  0  0  0
  152.8611  143.1115  157.6904 H   0  0  0  0  0  0  0  0  0  0  0  0
  151.5166  142.5566  158.6670 H   0  0  0  0  0  0  0  0  0  0  0  0
  152.7668  145.3489  158.6975 H   0  0  0  0  0  0  0  0  0  0  0  0
  151.1755  144.9440  158.1060 H   0  0  0  0  0  0  0  0  0  0  0  0
  150.3979  144.3891  160.3727 H   0  0  0  0  0  0  0  0  0  0  0  0
  151.7786  146.8037  160.0867 H   0  0  0  0  0  0  0  0  0  0  0  0
  153.1943  145.0894  161.4139 H   0  0  0  0  0  0  0  0  0  0  0  0
  151.8225  144.5719  162.3753 H   0  0  0  0  0  0  0  0  0  0  0  0
  151.7684  142.4036  161.1597 H   0  0  0  0  0  0  0  0  0  0  0  0
  153.1971  141.9495  162.9790 H   0  0  0  0  0  0  0  0  0  0  0  0
  154.4761  143.0198  162.3806 H   0  0  0  0  0  0  0  0  0  0  0  0
  157.3389  139.4009  163.7536 H   0  0  0  0  0  0  0  0  0  0  0  0
  157.1865  134.6911  163.5024 H   0  0  0  0  0  0  0  0  0  0  0  0
  156.7058  135.7237  164.8814 H   0  0  0  0  0  0  0  0  0  0  0  0
  154.0012  133.3936  164.8628 H   0  0  0  0  0  0  0  0  0  0  0  0
  154.9581  132.7841  163.4778 H   0  0  0  0  0  0  0  0  0  0  0  0
  1  2  1  0  0  0  0
  1 27  1  0  0  0  0
  2  3  1  0  0  0  0
  2 28  1  0  0  0  0
  2 29  1  0  0  0  0
  3 26  1  0  0  0  0
  3  4  1  0  0  0  0
  3 24  1  0  0  0  0
  4  5  1  0  0  0  0
  4 30  1  0  0  0  0
  4 31  1  0  0  0  0
  5 23  1  0  0  0  0
  5  6  1  0  0  0  0
  6  7  2  0  0  0  0
  6 32  1  0  0  0  0
  7  8  1  0  0  0  0
  8 23  2  0  0  0  0
  8  9  1  0  0  0  0
  9 10  1  0  0  0  0
  9 20  2  0  0  0  0
 10 19  1  0  0  0  0
 10 11  1  0  0  0  0
 11 12  1  0  0  0  0
 11 33  1  0  0  0  0
 11 34  1  0  0  0  0
 12 18  1  0  0  0  0
 12 13  1  0  0  0  0
 12 35  1  0  0  0  0
 13 14  1  0  0  0  0
 13 36  1  0  0  0  0
 13 37  1  0  0  0  0
 14 15  1  0  0  0  0
 14 38  1  0  0  0  0
 14 39  1  0  0  0  0
 15 16  1  0  0  0  0
 15 17  1  0  0  0  0
 15 40  1  0  0  0  0
 16 41  1  0  0  0  0
 17 18  1  0  0  0  0
 17 42  1  0  0  0  0
 17 43  1  0  0  0  0
 18 19  1  0  0  0  0
 18 44  1  0  0  0  0
 19 45  1  0  0  0  0
 19 46  1  0  0  0  0
 20 21  1  0  0  0  0
 21 22  2  0  0  0  0
 21 47  1  0  0  0  0
 22 23  1  0  0  0  0
 24 25  1  0  0  0  0
 24 48  1  0  0  0  0
 24 49  1  0  0  0  0
 25 26  1  0  0  0  0
 26 50  1  0  0  0  0
 26 51  1  0  0  0  0
M  END
> <s_m_source_file>
AV-unprocessed.smi

> <i_m_source_file_index>
86

> <i_lp_mmshare_version>
43012

> <i_f3d_flags>
0

> <s_epik_input>
W0NIMl0xT1tDSDJdQzEoW0NIMl1bT0hdKVtDSDJdbihbY0hdbjIpYyhjMjMpbltjSF1uYzNOKFtDSDJdNClbQ0gyXVtDQEBIXShbQ0BIXTQ1KVtDSDJdW0NASF0oW09IXSlbQ0gyXVtDSDJdNQ==

> <s_epik_cmdline>
J2VwaWtfcHl0aG9uJywgJy1waCcsICc3LjAnLCAnLXRuJywgJzgnLCAnLW1hJywgJzIwMCcsICctbWV0YWxfYmluZGluZycsICctaW1hZScsICc8aW5maWxlLm1hZT4nLCAnLW9tYWUnLCAnPG91dGZpbGUubWFlPic=

> <r_lp_tautomer_probability>
1

> <r_epik_Ionization_Penalty>
0.00425795

> <r_epik_Ionization_Penalty_Charging>
0

> <r_epik_Ionization_Penalty_Neutral>
0.00425795

> <r_epik_State_Penalty>
0.00299946

> <r_epik_Charging_Adjusted_Penalty>
0.00299946

> <i_epik_Tot_Q>
0

> <i_epik_Tot_abs_Q>
0

> <r_epik_Metal_State_Penalty>
-0

> <b_epik_Metal_Only>
0

> <s_lp_Force_Field>
OPLS_2005

> <r_lp_Energy>
53.3624

> <b_lp_Chiralities_Consistent>
1

> <s_lp_Variant>
AV-unprocessed.smi:86-8

> <Gold.Version>
5.8.1

> <Gold.Id.Protein>
6NUR|6NUR_protein|mol2

> <Gold.PLP.Fitness>
52.6687

> <Gold.PLP.PLP>
-56.2621

> <Gold.PLP.part.hbond>
-4.8972

> <Gold.PLP.part.metal>
0.0000

> <Gold.PLP.part.buried>
-4.1593

> <Gold.PLP.part.nonpolar>
-46.7967

> <Gold.PLP.part.repulsive>
0.0571

> <Gold.PLP.ligand.clash>
0.0000

> <Gold.PLP.ligand.torsion>
1.9841

> <Gold.PLP.Chemscore.Hbond>
0.0000

> <Gold.PLP.Chemscore.CHOScore>
0.0000

> <Gold.PLP.Chemscore.Metal>
0.0000

> <Gold.PLP.Chemscore.Internal.Correction>
0.3747

> <Gold.Rescore>
     Score         DG    S(hbond)    S(metal)    S(lipo)     H(rot)  DE(clash)    DE(int)     intcor
      8.78     -11.06       0.00        0.00     108.17       2.76       0.09       2.20       ----

> <Gold.Chemscore.Fitness>
8.7790

> <Gold.Chemscore.DG>
-11.0625

> <Gold.Chemscore.ZeroCoef>
-5.4800

> <Gold.Chemscore.Hbond>
0.0000

> <Gold.Chemscore.Metal>
0.0000

> <Gold.Chemscore.Lipo>
108.1697

> <Gold.Chemscore.Internal_Hbond>
0.0000

> <Gold.Chemscore.DEClash>
0.0853

> <Gold.Chemscore.DEInternal>
2.1982

> <Gold.Chemscore.Rot>
2.7630

> <Gold.Chemscore.Internal.Correction>
   9.000000E+99

> <Gold.Chemscore.Hbond.Weighted>
-0.0000

> <Gold.Chemscore.Metal.Weighted>
-0.0000

> <Gold.Chemscore.Lipo.Weighted>
-12.6559

> <Gold.Chemscore.Internal_Hbond.Weighted>
0.0000

> <Gold.Chemscore.DEClash.Weighted>
0.0853

> <Gold.Chemscore.DEInternal.Weighted>
2.1982

> <Gold.Chemscore.Rot.Weighted>
7.0734

> <Gold.Chemscore.Internal.Correction.Weighted>
   9.000000E+99

> <Gold.Protein.RotatedTorsions>
[ 6907 6896 6895 6894 ] final   96.65 input  -60.11 | X-H torsion
[ 7974 7965 7964 7962 ] final  -95.31 input  175.53 | X-H torsion
[ 8008 7997 7996 7995 ] final   11.68 input   59.86 | X-H torsion
[ 10167 10162 10161 10158 ] final -142.06 input  -65.29 | X-H torsion
[ 10718 10713 10712 10709 ] final   69.07 input   66.30 | X-H torsion
[ 10763 10752 10751 10750 ] final  110.76 input  -60.55 | X-H torsion
[ 11005 11000 10999 10996 ] final   23.91 input  -57.11 | X-H torsion

> <Gold.Protein.ActiveResidues>
 VAL166  LYS551  ARG553  GLY616  TRP617  ASP618  TYR619  PRO620  LYS621  CYS622 
 ASP623  PHE694  ASN695  SER759  ASP760  ASP761  ALA762  ILE779  LEU786  VAL792 
 PHE793  MET794  SER795  GLU796  ALA797  LYS798  CYS799  TRP800  GLU811  SER814 

> <Gold.Protein.RotatedAtoms>
  152.5432  134.0854  159.8253 H   0  0  0  0  0  0  0  0  0  0  0  0  # atno 6907 bound_to 6896
  151.0950  133.5279  159.2620 H   0  0  0  0  0  0  0  0  0  0  0  0  # atno 6908 bound_to 6896
  151.2056  135.0469  159.8944 H   0  0  0  0  0  0  0  0  0  0  0  0  # atno 6909 bound_to 6896
  145.3617  140.9492  143.2497 H   0  0  0  0  0  0  0  0  0  0  0  0  # atno 7974 bound_to 7965
  154.8102  140.2867  155.5859 H   0  0  0  0  0  0  0  0  0  0  0  0  # atno 8008 bound_to 7997
  156.2987  140.2570  156.2918 H   0  0  0  0  0  0  0  0  0  0  0  0  # atno 8009 bound_to 7997
  154.9457  140.0380  157.2108 H   0  0  0  0  0  0  0  0  0  0  0  0  # atno 8010 bound_to 7997
  139.8125  143.7684  152.2664 H   0  0  0  0  0  0  0  0  0  0  0  0  # atno 10167 bound_to 10162
  157.6325  130.9406  150.0463 H   0  0  0  0  0  0  0  0  0  0  0  0  # atno 10718 bound_to 10713
  153.4537  135.3738  155.2298 H   0  0  0  0  0  0  0  0  0  0  0  0  # atno 10763 bound_to 10752
  154.8756  135.3892  154.4008 H   0  0  0  0  0  0  0  0  0  0  0  0  # atno 10764 bound_to 10752
  153.4571  135.7086  153.6137 H   0  0  0  0  0  0  0  0  0  0  0  0  # atno 10765 bound_to 10752
  140.3644  134.2090  155.7670 H   0  0  0  0  0  0  0  0  0  0  0  0  # atno 11005 bound_to 11000
  144.8641  139.5133  143.6798 LP  0  0  0  0  0  0  0  0  0  0  0  0  # atno 17320 bound_to 7965
  146.2924  139.7179  142.9151 LP  0  0  0  0  0  0  0  0  0  0  0  0  # atno 17321 bound_to 7965
  139.7837  144.7435  151.0052 LP  0  0  0  0  0  0  0  0  0  0  0  0  # atno 17342 bound_to 10162
  140.7817  143.4515  151.0406 LP  0  0  0  0  0  0  0  0  0  0  0  0  # atno 17343 bound_to 10162
  156.1539  130.3643  149.9398 LP  0  0  0  0  0  0  0  0  0  0  0  0  # atno 17370 bound_to 10713
  156.7411  130.9080  151.3632 LP  0  0  0  0  0  0  0  0  0  0  0  0  # atno 17371 bound_to 10713
  141.1974  133.8060  157.0629 LP  0  0  0  0  0  0  0  0  0  0  0  0  # atno 17394 bound_to 11000
  140.0601  134.9759  157.1289 LP  0  0  0  0  0  0  0  0  0  0  0  0  # atno 17395 bound_to 11000

$$$$
