#       Name:                AV-unprocessed.smi:2718
#       Creating user name   scv26
#       Creation time:       Fri Mar 27 14:53:28 2020


#       File generated by GOLD software.
#

@<TRIPOS>MOLECULE
AV-unprocessed.smi:2718
    51    52     1
SMALL
NO_CHARGES


@<TRIPOS>ATOM
      1 ****        -0.6727  -1.5315  -3.4284 C.3            1 S1                 0.0000
      2 ****        -1.3493  -1.0767  -2.1503 C.2            1 S1                 0.0000
      3 ****        -2.0228   0.2821  -2.2381 C.3            1 S1                 0.0000
      4 ****        -1.3474  -1.8392  -1.0400 C.2            1 S1                 0.0000
      5 ****        -1.9982  -1.5083   0.2610 C.3            1 S1                 0.0000
      6 ****        -1.2813  -0.8266   1.4184 C.3            1 S1                 0.0000
      7 ****         0.1808  -0.4869   1.3312 C.2            1 S1                 0.0000
      8 ****         1.0151  -1.1480   0.7130 O.2            1 S1                 0.0000
      9 ****         0.5020   0.6292   2.0029 N.am           1 S1                 0.0000
     10 ****         1.8441   1.1883   2.1498 C.3            1 S1                 0.0000
     11 ****         2.4407   1.7503   0.8383 C.3            1 S1                 0.0000
     12 ****         3.7664   2.4837   1.0867 C.3            1 S1                 0.0000
     13 ****         1.4726   2.6062   0.0663 C.2            1 S1                 0.0000
     14 ****         0.8742   3.6924   0.5736 N.2            1 S1                 0.0000
     15 ****         0.0832   4.1919  -0.4411 N.2            1 S1                 0.0000
     16 ****         0.2941   3.3678  -1.4661 C.2            1 S1                 0.0000
     17 ****         1.1513   2.3657  -1.2223 N.pl3          1 S1                 0.0000
     18 ****         1.5983   1.3224  -2.1231 C.3            1 S1                 0.0000
     19 ****        -1.7448  -2.2761   1.5504 C.3            1 S1                 0.0000
     20 ****        -2.9146  -2.5522   2.4801 C.3            1 S1                 0.0000
     21 ****        -0.7867  -3.4652   1.6056 C.3            1 S1                 0.0000
     22 ****        -1.4029  -1.6094  -4.2341 H              1 S1                 0.0000
     23 ****        -0.1969  -2.5053  -3.3070 H              1 S1                 0.0000
     24 ****         0.0930  -0.8165  -3.7286 H              1 S1                 0.0000
     25 ****        -1.3173   1.0288  -2.6009 H              1 S1                 0.0000
     26 ****        -2.4000   0.6272  -1.2759 H              1 S1                 0.0000
     27 ****        -2.8592   0.2414  -2.9361 H              1 S1                 0.0000
     28 ****        -0.8376  -2.7894  -1.0840 H              1 S1                 0.0000
     29 ****        -3.0245  -1.1849   0.0970 H              1 S1                 0.0000
     30 ****        -1.8778  -0.0916   1.9576 H              1 S1                 0.0000
     31 ****        -0.2433   1.1225   2.4728 H              1 S1                 0.0000
     32 ****         1.7673   1.9910   2.8835 H              1 S1                 0.0000
     33 ****         2.5104   0.4408   2.5832 H              1 S1                 0.0000
     34 ****         2.6879   0.8873   0.2215 H              1 S1                 0.0000
     35 ****         4.2224   2.7958   0.1466 H              1 S1                 0.0000
     36 ****         4.4800   1.8408   1.6026 H              1 S1                 0.0000
     37 ****         3.6191   3.3749   1.6973 H              1 S1                 0.0000
     38 ****        -0.1877   3.5027  -2.4234 H              1 S1                 0.0000
     39 ****         1.1560   1.4625  -3.1097 H              1 S1                 0.0000
     40 ****         1.2994   0.3486  -1.7352 H              1 S1                 0.0000
     41 ****         2.6840   1.3555  -2.2152 H              1 S1                 0.0000
     42 ****        -2.5631  -2.6868   3.5035 H              1 S1                 0.0000
     43 ****        -3.4434  -3.4543   2.1708 H              1 S1                 0.0000
     44 ****        -3.6236  -1.7237   2.4692 H              1 S1                 0.0000
     45 ****        -0.3309  -3.5330   2.5939 H              1 S1                 0.0000
     46 ****         0.0118  -3.4009   0.8703 H              1 S1                 0.0000
     47 ****        -1.3266  -4.3929   1.4137 H              1 S1                 0.0000
     48 ****         0.7356  -1.9741   0.2236 LP             1 S1                 0.0000
     49 ****         1.9723  -0.8590   0.7002 LP             1 S1                 0.0000
     50 ****         0.9789   4.0640   1.4960 LP             1 S1                 0.0000
     51 ****        -0.5145   4.9931  -0.4131 LP             1 S1                 0.0000
@<TRIPOS>BOND
    1    1    2 1     
    2    1   22 1     
    3    1   23 1     
    4    1   24 1     
    5    2    3 1     
    6    2    4 2     
    7    3   25 1     
    8    3   26 1     
    9    3   27 1     
   10    4    5 1     
   11    4   28 1     
   12    5   19 1     
   13    5    6 1     
   14    5   29 1     
   15    6    7 1     
   16    6   19 1     
   17    6   30 1     
   18    7    8 2     
   19    7    9 am    
   20    9   10 1     
   21    9   31 1     
   22   10   11 1     
   23   10   32 1     
   24   10   33 1     
   25   11   12 1     
   26   11   13 1     
   27   11   34 1     
   28   12   35 1     
   29   12   36 1     
   30   12   37 1     
   31   13   17 1     
   32   13   14 2     
   33   14   15 1     
   34   15   16 2     
   35   16   17 1     
   36   16   38 1     
   37   17   18 1     
   38   18   39 1     
   39   18   40 1     
   40   18   41 1     
   41   19   20 1     
   42   19   21 1     
   43   20   42 1     
   44   20   43 1     
   45   20   44 1     
   46   21   45 1     
   47   21   46 1     
   48   21   47 1     
   49    8   48 1     
   50    8   49 1     
   51   14   50 1     
   52   15   51 1     
@<TRIPOS>SUBSTRUCTURE
      1 S1             1
@<TRIPOS>SET
LONE_PAIRS      STATIC     ATOMS    <user>   **** ""
4 48 49 50 51
DONOR_HYDROGENS      STATIC     ATOMS    <user>   **** ""
1 31
ATOM$BLUE        STATIC     ATOMS    COLORGROUP SYSTEM
4 48 49 50 51
ATOM$RED        STATIC     ATOMS    COLORGROUP SYSTEM
1 31
