AV-unprocessed.smi:1687|AV-procd|sdf|6768|dock3
  -GOLD-   22720 7523D 1   1.00000     0.00000
 Structure written by MMmdl.
 45 46  0  0  0  0  0  0  0  0  2 V2000
  150.5006  140.4473  158.3083 C   0  0  0  0  0  0  0  0  0  0  0  0
  150.2819  141.8637  157.7485 C   0  0  2  0  0  0  0  0  0  0  0  0
  148.8121  142.3155  157.8357 C   0  0  0  0  0  0  0  0  0  0  0  0
  147.9243  141.6174  156.7896 C   0  0  0  0  0  0  0  0  0  0  0  0
  148.4580  141.8249  155.4177 N   0  3  2  0  0  0  0  0  0  0  0  0
  147.5183  141.3918  154.3418 C   0  0  2  0  0  0  0  0  0  0  0  0
  146.2614  142.2854  154.2509 C   0  0  0  0  0  0  0  0  0  0  0  0
  147.1975  139.8858  154.4821 C   0  0  0  0  0  0  0  0  0  0  0  0
  145.8034  139.5771  154.1740 N   0  0  0  0  0  0  0  0  0  0  0  0
  145.2326  138.3680  154.2835 C   0  0  0  0  0  0  0  0  0  0  0  0
  145.8341  137.3684  154.6780 O   0  0  0  0  0  0  0  0  0  0  0  0
  143.9391  138.4055  153.9181 N   0  0  0  0  0  0  0  0  0  0  0  0
  143.0016  137.3388  153.8978 C   0  0  0  0  0  0  0  0  0  0  0  0
  141.6502  137.7324  153.7714 C   0  0  0  0  0  0  0  0  0  0  0  0
  140.6425  136.7491  153.7386 C   0  0  0  0  0  0  0  0  0  0  0  0
  141.0128  135.3958  153.8336 C   0  0  0  0  0  0  0  0  0  0  0  0
  142.3804  135.0896  153.9583 C   0  0  0  0  0  0  0  0  0  0  0  0
  143.3478  136.0304  153.9901 N   0  0  0  0  0  0  0  0  0  0  0  0
  149.8534  141.3221  155.2871 C   0  0  0  0  0  0  0  0  0  0  0  0
  150.7825  142.0158  156.2996 C   0  0  0  0  0  0  0  0  0  0  0  0
  149.9446  139.6935  157.7515 H   0  0  0  0  0  0  0  0  0  0  0  0
  150.1838  140.3865  159.3497 H   0  0  0  0  0  0  0  0  0  0  0  0
  151.5551  140.1717  158.2723 H   0  0  0  0  0  0  0  0  0  0  0  0
  150.8714  142.5365  158.3730 H   0  0  0  0  0  0  0  0  0  0  0  0
  148.4209  142.1392  158.8384 H   0  0  0  0  0  0  0  0  0  0  0  0
  148.7615  143.3938  157.6781 H   0  0  0  0  0  0  0  0  0  0  0  0
  147.8486  140.5513  157.0047 H   0  0  0  0  0  0  0  0  0  0  0  0
  146.9147  142.0233  156.8607 H   0  0  0  0  0  0  0  0  0  0  0  0
  148.0498  141.4952  153.3945 H   0  0  0  0  0  0  0  0  0  0  0  0
  145.6879  142.0689  153.3496 H   0  0  0  0  0  0  0  0  0  0  0  0
  146.5199  143.3431  154.2102 H   0  0  0  0  0  0  0  0  0  0  0  0
  145.5952  142.1343  155.1009 H   0  0  0  0  0  0  0  0  0  0  0  0
  147.8172  139.3159  153.7890 H   0  0  0  0  0  0  0  0  0  0  0  0
  147.4509  139.5206  155.4779 H   0  0  0  0  0  0  0  0  0  0  0  0
  145.2324  140.3409  153.8424 H   0  0  0  0  0  0  0  0  0  0  0  0
  143.5820  139.3010  153.6196 H   0  0  0  0  0  0  0  0  0  0  0  0
  141.3830  138.7768  153.6987 H   0  0  0  0  0  0  0  0  0  0  0  0
  139.6040  137.0293  153.6414 H   0  0  0  0  0  0  0  0  0  0  0  0
  140.2687  134.6133  153.8113 H   0  0  0  0  0  0  0  0  0  0  0  0
  142.7067  134.0630  154.0340 H   0  0  0  0  0  0  0  0  0  0  0  0
  149.8815  140.2428  155.4397 H   0  0  0  0  0  0  0  0  0  0  0  0
  150.2303  141.5053  154.2815 H   0  0  0  0  0  0  0  0  0  0  0  0
  150.8455  143.0766  156.0522 H   0  0  0  0  0  0  0  0  0  0  0  0
  151.7963  141.6244  156.2072 H   0  0  0  0  0  0  0  0  0  0  0  0
  148.5197  142.8277  155.3151 H   0  0  0  0  0  0  0  0  0  0  0  0
  1  2  1  0  0  0  0
  1 21  1  0  0  0  0
  1 22  1  0  0  0  0
  1 23  1  0  0  0  0
  2 20  1  0  0  0  0
  2  3  1  0  0  0  0
  2 24  1  0  0  0  0
  3  4  1  0  0  0  0
  3 25  1  0  0  0  0
  3 26  1  0  0  0  0
  4  5  1  0  0  0  0
  4 27  1  0  0  0  0
  4 28  1  0  0  0  0
  5  6  1  0  0  0  0
  5 19  1  0  0  0  0
  5 45  1  0  0  0  0
  6  7  1  0  0  0  0
  6  8  1  0  0  0  0
  6 29  1  0  0  0  0
  7 30  1  0  0  0  0
  7 31  1  0  0  0  0
  7 32  1  0  0  0  0
  8  9  1  0  0  0  0
  8 33  1  0  0  0  0
  8 34  1  0  0  0  0
  9 10  1  0  0  0  0
  9 35  1  0  0  0  0
 10 11  2  0  0  0  0
 10 12  1  0  0  0  0
 12 13  1  0  0  0  0
 12 36  1  0  0  0  0
 13 18  1  0  0  0  0
 13 14  2  0  0  0  0
 14 15  1  0  0  0  0
 14 37  1  0  0  0  0
 15 16  2  0  0  0  0
 15 38  1  0  0  0  0
 16 17  1  0  0  0  0
 16 39  1  0  0  0  0
 17 18  2  0  0  0  0
 17 40  1  0  0  0  0
 19 20  1  0  0  0  0
 19 41  1  0  0  0  0
 19 42  1  0  0  0  0
 20 43  1  0  0  0  0
 20 44  1  0  0  0  0
M  CHG  1   5   1
M  END
> <s_m_source_file>
AV-unprocessed.smi

> <i_m_source_file_index>
1687

> <i_lp_mmshare_version>
43012

> <i_f3d_flags>
0

> <s_epik_input>
W0NIM11bQ0hdMVtDSDJdW0NIMl1OKFtDSDJdW0NIMl0xKVtDQEhdKFtDSDNdKVtDSDJdW05IXUMoPU8pW05IXWMyW2NIXVtjSF1bY0hdW2NIXW4y

> <s_epik_cmdline>
J2VwaWtfcHl0aG9uJywgJy1waCcsICc3LjAnLCAnLXRuJywgJzgnLCAnLW1hJywgJzIwMCcsICctbWV0YWxfYmluZGluZycsICctaW1hZScsICc8aW5maWxlLm1hZT4nLCAnLW9tYWUnLCAnPG91dGZpbGUubWFlPic=

> <r_epik_Ionization_Penalty>
0.00142891

> <r_epik_Ionization_Penalty_Charging>
0.00139388

> <r_epik_Ionization_Penalty_Neutral>
3.50347e-05

> <r_epik_State_Penalty>
0.000929204

> <r_epik_Charging_Adjusted_Penalty>
0.00232308

> <i_epik_Tot_Q>
1

> <i_epik_Tot_abs_Q>
1

> <r_epik_Metal_State_Penalty>
-0

> <b_epik_Metal_Only>
0

> <s_lp_Force_Field>
OPLS_2005

> <r_lp_Energy>
23.5172

> <b_lp_Chiralities_Consistent>
1

> <s_lp_Variant>
AV-unprocessed.smi:1687-3

> <Gold.Version>
5.8.1

> <Gold.Id.Protein>
6NUR|6NUR_protein|mol2

> <Gold.PLP.Fitness>
45.0746

> <Gold.PLP.PLP>
-32.5725

> <Gold.PLP.part.hbond>
-2.7172

> <Gold.PLP.part.metal>
0.0000

> <Gold.PLP.part.buried>
-5.3185

> <Gold.PLP.part.nonpolar>
-25.6052

> <Gold.PLP.part.repulsive>
0.2452

> <Gold.PLP.ligand.clash>
0.0790

> <Gold.PLP.ligand.torsion>
0.7811

> <Gold.PLP.Chemscore.Hbond>
3.6728

> <Gold.PLP.Chemscore.CHOScore>
1.0000

> <Gold.PLP.Chemscore.Metal>
0.0000

> <Gold.Chemscore.Hbonds>
donor molecule, donor type, donor heavy atom, donor atom, acceptor molecule, acceptor atom, score
      L1  H     5    45       P1  8028  2.00
      L1  H     9    35       P1 10175  0.63
      L1  H    12    36       P1 10175  0.93
      L1  C    17    40       P1 10957  1.00

> <Gold.PLP.Chemscore.Internal.Correction>
0.1247

> <Gold.Rescore>
     Score         DG    S(hbond)    S(metal)    S(lipo)     H(rot)  DE(clash)    DE(int)     intcor
     16.84     -18.99       2.78        0.00      68.95       1.50       0.11       2.04       ----

> <Gold.Chemscore.Fitness>
16.8408

> <Gold.Chemscore.DG>
-18.9912

> <Gold.Chemscore.ZeroCoef>
-5.4800

> <Gold.Chemscore.Hbond>
2.7764

> <Gold.Chemscore.Metal>
0.0000

> <Gold.Chemscore.Lipo>
68.9485

> <Gold.Chemscore.Internal_Hbond>
0.0000

> <Gold.Chemscore.DEClash>
0.1110

> <Gold.Chemscore.DEInternal>
2.0394

> <Gold.Chemscore.Rot>
1.4956

> <Gold.Chemscore.Internal.Correction>
   9.000000E+99

> <Gold.Chemscore.Hbonds>
donor molecule, donor type, donor heavy atom, donor atom, acceptor molecule, acceptor atom, score
      L1  H     5    45       P1  8028  0.99
      L1  H     9    35       P1 10175  0.59
      L1  H    12    36       P1 10175  0.89

> <Gold.Chemscore.Hbond.Weighted>
-9.2731

> <Gold.Chemscore.Metal.Weighted>
-0.0000

> <Gold.Chemscore.Lipo.Weighted>
-8.0670

> <Gold.Chemscore.Internal_Hbond.Weighted>
0.0000

> <Gold.Chemscore.DEClash.Weighted>
0.1110

> <Gold.Chemscore.DEInternal.Weighted>
2.0394

> <Gold.Chemscore.Rot.Weighted>
3.8289

> <Gold.Chemscore.Internal.Correction.Weighted>
   9.000000E+99

> <Gold.Protein.RotatedTorsions>
[ 6907 6896 6895 6894 ] final  118.64 input  -60.11 | X-H torsion
[ 7974 7965 7964 7962 ] final -110.51 input  175.53 | X-H torsion
[ 8008 7997 7996 7995 ] final  -84.13 input   59.86 | X-H torsion
[ 10167 10162 10161 10158 ] final   36.05 input  -65.29 | X-H torsion
[ 10718 10713 10712 10709 ] final  118.26 input   66.30 | X-H torsion
[ 10763 10752 10751 10750 ] final  -86.27 input  -60.55 | X-H torsion
[ 11005 11000 10999 10996 ] final -154.06 input  -57.11 | X-H torsion

> <Gold.Protein.ActiveResidues>
 VAL166  LYS551  ARG553  GLY616  TRP617  ASP618  TYR619  PRO620  LYS621  CYS622 
 ASP623  PHE694  ASN695  SER759  ASP760  ASP761  ALA762  ILE779  LEU786  VAL792 
 PHE793  MET794  SER795  GLU796  ALA797  LYS798  CYS799  TRP800  GLU811  SER814 

> <Gold.Protein.RotatedAtoms>
  152.4529  133.7664  159.6774 H   0  0  0  0  0  0  0  0  0  0  0  0  # atno 6907 bound_to 6896
  150.8446  133.7872  159.3054 H   0  0  0  0  0  0  0  0  0  0  0  0  # atno 6908 bound_to 6896
  151.5486  135.1070  159.9996 H   0  0  0  0  0  0  0  0  0  0  0  0  # atno 6909 bound_to 6896
  145.1674  140.8909  143.3555 H   0  0  0  0  0  0  0  0  0  0  0  0  # atno 7974 bound_to 7965
  154.6265  140.0609  156.9680 H   0  0  0  0  0  0  0  0  0  0  0  0  # atno 8008 bound_to 7997
  155.1733  140.3293  155.4370 H   0  0  0  0  0  0  0  0  0  0  0  0  # atno 8009 bound_to 7997
  156.2460  140.1910  156.6834 H   0  0  0  0  0  0  0  0  0  0  0  0  # atno 8010 bound_to 7997
  140.4164  144.1521  150.6143 H   0  0  0  0  0  0  0  0  0  0  0  0  # atno 10167 bound_to 10162
  157.6042  131.1046  150.7732 H   0  0  0  0  0  0  0  0  0  0  0  0  # atno 10718 bound_to 10713
  154.6205  135.5455  153.7570 H   0  0  0  0  0  0  0  0  0  0  0  0  # atno 10763 bound_to 10752
  153.0236  135.6411  154.1447 H   0  0  0  0  0  0  0  0  0  0  0  0  # atno 10764 bound_to 10752
  154.1382  135.2910  155.3148 H   0  0  0  0  0  0  0  0  0  0  0  0  # atno 10765 bound_to 10752
  140.7014  134.3933  157.5209 H   0  0  0  0  0  0  0  0  0  0  0  0  # atno 11005 bound_to 11000
  145.0268  139.3376  143.6045 LP  0  0  0  0  0  0  0  0  0  0  0  0  # atno 17320 bound_to 7965
  146.3473  139.9590  142.8719 LP  0  0  0  0  0  0  0  0  0  0  0  0  # atno 17321 bound_to 7965
  140.4582  143.2459  151.9256 LP  0  0  0  0  0  0  0  0  0  0  0  0  # atno 17342 bound_to 10162
  139.4782  144.5494  151.8409 LP  0  0  0  0  0  0  0  0  0  0  0  0  # atno 17343 bound_to 10162
  156.8124  130.4957  149.5354 LP  0  0  0  0  0  0  0  0  0  0  0  0  # atno 17370 bound_to 10713
  156.1123  130.6049  151.0066 LP  0  0  0  0  0  0  0  0  0  0  0  0  # atno 17371 bound_to 10713
  139.8896  134.8827  156.2414 LP  0  0  0  0  0  0  0  0  0  0  0  0  # atno 17394 bound_to 11000
  141.0161  133.7068  156.1190 LP  0  0  0  0  0  0  0  0  0  0  0  0  # atno 17395 bound_to 11000

$$$$
