AV-unprocessed.smi:1682|AV-procd|sdf|6743|dock4
  -GOLD-   22720 7493D 1   1.00000     0.00000
 Structure written by MMmdl.
 38 39  0  0  0  0  0  0  0  0  1 V2000
  151.6444  136.9886  155.1168 O   0  0  0  0  0  0  0  0  0  0  0  0
  150.5144  137.2218  155.5478 C   0  0  0  0  0  0  0  0  0  0  0  0
  150.1533  138.4096  156.0569 N   0  0  0  0  0  0  0  0  0  0  0  0
  151.0372  139.5613  156.1939 C   0  0  0  0  0  0  0  0  0  0  0  0
  151.3067  139.8913  157.6717 C   0  0  0  0  0  0  0  0  0  0  0  0
  151.5893  141.3652  157.8907 C   0  0  0  0  0  0  0  0  0  0  0  0
  152.6085  141.7780  158.7752 C   0  0  0  0  0  0  0  0  0  0  0  0
  152.8335  143.1580  158.9419 C   0  0  0  0  0  0  0  0  0  0  0  0
  152.0360  144.0672  158.2208 C   0  0  0  0  0  0  0  0  0  0  0  0
  151.0452  143.5535  157.3607 C   0  0  0  0  0  0  0  0  0  0  0  0
  150.8213  142.2320  157.1931 N   0  0  0  0  0  0  0  0  0  0  0  0
  149.4376  136.1255  155.5274 C   0  0  2  0  0  0  0  0  0  0  0  0
  149.1336  135.6127  156.9492 C   0  0  0  0  0  0  0  0  0  0  0  0
  149.7085  134.2058  156.9614 C   0  0  0  0  0  0  0  0  0  0  0  0
  149.7491  133.5116  157.9757 O   0  0  0  0  0  0  0  0  0  0  0  0
  150.1540  133.8601  155.7490 N   0  0  0  0  0  0  0  0  0  0  0  0
  150.7857  132.5943  155.3829 C   0  0  0  0  0  0  0  0  0  0  0  0
  149.7665  131.5603  154.8715 C   0  0  0  0  0  0  0  0  0  0  0  0
  149.1033  132.0788  153.8391 F   0  0  0  0  0  0  0  0  0  0  0  0
  150.3923  130.4564  154.4629 F   0  0  0  0  0  0  0  0  0  0  0  0
  148.8877  131.2396  155.8206 F   0  0  0  0  0  0  0  0  0  0  0  0
  149.8875  134.8746  154.7427 C   0  0  0  0  0  0  0  0  0  0  0  0
  149.2049  138.5193  156.3854 H   0  0  0  0  0  0  0  0  0  0  0  0
  151.9749  139.3780  155.6662 H   0  0  0  0  0  0  0  0  0  0  0  0
  150.5651  140.4119  155.7012 H   0  0  0  0  0  0  0  0  0  0  0  0
  150.4504  139.6003  158.2818 H   0  0  0  0  0  0  0  0  0  0  0  0
  152.1542  139.3116  158.0395 H   0  0  0  0  0  0  0  0  0  0  0  0
  153.2049  141.0557  159.3132 H   0  0  0  0  0  0  0  0  0  0  0  0
  153.6040  143.5125  159.6106 H   0  0  0  0  0  0  0  0  0  0  0  0
  152.1800  145.1323  158.3244 H   0  0  0  0  0  0  0  0  0  0  0  0
  150.4160  144.2220  156.7919 H   0  0  0  0  0  0  0  0  0  0  0  0
  148.5289  136.5294  155.0775 H   0  0  0  0  0  0  0  0  0  0  0  0
  149.5821  136.2165  157.7402 H   0  0  0  0  0  0  0  0  0  0  0  0
  148.0592  135.5665  157.1294 H   0  0  0  0  0  0  0  0  0  0  0  0
  151.5500  132.7721  154.6246 H   0  0  0  0  0  0  0  0  0  0  0  0
  151.3090  132.1948  156.2528 H   0  0  0  0  0  0  0  0  0  0  0  0
  149.0917  134.5266  154.0829 H   0  0  0  0  0  0  0  0  0  0  0  0
  150.7711  135.0503  154.1269 H   0  0  0  0  0  0  0  0  0  0  0  0
  1  2  2  0  0  0  0
  2  3  1  0  0  0  0
  2 12  1  0  0  0  0
  3  4  1  0  0  0  0
  3 23  1  0  0  0  0
  4  5  1  0  0  0  0
  4 24  1  0  0  0  0
  4 25  1  0  0  0  0
  5  6  1  0  0  0  0
  5 26  1  0  0  0  0
  5 27  1  0  0  0  0
  6 11  1  0  0  0  0
  6  7  2  0  0  0  0
  7  8  1  0  0  0  0
  7 28  1  0  0  0  0
  8  9  2  0  0  0  0
  8 29  1  0  0  0  0
  9 10  1  0  0  0  0
  9 30  1  0  0  0  0
 10 11  2  0  0  0  0
 10 31  1  0  0  0  0
 12 22  1  0  0  0  0
 12 13  1  0  0  0  0
 12 32  1  0  0  0  0
 13 14  1  0  0  0  0
 13 33  1  0  0  0  0
 13 34  1  0  0  0  0
 14 15  2  0  0  0  0
 14 16  1  0  0  0  0
 16 17  1  0  0  0  0
 16 22  1  0  0  0  0
 17 18  1  0  0  0  0
 17 35  1  0  0  0  0
 17 36  1  0  0  0  0
 18 19  1  0  0  0  0
 18 20  1  0  0  0  0
 18 21  1  0  0  0  0
 22 37  1  0  0  0  0
 22 38  1  0  0  0  0
M  END
> <s_m_source_file>
AV-unprocessed.smi

> <i_m_source_file_index>
1682

> <i_lp_mmshare_version>
43012

> <i_f3d_flags>
0

> <s_epik_input>
RkMoRikoRilbQ0gyXU4oW0NIMl0xKUMoPU8pW0NIMl1bQ0BIXTFDKD1PKVtOSF1bQ0gyXVtDSDJdYzJbY0hdW2NIXVtjSF1bY0hdbjI=

> <s_epik_cmdline>
J2VwaWtfcHl0aG9uJywgJy1waCcsICc3LjAnLCAnLXRuJywgJzgnLCAnLW1hJywgJzIwMCcsICctbWV0YWxfYmluZGluZycsICctaW1hZScsICc8aW5maWxlLm1hZT4nLCAnLW9tYWUnLCAnPG91dGZpbGUubWFlPic=

> <r_epik_Ionization_Penalty>
0.0252359

> <r_epik_Ionization_Penalty_Charging>
0

> <r_epik_Ionization_Penalty_Neutral>
0.0252359

> <r_epik_State_Penalty>
0.020532

> <r_epik_Charging_Adjusted_Penalty>
0.020532

> <i_epik_Tot_Q>
0

> <i_epik_Tot_abs_Q>
0

> <r_epik_Metal_State_Penalty>
0.0196899

> <b_epik_Metal_Only>
0

> <s_lp_Force_Field>
OPLS_2005

> <r_lp_Energy>
9.5977

> <b_lp_Chiralities_Consistent>
1

> <s_lp_Variant>
AV-unprocessed.smi:1682-1

> <Gold.Version>
5.8.1

> <Gold.Id.Protein>
6NUR|6NUR_protein|mol2

> <Gold.PLP.Fitness>
46.3921

> <Gold.PLP.PLP>
-39.4841

> <Gold.PLP.part.hbond>
-2.0000

> <Gold.PLP.part.metal>
0.0000

> <Gold.PLP.part.buried>
-4.5392

> <Gold.PLP.part.nonpolar>
-33.4945

> <Gold.PLP.part.repulsive>
0.1529

> <Gold.PLP.ligand.clash>
0.0000

> <Gold.PLP.ligand.torsion>
1.0135

> <Gold.PLP.Chemscore.Hbond>
1.9440

> <Gold.PLP.Chemscore.CHOScore>
1.0000

> <Gold.PLP.Chemscore.Metal>
0.0000

> <Gold.Chemscore.Hbonds>
donor molecule, donor type, donor heavy atom, donor atom, acceptor molecule, acceptor atom, score
      P1  H  6896  6907       L1    15  1.00
      P1  H 10752 10764       L1     1  1.00
      L1  C    10    31       P1  8028  0.78

> <Gold.PLP.Chemscore.Internal.Correction>
0.1031

> <Gold.Rescore>
     Score         DG    S(hbond)    S(metal)    S(lipo)     H(rot)  DE(clash)    DE(int)     intcor
     15.65     -16.90       1.90        0.00      89.17       2.09       0.01       1.25       ----

> <Gold.Chemscore.Fitness>
15.6531

> <Gold.Chemscore.DG>
-16.9035

> <Gold.Chemscore.ZeroCoef>
-5.4800

> <Gold.Chemscore.Hbond>
1.8973

> <Gold.Chemscore.Metal>
0.0000

> <Gold.Chemscore.Lipo>
89.1687

> <Gold.Chemscore.Internal_Hbond>
0.0000

> <Gold.Chemscore.DEClash>
0.0050

> <Gold.Chemscore.DEInternal>
1.2453

> <Gold.Chemscore.Rot>
2.0884

> <Gold.Chemscore.Internal.Correction>
   9.000000E+99

> <Gold.Chemscore.Hbonds>
donor molecule, donor type, donor heavy atom, donor atom, acceptor molecule, acceptor atom, score
      P1  H  6896  6907       L1    15  1.00
      P1  H 10752 10764       L1     1  0.94

> <Gold.Chemscore.Hbond.Weighted>
-6.3371

> <Gold.Chemscore.Metal.Weighted>
-0.0000

> <Gold.Chemscore.Lipo.Weighted>
-10.4327

> <Gold.Chemscore.Internal_Hbond.Weighted>
0.0000

> <Gold.Chemscore.DEClash.Weighted>
0.0050

> <Gold.Chemscore.DEInternal.Weighted>
1.2453

> <Gold.Chemscore.Rot.Weighted>
5.3464

> <Gold.Chemscore.Internal.Correction.Weighted>
   9.000000E+99

> <Gold.Protein.RotatedTorsions>
[ 6907 6896 6895 6894 ] final -127.09 input  -60.11 | X-H torsion
[ 7974 7965 7964 7962 ] final  141.71 input  175.53 | X-H torsion
[ 8008 7997 7996 7995 ] final  -87.01 input   59.86 | X-H torsion
[ 10167 10162 10161 10158 ] final   81.64 input  -65.29 | X-H torsion
[ 10718 10713 10712 10709 ] final  171.35 input   66.30 | X-H torsion
[ 10763 10752 10751 10750 ] final  -48.04 input  -60.55 | X-H torsion
[ 11005 11000 10999 10996 ] final  147.30 input  -57.11 | X-H torsion

> <Gold.Protein.ActiveResidues>
 VAL166  LYS551  ARG553  GLY616  TRP617  ASP618  TYR619  PRO620  LYS621  CYS622 
 ASP623  PHE694  ASN695  SER759  ASP760  ASP761  ALA762  ILE779  LEU786  VAL792 
 PHE793  MET794  SER795  GLU796  ALA797  LYS798  CYS799  TRP800  GLU811  SER814 

> <Gold.Protein.RotatedAtoms>
  150.9037  133.7085  159.2872 H   0  0  0  0  0  0  0  0  0  0  0  0  # atno 6907 bound_to 6896
  151.4595  135.1036  159.9730 H   0  0  0  0  0  0  0  0  0  0  0  0  # atno 6908 bound_to 6896
  152.4891  133.8403  159.7204 H   0  0  0  0  0  0  0  0  0  0  0  0  # atno 6909 bound_to 6896
  144.9072  139.5342  143.5726 H   0  0  0  0  0  0  0  0  0  0  0  0  # atno 7974 bound_to 7965
  154.6584  140.0571  157.0034 H   0  0  0  0  0  0  0  0  0  0  0  0  # atno 8008 bound_to 7997
  155.1266  140.3252  155.4466 H   0  0  0  0  0  0  0  0  0  0  0  0  # atno 8009 bound_to 7997
  156.2607  140.1988  156.6386 H   0  0  0  0  0  0  0  0  0  0  0  0  # atno 8010 bound_to 7997
  139.9372  144.6114  150.8287 H   0  0  0  0  0  0  0  0  0  0  0  0  # atno 10167 bound_to 10162
  156.9949  131.0158  151.2847 H   0  0  0  0  0  0  0  0  0  0  0  0  # atno 10718 bound_to 10713
  154.0713  135.6604  153.4824 H   0  0  0  0  0  0  0  0  0  0  0  0  # atno 10763 bound_to 10752
  153.0390  135.5158  154.7564 H   0  0  0  0  0  0  0  0  0  0  0  0  # atno 10764 bound_to 10752
  154.6631  135.3018  154.9808 H   0  0  0  0  0  0  0  0  0  0  0  0  # atno 10765 bound_to 10752
  140.0865  134.9066  157.1583 H   0  0  0  0  0  0  0  0  0  0  0  0  # atno 11005 bound_to 11000
  146.3139  139.7849  142.8998 LP  0  0  0  0  0  0  0  0  0  0  0  0  # atno 17320 bound_to 7965
  145.3516  141.0308  143.3335 LP  0  0  0  0  0  0  0  0  0  0  0  0  # atno 17321 bound_to 7965
  140.7621  143.3190  151.2665 LP  0  0  0  0  0  0  0  0  0  0  0  0  # atno 17342 bound_to 10162
  139.6734  143.9980  152.2766 LP  0  0  0  0  0  0  0  0  0  0  0  0  # atno 17343 bound_to 10162
  157.5432  130.8133  149.8054 LP  0  0  0  0  0  0  0  0  0  0  0  0  # atno 17370 bound_to 10713
  156.0193  130.3801  150.2012 LP  0  0  0  0  0  0  0  0  0  0  0  0  # atno 17371 bound_to 10713
  140.3413  134.2700  155.7211 LP  0  0  0  0  0  0  0  0  0  0  0  0  # atno 17394 bound_to 11000
  141.2064  133.7834  157.0179 LP  0  0  0  0  0  0  0  0  0  0  0  0  # atno 17395 bound_to 11000

$$$$
