#       Name:                AV-unprocessed.smi:1692
#       Creating user name   scv26
#       Creation time:       Fri Mar 27 07:54:36 2020


#       File generated by GOLD software.
#

@<TRIPOS>MOLECULE
AV-unprocessed.smi:1692
    51    52     1
SMALL
NO_CHARGES


@<TRIPOS>ATOM
      1 ****        -2.2371   3.8531  -0.0231 C.3            1 S1                 0.0000
      2 ****        -3.0964   2.6567  -0.4661 C.3            1 S1                 0.0000
      3 ****        -2.3812   1.2993  -0.3093 C.3            1 S1                 0.0000
      4 ****        -2.2885   0.8651   1.0834 N.3            1 S1                 0.0000
      5 ****        -1.6436  -0.4399   1.2230 C.3            1 S1                 0.0000
      6 ****        -0.1524  -0.4745   0.8469 C.3            1 S1                 0.0000
      7 ****         0.4947  -1.8309   1.1711 C.3            1 S1                 0.0000
      8 ****         1.9112  -1.8506   0.8235 N.am           1 S1                 0.0000
      9 ****         2.3968  -2.0376  -0.4126 C.2            1 S1                 0.0000
     10 ****         1.6841  -2.2124  -1.4015 O.2            1 S1                 0.0000
     11 ****         3.7413  -2.0077  -0.4176 N.am           1 S1                 0.0000
     12 ****         4.6187  -2.1547  -1.5253 C.ar           1 S1                 0.0000
     13 ****         5.9951  -2.0786  -1.2133 C.ar           1 S1                 0.0000
     14 ****         6.9474  -2.2097  -2.2427 C.ar           1 S1                 0.0000
     15 ****         6.4986  -2.4141  -3.5595 C.ar           1 S1                 0.0000
     16 ****         5.1111  -2.4786  -3.7843 C.ar           1 S1                 0.0000
     17 ****         4.1967  -2.3529  -2.7993 N.ar           1 S1                 0.0000
     18 ****        -3.6254   0.8488   1.6637 C.3            1 S1                 0.0000
     19 ****        -4.3125   2.2228   1.5689 C.3            1 S1                 0.0000
     20 ****        -5.7478   2.1882   2.1040 C.3            1 S1                 0.0000
     21 ****        -4.3577   2.6343   0.2039 O.3            1 S1                 0.0000
     22 ****        -1.3287   3.9205  -0.6217 H              1 S1                 0.0000
     23 ****        -1.9333   3.7760   1.0205 H              1 S1                 0.0000
     24 ****        -2.7825   4.7890  -0.1444 H              1 S1                 0.0000
     25 ****        -3.3147   2.7986  -1.5249 H              1 S1                 0.0000
     26 ****        -2.9228   0.5479  -0.8860 H              1 S1                 0.0000
     27 ****        -1.3898   1.3728  -0.7550 H              1 S1                 0.0000
     28 ****        -1.7271  -0.7589   2.2629 H              1 S1                 0.0000
     29 ****        -2.1847  -1.1846   0.6374 H              1 S1                 0.0000
     30 ****        -0.0316  -0.2672  -0.2162 H              1 S1                 0.0000
     31 ****         0.3759   0.3166   1.3811 H              1 S1                 0.0000
     32 ****         0.4073  -2.0386   2.2379 H              1 S1                 0.0000
     33 ****        -0.0280  -2.6375   0.6542 H              1 S1                 0.0000
     34 ****         2.5669  -1.7155   1.5790 H              1 S1                 0.0000
     35 ****         4.1899  -1.8595   0.4740 H              1 S1                 0.0000
     36 ****         6.3231  -1.9210  -0.1960 H              1 S1                 0.0000
     37 ****         8.0038  -2.1541  -2.0247 H              1 S1                 0.0000
     38 ****         7.1984  -2.5191  -4.3752 H              1 S1                 0.0000
     39 ****         4.7247  -2.6352  -4.7805 H              1 S1                 0.0000
     40 ****        -4.2372   0.0991   1.1588 H              1 S1                 0.0000
     41 ****        -3.5686   0.5490   2.7107 H              1 S1                 0.0000
     42 ****        -3.7485   2.9533   2.1497 H              1 S1                 0.0000
     43 ****        -5.7676   1.8998   3.1552 H              1 S1                 0.0000
     44 ****        -6.3590   1.4761   1.5489 H              1 S1                 0.0000
     45 ****        -6.2182   3.1680   2.0197 H              1 S1                 0.0000
     46 ****        -1.7099   1.5154   1.5757 LP             1 S1                 0.0000
     47 ****         0.6887  -2.2198  -1.3055 LP             1 S1                 0.0000
     48 ****         2.1007  -2.3470  -2.3006 LP             1 S1                 0.0000
     49 ****         3.2197  -2.4053  -3.0062 LP             1 S1                 0.0000
     50 ****        -4.9589   2.0054  -0.2891 LP             1 S1                 0.0000
     51 ****        -4.7418   3.5570   0.1714 LP             1 S1                 0.0000
@<TRIPOS>BOND
    1    1    2 1     
    2    1   22 1     
    3    1   23 1     
    4    1   24 1     
    5    2   21 1     
    6    2    3 1     
    7    2   25 1     
    8    3    4 1     
    9    3   26 1     
   10    3   27 1     
   11    4    5 1     
   12    4   18 1     
   13    5    6 1     
   14    5   28 1     
   15    5   29 1     
   16    6    7 1     
   17    6   30 1     
   18    6   31 1     
   19    7    8 1     
   20    7   32 1     
   21    7   33 1     
   22    8    9 am    
   23    8   34 1     
   24    9   10 2     
   25    9   11 am    
   26   11   12 1     
   27   11   35 1     
   28   12   17 ar    
   29   12   13 ar    
   30   13   14 ar    
   31   13   36 1     
   32   14   15 ar    
   33   14   37 1     
   34   15   16 ar    
   35   15   38 1     
   36   16   17 ar    
   37   16   39 1     
   38   18   19 1     
   39   18   40 1     
   40   18   41 1     
   41   19   20 1     
   42   19   21 1     
   43   19   42 1     
   44   20   43 1     
   45   20   44 1     
   46   20   45 1     
   47    4   46 1     
   48   10   47 1     
   49   10   48 1     
   50   17   49 1     
   51   21   50 1     
   52   21   51 1     
@<TRIPOS>SUBSTRUCTURE
      1 S1             1
@<TRIPOS>SET
LONE_PAIRS      STATIC     ATOMS    <user>   **** ""
6 46 47 48 49 50 51
DONOR_HYDROGENS      STATIC     ATOMS    <user>   **** ""
2 34 35
ATOM$BLUE        STATIC     ATOMS    COLORGROUP SYSTEM
6 46 47 48 49 50 51
ATOM$RED        STATIC     ATOMS    COLORGROUP SYSTEM
2 34 35
