#       Name:                AV-unprocessed.smi:2177
#       Creating user name   scv26
#       Creation time:       Fri Mar 27 12:04:23 2020


#       File generated by GOLD software.
#

@<TRIPOS>MOLECULE
AV-unprocessed.smi:2177
    47    48     1
SMALL
NO_CHARGES


@<TRIPOS>ATOM
      1 ****        -0.6545   1.4071  -2.8779 C.3            1 S1                 0.0000
      2 ****        -1.3987   0.3648  -2.0932 C.2            1 S1                 0.0000
      3 ****        -2.5771   0.6634  -1.5726 N.2            1 S1                 0.0000
      4 ****        -2.9631  -0.4567  -0.9291 N.pl3          1 S1                 0.0000
      5 ****        -4.2328  -0.4738  -0.2294 C.3            1 S1                 0.0000
      6 ****        -2.0277  -1.4659  -1.0457 C.2            1 S1                 0.0000
      7 ****        -2.2175  -2.8056  -0.4112 C.3            1 S1                 0.0000
      8 ****        -0.9930  -0.9692  -1.7928 C.2            1 S1                 0.0000
      9 ****         0.2951  -1.6498  -2.1889 C.3            1 S1                 0.0000
     10 ****         1.2715  -1.6162  -1.0124 C.2            1 S1                 0.0000
     11 ****         1.6598  -2.6660  -0.5015 O.2            1 S1                 0.0000
     12 ****         1.6363  -0.3984  -0.5827 N.am           1 S1                 0.0000
     13 ****         2.4142  -0.1081   0.6169 C.3            1 S1                 0.0000
     14 ****         3.8808   0.1424   0.2365 C.3            1 S1                 0.0000
     15 ****         1.7870   1.0953   1.3462 C.3            1 S1                 0.0000
     16 ****         0.3078   0.9253   1.7057 C.3            1 S1                 0.0000
     17 ****         0.1222   1.8299   2.9143 C.3            1 S1                 0.0000
     18 ****         1.5499   2.1757   3.3469 C.3            1 S1                 0.0000
     19 ****         2.3835   1.2852   2.6192 O.3            1 S1                 0.0000
     20 ****         0.2464   1.7204  -2.3500 H              1 S1                 0.0000
     21 ****        -1.2629   2.2954  -3.0509 H              1 S1                 0.0000
     22 ****        -0.3522   1.0204  -3.8509 H              1 S1                 0.0000
     23 ****        -4.9144  -1.1645  -0.7260 H              1 S1                 0.0000
     24 ****        -4.6814   0.5207  -0.2197 H              1 S1                 0.0000
     25 ****        -4.0808  -0.8001   0.7999 H              1 S1                 0.0000
     26 ****        -1.4136  -3.4897  -0.6826 H              1 S1                 0.0000
     27 ****        -3.1590  -3.2557  -0.7263 H              1 S1                 0.0000
     28 ****        -2.2289  -2.7190   0.6753 H              1 S1                 0.0000
     29 ****         0.1217  -2.6848  -2.4859 H              1 S1                 0.0000
     30 ****         0.7620  -1.1629  -3.0455 H              1 S1                 0.0000
     31 ****         1.2683   0.3988  -1.0811 H              1 S1                 0.0000
     32 ****         2.3755  -0.9648   1.2924 H              1 S1                 0.0000
     33 ****         4.4857   0.3466   1.1202 H              1 S1                 0.0000
     34 ****         3.9771   0.9947  -0.4370 H              1 S1                 0.0000
     35 ****         4.3110  -0.7274  -0.2612 H              1 S1                 0.0000
     36 ****         1.9169   2.0056   0.7571 H              1 S1                 0.0000
     37 ****        -0.3574   1.1807   0.8800 H              1 S1                 0.0000
     38 ****         0.1042  -0.1083   1.9900 H              1 S1                 0.0000
     39 ****        -0.4341   2.7328   2.6601 H              1 S1                 0.0000
     40 ****        -0.4225   1.3114   3.7042 H              1 S1                 0.0000
     41 ****         1.7956   3.2019   3.0703 H              1 S1                 0.0000
     42 ****         1.7008   2.0675   4.4213 H              1 S1                 0.0000
     43 ****        -3.0727   1.5293  -1.6412 LP             1 S1                 0.0000
     44 ****         1.3369  -3.5437  -0.8556 LP             1 S1                 0.0000
     45 ****         2.2983  -2.6415   0.2677 LP             1 S1                 0.0000
     46 ****         3.2963   1.6797   2.5140 LP             1 S1                 0.0000
     47 ****         2.4515   0.4106   3.0992 LP             1 S1                 0.0000
@<TRIPOS>BOND
    1    1    2 1     
    2    1   20 1     
    3    1   21 1     
    4    1   22 1     
    5    2    8 1     
    6    2    3 2     
    7    3    4 1     
    8    4    5 1     
    9    4    6 1     
   10    5   23 1     
   11    5   24 1     
   12    5   25 1     
   13    6    7 1     
   14    6    8 2     
   15    7   26 1     
   16    7   27 1     
   17    7   28 1     
   18    8    9 1     
   19    9   10 1     
   20    9   29 1     
   21    9   30 1     
   22   10   11 2     
   23   10   12 am    
   24   12   13 1     
   25   12   31 1     
   26   13   14 1     
   27   13   15 1     
   28   13   32 1     
   29   14   33 1     
   30   14   34 1     
   31   14   35 1     
   32   15   19 1     
   33   15   16 1     
   34   15   36 1     
   35   16   17 1     
   36   16   37 1     
   37   16   38 1     
   38   17   18 1     
   39   17   39 1     
   40   17   40 1     
   41   18   19 1     
   42   18   41 1     
   43   18   42 1     
   44    3   43 1     
   45   11   44 1     
   46   11   45 1     
   47   19   46 1     
   48   19   47 1     
@<TRIPOS>SUBSTRUCTURE
      1 S1             1
@<TRIPOS>SET
LONE_PAIRS      STATIC     ATOMS    <user>   **** ""
5 43 44 45 46 47
DONOR_HYDROGENS      STATIC     ATOMS    <user>   **** ""
1 31
ATOM$BLUE        STATIC     ATOMS    COLORGROUP SYSTEM
5 43 44 45 46 47
ATOM$RED        STATIC     ATOMS    COLORGROUP SYSTEM
1 31
