#       Name:                AV-unprocessed.smi:292
#       Creating user name   scv26
#       Creation time:       Thu Mar 26 22:13:36 2020


#       File generated by GOLD software.
#

@<TRIPOS>MOLECULE
AV-unprocessed.smi:292
    40    41     1
SMALL
NO_CHARGES


@<TRIPOS>ATOM
      1 ****        -5.6985   2.2238  -2.5096 N.1            1 S1                 0.0000
      2 ****        -4.7891   1.5225  -2.6530 C.1            1 S1                 0.0000
      3 ****        -3.6472   0.6421  -2.8334 C.2            1 S1                 0.0000
      4 ****        -3.7996  -0.7100  -2.9399 N.2            1 S1                 0.0000
      5 ****        -2.5248  -1.0498  -3.0852 C.2            1 S1                 0.0000
      6 ****        -1.6802  -0.0129  -3.0679 N.pl3          1 S1                 0.0000
      7 ****        -0.2326   0.0274  -3.1825 C.3            1 S1                 0.0000
      8 ****         0.4396  -0.4661  -1.9000 C.2            1 S1                 0.0000
      9 ****         1.1722  -1.4546  -1.9304 O.2            1 S1                 0.0000
     10 ****         0.1830   0.2329  -0.7827 N.am           1 S1                 0.0000
     11 ****         0.6716  -0.0822   0.5596 C.3            1 S1                 0.0000
     12 ****         2.0821   0.5123   0.7663 C.3            1 S1                 0.0000
     13 ****         2.8970  -0.1847   1.8677 C.3            1 S1                 0.0000
     14 ****         2.2998  -0.0772   3.2790 C.3            1 S1                 0.0000
     15 ****         0.9498  -0.7984   3.4367 C.3            1 S1                 0.0000
     16 ****        -0.1647  -0.0265   2.9007 N.am           1 S1                 0.0000
     17 ****        -0.3578   0.3407   1.6248 C.2            1 S1                 0.0000
     18 ****        -1.3410   1.0111   1.3099 O.2            1 S1                 0.0000
     19 ****        -2.4065   1.1198  -2.9039 N.2            1 S1                 0.0000
     20 ****        -2.1989  -2.0733  -3.1994 H              1 S1                 0.0000
     21 ****         0.0670  -0.5945  -4.0272 H              1 S1                 0.0000
     22 ****         0.0910   1.0465  -3.3999 H              1 S1                 0.0000
     23 ****        -0.4339   1.0295  -0.8574 H              1 S1                 0.0000
     24 ****         0.7433  -1.1698   0.6222 H              1 S1                 0.0000
     25 ****         2.6526   0.4277  -0.1596 H              1 S1                 0.0000
     26 ****         2.0124   1.5816   0.9713 H              1 S1                 0.0000
     27 ****         3.0321  -1.2356   1.6086 H              1 S1                 0.0000
     28 ****         3.8984   0.2471   1.8813 H              1 S1                 0.0000
     29 ****         3.0084  -0.5234   3.9774 H              1 S1                 0.0000
     30 ****         2.2089   0.9689   3.5747 H              1 S1                 0.0000
     31 ****         0.9777  -1.7912   2.9856 H              1 S1                 0.0000
     32 ****         0.7488  -0.9512   4.4974 H              1 S1                 0.0000
     33 ****        -0.8616   0.2681   3.5696 H              1 S1                 0.0000
     34 ****        -6.4843   2.8297  -2.3857 LP             1 S1                 0.0000
     35 ****        -4.6242  -1.2751  -2.9157 LP             1 S1                 0.0000
     36 ****         1.3280  -1.9351  -2.7935 LP             1 S1                 0.0000
     37 ****         1.6117  -1.7773  -1.0921 LP             1 S1                 0.0000
     38 ****        -1.4754   1.2846   0.3575 LP             1 S1                 0.0000
     39 ****        -2.0053   1.2821   2.0065 LP             1 S1                 0.0000
     40 ****        -2.0922   2.0676  -2.8499 LP             1 S1                 0.0000
@<TRIPOS>BOND
    1    1    2 3     
    2    2    3 1     
    3    3   19 2     
    4    3    4 1     
    5    4    5 2     
    6    5    6 1     
    7    5   20 1     
    8    6    7 1     
    9    6   19 1     
   10    7    8 1     
   11    7   21 1     
   12    7   22 1     
   13    8    9 2     
   14    8   10 am    
   15   10   11 1     
   16   10   23 1     
   17   11   17 1     
   18   11   12 1     
   19   11   24 1     
   20   12   13 1     
   21   12   25 1     
   22   12   26 1     
   23   13   14 1     
   24   13   27 1     
   25   13   28 1     
   26   14   15 1     
   27   14   29 1     
   28   14   30 1     
   29   15   16 1     
   30   15   31 1     
   31   15   32 1     
   32   16   17 am    
   33   16   33 1     
   34   17   18 2     
   35    1   34 1     
   36    4   35 1     
   37    9   36 1     
   38    9   37 1     
   39   18   38 1     
   40   18   39 1     
   41   19   40 1     
@<TRIPOS>SUBSTRUCTURE
      1 S1             1
@<TRIPOS>SET
LONE_PAIRS      STATIC     ATOMS    <user>   **** ""
7 34 35 36 37 38 39 40
DONOR_HYDROGENS      STATIC     ATOMS    <user>   **** ""
2 23 33
ATOM$BLUE        STATIC     ATOMS    COLORGROUP SYSTEM
7 34 35 36 37 38 39 40
ATOM$RED        STATIC     ATOMS    COLORGROUP SYSTEM
2 23 33
