AV-unprocessed.smi:1290|AV-procd|sdf|5389|dock4
  -GOLD-   22720 4543D 1   1.00000     0.00000
 Structure written by MMmdl.
 38 40  0  0  0  0  0  0  0  0  1 V2000
  145.9859  142.9682  157.5578 C   0  0  0  0  0  0  0  0  0  0  0  0
  147.0264  142.2640  156.7850 N   0  0  0  0  0  0  0  0  0  0  0  0
  148.1184  141.7819  157.4580 C   0  0  0  0  0  0  0  0  0  0  0  0
  148.3049  141.8883  158.6710 O   0  0  0  0  0  0  0  0  0  0  0  0
  149.0918  141.1042  156.5978 C   0  0  0  0  0  0  0  0  0  0  0  0
  148.9256  140.9651  155.2608 C   0  0  0  0  0  0  0  0  0  0  0  0
  149.9939  140.2861  154.6854 N   0  0  0  0  0  0  0  0  0  0  0  0
  150.7721  140.0468  155.7422 C   0  0  0  0  0  0  0  0  0  0  0  0
  150.3065  140.5044  156.9226 N   0  0  0  0  0  0  0  0  0  0  0  0
  150.9571  140.3775  158.2177 C   0  0  0  0  0  0  0  0  0  0  0  0
  152.3828  140.9647  158.2289 C   0  0  2  0  0  0  0  0  0  0  0  0
  153.2994  140.0159  157.7172 O   0  0  0  0  0  0  0  0  0  0  0  0
  152.7675  141.4474  159.6187 C   0  0  0  0  0  0  0  0  0  0  0  0
  153.7596  140.7617  160.3518 C   0  0  0  0  0  0  0  0  0  0  0  0
  154.1290  141.2072  161.6360 C   0  0  0  0  0  0  0  0  0  0  0  0
  153.5101  142.3430  162.1935 C   0  0  0  0  0  0  0  0  0  0  0  0
  153.9628  142.8889  163.7666 Cl  0  0  0  0  0  0  0  0  0  0  0  0
  152.5226  143.0339  161.4651 C   0  0  0  0  0  0  0  0  0  0  0  0
  152.1531  142.5885  160.1811 C   0  0  0  0  0  0  0  0  0  0  0  0
  147.7577  141.4996  154.6626 N   0  0  0  0  0  0  0  0  0  0  0  0
  147.6116  141.3305  153.2139 C   0  0  0  0  0  0  0  0  0  0  0  0
  146.8134  142.1490  155.4210 C   0  0  0  0  0  0  0  0  0  0  0  0
  145.7996  142.6191  154.8973 O   0  0  0  0  0  0  0  0  0  0  0  0
  146.1672  143.0195  158.6319 H   0  0  0  0  0  0  0  0  0  0  0  0
  145.0193  142.4775  157.4324 H   0  0  0  0  0  0  0  0  0  0  0  0
  145.8869  143.9974  157.2091 H   0  0  0  0  0  0  0  0  0  0  0  0
  151.7138  139.5249  155.6550 H   0  0  0  0  0  0  0  0  0  0  0  0
  150.3344  140.8676  158.9666 H   0  0  0  0  0  0  0  0  0  0  0  0
  150.9829  139.3211  158.4892 H   0  0  0  0  0  0  0  0  0  0  0  0
  152.4195  141.8194  157.5529 H   0  0  0  0  0  0  0  0  0  0  0  0
  153.0300  139.1561  158.0026 H   0  0  0  0  0  0  0  0  0  0  0  0
  154.2427  139.8917  159.9309 H   0  0  0  0  0  0  0  0  0  0  0  0
  154.8883  140.6767  162.1918 H   0  0  0  0  0  0  0  0  0  0  0  0
  152.0477  143.9066  161.8890 H   0  0  0  0  0  0  0  0  0  0  0  0
  151.3976  143.1280  159.6286 H   0  0  0  0  0  0  0  0  0  0  0  0
  146.7004  141.7617  152.7986 H   0  0  0  0  0  0  0  0  0  0  0  0
  147.6114  140.2694  152.9621 H   0  0  0  0  0  0  0  0  0  0  0  0
  148.4531  141.7953  152.6993 H   0  0  0  0  0  0  0  0  0  0  0  0
  1  2  1  0  0  0  0
  1 24  1  0  0  0  0
  1 25  1  0  0  0  0
  1 26  1  0  0  0  0
  2 22  1  0  0  0  0
  2  3  1  0  0  0  0
  3  4  2  0  0  0  0
  3  5  1  0  0  0  0
  5  9  1  0  0  0  0
  5  6  2  0  0  0  0
  6  7  1  0  0  0  0
  6 20  1  0  0  0  0
  7  8  2  0  0  0  0
  8  9  1  0  0  0  0
  8 27  1  0  0  0  0
  9 10  1  0  0  0  0
 10 11  1  0  0  0  0
 10 28  1  0  0  0  0
 10 29  1  0  0  0  0
 11 12  1  0  0  0  0
 11 13  1  0  0  0  0
 11 30  1  0  0  0  0
 12 31  1  0  0  0  0
 13 19  1  0  0  0  0
 13 14  2  0  0  0  0
 14 15  1  0  0  0  0
 14 32  1  0  0  0  0
 15 16  2  0  0  0  0
 15 33  1  0  0  0  0
 16 17  1  0  0  0  0
 16 18  1  0  0  0  0
 18 19  2  0  0  0  0
 18 34  1  0  0  0  0
 19 35  1  0  0  0  0
 20 21  1  0  0  0  0
 20 22  1  0  0  0  0
 21 36  1  0  0  0  0
 21 37  1  0  0  0  0
 21 38  1  0  0  0  0
 22 23  2  0  0  0  0
M  END
> <s_m_source_file>
AV-unprocessed.smi

> <i_m_source_file_index>
1290

> <i_lp_mmshare_version>
43012

> <i_f3d_flags>
0

> <s_epik_input>
Tz1jMW4oW0NIM10pYyg9TyluKFtDSDNdKWMoYzEyKW5bY0hdbjJbQ0gyXVtDQEhdKFtPSF0pYzNbY0hdW2NIXWMoQ2wpW2NIXVtjSF0z

> <s_epik_cmdline>
J2VwaWtfcHl0aG9uJywgJy1waCcsICc3LjAnLCAnLXRuJywgJzgnLCAnLW1hJywgJzIwMCcsICctbWV0YWxfYmluZGluZycsICctaW1hZScsICc8aW5maWxlLm1hZT4nLCAnLW9tYWUnLCAnPG91dGZpbGUubWFlPic=

> <r_lp_tautomer_probability>
1

> <r_epik_Ionization_Penalty>
1.48293e-06

> <r_epik_Ionization_Penalty_Charging>
3.74189e-09

> <r_epik_Ionization_Penalty_Neutral>
1.47919e-06

> <r_epik_State_Penalty>
-0

> <r_epik_Charging_Adjusted_Penalty>
3.74189e-09

> <i_epik_Tot_Q>
0

> <i_epik_Tot_abs_Q>
0

> <r_epik_Metal_State_Penalty>
-0

> <b_epik_Metal_Only>
0

> <s_lp_Force_Field>
OPLS_2005

> <r_lp_Energy>
35.4502

> <b_lp_Chiralities_Consistent>
1

> <s_lp_Variant>
AV-unprocessed.smi:1290-1

> <Gold.Version>
5.8.1

> <Gold.Id.Protein>
6NUR|6NUR_protein|mol2

> <Gold.PLP.Fitness>
48.4200

> <Gold.PLP.PLP>
-44.7281

> <Gold.PLP.part.hbond>
-2.8598

> <Gold.PLP.part.metal>
0.0000

> <Gold.PLP.part.buried>
-1.7902

> <Gold.PLP.part.nonpolar>
-37.3295

> <Gold.PLP.part.repulsive>
0.3752

> <Gold.PLP.ligand.clash>
0.0000

> <Gold.PLP.ligand.torsion>
0.5438

> <Gold.PLP.Chemscore.Hbond>
1.5850

> <Gold.PLP.Chemscore.CHOScore>
0.0000

> <Gold.PLP.Chemscore.Metal>
0.0000

> <Gold.Chemscore.Hbonds>
donor molecule, donor type, donor heavy atom, donor atom, acceptor molecule, acceptor atom, score
      P1  H  7989  7998       L1     7  0.53
      P1  H  7997  8008       L1    12  0.84

> <Gold.PLP.Chemscore.Internal.Correction>
0.0246

> <Gold.Rescore>
     Score         DG    S(hbond)    S(metal)    S(lipo)     H(rot)  DE(clash)    DE(int)     intcor
     14.35     -14.67       0.99        0.00      97.15       2.15       0.00       0.32       ----

> <Gold.Chemscore.Fitness>
14.3511

> <Gold.Chemscore.DG>
-14.6670

> <Gold.Chemscore.ZeroCoef>
-5.4800

> <Gold.Chemscore.Hbond>
0.9933

> <Gold.Chemscore.Metal>
0.0000

> <Gold.Chemscore.Lipo>
97.1519

> <Gold.Chemscore.Internal_Hbond>
0.0000

> <Gold.Chemscore.DEClash>
0.0000

> <Gold.Chemscore.DEInternal>
0.3159

> <Gold.Chemscore.Rot>
2.1474

> <Gold.Chemscore.Internal.Correction>
   9.000000E+99

> <Gold.Chemscore.Hbonds>
donor molecule, donor type, donor heavy atom, donor atom, acceptor molecule, acceptor atom, score
      P1  H  7989  7998       L1     7  0.04
      P1  H  7997  8008       L1    12  0.74

> <Gold.Chemscore.Hbond.Weighted>
-3.3175

> <Gold.Chemscore.Metal.Weighted>
-0.0000

> <Gold.Chemscore.Lipo.Weighted>
-11.3668

> <Gold.Chemscore.Internal_Hbond.Weighted>
0.0000

> <Gold.Chemscore.DEClash.Weighted>
0.0000

> <Gold.Chemscore.DEInternal.Weighted>
0.3159

> <Gold.Chemscore.Rot.Weighted>
5.4974

> <Gold.Chemscore.Internal.Correction.Weighted>
   9.000000E+99

> <Gold.Protein.RotatedTorsions>
[ 6907 6896 6895 6894 ] final -101.55 input  -60.11 | X-H torsion
[ 7974 7965 7964 7962 ] final  116.15 input  175.53 | X-H torsion
[ 8008 7997 7996 7995 ] final  -65.50 input   59.86 | X-H torsion
[ 10167 10162 10161 10158 ] final  156.80 input  -65.29 | X-H torsion
[ 10718 10713 10712 10709 ] final  122.05 input   66.30 | X-H torsion
[ 10763 10752 10751 10750 ] final  158.00 input  -60.55 | X-H torsion
[ 11005 11000 10999 10996 ] final  158.93 input  -57.11 | X-H torsion

> <Gold.Protein.ActiveResidues>
 VAL166  LYS551  ARG553  GLY616  TRP617  ASP618  TYR619  PRO620  LYS621  CYS622 
 ASP623  PHE694  ASN695  SER759  ASP760  ASP761  ALA762  ILE779  LEU786  VAL792 
 PHE793  MET794  SER795  GLU796  ALA797  LYS798  CYS799  TRP800  GLU811  SER814 

> <Gold.Protein.RotatedAtoms>
  150.7159  134.0717  159.3866 H   0  0  0  0  0  0  0  0  0  0  0  0  # atno 6907 bound_to 6896
  151.8699  135.0491  160.0487 H   0  0  0  0  0  0  0  0  0  0  0  0  # atno 6908 bound_to 6896
  152.2651  133.5296  159.5442 H   0  0  0  0  0  0  0  0  0  0  0  0  # atno 6909 bound_to 6896
  145.1832  139.3039  143.4407 H   0  0  0  0  0  0  0  0  0  0  0  0  # atno 7974 bound_to 7965
  154.4675  140.0932  156.7060 H   0  0  0  0  0  0  0  0  0  0  0  0  # atno 8008 bound_to 7997
  155.4816  140.3468  155.4322 H   0  0  0  0  0  0  0  0  0  0  0  0  # atno 8009 bound_to 7997
  156.0982  140.1415  156.9491 H   0  0  0  0  0  0  0  0  0  0  0  0  # atno 8010 bound_to 7997
  139.4822  144.4976  151.8217 H   0  0  0  0  0  0  0  0  0  0  0  0  # atno 10167 bound_to 10162
  157.5772  131.1078  150.8256 H   0  0  0  0  0  0  0  0  0  0  0  0  # atno 10718 bound_to 10713
  154.2091  135.2787  155.2964 H   0  0  0  0  0  0  0  0  0  0  0  0  # atno 10763 bound_to 10752
  154.5793  135.5594  153.7173 H   0  0  0  0  0  0  0  0  0  0  0  0  # atno 10764 bound_to 10752
  153.0069  135.6341  154.2230 H   0  0  0  0  0  0  0  0  0  0  0  0  # atno 10765 bound_to 10752
  140.1913  134.8405  157.2915 H   0  0  0  0  0  0  0  0  0  0  0  0  # atno 11005 bound_to 11000
  146.3449  140.2019  142.8589 LP  0  0  0  0  0  0  0  0  0  0  0  0  # atno 17320 bound_to 7965
  145.0115  140.8718  143.5221 LP  0  0  0  0  0  0  0  0  0  0  0  0  # atno 17321 bound_to 7965
  140.4466  144.1914  150.5894 LP  0  0  0  0  0  0  0  0  0  0  0  0  # atno 17342 bound_to 10162
  140.4629  143.2442  151.9196 LP  0  0  0  0  0  0  0  0  0  0  0  0  # atno 17343 bound_to 10162
  156.8712  130.5147  149.5296 LP  0  0  0  0  0  0  0  0  0  0  0  0  # atno 17370 bound_to 10713
  156.0817  130.5826  150.9574 LP  0  0  0  0  0  0  0  0  0  0  0  0  # atno 17371 bound_to 10713
  140.2157  134.4084  155.7590 LP  0  0  0  0  0  0  0  0  0  0  0  0  # atno 17394 bound_to 11000
  141.2226  133.7140  156.8410 LP  0  0  0  0  0  0  0  0  0  0  0  0  # atno 17395 bound_to 11000

$$$$
