#       Name:                AV-unprocessed.smi:1087
#       Creating user name   scv26
#       Creation time:       Fri Mar 27 03:25:33 2020


#       File generated by GOLD software.
#

@<TRIPOS>MOLECULE
AV-unprocessed.smi:1087
    54    55     1
SMALL
NO_CHARGES


@<TRIPOS>ATOM
      1 ****        -4.0267   3.2245  -3.8918 C.3            1 S1                 0.0000
      2 ****        -3.2554   2.2633  -3.1925 O.3            1 S1                 0.0000
      3 ****        -3.9058   1.7872  -2.0261 C.3            1 S1                 0.0000
      4 ****        -3.0073   0.7416  -1.3479 C.3            1 S1                 0.0000
      5 ****        -1.7258   1.3189  -0.8680 N.4            1 S1                 1.0000
      6 ****        -0.6593   0.2922  -0.7477 C.3            1 S1                 0.0000
      7 ****         0.6900   0.9357  -0.3855 C.3            1 S1                 0.0000
      8 ****         0.6084   1.7571   0.9184 C.3            1 S1                 0.0000
      9 ****         0.4780   0.9110   2.2079 C.3            1 S1                 0.0000
     10 ****         1.6150   0.0161   2.4004 N.am           1 S1                 0.0000
     11 ****         1.6238  -1.2991   2.1338 C.2            1 S1                 0.0000
     12 ****         0.6382  -1.9135   1.7241 O.2            1 S1                 0.0000
     13 ****         2.9518  -2.0300   2.3704 C.3            1 S1                 0.0000
     14 ****         3.2185  -3.0572   1.3508 N.am           1 S1                 0.0000
     15 ****         2.9515  -4.3948   1.6875 C.2            1 S1                 0.0000
     16 ****         3.1634  -5.3819   0.8052 C.2            1 S1                 0.0000
     17 ****         3.6825  -4.9825  -0.5093 C.2            1 S1                 0.0000
     18 ****         3.9229  -3.7637  -0.8209 N.2            1 S1                 0.0000
     19 ****         3.6971  -2.7288   0.1062 C.2            1 S1                 0.0000
     20 ****         3.9208  -1.5543  -0.1884 O.2            1 S1                 0.0000
     21 ****        -0.5364   2.7781   0.7791 C.3            1 S1                 0.0000
     22 ****        -1.8681   2.1133   0.3814 C.3            1 S1                 0.0000
     23 ****        -3.4833   3.5560  -4.7766 H              1 S1                 0.0000
     24 ****        -4.2241   4.0993  -3.2707 H              1 S1                 0.0000
     25 ****        -4.9787   2.8047  -4.2191 H              1 S1                 0.0000
     26 ****        -4.1443   2.6107  -1.3530 H              1 S1                 0.0000
     27 ****        -4.8520   1.3211  -2.3051 H              1 S1                 0.0000
     28 ****        -3.5312   0.2699  -0.5153 H              1 S1                 0.0000
     29 ****        -2.8083  -0.0504  -2.0715 H              1 S1                 0.0000
     30 ****        -0.9463  -0.4507  -0.0026 H              1 S1                 0.0000
     31 ****        -0.5531  -0.2384  -1.6945 H              1 S1                 0.0000
     32 ****         1.4670   0.1744  -0.3253 H              1 S1                 0.0000
     33 ****         0.9925   1.5944  -1.2006 H              1 S1                 0.0000
     34 ****         1.5383   2.3208   1.0079 H              1 S1                 0.0000
     35 ****         0.4402   1.5740   3.0729 H              1 S1                 0.0000
     36 ****        -0.4591   0.3537   2.2225 H              1 S1                 0.0000
     37 ****         2.4694   0.4332   2.7412 H              1 S1                 0.0000
     38 ****         3.7747  -1.3130   2.3981 H              1 S1                 0.0000
     39 ****         2.9222  -2.4730   3.3668 H              1 S1                 0.0000
     40 ****         2.5658  -4.5586   2.6832 H              1 S1                 0.0000
     41 ****         2.9761  -6.4279   0.9973 H              1 S1                 0.0000
     42 ****         3.8515  -5.8012  -1.2136 H              1 S1                 0.0000
     43 ****        -0.6599   3.3370   1.7074 H              1 S1                 0.0000
     44 ****        -0.2687   3.5136   0.0191 H              1 S1                 0.0000
     45 ****        -2.6177   2.8922   0.2483 H              1 S1                 0.0000
     46 ****        -2.2296   1.4707   1.1851 H              1 S1                 0.0000
     47 ****        -1.4167   1.9556  -1.5890 H              1 S1                 0.0000
     48 ****        -2.3867   2.6813  -2.9269 LP             1 S1                 0.0000
     49 ****        -3.0806   1.4889  -3.8006 LP             1 S1                 0.0000
     50 ****        -0.2249  -1.4312   1.5741 LP             1 S1                 0.0000
     51 ****         0.7010  -2.8947   1.5414 LP             1 S1                 0.0000
     52 ****         4.2742  -3.5453  -1.7313 LP             1 S1                 0.0000
     53 ****         3.7540  -0.8304   0.4811 LP             1 S1                 0.0000
     54 ****         4.2692  -1.3244  -1.0971 LP             1 S1                 0.0000
@<TRIPOS>BOND
    1    1    2 1     
    2    1   23 1     
    3    1   24 1     
    4    1   25 1     
    5    2    3 1     
    6    3    4 1     
    7    3   26 1     
    8    3   27 1     
    9    4    5 1     
   10    4   28 1     
   11    4   29 1     
   12    5   22 1     
   13    5    6 1     
   14    5   47 1     
   15    6    7 1     
   16    6   30 1     
   17    6   31 1     
   18    7    8 1     
   19    7   32 1     
   20    7   33 1     
   21    8    9 1     
   22    8   21 1     
   23    8   34 1     
   24    9   10 1     
   25    9   35 1     
   26    9   36 1     
   27   10   11 am    
   28   10   37 1     
   29   11   12 2     
   30   11   13 1     
   31   13   14 1     
   32   13   38 1     
   33   13   39 1     
   34   14   19 am    
   35   14   15 1     
   36   15   16 2     
   37   15   40 1     
   38   16   17 1     
   39   16   41 1     
   40   17   18 2     
   41   17   42 1     
   42   18   19 1     
   43   19   20 2     
   44   21   22 1     
   45   21   43 1     
   46   21   44 1     
   47   22   45 1     
   48   22   46 1     
   49    2   48 1     
   50    2   49 1     
   51   12   50 1     
   52   12   51 1     
   53   18   52 1     
   54   20   53 1     
   55   20   54 1     
@<TRIPOS>SUBSTRUCTURE
      1 S1             1
@<TRIPOS>SET
LONE_PAIRS      STATIC     ATOMS    <user>   **** ""
7 48 49 50 51 52 53 54
DONOR_HYDROGENS      STATIC     ATOMS    <user>   **** ""
2 47 37
ATOM$BLUE        STATIC     ATOMS    COLORGROUP SYSTEM
7 48 49 50 51 52 53 54
ATOM$RED        STATIC     ATOMS    COLORGROUP SYSTEM
2 47 37
