AV-unprocessed.smi:227|AV-procd|sdf|1735|dock8
  -GOLD-   2262020233D 1   1.00000     0.00000
 Structure written by MMmdl.
 54 58  0  0  0  0  0  0  0  0  1 V2000
  151.9328  139.7273  154.8852 O   0  0  0  0  0  0  0  0  0  0  0  0
  150.6907  139.8725  155.5412 C   0  0  0  0  0  0  0  0  0  0  0  0
  150.8358  139.6487  157.0651 C   0  0  2  0  0  0  0  0  0  0  0  0
  149.4616  139.6024  157.7884 C   0  0  0  0  0  0  0  0  0  0  0  0
  149.1765  138.3411  158.4584 N   0  0  0  0  0  0  0  0  0  0  0  0
  150.0930  137.4389  158.9473 C   0  0  0  0  0  0  0  0  0  0  0  0
  149.5838  136.3772  159.5070 N   0  0  0  0  0  0  0  0  0  0  0  0
  148.2091  136.5453  159.3883 C   0  0  0  0  0  0  0  0  0  0  0  0
  147.0668  135.7824  159.7761 C   0  0  0  0  0  0  0  0  0  0  0  0
  147.1103  134.5870  160.4291 N   0  0  0  0  0  0  0  0  0  0  0  0
  147.7467  134.4479  161.7311 C   0  0  2  0  0  0  0  0  0  0  0  0
  147.7089  132.9264  161.9557 C   0  0  0  0  0  0  0  0  0  0  0  0
  146.3797  132.5549  161.2835 C   0  0  0  0  0  0  0  0  0  0  0  0
  145.8706  133.9378  160.8372 C   0  0  1  0  0  0  0  0  0  0  0  0
  145.4066  134.7920  162.0460 C   0  0  1  0  0  0  0  0  0  0  0  0
  144.3588  134.1500  162.9739 C   0  0  0  0  0  0  0  0  0  0  0  0
  143.3090  133.6001  162.2071 O   0  0  0  0  0  0  0  0  0  0  0  0
  146.7594  135.1188  162.7076 C   0  0  0  0  0  0  0  0  0  0  0  0
  145.8470  136.2826  159.4441 N   0  0  0  0  0  0  0  0  0  0  0  0
  145.7398  137.4477  158.8011 C   0  0  0  0  0  0  0  0  0  0  0  0
  146.7102  138.2659  158.3941 N   0  0  0  0  0  0  0  0  0  0  0  0
  147.9399  137.7716  158.7126 C   0  0  0  0  0  0  0  0  0  0  0  0
  151.8017  140.6882  157.6926 C   0  0  1  0  0  0  0  0  0  0  0  0
  151.2952  142.1209  157.6705 C   0  0  0  0  0  0  0  0  0  0  0  0
  152.1837  142.7926  158.7111 C   0  0  0  0  0  0  0  0  0  0  0  0
  152.4534  141.7915  159.6849 O   0  0  0  0  0  0  0  0  0  0  0  0
  152.0467  140.5171  159.1964 C   0  0  0  0  0  0  0  0  0  0  0  0
  152.3951  139.0019  155.2779 H   0  0  0  0  0  0  0  0  0  0  0  0
  150.3396  140.8816  155.3284 H   0  0  0  0  0  0  0  0  0  0  0  0
  149.9638  139.1880  155.1038 H   0  0  0  0  0  0  0  0  0  0  0  0
  151.2939  138.6675  157.1994 H   0  0  0  0  0  0  0  0  0  0  0  0
  149.4003  140.4013  158.5280 H   0  0  0  0  0  0  0  0  0  0  0  0
  148.6543  139.8034  157.0842 H   0  0  0  0  0  0  0  0  0  0  0  0
  151.1596  137.5904  158.8803 H   0  0  0  0  0  0  0  0  0  0  0  0
  148.7620  134.8322  161.8070 H   0  0  0  0  0  0  0  0  0  0  0  0
  148.5427  132.4351  161.4527 H   0  0  0  0  0  0  0  0  0  0  0  0
  147.7414  132.6552  163.0116 H   0  0  0  0  0  0  0  0  0  0  0  0
  146.5628  131.9209  160.4148 H   0  0  0  0  0  0  0  0  0  0  0  0
  145.6959  132.0187  161.9399 H   0  0  0  0  0  0  0  0  0  0  0  0
  145.1161  133.8617  160.0533 H   0  0  0  0  0  0  0  0  0  0  0  0
  144.9794  135.7164  161.6524 H   0  0  0  0  0  0  0  0  0  0  0  0
  144.8122  133.3528  163.5632 H   0  0  0  0  0  0  0  0  0  0  0  0
  143.9368  134.8746  163.6699 H   0  0  0  0  0  0  0  0  0  0  0  0
  142.6804  134.2821  162.0263 H   0  0  0  0  0  0  0  0  0  0  0  0
  146.8524  134.7308  163.7227 H   0  0  0  0  0  0  0  0  0  0  0  0
  146.9156  136.1975  162.7467 H   0  0  0  0  0  0  0  0  0  0  0  0
  144.7325  137.7700  158.5820 H   0  0  0  0  0  0  0  0  0  0  0  0
  152.7677  140.6480  157.1875 H   0  0  0  0  0  0  0  0  0  0  0  0
  151.3687  142.5992  156.6946 H   0  0  0  0  0  0  0  0  0  0  0  0
  150.2526  142.1615  157.9891 H   0  0  0  0  0  0  0  0  0  0  0  0
  153.1278  143.1029  158.2616 H   0  0  0  0  0  0  0  0  0  0  0  0
  151.7149  143.6697  159.1577 H   0  0  0  0  0  0  0  0  0  0  0  0
  151.1262  140.2335  159.7088 H   0  0  0  0  0  0  0  0  0  0  0  0
  152.8013  139.7610  159.4143 H   0  0  0  0  0  0  0  0  0  0  0  0
  1  2  1  0  0  0  0
  1 28  1  0  0  0  0
  2  3  1  0  0  0  0
  2 29  1  0  0  0  0
  2 30  1  0  0  0  0
  3  4  1  0  0  0  0
  3 23  1  0  0  0  0
  3 31  1  0  0  0  0
  4  5  1  0  0  0  0
  4 32  1  0  0  0  0
  4 33  1  0  0  0  0
  5 22  1  0  0  0  0
  5  6  1  0  0  0  0
  6  7  2  0  0  0  0
  6 34  1  0  0  0  0
  7  8  1  0  0  0  0
  8 22  2  0  0  0  0
  8  9  1  0  0  0  0
  9 10  1  0  0  0  0
  9 19  2  0  0  0  0
 10 14  1  0  0  0  0
 10 11  1  0  0  0  0
 11 18  1  0  0  0  0
 11 12  1  0  0  0  0
 11 35  1  0  0  0  0
 12 13  1  0  0  0  0
 12 36  1  0  0  0  0
 12 37  1  0  0  0  0
 13 14  1  0  0  0  0
 13 38  1  0  0  0  0
 13 39  1  0  0  0  0
 14 15  1  0  0  0  0
 14 40  1  0  0  0  0
 15 16  1  0  0  0  0
 15 18  1  0  0  0  0
 15 41  1  0  0  0  0
 16 17  1  0  0  0  0
 16 42  1  0  0  0  0
 16 43  1  0  0  0  0
 17 44  1  0  0  0  0
 18 45  1  0  0  0  0
 18 46  1  0  0  0  0
 19 20  1  0  0  0  0
 20 21  2  0  0  0  0
 20 47  1  0  0  0  0
 21 22  1  0  0  0  0
 23 27  1  0  0  0  0
 23 24  1  0  0  0  0
 23 48  1  0  0  0  0
 24 25  1  0  0  0  0
 24 49  1  0  0  0  0
 24 50  1  0  0  0  0
 25 26  1  0  0  0  0
 25 51  1  0  0  0  0
 25 52  1  0  0  0  0
 26 27  1  0  0  0  0
 27 53  1  0  0  0  0
 27 54  1  0  0  0  0
M  END
> <s_m_source_file>
AV-unprocessed.smi

> <i_m_source_file_index>
227

> <i_lp_mmshare_version>
43012

> <i_f3d_flags>
0

> <s_epik_input>
W0NIMl0xT1tDSDJdW0NIMl1bQ0BIXTFbQ0BIXShbQ0gyXVtPSF0pW0NIMl1uKFtjSF1uMiljKGMyMyluW2NIXW5jM04oW0NASF00NSlbQ0BASF0oW0NIMl1bQ0gyXTQpW0NASF0oW0NIMl01KVtDSDJdW09IXQ==

> <s_epik_cmdline>
J2VwaWtfcHl0aG9uJywgJy1waCcsICc3LjAnLCAnLXRuJywgJzgnLCAnLW1hJywgJzIwMCcsICctbWV0YWxfYmluZGluZycsICctaW1hZScsICc8aW5maWxlLm1hZT4nLCAnLW9tYWUnLCAnPG91dGZpbGUubWFlPic=

> <r_lp_tautomer_probability>
1

> <r_epik_Ionization_Penalty>
0.0055791

> <r_epik_Ionization_Penalty_Charging>
0

> <r_epik_Ionization_Penalty_Neutral>
0.0055791

> <r_epik_State_Penalty>
0.00401299

> <r_epik_Charging_Adjusted_Penalty>
0.00401299

> <i_epik_Tot_Q>
0

> <i_epik_Tot_abs_Q>
0

> <r_epik_Metal_State_Penalty>
-0

> <b_epik_Metal_Only>
0

> <s_lp_Force_Field>
OPLS_2005

> <r_lp_Energy>
86.8427

> <b_lp_Chiralities_Consistent>
1

> <s_lp_Variant>
AV-unprocessed.smi:227-9

> <Gold.Version>
5.8.1

> <Gold.Id.Protein>
6NUR|6NUR_protein|mol2

> <Gold.PLP.Fitness>
43.5605

> <Gold.PLP.PLP>
-39.9206

> <Gold.PLP.part.hbond>
-2.3701

> <Gold.PLP.part.metal>
0.0000

> <Gold.PLP.part.buried>
-7.6187

> <Gold.PLP.part.nonpolar>
-30.8442

> <Gold.PLP.part.repulsive>
0.0000

> <Gold.PLP.ligand.clash>
0.0000

> <Gold.PLP.ligand.torsion>
1.2534

> <Gold.PLP.Chemscore.Hbond>
1.9600

> <Gold.PLP.Chemscore.CHOScore>
0.0000

> <Gold.PLP.Chemscore.Metal>
0.0000

> <Gold.Chemscore.Hbonds>
donor molecule, donor type, donor heavy atom, donor atom, acceptor molecule, acceptor atom, score
      P1  H  6896  6907       L1     7  1.00
      P1  H  7989  7998       L1     1  0.94

> <Gold.PLP.Chemscore.Internal.Correction>
0.2667

> <Gold.Rescore>
     Score         DG    S(hbond)    S(metal)    S(lipo)     H(rot)  DE(clash)    DE(int)     intcor
     11.99     -14.14       1.91        0.00      98.35       3.61       0.09       2.06       ----

> <Gold.Chemscore.Fitness>
11.9912

> <Gold.Chemscore.DG>
-14.1440

> <Gold.Chemscore.ZeroCoef>
-5.4800

> <Gold.Chemscore.Hbond>
1.9137

> <Gold.Chemscore.Metal>
0.0000

> <Gold.Chemscore.Lipo>
98.3452

> <Gold.Chemscore.Internal_Hbond>
0.0000

> <Gold.Chemscore.DEClash>
0.0885

> <Gold.Chemscore.DEInternal>
2.0643

> <Gold.Chemscore.Rot>
3.6071

> <Gold.Chemscore.Internal.Correction>
   9.000000E+99

> <Gold.Chemscore.Hbonds>
donor molecule, donor type, donor heavy atom, donor atom, acceptor molecule, acceptor atom, score
      P1  H  6896  6907       L1     7  0.88
      P1  H  7989  7998       L1     1  0.23

> <Gold.Chemscore.Hbond.Weighted>
-6.3918

> <Gold.Chemscore.Metal.Weighted>
-0.0000

> <Gold.Chemscore.Lipo.Weighted>
-11.5064

> <Gold.Chemscore.Internal_Hbond.Weighted>
0.0000

> <Gold.Chemscore.DEClash.Weighted>
0.0885

> <Gold.Chemscore.DEInternal.Weighted>
2.0643

> <Gold.Chemscore.Rot.Weighted>
9.2342

> <Gold.Chemscore.Internal.Correction.Weighted>
   9.000000E+99

> <Gold.Protein.RotatedTorsions>
[ 6907 6896 6895 6894 ] final  -62.52 input  -60.11 | X-H torsion
[ 7974 7965 7964 7962 ] final  -72.42 input  175.53 | X-H torsion
[ 8008 7997 7996 7995 ] final  -77.24 input   59.86 | X-H torsion
[ 10167 10162 10161 10158 ] final  120.02 input  -65.29 | X-H torsion
[ 10718 10713 10712 10709 ] final -149.55 input   66.30 | X-H torsion
[ 10763 10752 10751 10750 ] final -100.49 input  -60.55 | X-H torsion
[ 11005 11000 10999 10996 ] final  -11.02 input  -57.11 | X-H torsion

> <Gold.Protein.ActiveResidues>
 VAL166  LYS551  ARG553  GLY616  TRP617  ASP618  TYR619  PRO620  LYS621  CYS622 
 ASP623  PHE694  ASN695  SER759  ASP760  ASP761  ALA762  ILE779  LEU786  VAL792 
 PHE793  MET794  SER795  GLU796  ALA797  LYS798  CYS799  TRP800  GLU811  SER814 

> <Gold.Protein.RotatedAtoms>
  150.7710  134.6560  159.6313 H   0  0  0  0  0  0  0  0  0  0  0  0  # atno 6907 bound_to 6896
  152.3762  134.6656  160.0168 H   0  0  0  0  0  0  0  0  0  0  0  0  # atno 6908 bound_to 6896
  151.7000  133.3275  159.3300 H   0  0  0  0  0  0  0  0  0  0  0  0  # atno 6909 bound_to 6896
  145.6654  140.9239  143.0911 H   0  0  0  0  0  0  0  0  0  0  0  0  # atno 7974 bound_to 7965
  154.5578  140.0714  156.8770 H   0  0  0  0  0  0  0  0  0  0  0  0  # atno 8008 bound_to 7997
  155.2870  140.3375  155.4236 H   0  0  0  0  0  0  0  0  0  0  0  0  # atno 8009 bound_to 7997
  156.2016  140.1724  156.7872 H   0  0  0  0  0  0  0  0  0  0  0  0  # atno 8010 bound_to 7997
  139.6009  144.7056  151.3065 H   0  0  0  0  0  0  0  0  0  0  0  0  # atno 10167 bound_to 10162
  156.4346  130.8092  151.2320 H   0  0  0  0  0  0  0  0  0  0  0  0  # atno 10718 bound_to 10713
  154.7583  135.4933  153.9416 H   0  0  0  0  0  0  0  0  0  0  0  0  # atno 10763 bound_to 10752
  153.1221  135.6734  153.9325 H   0  0  0  0  0  0  0  0  0  0  0  0  # atno 10764 bound_to 10752
  153.9054  135.3105  155.3427 H   0  0  0  0  0  0  0  0  0  0  0  0  # atno 10765 bound_to 10752
  140.7508  133.8593  155.9044 H   0  0  0  0  0  0  0  0  0  0  0  0  # atno 11005 bound_to 11000
  144.7075  139.8503  143.7425 LP  0  0  0  0  0  0  0  0  0  0  0  0  # atno 17320 bound_to 7965
  146.1090  139.4093  143.0299 LP  0  0  0  0  0  0  0  0  0  0  0  0  # atno 17321 bound_to 7965
  140.7248  143.7033  150.7827 LP  0  0  0  0  0  0  0  0  0  0  0  0  # atno 17342 bound_to 10162
  140.0609  143.5155  152.2628 LP  0  0  0  0  0  0  0  0  0  0  0  0  # atno 17343 bound_to 10162
  157.7507  131.0187  150.3638 LP  0  0  0  0  0  0  0  0  0  0  0  0  # atno 17370 bound_to 10713
  156.3983  130.3911  149.6978 LP  0  0  0  0  0  0  0  0  0  0  0  0  # atno 17371 bound_to 10713
  140.9752  134.1478  157.4542 LP  0  0  0  0  0  0  0  0  0  0  0  0  # atno 17394 bound_to 11000
  139.8788  134.9992  156.5942 LP  0  0  0  0  0  0  0  0  0  0  0  0  # atno 17395 bound_to 11000

$$$$
