AV-unprocessed.smi:3166|AV-procd|sdf|12093|dock5
  -GOLD-   2272017523D 1   1.00000     0.00000
 Structure written by MMmdl.
 41 42  0  0  0  0  0  0  0  0  2 V2000
  149.7836  133.9880  154.3899 C   0  0  0  0  0  0  0  0  0  0  0  0
  148.2745  133.7087  154.4262 C   0  0  2  0  0  0  0  0  0  0  0  0
  147.9658  132.3874  155.1728 C   0  0  0  0  0  0  0  0  0  0  0  0
  148.9902  131.3816  154.9584 N   0  0  0  0  0  0  0  0  0  0  0  0
  149.3340  130.7506  153.7812 C   0  0  0  0  0  0  0  0  0  0  0  0
  150.3546  129.8891  154.0651 C   0  0  0  0  0  0  0  0  0  0  0  0
  150.5691  130.0670  155.4603 C   0  0  0  0  0  0  0  0  0  0  0  0
  149.7506  130.9608  155.9916 N   0  0  0  0  0  0  0  0  0  0  0  0
  147.7505  133.6915  153.0421 N   0  3  0  0  0  0  0  0  0  0  0  0
  146.2795  133.7883  152.9166 C   0  0  0  0  0  0  0  0  0  0  0  0
  145.8392  134.2267  151.4991 C   0  0  0  0  0  0  0  0  0  0  0  0
  146.3804  135.5152  151.2768 O   0  0  0  0  0  0  0  0  0  0  0  0
  146.3450  133.2856  150.3779 C   0  0  0  0  0  0  0  0  0  0  0  0
  145.6374  131.9192  150.3975 C   0  0  0  0  0  0  0  0  0  0  0  0
  144.1123  132.0831  150.3073 C   0  0  0  0  0  0  0  0  0  0  0  0
  143.5794  133.0081  151.4126 C   0  0  0  0  0  0  0  0  0  0  0  0
  144.3016  134.3682  151.4039 C   0  0  0  0  0  0  0  0  0  0  0  0
  150.1935  134.0548  155.3983 H   0  0  0  0  0  0  0  0  0  0  0  0
  149.9968  134.9323  153.8879 H   0  0  0  0  0  0  0  0  0  0  0  0
  150.3225  133.2002  153.8621 H   0  0  0  0  0  0  0  0  0  0  0  0
  147.8104  134.5485  154.9468 H   0  0  0  0  0  0  0  0  0  0  0  0
  147.8485  132.5484  156.2458 H   0  0  0  0  0  0  0  0  0  0  0  0
  147.0176  131.9656  154.8362 H   0  0  0  0  0  0  0  0  0  0  0  0
  148.8304  130.9653  152.8500 H   0  0  0  0  0  0  0  0  0  0  0  0
  150.8698  129.2316  153.3804 H   0  0  0  0  0  0  0  0  0  0  0  0
  151.2901  129.5772  156.0982 H   0  0  0  0  0  0  0  0  0  0  0  0
  148.1381  134.4866  152.5542 H   0  0  0  0  0  0  0  0  0  0  0  0
  145.8418  132.8228  153.1591 H   0  0  0  0  0  0  0  0  0  0  0  0
  145.9073  134.4958  153.6591 H   0  0  0  0  0  0  0  0  0  0  0  0
  147.2816  135.5167  151.5635 H   0  0  0  0  0  0  0  0  0  0  0  0
  146.1646  133.7505  149.4072 H   0  0  0  0  0  0  0  0  0  0  0  0
  147.4244  133.1448  150.4407 H   0  0  0  0  0  0  0  0  0  0  0  0
  145.9911  131.3099  149.5654 H   0  0  0  0  0  0  0  0  0  0  0  0
  145.8979  131.3737  151.3048 H   0  0  0  0  0  0  0  0  0  0  0  0
  143.8484  132.4937  149.3319 H   0  0  0  0  0  0  0  0  0  0  0  0
  143.6283  131.1079  150.3718 H   0  0  0  0  0  0  0  0  0  0  0  0
  142.5082  133.1609  151.2781 H   0  0  0  0  0  0  0  0  0  0  0  0
  143.6953  132.5264  152.3837 H   0  0  0  0  0  0  0  0  0  0  0  0
  143.9253  134.9910  152.2167 H   0  0  0  0  0  0  0  0  0  0  0  0
  144.0398  134.8888  150.4812 H   0  0  0  0  0  0  0  0  0  0  0  0
  148.0661  132.8502  152.5815 H   0  0  0  0  0  0  0  0  0  0  0  0
  1  2  1  0  0  0  0
  1 18  1  0  0  0  0
  1 19  1  0  0  0  0
  1 20  1  0  0  0  0
  2  3  1  0  0  0  0
  2  9  1  0  0  0  0
  2 21  1  0  0  0  0
  3  4  1  0  0  0  0
  3 22  1  0  0  0  0
  3 23  1  0  0  0  0
  4  8  1  0  0  0  0
  4  5  1  0  0  0  0
  5  6  2  0  0  0  0
  5 24  1  0  0  0  0
  6  7  1  0  0  0  0
  6 25  1  0  0  0  0
  7  8  2  0  0  0  0
  7 26  1  0  0  0  0
  9 10  1  0  0  0  0
  9 27  1  0  0  0  0
  9 41  1  0  0  0  0
 10 11  1  0  0  0  0
 10 28  1  0  0  0  0
 10 29  1  0  0  0  0
 11 17  1  0  0  0  0
 11 12  1  0  0  0  0
 11 13  1  0  0  0  0
 12 30  1  0  0  0  0
 13 14  1  0  0  0  0
 13 31  1  0  0  0  0
 13 32  1  0  0  0  0
 14 15  1  0  0  0  0
 14 33  1  0  0  0  0
 14 34  1  0  0  0  0
 15 16  1  0  0  0  0
 15 35  1  0  0  0  0
 15 36  1  0  0  0  0
 16 17  1  0  0  0  0
 16 37  1  0  0  0  0
 16 38  1  0  0  0  0
 17 39  1  0  0  0  0
 17 40  1  0  0  0  0
M  CHG  1   9   1
M  END
> <s_m_source_file>
AV-unprocessed.smi

> <i_m_source_file_index>
3166

> <i_lp_mmshare_version>
43012

> <i_f3d_flags>
0

> <s_epik_input>
bjFbY0hdW2NIXVtjSF1uMVtDSDJdW0NAQEhdKFtDSDNdKVtOSF1bQ0gyXUMyKFtPSF0pW0NIMl1bQ0gyXVtDSDJdW0NIMl1bQ0gyXTI=

> <s_epik_cmdline>
J2VwaWtfcHl0aG9uJywgJy1waCcsICc3LjAnLCAnLXRuJywgJzgnLCAnLW1hJywgJzIwMCcsICctbWV0YWxfYmluZGluZycsICctaW1hZScsICc8aW5maWxlLm1hZT4nLCAnLW9tYWUnLCAnPG91dGZpbGUubWFlPic=

> <r_lp_tautomer_probability>
1

> <r_epik_Ionization_Penalty>
0.0111521

> <r_epik_Ionization_Penalty_Charging>
0.0111472

> <r_epik_Ionization_Penalty_Neutral>
4.96355e-06

> <r_epik_State_Penalty>
0.00856328

> <r_epik_Charging_Adjusted_Penalty>
0.0197104

> <i_epik_Tot_Q>
1

> <i_epik_Tot_abs_Q>
1

> <r_epik_Metal_State_Penalty>
0.00856387

> <b_epik_Metal_Only>
0

> <s_lp_Force_Field>
OPLS_2005

> <r_lp_Energy>
18.587

> <b_lp_Chiralities_Consistent>
1

> <s_lp_Variant>
AV-unprocessed.smi:3166-1

> <Gold.Version>
5.8.1

> <Gold.Id.Protein>
6NUR|6NUR_protein|mol2

> <Gold.PLP.Fitness>
40.7278

> <Gold.PLP.PLP>
-29.8839

> <Gold.PLP.part.hbond>
-2.0000

> <Gold.PLP.part.metal>
0.0000

> <Gold.PLP.part.buried>
-3.3850

> <Gold.PLP.part.nonpolar>
-23.1116

> <Gold.PLP.part.repulsive>
0.0000

> <Gold.PLP.ligand.clash>
0.0000

> <Gold.PLP.ligand.torsion>
0.5114

> <Gold.PLP.Chemscore.Hbond>
3.0000

> <Gold.PLP.Chemscore.CHOScore>
0.9448

> <Gold.PLP.Chemscore.Metal>
0.0000

> <Gold.Chemscore.Hbonds>
donor molecule, donor type, donor heavy atom, donor atom, acceptor molecule, acceptor atom, score
      L1  H     9    27       P1  7948  2.00
      L1  H    12    30       P1  7948  1.00
      L1  C     5    24       P1 10747  0.95

> <Gold.PLP.Chemscore.Internal.Correction>
0.0322

> <Gold.Rescore>
     Score         DG    S(hbond)    S(metal)    S(lipo)     H(rot)  DE(clash)    DE(int)     intcor
     14.39     -15.05       1.81        0.00      78.37       2.20       0.12       0.54       ----

> <Gold.Chemscore.Fitness>
14.3862

> <Gold.Chemscore.DG>
-15.0497

> <Gold.Chemscore.ZeroCoef>
-5.4800

> <Gold.Chemscore.Hbond>
1.8053

> <Gold.Chemscore.Metal>
0.0000

> <Gold.Chemscore.Lipo>
78.3745

> <Gold.Chemscore.Internal_Hbond>
0.0000

> <Gold.Chemscore.DEClash>
0.1245

> <Gold.Chemscore.DEInternal>
0.5390

> <Gold.Chemscore.Rot>
2.1991

> <Gold.Chemscore.Internal.Correction>
   9.000000E+99

> <Gold.Chemscore.Hbonds>
donor molecule, donor type, donor heavy atom, donor atom, acceptor molecule, acceptor atom, score
      L1  H     9    27       P1  7948  0.33
      L1  H    12    30       P1  7948  0.96

> <Gold.Chemscore.Hbond.Weighted>
-6.0296

> <Gold.Chemscore.Metal.Weighted>
-0.0000

> <Gold.Chemscore.Lipo.Weighted>
-9.1698

> <Gold.Chemscore.Internal_Hbond.Weighted>
0.0000

> <Gold.Chemscore.DEClash.Weighted>
0.1245

> <Gold.Chemscore.DEInternal.Weighted>
0.5390

> <Gold.Chemscore.Rot.Weighted>
5.6298

> <Gold.Chemscore.Internal.Correction.Weighted>
   9.000000E+99

> <Gold.Protein.RotatedTorsions>
[ 6907 6896 6895 6894 ] final  149.71 input  -60.11 | X-H torsion
[ 7974 7965 7964 7962 ] final  -42.91 input  175.53 | X-H torsion
[ 8008 7997 7996 7995 ] final   91.13 input   59.86 | X-H torsion
[ 10167 10162 10161 10158 ] final  -80.74 input  -65.29 | X-H torsion
[ 10718 10713 10712 10709 ] final  106.76 input   66.30 | X-H torsion
[ 10763 10752 10751 10750 ] final   15.47 input  -60.55 | X-H torsion
[ 11005 11000 10999 10996 ] final   74.27 input  -57.11 | X-H torsion

> <Gold.Protein.ActiveResidues>
 VAL166  LYS551  ARG553  GLY616  TRP617  ASP618  TYR619  PRO620  LYS621  CYS622 
 ASP623  PHE694  ASN695  SER759  ASP760  ASP761  ALA762  ILE779  LEU786  VAL792 
 PHE793  MET794  SER795  GLU796  ALA797  LYS798  CYS799  TRP800  GLU811  SER814 

> <Gold.Protein.RotatedAtoms>
  152.1243  133.4371  159.4690 H   0  0  0  0  0  0  0  0  0  0  0  0  # atno 6907 bound_to 6896
  150.6874  134.2497  159.4515 H   0  0  0  0  0  0  0  0  0  0  0  0  # atno 6908 bound_to 6896
  152.0376  134.9730  160.0624 H   0  0  0  0  0  0  0  0  0  0  0  0  # atno 6909 bound_to 6896
  146.0070  140.7008  142.9243 H   0  0  0  0  0  0  0  0  0  0  0  0  # atno 7974 bound_to 7965
  156.0201  140.3341  155.7030 H   0  0  0  0  0  0  0  0  0  0  0  0  # atno 8008 bound_to 7997
  155.6034  140.0658  157.2744 H   0  0  0  0  0  0  0  0  0  0  0  0  # atno 8009 bound_to 7997
  154.4313  140.1806  156.1185 H   0  0  0  0  0  0  0  0  0  0  0  0  # atno 8010 bound_to 7997
  140.4476  143.2494  151.8536 H   0  0  0  0  0  0  0  0  0  0  0  0  # atno 10167 bound_to 10162
  157.6655  131.0858  150.6055 H   0  0  0  0  0  0  0  0  0  0  0  0  # atno 10718 bound_to 10713
  153.1522  135.6780  153.8865 H   0  0  0  0  0  0  0  0  0  0  0  0  # atno 10763 bound_to 10752
  153.8287  135.3120  155.3418 H   0  0  0  0  0  0  0  0  0  0  0  0  # atno 10764 bound_to 10752
  154.7871  135.4856  154.0057 H   0  0  0  0  0  0  0  0  0  0  0  0  # atno 10765 bound_to 10752
  139.9399  134.7418  156.1127 H   0  0  0  0  0  0  0  0  0  0  0  0  # atno 11005 bound_to 11000
  144.6939  140.3332  143.7212 LP  0  0  0  0  0  0  0  0  0  0  0  0  # atno 17320 bound_to 7965
  145.7400  139.1761  143.2381 LP  0  0  0  0  0  0  0  0  0  0  0  0  # atno 17321 bound_to 7965
  139.4794  144.5158  151.8870 LP  0  0  0  0  0  0  0  0  0  0  0  0  # atno 17342 bound_to 10162
  140.4246  144.2198  150.5887 LP  0  0  0  0  0  0  0  0  0  0  0  0  # atno 17343 bound_to 10162
  156.6356  130.4444  149.5771 LP  0  0  0  0  0  0  0  0  0  0  0  0  # atno 17370 bound_to 10713
  156.2248  130.6759  151.1405 LP  0  0  0  0  0  0  0  0  0  0  0  0  # atno 17371 bound_to 10713
  141.1029  133.6670  156.2796 LP  0  0  0  0  0  0  0  0  0  0  0  0  # atno 17394 bound_to 11000
  140.5979  134.5585  157.5512 LP  0  0  0  0  0  0  0  0  0  0  0  0  # atno 17395 bound_to 11000

$$$$
