AV-unprocessed.smi:1302|AV-procd|sdf|5425|dock6
  -GOLD-   22720 4583D 1   1.00000     0.00000
 Structure written by MMmdl.
 43 44  0  0  0  0  0  0  0  0  1 V2000
  146.7860  139.6706  151.3980 C   0  0  0  0  0  0  0  0  0  0  0  0
  147.1507  138.6805  152.5153 C   0  0  0  0  0  0  0  0  0  0  0  0
  145.9010  138.1285  153.2135 C   0  0  0  0  0  0  0  0  0  0  0  0
  148.0145  139.3227  153.5015 N   0  0  0  0  0  0  0  0  0  0  0  0
  148.4680  138.7519  154.6301 C   0  0  0  0  0  0  0  0  0  0  0  0
  148.1768  137.6078  154.9801 O   0  0  0  0  0  0  0  0  0  0  0  0
  149.3225  139.6270  155.5007 C   0  0  0  0  0  0  0  0  0  0  0  0
  149.8014  140.8657  155.0260 C   0  0  0  0  0  0  0  0  0  0  0  0
  150.5802  141.6728  155.8774 C   0  0  0  0  0  0  0  0  0  0  0  0
  150.8581  141.2253  157.1907 C   0  0  0  0  0  0  0  0  0  0  0  0
  151.6396  142.0169  158.0602 N   0  0  0  0  0  0  0  0  0  0  0  0
  152.1208  141.3458  159.2648 C   0  0  0  0  0  0  0  0  0  0  0  0
  153.2036  142.1945  159.9577 C   0  0  2  0  0  0  0  0  0  0  0  0
  153.6447  141.5847  161.2924 C   0  0  0  0  0  0  0  0  0  0  0  0
  152.6879  143.4983  160.2114 O   0  0  0  0  0  0  0  0  0  0  0  0
  152.3276  144.1835  159.0153 C   0  0  2  0  0  0  0  0  0  0  0  0
  151.8797  145.6003  159.3884 C   0  0  0  0  0  0  0  0  0  0  0  0
  151.2161  143.3952  158.2984 C   0  0  0  0  0  0  0  0  0  0  0  0
  150.3811  140.0427  157.6514 N   0  0  0  0  0  0  0  0  0  0  0  0
  149.6358  139.2721  156.8316 C   0  0  0  0  0  0  0  0  0  0  0  0
  146.1479  139.1983  150.6508 H   0  0  0  0  0  0  0  0  0  0  0  0
  147.6767  140.0344  150.8848 H   0  0  0  0  0  0  0  0  0  0  0  0
  146.2519  140.5358  151.7926 H   0  0  0  0  0  0  0  0  0  0  0  0
  147.6813  137.8365  152.0711 H   0  0  0  0  0  0  0  0  0  0  0  0
  145.2498  137.6175  152.5037 H   0  0  0  0  0  0  0  0  0  0  0  0
  145.3218  138.9249  153.6822 H   0  0  0  0  0  0  0  0  0  0  0  0
  146.1693  137.4101  153.9890 H   0  0  0  0  0  0  0  0  0  0  0  0
  148.2884  140.2758  153.3112 H   0  0  0  0  0  0  0  0  0  0  0  0
  149.5797  141.2005  154.0229 H   0  0  0  0  0  0  0  0  0  0  0  0
  150.9390  142.6263  155.5198 H   0  0  0  0  0  0  0  0  0  0  0  0
  151.2766  141.1905  159.9380 H   0  0  0  0  0  0  0  0  0  0  0  0
  152.5309  140.3620  159.0405 H   0  0  0  0  0  0  0  0  0  0  0  0
  154.0773  142.2758  159.3085 H   0  0  0  0  0  0  0  0  0  0  0  0
  154.0624  140.5879  161.1495 H   0  0  0  0  0  0  0  0  0  0  0  0
  152.8061  141.5009  161.9843 H   0  0  0  0  0  0  0  0  0  0  0  0
  154.4086  142.2002  161.7681 H   0  0  0  0  0  0  0  0  0  0  0  0
  153.2025  144.2568  158.3669 H   0  0  0  0  0  0  0  0  0  0  0  0
  151.6001  146.1698  158.5017 H   0  0  0  0  0  0  0  0  0  0  0  0
  152.6806  146.1418  159.8922 H   0  0  0  0  0  0  0  0  0  0  0  0
  151.0194  145.5787  160.0582 H   0  0  0  0  0  0  0  0  0  0  0  0
  150.9791  143.8841  157.3525 H   0  0  0  0  0  0  0  0  0  0  0  0
  150.3073  143.3919  158.9020 H   0  0  0  0  0  0  0  0  0  0  0  0
  149.2791  138.3478  157.2624 H   0  0  0  0  0  0  0  0  0  0  0  0
  1  2  1  0  0  0  0
  1 21  1  0  0  0  0
  1 22  1  0  0  0  0
  1 23  1  0  0  0  0
  2  3  1  0  0  0  0
  2  4  1  0  0  0  0
  2 24  1  0  0  0  0
  3 25  1  0  0  0  0
  3 26  1  0  0  0  0
  3 27  1  0  0  0  0
  4  5  1  0  0  0  0
  4 28  1  0  0  0  0
  5  6  2  0  0  0  0
  5  7  1  0  0  0  0
  7 20  1  0  0  0  0
  7  8  2  0  0  0  0
  8  9  1  0  0  0  0
  8 29  1  0  0  0  0
  9 10  2  0  0  0  0
  9 30  1  0  0  0  0
 10 11  1  0  0  0  0
 10 19  1  0  0  0  0
 11 18  1  0  0  0  0
 11 12  1  0  0  0  0
 12 13  1  0  0  0  0
 12 31  1  0  0  0  0
 12 32  1  0  0  0  0
 13 14  1  0  0  0  0
 13 15  1  0  0  0  0
 13 33  1  0  0  0  0
 14 34  1  0  0  0  0
 14 35  1  0  0  0  0
 14 36  1  0  0  0  0
 15 16  1  0  0  0  0
 16 17  1  0  0  0  0
 16 18  1  0  0  0  0
 16 37  1  0  0  0  0
 17 38  1  0  0  0  0
 17 39  1  0  0  0  0
 17 40  1  0  0  0  0
 18 41  1  0  0  0  0
 18 42  1  0  0  0  0
 19 20  2  0  0  0  0
 20 43  1  0  0  0  0
M  END
> <s_m_source_file>
AV-unprocessed.smi

> <i_m_source_file_index>
1302

> <i_lp_mmshare_version>
43012

> <i_f3d_flags>
0

> <s_epik_input>
W0NIM11bQ0hdKFtDSDNdKVtOSF1DKD1PKWMxW2NIXVtjSF1jKG5bY0hdMSlOMltDSDJdW0NAQEhdKFtDSDNdKU9bQ0BASF0oW0NIM10pW0NIMl0y

> <s_epik_cmdline>
J2VwaWtfcHl0aG9uJywgJy1waCcsICc3LjAnLCAnLXRuJywgJzgnLCAnLW1hJywgJzIwMCcsICctbWV0YWxfYmluZGluZycsICctaW1hZScsICc8aW5maWxlLm1hZT4nLCAnLW9tYWUnLCAnPG91dGZpbGUubWFlPic=

> <r_lp_tautomer_probability>
1

> <r_epik_Ionization_Penalty>
2.23089e-05

> <r_epik_Ionization_Penalty_Charging>
0

> <r_epik_Ionization_Penalty_Neutral>
2.23089e-05

> <r_epik_State_Penalty>
-0

> <r_epik_Charging_Adjusted_Penalty>
0

> <i_epik_Tot_Q>
0

> <i_epik_Tot_abs_Q>
0

> <r_epik_Metal_State_Penalty>
-0

> <b_epik_Metal_Only>
0

> <s_lp_Force_Field>
OPLS_2005

> <r_lp_Energy>
16.9164

> <b_lp_Chiralities_Consistent>
1

> <s_lp_Variant>
AV-unprocessed.smi:1302-1

> <Gold.Version>
5.8.1

> <Gold.Id.Protein>
6NUR|6NUR_protein|mol2

> <Gold.PLP.Fitness>
38.0022

> <Gold.PLP.PLP>
-38.1881

> <Gold.PLP.part.hbond>
-1.0000

> <Gold.PLP.part.metal>
0.0000

> <Gold.PLP.part.buried>
0.6918

> <Gold.PLP.part.nonpolar>
-36.5723

> <Gold.PLP.part.repulsive>
0.1681

> <Gold.PLP.ligand.clash>
0.0000

> <Gold.PLP.ligand.torsion>
0.2625

> <Gold.PLP.Chemscore.Hbond>
0.0000

> <Gold.PLP.Chemscore.CHOScore>
0.0000

> <Gold.PLP.Chemscore.Metal>
0.0000

> <Gold.PLP.Chemscore.Internal.Correction>
0.3390

> <Gold.Rescore>
     Score         DG    S(hbond)    S(metal)    S(lipo)     H(rot)  DE(clash)    DE(int)     intcor
     14.28     -15.84       0.00        0.00     113.76       1.15       0.46       1.10       ----

> <Gold.Chemscore.Fitness>
14.2839

> <Gold.Chemscore.DG>
-15.8440

> <Gold.Chemscore.ZeroCoef>
-5.4800

> <Gold.Chemscore.Hbond>
0.0000

> <Gold.Chemscore.Metal>
0.0000

> <Gold.Chemscore.Lipo>
113.7613

> <Gold.Chemscore.Internal_Hbond>
0.0000

> <Gold.Chemscore.DEClash>
0.4630

> <Gold.Chemscore.DEInternal>
1.0971

> <Gold.Chemscore.Rot>
1.1508

> <Gold.Chemscore.Internal.Correction>
   9.000000E+99

> <Gold.Chemscore.Hbond.Weighted>
-0.0000

> <Gold.Chemscore.Metal.Weighted>
-0.0000

> <Gold.Chemscore.Lipo.Weighted>
-13.3101

> <Gold.Chemscore.Internal_Hbond.Weighted>
0.0000

> <Gold.Chemscore.DEClash.Weighted>
0.4630

> <Gold.Chemscore.DEInternal.Weighted>
1.0971

> <Gold.Chemscore.Rot.Weighted>
2.9461

> <Gold.Chemscore.Internal.Correction.Weighted>
   9.000000E+99

> <Gold.Protein.RotatedTorsions>
[ 6907 6896 6895 6894 ] final -149.07 input  -60.11 | X-H torsion
[ 7974 7965 7964 7962 ] final  158.00 input  175.53 | X-H torsion
[ 8008 7997 7996 7995 ] final  125.71 input   59.86 | X-H torsion
[ 10167 10162 10161 10158 ] final -106.83 input  -65.29 | X-H torsion
[ 10718 10713 10712 10709 ] final  172.30 input   66.30 | X-H torsion
[ 10763 10752 10751 10750 ] final  164.55 input  -60.55 | X-H torsion
[ 11005 11000 10999 10996 ] final  112.13 input  -57.11 | X-H torsion

> <Gold.Protein.ActiveResidues>
 VAL166  LYS551  ARG553  GLY616  TRP617  ASP618  TYR619  PRO620  LYS621  CYS622 
 ASP623  PHE694  ASN695  SER759  ASP760  ASP761  ALA762  ILE779  LEU786  VAL792 
 PHE793  MET794  SER795  GLU796  ALA797  LYS798  CYS799  TRP800  GLU811  SER814 

> <Gold.Protein.RotatedAtoms>
  151.1788  133.4738  159.2593 H   0  0  0  0  0  0  0  0  0  0  0  0  # atno 6907 bound_to 6896
  151.1280  135.0115  159.8579 H   0  0  0  0  0  0  0  0  0  0  0  0  # atno 6908 bound_to 6896
  152.5459  134.1694  159.8643 H   0  0  0  0  0  0  0  0  0  0  0  0  # atno 6909 bound_to 6896
  144.7871  139.7418  143.6236 H   0  0  0  0  0  0  0  0  0  0  0  0  # atno 7974 bound_to 7965
  156.2842  140.2710  156.1993 H   0  0  0  0  0  0  0  0  0  0  0  0  # atno 8008 bound_to 7997
  155.0378  140.0386  157.2516 H   0  0  0  0  0  0  0  0  0  0  0  0  # atno 8009 bound_to 7997
  154.7300  140.2704  155.6470 H   0  0  0  0  0  0  0  0  0  0  0  0  # atno 8010 bound_to 7997
  140.1836  143.3947  152.1262 H   0  0  0  0  0  0  0  0  0  0  0  0  # atno 10167 bound_to 10162
  156.9809  131.0118  151.2882 H   0  0  0  0  0  0  0  0  0  0  0  0  # atno 10718 bound_to 10713
  154.3106  135.2757  155.2568 H   0  0  0  0  0  0  0  0  0  0  0  0  # atno 10763 bound_to 10752
  154.4965  135.5820  153.6502 H   0  0  0  0  0  0  0  0  0  0  0  0  # atno 10764 bound_to 10752
  152.9888  135.6147  154.3283 H   0  0  0  0  0  0  0  0  0  0  0  0  # atno 10765 bound_to 10752
  139.8920  134.9523  156.6538 H   0  0  0  0  0  0  0  0  0  0  0  0  # atno 11005 bound_to 11000
  146.2107  139.5462  142.9683 LP  0  0  0  0  0  0  0  0  0  0  0  0  # atno 17320 bound_to 7965
  145.5893  141.0372  143.2079 LP  0  0  0  0  0  0  0  0  0  0  0  0  # atno 17321 bound_to 7965
  139.5286  144.7132  151.5139 LP  0  0  0  0  0  0  0  0  0  0  0  0  # atno 17342 bound_to 10162
  140.6503  143.8710  150.6779 LP  0  0  0  0  0  0  0  0  0  0  0  0  # atno 17343 bound_to 10162
  157.5527  130.8193  149.8165 LP  0  0  0  0  0  0  0  0  0  0  0  0  # atno 17370 bound_to 10713
  156.0245  130.3784  150.1864 LP  0  0  0  0  0  0  0  0  0  0  0  0  # atno 17371 bound_to 10713
  140.7500  133.8905  155.8340 LP  0  0  0  0  0  0  0  0  0  0  0  0  # atno 17394 bound_to 11000
  141.0008  134.1152  157.4318 LP  0  0  0  0  0  0  0  0  0  0  0  0  # atno 17395 bound_to 11000

$$$$
