AV-unprocessed.smi:1747|AV-procd|sdf|7035|dock7
  -GOLD-   22720 8253D 1   1.00000     0.00000
 Structure written by MMmdl.
 40 41  0  0  0  0  0  0  0  0  1 V2000
  153.2525  142.1400  160.0813 C   0  0  0  0  0  0  0  0  0  0  0  0
  153.1778  140.9332  159.1430 C   0  0  0  0  0  0  0  0  0  0  0  0
  154.1102  140.1296  159.1619 O   0  0  0  0  0  0  0  0  0  0  0  0
  152.1038  140.7904  158.3295 N   0  0  0  0  0  0  0  0  0  0  0  0
  150.9735  141.7281  158.2353 C   0  0  0  0  0  0  0  0  0  0  0  0
  150.9299  142.3201  156.8127 C   0  0  0  0  0  0  0  0  0  0  0  0
  150.7937  141.2178  155.8407 N   0  0  0  0  0  0  0  0  0  0  0  0
  149.7347  140.9855  155.0237 C   0  0  0  0  0  0  0  0  0  0  0  0
  149.6121  139.9636  154.3470 O   0  0  0  0  0  0  0  0  0  0  0  0
  148.8221  141.9686  154.9945 N   0  0  0  0  0  0  0  0  0  0  0  0
  147.6267  141.9791  154.1606 C   0  0  0  0  0  0  0  0  0  0  0  0
  146.3416  141.8811  155.0024 C   0  0  0  0  0  0  0  0  0  0  0  0
  145.5064  143.1295  154.9708 C   0  0  0  0  0  0  0  0  0  0  0  0
  145.0259  143.7687  153.8554 C   0  0  0  0  0  0  0  0  0  0  0  0
  144.1259  145.2034  154.2645 S   0  0  0  0  0  0  0  0  0  0  0  0
  144.4396  144.8782  155.9644 C   0  0  0  0  0  0  0  0  0  0  0  0
  143.9514  145.7541  157.0665 C   0  0  0  0  0  0  0  0  0  0  0  0
  145.1609  143.7728  156.1645 N   0  0  0  0  0  0  0  0  0  0  0  0
  151.9295  140.2877  155.9328 C   0  0  0  0  0  0  0  0  0  0  0  0
  151.9835  139.6949  157.3553 C   0  0  0  0  0  0  0  0  0  0  0  0
  153.2350  143.0713  159.5147 H   0  0  0  0  0  0  0  0  0  0  0  0
  154.1774  142.1205  160.6587 H   0  0  0  0  0  0  0  0  0  0  0  0
  152.4205  142.1355  160.7861 H   0  0  0  0  0  0  0  0  0  0  0  0
  150.0474  141.1910  158.4465 H   0  0  0  0  0  0  0  0  0  0  0  0
  151.0149  142.5384  158.9610 H   0  0  0  0  0  0  0  0  0  0  0  0
  150.1363  143.0649  156.7582 H   0  0  0  0  0  0  0  0  0  0  0  0
  151.8523  142.8648  156.6052 H   0  0  0  0  0  0  0  0  0  0  0  0
  148.9820  142.7824  155.5711 H   0  0  0  0  0  0  0  0  0  0  0  0
  147.6127  142.9032  153.5805 H   0  0  0  0  0  0  0  0  0  0  0  0
  147.6687  141.1552  153.4470 H   0  0  0  0  0  0  0  0  0  0  0  0
  145.7530  141.0323  154.6532 H   0  0  0  0  0  0  0  0  0  0  0  0
  146.6094  141.6449  156.0331 H   0  0  0  0  0  0  0  0  0  0  0  0
  145.1522  143.4871  152.8204 H   0  0  0  0  0  0  0  0  0  0  0  0
  144.1895  145.3189  158.0375 H   0  0  0  0  0  0  0  0  0  0  0  0
  142.8707  145.8774  156.9943 H   0  0  0  0  0  0  0  0  0  0  0  0
  144.4225  146.7346  156.9981 H   0  0  0  0  0  0  0  0  0  0  0  0
  151.8740  139.4777  155.2044 H   0  0  0  0  0  0  0  0  0  0  0  0
  152.8533  140.8246  155.7117 H   0  0  0  0  0  0  0  0  0  0  0  0
  152.8051  138.9803  157.4183 H   0  0  0  0  0  0  0  0  0  0  0  0
  151.0753  139.1274  157.5632 H   0  0  0  0  0  0  0  0  0  0  0  0
  1  2  1  0  0  0  0
  1 21  1  0  0  0  0
  1 22  1  0  0  0  0
  1 23  1  0  0  0  0
  2  3  2  0  0  0  0
  2  4  1  0  0  0  0
  4 20  1  0  0  0  0
  4  5  1  0  0  0  0
  5  6  1  0  0  0  0
  5 24  1  0  0  0  0
  5 25  1  0  0  0  0
  6  7  1  0  0  0  0
  6 26  1  0  0  0  0
  6 27  1  0  0  0  0
  7  8  1  0  0  0  0
  7 19  1  0  0  0  0
  8  9  2  0  0  0  0
  8 10  1  0  0  0  0
 10 11  1  0  0  0  0
 10 28  1  0  0  0  0
 11 12  1  0  0  0  0
 11 29  1  0  0  0  0
 11 30  1  0  0  0  0
 12 13  1  0  0  0  0
 12 31  1  0  0  0  0
 12 32  1  0  0  0  0
 13 18  1  0  0  0  0
 13 14  2  0  0  0  0
 14 15  1  0  0  0  0
 14 33  1  0  0  0  0
 15 16  1  0  0  0  0
 16 17  1  0  0  0  0
 16 18  2  0  0  0  0
 17 34  1  0  0  0  0
 17 35  1  0  0  0  0
 17 36  1  0  0  0  0
 19 20  1  0  0  0  0
 19 37  1  0  0  0  0
 19 38  1  0  0  0  0
 20 39  1  0  0  0  0
 20 40  1  0  0  0  0
M  END
> <s_m_source_file>
AV-unprocessed.smi

> <i_m_source_file_index>
1747

> <i_lp_mmshare_version>
43012

> <i_f3d_flags>
0

> <s_epik_input>
W0NIM11DKD1PKU4xW0NIMl1bQ0gyXU4oW0NIMl1bQ0gyXTEpQyg9TylbTkhdW0NIMl1bQ0gyXWMyW2NIXXNjKG4yKVtDSDNd

> <s_epik_cmdline>
J2VwaWtfcHl0aG9uJywgJy1waCcsICc3LjAnLCAnLXRuJywgJzgnLCAnLW1hJywgJzIwMCcsICctbWV0YWxfYmluZGluZycsICctaW1hZScsICc8aW5maWxlLm1hZT4nLCAnLW9tYWUnLCAnPG91dGZpbGUubWFlPic=

> <r_epik_Ionization_Penalty>
0.00199956

> <r_epik_Ionization_Penalty_Charging>
0

> <r_epik_Ionization_Penalty_Neutral>
0.00199956

> <r_epik_State_Penalty>
0.00133382

> <r_epik_Charging_Adjusted_Penalty>
0.00133382

> <i_epik_Tot_Q>
0

> <i_epik_Tot_abs_Q>
0

> <r_epik_Metal_State_Penalty>
-0

> <b_epik_Metal_Only>
0

> <s_lp_Force_Field>
OPLS_2005

> <r_lp_Energy>
44.3218

> <b_lp_Chiralities_Consistent>
1

> <s_lp_Variant>
AV-unprocessed.smi:1747-1

> <Gold.Version>
5.8.1

> <Gold.Id.Protein>
6NUR|6NUR_protein|mol2

> <Gold.PLP.Fitness>
45.2968

> <Gold.PLP.PLP>
-40.4073

> <Gold.PLP.part.hbond>
-2.2860

> <Gold.PLP.part.metal>
0.0000

> <Gold.PLP.part.buried>
-4.8230

> <Gold.PLP.part.nonpolar>
-33.7767

> <Gold.PLP.part.repulsive>
0.4500

> <Gold.PLP.ligand.clash>
0.0000

> <Gold.PLP.ligand.torsion>
0.4302

> <Gold.PLP.Chemscore.Hbond>
1.8632

> <Gold.PLP.Chemscore.CHOScore>
0.0468

> <Gold.PLP.Chemscore.Metal>
0.0000

> <Gold.Chemscore.Hbonds>
donor molecule, donor type, donor heavy atom, donor atom, acceptor molecule, acceptor atom, score
      L1  H    10    28       P1  8028  0.90
      P1  H  7997  8009       L1     3  0.90
      L1  C    14    33       P1 10174  0.04

> <Gold.PLP.Chemscore.Internal.Correction>
0.0199

> <Gold.Rescore>
     Score         DG    S(hbond)    S(metal)    S(lipo)     H(rot)  DE(clash)    DE(int)     intcor
     15.25     -16.15       1.64        0.00      74.47       1.38       0.49       0.41       ----

> <Gold.Chemscore.Fitness>
15.2524

> <Gold.Chemscore.DG>
-16.1457

> <Gold.Chemscore.ZeroCoef>
-5.4800

> <Gold.Chemscore.Hbond>
1.6412

> <Gold.Chemscore.Metal>
0.0000

> <Gold.Chemscore.Lipo>
74.4724

> <Gold.Chemscore.Internal_Hbond>
0.0000

> <Gold.Chemscore.DEClash>
0.4875

> <Gold.Chemscore.DEInternal>
0.4058

> <Gold.Chemscore.Rot>
1.3786

> <Gold.Chemscore.Internal.Correction>
   9.000000E+99

> <Gold.Chemscore.Hbonds>
donor molecule, donor type, donor heavy atom, donor atom, acceptor molecule, acceptor atom, score
      L1  H    10    28       P1  8028  0.88
      P1  H  7997  8009       L1     3  0.50

> <Gold.Chemscore.Hbond.Weighted>
-5.4815

> <Gold.Chemscore.Metal.Weighted>
-0.0000

> <Gold.Chemscore.Lipo.Weighted>
-8.7133

> <Gold.Chemscore.Internal_Hbond.Weighted>
0.0000

> <Gold.Chemscore.DEClash.Weighted>
0.4875

> <Gold.Chemscore.DEInternal.Weighted>
0.4058

> <Gold.Chemscore.Rot.Weighted>
3.5291

> <Gold.Chemscore.Internal.Correction.Weighted>
   9.000000E+99

> <Gold.Protein.RotatedTorsions>
[ 6907 6896 6895 6894 ] final   93.85 input  -60.11 | X-H torsion
[ 7974 7965 7964 7962 ] final  -25.28 input  175.53 | X-H torsion
[ 8008 7997 7996 7995 ] final  133.78 input   59.86 | X-H torsion
[ 10167 10162 10161 10158 ] final  -63.33 input  -65.29 | X-H torsion
[ 10718 10713 10712 10709 ] final  -72.31 input   66.30 | X-H torsion
[ 10763 10752 10751 10750 ] final  -99.54 input  -60.55 | X-H torsion
[ 11005 11000 10999 10996 ] final   74.76 input  -57.11 | X-H torsion

> <Gold.Protein.ActiveResidues>
 VAL166  LYS551  ARG553  GLY616  TRP617  ASP618  TYR619  PRO620  LYS621  CYS622 
 ASP623  PHE694  ASN695  SER759  ASP760  ASP761  ALA762  ILE779  LEU786  VAL792 
 PHE793  MET794  SER795  GLU796  ALA797  LYS798  CYS799  TRP800  GLU811  SER814 

> <Gold.Protein.RotatedAtoms>
  152.5451  134.1285  159.8428 H   0  0  0  0  0  0  0  0  0  0  0  0  # atno 6907 bound_to 6896
  151.1333  133.5014  159.2606 H   0  0  0  0  0  0  0  0  0  0  0  0  # atno 6908 bound_to 6896
  151.1652  135.0302  159.8782 H   0  0  0  0  0  0  0  0  0  0  0  0  # atno 6909 bound_to 6896
  146.1501  140.4866  142.8615 H   0  0  0  0  0  0  0  0  0  0  0  0  # atno 7974 bound_to 7965
  156.2995  140.2513  156.3309 H   0  0  0  0  0  0  0  0  0  0  0  0  # atno 8008 bound_to 7997
  154.9146  140.0402  157.1984 H   0  0  0  0  0  0  0  0  0  0  0  0  # atno 8009 bound_to 7997
  154.8371  140.2885  155.5688 H   0  0  0  0  0  0  0  0  0  0  0  0  # atno 8010 bound_to 7997
  140.5878  143.2336  151.6206 H   0  0  0  0  0  0  0  0  0  0  0  0  # atno 10167 bound_to 10162
  156.0325  130.4369  150.2574 H   0  0  0  0  0  0  0  0  0  0  0  0  # atno 10718 bound_to 10713
  154.7506  135.4968  153.9282 H   0  0  0  0  0  0  0  0  0  0  0  0  # atno 10763 bound_to 10752
  153.1139  135.6716  153.9459 H   0  0  0  0  0  0  0  0  0  0  0  0  # atno 10764 bound_to 10752
  153.9211  135.3088  155.3426 H   0  0  0  0  0  0  0  0  0  0  0  0  # atno 10765 bound_to 10752
  139.9376  134.7460  156.1187 H   0  0  0  0  0  0  0  0  0  0  0  0  # atno 11005 bound_to 11000
  144.7893  140.6000  143.6552 LP  0  0  0  0  0  0  0  0  0  0  0  0  # atno 17320 bound_to 7965
  145.4844  139.1493  143.3744 LP  0  0  0  0  0  0  0  0  0  0  0  0  # atno 17321 bound_to 7965
  139.5208  144.3211  152.0909 LP  0  0  0  0  0  0  0  0  0  0  0  0  # atno 17342 bound_to 10162
  140.2371  144.4308  150.6275 LP  0  0  0  0  0  0  0  0  0  0  0  0  # atno 17343 bound_to 10162
  157.0676  131.0107  151.3201 LP  0  0  0  0  0  0  0  0  0  0  0  0  # atno 17370 bound_to 10713
  157.5024  130.7888  149.7618 LP  0  0  0  0  0  0  0  0  0  0  0  0  # atno 17371 bound_to 10713
  141.0996  133.6682  156.2724 LP  0  0  0  0  0  0  0  0  0  0  0  0  # atno 17394 bound_to 11000
  140.6036  134.5530  157.5522 LP  0  0  0  0  0  0  0  0  0  0  0  0  # atno 17395 bound_to 11000

$$$$
