AV-unprocessed.smi:1027|AV-procd|sdf|4472|dock3
  -GOLD-   22720 2443D 1   1.00000     0.00000
 Structure written by MMmdl.
 34 35  0  0  0  0  0  0  0  0  2 V2000
  151.6263  140.1780  155.6030 C   0  0  0  0  0  0  0  0  0  0  0  0
  151.8150  138.6608  155.4074 C   0  0  0  0  0  0  0  0  0  0  0  0
  151.0371  138.2056  154.1592 C   0  0  0  0  0  0  0  0  0  0  0  0
  151.4273  137.8530  156.6745 C   0  0  1  0  0  0  0  0  0  0  0  0
  151.5471  136.3286  156.4853 C   0  0  0  0  0  0  0  0  0  0  0  0
  152.2666  138.2559  157.8038 N   0  0  0  0  0  0  0  0  0  0  0  0
  152.1402  137.8511  159.0763 C   0  0  0  0  0  0  0  0  0  0  0  0
  151.2548  137.0500  159.3845 O   0  0  0  0  0  0  0  0  0  0  0  0
  153.0486  138.4013  159.9138 N   0  5  0  0  0  0  0  0  0  0  0  0
  153.2086  139.7345  159.9480 C   0  0  0  0  0  0  0  0  0  0  0  0
  154.3307  140.3126  160.3993 N   0  0  0  0  0  0  0  0  0  0  0  0
  154.2883  141.6981  160.3467 N   0  0  0  0  0  0  0  0  0  0  0  0
  153.1345  142.1483  159.8477 C   0  0  0  0  0  0  0  0  0  0  0  0
  152.8443  143.6037  159.6929 C   0  0  0  0  0  0  0  0  0  0  0  0
  151.4852  144.0752  159.2287 C   0  0  0  0  0  0  0  0  0  0  0  0
  152.6830  144.2381  158.3287 C   0  0  0  0  0  0  0  0  0  0  0  0
  151.9986  140.8892  159.3897 S   0  0  0  0  0  0  0  0  0  0  0  0
  150.5923  140.4172  155.8528 H   0  0  0  0  0  0  0  0  0  0  0  0
  151.8836  140.7261  154.6962 H   0  0  0  0  0  0  0  0  0  0  0  0
  152.2596  140.5689  156.3996 H   0  0  0  0  0  0  0  0  0  0  0  0
  152.8745  138.4907  155.2103 H   0  0  0  0  0  0  0  0  0  0  0  0
  149.9606  138.2860  154.3126 H   0  0  0  0  0  0  0  0  0  0  0  0
  151.2631  137.1736  153.8936 H   0  0  0  0  0  0  0  0  0  0  0  0
  151.2940  138.8160  153.2931 H   0  0  0  0  0  0  0  0  0  0  0  0
  150.3872  138.0859  156.9104 H   0  0  0  0  0  0  0  0  0  0  0  0
  150.8487  135.9572  155.7361 H   0  0  0  0  0  0  0  0  0  0  0  0
  151.3238  135.7985  157.4118 H   0  0  0  0  0  0  0  0  0  0  0  0
  152.5542  136.0453  156.1776 H   0  0  0  0  0  0  0  0  0  0  0  0
  153.0082  138.9106  157.6039 H   0  0  0  0  0  0  0  0  0  0  0  0
  153.3488  144.1807  160.4653 H   0  0  0  0  0  0  0  0  0  0  0  0
  150.7531  143.3172  158.9569 H   0  0  0  0  0  0  0  0  0  0  0  0
  151.0794  144.9706  159.6947 H   0  0  0  0  0  0  0  0  0  0  0  0
  153.0773  145.2432  158.1940 H   0  0  0  0  0  0  0  0  0  0  0  0
  152.7366  143.5955  157.4523 H   0  0  0  0  0  0  0  0  0  0  0  0
  1  2  1  0  0  0  0
  1 18  1  0  0  0  0
  1 19  1  0  0  0  0
  1 20  1  0  0  0  0
  2  3  1  0  0  0  0
  2  4  1  0  0  0  0
  2 21  1  0  0  0  0
  3 22  1  0  0  0  0
  3 23  1  0  0  0  0
  3 24  1  0  0  0  0
  4  5  1  0  0  0  0
  4  6  1  0  0  0  0
  4 25  1  0  0  0  0
  5 26  1  0  0  0  0
  5 27  1  0  0  0  0
  5 28  1  0  0  0  0
  6  7  1  0  0  0  0
  6 29  1  0  0  0  0
  7  8  2  0  0  0  0
  7  9  1  0  0  0  0
  9 10  1  0  0  0  0
 10 17  1  0  0  0  0
 10 11  2  0  0  0  0
 11 12  1  0  0  0  0
 12 13  2  0  0  0  0
 13 14  1  0  0  0  0
 13 17  1  0  0  0  0
 14 16  1  0  0  0  0
 14 15  1  0  0  0  0
 14 30  1  0  0  0  0
 15 16  1  0  0  0  0
 15 31  1  0  0  0  0
 15 32  1  0  0  0  0
 16 33  1  0  0  0  0
 16 34  1  0  0  0  0
M  CHG  1   9  -1
M  END
> <s_m_source_file>
AV-unprocessed.smi

> <i_m_source_file_index>
1027

> <i_lp_mmshare_version>
43012

> <i_f3d_flags>
0

> <s_epik_input>
W0NIM11bQ0hdKFtDSDNdKVtDQEhdKFtDSDNdKVtOSF1DKD1PKVtOSF1jMW5uYyhzMSlbQ0hdMltDSDJdW0NIMl0y

> <s_epik_cmdline>
J2VwaWtfcHl0aG9uJywgJy1waCcsICc3LjAnLCAnLXRuJywgJzgnLCAnLW1hJywgJzIwMCcsICctbWV0YWxfYmluZGluZycsICctaW1hZScsICc8aW5maWxlLm1hZT4nLCAnLW9tYWUnLCAnPG91dGZpbGUubWFlPic=

> <r_lp_tautomer_probability>
1

> <r_epik_Ionization_Penalty>
3.99975

> <r_epik_Ionization_Penalty_Charging>
3.83446

> <r_epik_Ionization_Penalty_Neutral>
0.165297

> <r_epik_State_Penalty>
3.83354

> <r_epik_Charging_Adjusted_Penalty>
7.668

> <i_epik_Tot_Q>
-1

> <i_epik_Tot_abs_Q>
1

> <r_epik_Metal_State_Penalty>
0.575872

> <b_epik_Metal_Only>
1

> <s_lp_Force_Field>
OPLS_2005

> <r_lp_Energy>
2.2869

> <b_lp_Chiralities_Consistent>
1

> <s_lp_Variant>
AV-unprocessed.smi:1027-4

> <Gold.Version>
5.8.1

> <Gold.Id.Protein>
6NUR|6NUR_protein|mol2

> <Gold.PLP.Fitness>
35.5716

> <Gold.PLP.PLP>
-33.7196

> <Gold.PLP.part.hbond>
-1.0000

> <Gold.PLP.part.metal>
0.0000

> <Gold.PLP.part.buried>
-3.7748

> <Gold.PLP.part.nonpolar>
-28.7614

> <Gold.PLP.part.repulsive>
0.0720

> <Gold.PLP.ligand.clash>
0.0000

> <Gold.PLP.ligand.torsion>
0.6646

> <Gold.PLP.Chemscore.Hbond>
1.0000

> <Gold.PLP.Chemscore.CHOScore>
0.0000

> <Gold.PLP.Chemscore.Metal>
0.0000

> <Gold.Chemscore.Hbonds>
donor molecule, donor type, donor heavy atom, donor atom, acceptor molecule, acceptor atom, score
      P1  H  6896  6909       L1     8  1.00

> <Gold.PLP.Chemscore.Internal.Correction>
0.1811

> <Gold.Rescore>
     Score         DG    S(hbond)    S(metal)    S(lipo)     H(rot)  DE(clash)    DE(int)     intcor
     14.89     -15.70       0.98        0.00      89.18       1.36       0.04       0.77       ----

> <Gold.Chemscore.Fitness>
14.8875

> <Gold.Chemscore.DG>
-15.7025

> <Gold.Chemscore.ZeroCoef>
-5.4800

> <Gold.Chemscore.Hbond>
0.9806

> <Gold.Chemscore.Metal>
0.0000

> <Gold.Chemscore.Lipo>
89.1759

> <Gold.Chemscore.Internal_Hbond>
0.0000

> <Gold.Chemscore.DEClash>
0.0402

> <Gold.Chemscore.DEInternal>
0.7747

> <Gold.Chemscore.Rot>
1.3618

> <Gold.Chemscore.Internal.Correction>
   9.000000E+99

> <Gold.Chemscore.Hbonds>
donor molecule, donor type, donor heavy atom, donor atom, acceptor molecule, acceptor atom, score
      P1  H  6896  6909       L1     8  0.98

> <Gold.Chemscore.Hbond.Weighted>
-3.2752

> <Gold.Chemscore.Metal.Weighted>
-0.0000

> <Gold.Chemscore.Lipo.Weighted>
-10.4336

> <Gold.Chemscore.Internal_Hbond.Weighted>
0.0000

> <Gold.Chemscore.DEClash.Weighted>
0.0402

> <Gold.Chemscore.DEInternal.Weighted>
0.7747

> <Gold.Chemscore.Rot.Weighted>
3.4863

> <Gold.Chemscore.Internal.Correction.Weighted>
   9.000000E+99

> <Gold.Protein.RotatedTorsions>
[ 6907 6896 6895 6894 ] final  111.24 input  -60.11 | X-H torsion
[ 7974 7965 7964 7962 ] final  -55.57 input  175.53 | X-H torsion
[ 8008 7997 7996 7995 ] final -151.88 input   59.86 | X-H torsion
[ 10167 10162 10161 10158 ] final  -14.43 input  -65.29 | X-H torsion
[ 10718 10713 10712 10709 ] final -169.56 input   66.30 | X-H torsion
[ 10763 10752 10751 10750 ] final -169.87 input  -60.55 | X-H torsion
[ 11005 11000 10999 10996 ] final   12.50 input  -57.11 | X-H torsion

> <Gold.Protein.ActiveResidues>
 VAL166  LYS551  ARG553  GLY616  TRP617  ASP618  TYR619  PRO620  LYS621  CYS622 
 ASP623  PHE694  ASN695  SER759  ASP760  ASP761  ALA762  ILE779  LEU786  VAL792 
 PHE793  MET794  SER795  GLU796  ALA797  LYS798  CYS799  TRP800  GLU811  SER814 

> <Gold.Protein.RotatedAtoms>
  152.4979  133.8685  159.7286 H   0  0  0  0  0  0  0  0  0  0  0  0  # atno 6907 bound_to 6896
  150.9178  133.6909  159.2846 H   0  0  0  0  0  0  0  0  0  0  0  0  # atno 6908 bound_to 6896
  151.4296  135.1012  159.9691 H   0  0  0  0  0  0  0  0  0  0  0  0  # atno 6909 bound_to 6896
  145.8726  140.8204  142.9880 H   0  0  0  0  0  0  0  0  0  0  0  0  # atno 7974 bound_to 7965
  155.6463  140.0707  157.2602 H   0  0  0  0  0  0  0  0  0  0  0  0  # atno 8008 bound_to 7997
  154.4172  140.1741  156.1676 H   0  0  0  0  0  0  0  0  0  0  0  0  # atno 8009 bound_to 7997
  155.9814  140.3353  155.6670 H   0  0  0  0  0  0  0  0  0  0  0  0  # atno 8010 bound_to 7997
  140.7201  143.5323  150.9506 H   0  0  0  0  0  0  0  0  0  0  0  0  # atno 10167 bound_to 10162
  156.7133  130.9242  151.3091 H   0  0  0  0  0  0  0  0  0  0  0  0  # atno 10718 bound_to 10713
  154.6476  135.2907  155.0026 H   0  0  0  0  0  0  0  0  0  0  0  0  # atno 10763 bound_to 10752
  154.1131  135.6559  153.4892 H   0  0  0  0  0  0  0  0  0  0  0  0  # atno 10764 bound_to 10752
  153.0359  135.5270  154.7370 H   0  0  0  0  0  0  0  0  0  0  0  0  # atno 10765 bound_to 10752
  140.4912  134.0838  155.7772 H   0  0  0  0  0  0  0  0  0  0  0  0  # atno 11005 bound_to 11000
  144.6726  140.1263  143.7446 LP  0  0  0  0  0  0  0  0  0  0  0  0  # atno 17320 bound_to 7965
  145.9118  139.2492  143.1433 LP  0  0  0  0  0  0  0  0  0  0  0  0  # atno 17321 bound_to 7965
  139.9043  143.6797  152.3126 LP  0  0  0  0  0  0  0  0  0  0  0  0  # atno 17342 bound_to 10162
  139.7158  144.7612  151.1036 LP  0  0  0  0  0  0  0  0  0  0  0  0  # atno 17343 bound_to 10162
  157.6927  130.9250  150.0559 LP  0  0  0  0  0  0  0  0  0  0  0  0  # atno 17370 bound_to 10713
  156.1646  130.3644  149.9251 LP  0  0  0  0  0  0  0  0  0  0  0  0  # atno 17371 bound_to 10713
  141.1483  133.9015  157.2161 LP  0  0  0  0  0  0  0  0  0  0  0  0  # atno 17394 bound_to 11000
  139.9768  135.0111  156.9651 LP  0  0  0  0  0  0  0  0  0  0  0  0  # atno 17395 bound_to 11000

$$$$
