AV-unprocessed.smi:2928|AV-procd|sdf|11234|dock2
  -GOLD-   2272016123D 1   1.00000     0.00000
 Structure written by MMmdl.
 55 58  0  0  0  0  0  0  0  0  2 V2000
  142.3702  132.6079  151.7139 C   0  0  0  0  0  0  0  0  0  0  0  0
  143.0944  133.1318  152.8966 N   0  3  2  0  0  0  0  0  0  0  0  0
  142.9212  134.5836  153.1399 C   0  0  1  0  0  0  0  0  0  0  0  0
  143.3455  134.9068  154.5911 C   0  0  0  0  0  0  0  0  0  0  0  0
  144.7554  134.4045  154.9577 C   0  0  0  0  0  0  0  0  0  0  0  0
  145.0475  132.9983  154.3979 C   0  0  0  0  0  0  0  0  0  0  0  0
  144.5316  132.7739  152.9574 C   0  0  2  0  0  0  0  0  0  0  0  0
  145.3420  133.4883  151.8465 C   0  0  0  0  0  0  0  0  0  0  0  0
  145.0644  135.0023  151.6741 C   0  0  2  0  0  0  0  0  0  0  0  0
  146.0859  135.8112  152.3344 N   0  0  0  0  0  0  0  0  0  0  0  0
  145.9834  137.1127  152.6396 C   0  0  0  0  0  0  0  0  0  0  0  0
  144.9976  137.7989  152.3716 O   0  0  0  0  0  0  0  0  0  0  0  0
  147.0778  137.5407  153.2895 N   0  0  0  0  0  0  0  0  0  0  0  0
  147.3227  138.8215  153.8602 C   0  0  0  0  0  0  0  0  0  0  0  0
  146.6345  139.9896  153.4521 C   0  0  0  0  0  0  0  0  0  0  0  0
  146.9549  141.2194  154.0556 C   0  0  0  0  0  0  0  0  0  0  0  0
  147.9592  141.2401  155.0399 C   0  0  0  0  0  0  0  0  0  0  0  0
  148.6346  140.1394  155.4288 N   0  0  0  0  0  0  0  0  0  0  0  0
  148.3298  138.9522  154.8505 C   0  0  0  0  0  0  0  0  0  0  0  0
  149.0450  137.8170  155.2720 N   0  0  0  0  0  0  0  0  0  0  0  0
  150.1996  138.0780  156.1149 C   0  0  0  0  0  0  0  0  0  0  0  0
  150.5665  136.7251  156.7303 C   0  0  0  0  0  0  0  0  0  0  0  0
  149.2852  135.8871  156.6333 C   0  0  0  0  0  0  0  0  0  0  0  0
  148.2614  136.8098  155.9668 C   0  0  0  0  0  0  0  0  0  0  0  0
  143.6187  135.4298  152.0456 C   0  0  0  0  0  0  0  0  0  0  0  0
  142.7383  133.0352  150.7813 H   0  0  0  0  0  0  0  0  0  0  0  0
  141.3058  132.8315  151.7908 H   0  0  0  0  0  0  0  0  0  0  0  0
  142.4754  131.5242  151.6532 H   0  0  0  0  0  0  0  0  0  0  0  0
  141.8540  134.8030  153.0813 H   0  0  0  0  0  0  0  0  0  0  0  0
  143.2687  135.9778  154.7816 H   0  0  0  0  0  0  0  0  0  0  0  0
  142.6317  134.4329  155.2664 H   0  0  0  0  0  0  0  0  0  0  0  0
  145.5064  135.1108  154.6209 H   0  0  0  0  0  0  0  0  0  0  0  0
  144.8652  134.3927  156.0425 H   0  0  0  0  0  0  0  0  0  0  0  0
  146.1153  132.7852  154.4585 H   0  0  0  0  0  0  0  0  0  0  0  0
  144.5619  132.2691  155.0483 H   0  0  0  0  0  0  0  0  0  0  0  0
  144.6118  131.7018  152.7716 H   0  0  0  0  0  0  0  0  0  0  0  0
  146.4089  133.3031  151.9792 H   0  0  0  0  0  0  0  0  0  0  0  0
  145.0973  133.0031  150.9009 H   0  0  0  0  0  0  0  0  0  0  0  0
  145.1926  135.2114  150.6100 H   0  0  0  0  0  0  0  0  0  0  0  0
  146.9373  135.3365  152.5968 H   0  0  0  0  0  0  0  0  0  0  0  0
  147.7710  136.8383  153.5028 H   0  0  0  0  0  0  0  0  0  0  0  0
  145.8806  139.9674  152.6802 H   0  0  0  0  0  0  0  0  0  0  0  0
  146.4457  142.1265  153.7656 H   0  0  0  0  0  0  0  0  0  0  0  0
  148.2327  142.1660  155.5238 H   0  0  0  0  0  0  0  0  0  0  0  0
  151.0241  138.4929  155.5343 H   0  0  0  0  0  0  0  0  0  0  0  0
  149.9479  138.7912  156.9012 H   0  0  0  0  0  0  0  0  0  0  0  0
  151.3639  136.2511  156.1567 H   0  0  0  0  0  0  0  0  0  0  0  0
  150.9153  136.8342  157.7576 H   0  0  0  0  0  0  0  0  0  0  0  0
  149.4629  135.0071  156.0139 H   0  0  0  0  0  0  0  0  0  0  0  0
  148.9389  135.5433  157.6083 H   0  0  0  0  0  0  0  0  0  0  0  0
  147.6264  137.2731  156.7234 H   0  0  0  0  0  0  0  0  0  0  0  0
  147.6185  136.2646  155.2750 H   0  0  0  0  0  0  0  0  0  0  0  0
  143.0165  135.3530  151.1396 H   0  0  0  0  0  0  0  0  0  0  0  0
  143.5746  136.4868  152.3101 H   0  0  0  0  0  0  0  0  0  0  0  0
  142.6651  132.6705  153.6860 H   0  0  0  0  0  0  0  0  0  0  0  0
  1  2  1  0  0  0  0
  1 26  1  0  0  0  0
  1 27  1  0  0  0  0
  1 28  1  0  0  0  0
  2  7  1  0  0  0  0
  2  3  1  0  0  0  0
  2 55  1  0  0  0  0
  3 25  1  0  0  0  0
  3  4  1  0  0  0  0
  3 29  1  0  0  0  0
  4  5  1  0  0  0  0
  4 30  1  0  0  0  0
  4 31  1  0  0  0  0
  5  6  1  0  0  0  0
  5 32  1  0  0  0  0
  5 33  1  0  0  0  0
  6  7  1  0  0  0  0
  6 34  1  0  0  0  0
  6 35  1  0  0  0  0
  7  8  1  0  0  0  0
  7 36  1  0  0  0  0
  8  9  1  0  0  0  0
  8 37  1  0  0  0  0
  8 38  1  0  0  0  0
  9 10  1  0  0  0  0
  9 25  1  0  0  0  0
  9 39  1  0  0  0  0
 10 11  1  0  0  0  0
 10 40  1  0  0  0  0
 11 12  2  0  0  0  0
 11 13  1  0  0  0  0
 13 14  1  0  0  0  0
 13 41  1  0  0  0  0
 14 19  1  0  0  0  0
 14 15  2  0  0  0  0
 15 16  1  0  0  0  0
 15 42  1  0  0  0  0
 16 17  2  0  0  0  0
 16 43  1  0  0  0  0
 17 18  1  0  0  0  0
 17 44  1  0  0  0  0
 18 19  2  0  0  0  0
 19 20  1  0  0  0  0
 20 24  1  0  0  0  0
 20 21  1  0  0  0  0
 21 22  1  0  0  0  0
 21 45  1  0  0  0  0
 21 46  1  0  0  0  0
 22 23  1  0  0  0  0
 22 47  1  0  0  0  0
 22 48  1  0  0  0  0
 23 24  1  0  0  0  0
 23 49  1  0  0  0  0
 23 50  1  0  0  0  0
 24 51  1  0  0  0  0
 24 52  1  0  0  0  0
 25 53  1  0  0  0  0
 25 54  1  0  0  0  0
M  CHG  1   2   1
M  END
> <s_m_source_file>
AV-unprocessed.smi

> <i_m_source_file_index>
2928

> <i_lp_mmshare_version>
43012

> <i_f3d_flags>
0

> <s_epik_input>
W0NIMl0xW0NIMl1bQ0gyXVtDQEhdKE4oW0NIM10pW0NIXTEyKVtDSDJdW0NASF0oW0NIMl0yKVtOSF1DKD1PKVtOSF1jM1tjSF1bY0hdW2NIXW5jM040W0NIMl1bQ0gyXVtDSDJdW0NIMl00

> <s_epik_cmdline>
J2VwaWtfcHl0aG9uJywgJy1waCcsICc3LjAnLCAnLXRuJywgJzgnLCAnLW1hJywgJzIwMCcsICctbWV0YWxfYmluZGluZycsICctaW1hZScsICc8aW5maWxlLm1hZT4nLCAnLW9tYWUnLCAnPG91dGZpbGUubWFlPic=

> <r_lp_tautomer_probability>
1

> <r_epik_Ionization_Penalty>
0.07954

> <r_epik_Ionization_Penalty_Charging>
0.00089841

> <r_epik_Ionization_Penalty_Neutral>
0.0786416

> <r_epik_State_Penalty>
0.0689917

> <r_epik_Charging_Adjusted_Penalty>
0.0698901

> <i_epik_Tot_Q>
1

> <i_epik_Tot_abs_Q>
1

> <r_epik_Metal_State_Penalty>
0.0608947

> <b_epik_Metal_Only>
0

> <s_lp_Force_Field>
OPLS_2005

> <r_lp_Energy>
66.3718

> <b_lp_Chiralities_Consistent>
1

> <s_lp_Variant>
AV-unprocessed.smi:2928-4

> <Gold.Version>
5.8.1

> <Gold.Id.Protein>
6NUR|6NUR_protein|mol2

> <Gold.PLP.Fitness>
45.5928

> <Gold.PLP.PLP>
-31.8611

> <Gold.PLP.part.hbond>
-3.2535

> <Gold.PLP.part.metal>
0.0000

> <Gold.PLP.part.buried>
-2.5078

> <Gold.PLP.part.nonpolar>
-33.4724

> <Gold.PLP.part.repulsive>
5.7767

> <Gold.PLP.ligand.clash>
0.0000

> <Gold.PLP.ligand.torsion>
0.5197

> <Gold.PLP.Chemscore.Hbond>
3.8945

> <Gold.PLP.Chemscore.CHOScore>
1.0000

> <Gold.PLP.Chemscore.Metal>
0.0000

> <Gold.Chemscore.Hbonds>
donor molecule, donor type, donor heavy atom, donor atom, acceptor molecule, acceptor atom, score
      L1  H     2    55       P1 10957  1.40
      L1  H    10    40       P1  7948  0.12
      L1  H    13    41       P1  7948  0.24
      L1  C    17    44       P1  8028  0.76

> <Gold.PLP.Chemscore.Internal.Correction>
0.0876

> <Gold.Rescore>
     Score         DG    S(hbond)    S(metal)    S(lipo)     H(rot)  DE(clash)    DE(int)     intcor
     14.05     -18.75       1.77        0.00      88.62       1.18       0.78       3.91       ----

> <Gold.Chemscore.Fitness>
14.0510

> <Gold.Chemscore.DG>
-18.7460

> <Gold.Chemscore.ZeroCoef>
-5.4800

> <Gold.Chemscore.Hbond>
1.7702

> <Gold.Chemscore.Metal>
0.0000

> <Gold.Chemscore.Lipo>
88.6167

> <Gold.Chemscore.Internal_Hbond>
0.0000

> <Gold.Chemscore.DEClash>
0.7817

> <Gold.Chemscore.DEInternal>
3.9133

> <Gold.Chemscore.Rot>
1.1776

> <Gold.Chemscore.Internal.Correction>
   9.000000E+99

> <Gold.Chemscore.Hbonds>
donor molecule, donor type, donor heavy atom, donor atom, acceptor molecule, acceptor atom, score
      L1  H     2    55       P1 10957  0.50
      L1  H    10    40       P1  7948  0.11
      L1  H    13    41       P1  7948  0.24

> <Gold.Chemscore.Hbond.Weighted>
-5.9125

> <Gold.Chemscore.Metal.Weighted>
-0.0000

> <Gold.Chemscore.Lipo.Weighted>
-10.3682

> <Gold.Chemscore.Internal_Hbond.Weighted>
0.0000

> <Gold.Chemscore.DEClash.Weighted>
0.7817

> <Gold.Chemscore.DEInternal.Weighted>
3.9133

> <Gold.Chemscore.Rot.Weighted>
3.0147

> <Gold.Chemscore.Internal.Correction.Weighted>
   9.000000E+99

> <Gold.Protein.RotatedTorsions>
[ 6907 6896 6895 6894 ] final    5.34 input  -60.11 | X-H torsion
[ 7974 7965 7964 7962 ] final   14.41 input  175.53 | X-H torsion
[ 8008 7997 7996 7995 ] final   27.48 input   59.86 | X-H torsion
[ 10167 10162 10161 10158 ] final  -94.13 input  -65.29 | X-H torsion
[ 10718 10713 10712 10709 ] final    2.32 input   66.30 | X-H torsion
[ 10763 10752 10751 10750 ] final -164.98 input  -60.55 | X-H torsion
[ 11005 11000 10999 10996 ] final   73.59 input  -57.11 | X-H torsion

> <Gold.Protein.ActiveResidues>
 VAL166  LYS551  ARG553  GLY616  TRP617  ASP618  TYR619  PRO620  LYS621  CYS622 
 ASP623  PHE694  ASN695  SER759  ASP760  ASP761  ALA762  ILE779  LEU786  VAL792 
 PHE793  MET794  SER795  GLU796  ALA797  LYS798  CYS799  TRP800  GLU811  SER814 

> <Gold.Protein.RotatedAtoms>
  151.6559  135.0995  160.0169 H   0  0  0  0  0  0  0  0  0  0  0  0  # atno 6907 bound_to 6896
  152.3974  133.6763  159.6296 H   0  0  0  0  0  0  0  0  0  0  0  0  # atno 6908 bound_to 6896
  150.7879  133.8766  159.3315 H   0  0  0  0  0  0  0  0  0  0  0  0  # atno 6909 bound_to 6896
  146.2305  139.9045  142.8534 H   0  0  0  0  0  0  0  0  0  0  0  0  # atno 7974 bound_to 7965
  155.0436  140.3172  155.4716 H   0  0  0  0  0  0  0  0  0  0  0  0  # atno 8008 bound_to 7997
  156.2849  140.2158  156.5504 H   0  0  0  0  0  0  0  0  0  0  0  0  # atno 8009 bound_to 7997
  154.7269  140.0485  157.0678 H   0  0  0  0  0  0  0  0  0  0  0  0  # atno 8010 bound_to 7997
  140.3176  143.3068  152.0081 H   0  0  0  0  0  0  0  0  0  0  0  0  # atno 10167 bound_to 10162
  156.8613  130.5587  149.5663 H   0  0  0  0  0  0  0  0  0  0  0  0  # atno 10718 bound_to 10713
  154.6976  135.2982  154.9389 H   0  0  0  0  0  0  0  0  0  0  0  0  # atno 10763 bound_to 10752
  154.0331  135.6667  153.4786 H   0  0  0  0  0  0  0  0  0  0  0  0  # atno 10764 bound_to 10752
  153.0657  135.5089  154.8102 H   0  0  0  0  0  0  0  0  0  0  0  0  # atno 10765 bound_to 10752
  139.9432  134.7360  156.1045 H   0  0  0  0  0  0  0  0  0  0  0  0  # atno 11005 bound_to 11000
  145.2290  140.9965  143.4001 LP  0  0  0  0  0  0  0  0  0  0  0  0  # atno 17320 bound_to 7965
  144.9546  139.4045  143.6385 LP  0  0  0  0  0  0  0  0  0  0  0  0  # atno 17321 bound_to 7965
  139.4881  144.6336  151.7021 LP  0  0  0  0  0  0  0  0  0  0  0  0  # atno 17342 bound_to 10162
  140.5512  144.0422  150.6128 LP  0  0  0  0  0  0  0  0  0  0  0  0  # atno 17343 bound_to 10162
  156.0775  130.5794  150.9501 LP  0  0  0  0  0  0  0  0  0  0  0  0  # atno 17370 bound_to 10713
  157.6248  131.0926  150.8553 LP  0  0  0  0  0  0  0  0  0  0  0  0  # atno 17371 bound_to 10713
  141.1074  133.6655  156.2897 LP  0  0  0  0  0  0  0  0  0  0  0  0  # atno 17394 bound_to 11000
  140.5899  134.5661  157.5497 LP  0  0  0  0  0  0  0  0  0  0  0  0  # atno 17395 bound_to 11000

$$$$
