AV-unprocessed.smi:2032|AV-procd|sdf|8246|dock5
  -GOLD-   2272010513D 1   1.00000     0.00000
 Structure written by MMmdl.
 41 42  0  0  0  0  0  0  0  0  2 V2000
  151.4378  137.9106  154.8891 C   0  0  0  0  0  0  0  0  0  0  0  0
  150.9255  139.3451  154.7215 C   0  0  1  0  0  0  0  0  0  0  0  0
  149.4443  139.3880  154.2999 C   0  0  0  0  0  0  0  0  0  0  0  0
  148.9132  140.7525  154.2108 N   0  0  0  0  0  0  0  0  0  0  0  0
  147.4832  140.7788  153.8212 C   0  0  2  0  0  0  0  0  0  0  0  0
  146.8563  142.1910  153.9475 C   0  0  0  0  0  0  0  0  0  0  0  0
  146.6091  139.7639  154.6160 C   0  0  0  0  0  0  0  0  0  0  0  0
  145.6345  139.0543  153.7906 N   0  0  0  0  0  0  0  0  0  0  0  0
  145.5750  137.7278  153.6041 C   0  0  0  0  0  0  0  0  0  0  0  0
  146.3892  136.9901  154.1643 O   0  0  0  0  0  0  0  0  0  0  0  0
  144.5779  137.3408  152.7763 N   0  5  0  0  0  0  0  0  0  0  0  0
  144.6055  136.1237  152.2094 C   0  0  0  0  0  0  0  0  0  0  0  0
  145.5554  135.7414  151.3481 N   0  0  0  0  0  0  0  0  0  0  0  0
  145.3980  134.4309  150.8935 C   0  0  0  0  0  0  0  0  0  0  0  0
  144.3078  133.7972  151.4281 C   0  0  0  0  0  0  0  0  0  0  0  0
  143.4396  134.8349  152.5234 S   0  0  0  0  0  0  0  0  0  0  0  0
  149.1658  141.4184  155.4930 C   0  0  0  0  0  0  0  0  0  0  0  0
  150.6486  141.3733  155.9093 C   0  0  1  0  0  0  0  0  0  0  0  0
  150.8837  142.0087  157.2838 C   0  0  0  0  0  0  0  0  0  0  0  0
  151.0782  140.0191  155.9641 O   0  0  0  0  0  0  0  0  0  0  0  0
  151.3489  137.3504  153.9579 H   0  0  0  0  0  0  0  0  0  0  0  0
  150.8745  137.3777  155.6559 H   0  0  0  0  0  0  0  0  0  0  0  0
  152.4878  137.9039  155.1821 H   0  0  0  0  0  0  0  0  0  0  0  0
  151.5343  139.8478  153.9678 H   0  0  0  0  0  0  0  0  0  0  0  0
  149.3733  138.8864  153.3367 H   0  0  0  0  0  0  0  0  0  0  0  0
  148.8473  138.8069  155.0044 H   0  0  0  0  0  0  0  0  0  0  0  0
  147.4209  140.4988  152.7686 H   0  0  0  0  0  0  0  0  0  0  0  0
  145.7960  142.1994  153.6978 H   0  0  0  0  0  0  0  0  0  0  0  0
  147.3094  142.9088  153.2659 H   0  0  0  0  0  0  0  0  0  0  0  0
  146.9573  142.5773  154.9620 H   0  0  0  0  0  0  0  0  0  0  0  0
  147.2136  139.0022  155.1068 H   0  0  0  0  0  0  0  0  0  0  0  0
  146.0654  140.2823  155.4062 H   0  0  0  0  0  0  0  0  0  0  0  0
  144.9472  139.6183  153.3127 H   0  0  0  0  0  0  0  0  0  0  0  0
  146.1125  134.0283  150.1911 H   0  0  0  0  0  0  0  0  0  0  0  0
  143.9649  132.7898  151.2477 H   0  0  0  0  0  0  0  0  0  0  0  0
  148.8862  142.4686  155.4404 H   0  0  0  0  0  0  0  0  0  0  0  0
  148.5516  140.9638  156.2719 H   0  0  0  0  0  0  0  0  0  0  0  0
  151.2506  141.9066  155.1713 H   0  0  0  0  0  0  0  0  0  0  0  0
  150.5801  143.0557  157.2884 H   0  0  0  0  0  0  0  0  0  0  0  0
  151.9384  141.9673  157.5568 H   0  0  0  0  0  0  0  0  0  0  0  0
  150.3174  141.4921  158.0595 H   0  0  0  0  0  0  0  0  0  0  0  0
  1  2  1  0  0  0  0
  1 21  1  0  0  0  0
  1 22  1  0  0  0  0
  1 23  1  0  0  0  0
  2 20  1  0  0  0  0
  2  3  1  0  0  0  0
  2 24  1  0  0  0  0
  3  4  1  0  0  0  0
  3 25  1  0  0  0  0
  3 26  1  0  0  0  0
  4  5  1  0  0  0  0
  4 17  1  0  0  0  0
  5  6  1  0  0  0  0
  5  7  1  0  0  0  0
  5 27  1  0  0  0  0
  6 28  1  0  0  0  0
  6 29  1  0  0  0  0
  6 30  1  0  0  0  0
  7  8  1  0  0  0  0
  7 31  1  0  0  0  0
  7 32  1  0  0  0  0
  8  9  1  0  0  0  0
  8 33  1  0  0  0  0
  9 10  2  0  0  0  0
  9 11  1  0  0  0  0
 11 12  1  0  0  0  0
 12 16  1  0  0  0  0
 12 13  2  0  0  0  0
 13 14  1  0  0  0  0
 14 15  2  0  0  0  0
 14 34  1  0  0  0  0
 15 16  1  0  0  0  0
 15 35  1  0  0  0  0
 17 18  1  0  0  0  0
 17 36  1  0  0  0  0
 17 37  1  0  0  0  0
 18 19  1  0  0  0  0
 18 20  1  0  0  0  0
 18 38  1  0  0  0  0
 19 39  1  0  0  0  0
 19 40  1  0  0  0  0
 19 41  1  0  0  0  0
M  CHG  1  11  -1
M  END
> <s_m_source_file>
AV-unprocessed.smi

> <i_m_source_file_index>
2032

> <i_lp_mmshare_version>
43012

> <i_f3d_flags>
0

> <s_epik_input>
W0NIM11bQ0BASF0xW0NIMl1OKFtDSDJdW0NASF0oTzEpW0NIM10pW0NASF0oW0NIM10pW0NIMl1bTkhdQyg9TylbTkhdYzJuW2NIXVtjSF1zMg==

> <s_epik_cmdline>
J2VwaWtfcHl0aG9uJywgJy1waCcsICc3LjAnLCAnLXRuJywgJzgnLCAnLW1hJywgJzIwMCcsICctbWV0YWxfYmluZGluZycsICctaW1hZScsICc8aW5maWxlLm1hZT4nLCAnLW9tYWUnLCAnPG91dGZpbGUubWFlPic=

> <r_lp_tautomer_probability>
0.999

> <r_epik_Ionization_Penalty>
7.22375

> <r_epik_Ionization_Penalty_Charging>
5.82415

> <r_epik_Ionization_Penalty_Neutral>
1.39959

> <r_epik_State_Penalty>
6.03347

> <r_epik_Charging_Adjusted_Penalty>
11.8576

> <i_epik_Tot_Q>
-1

> <i_epik_Tot_abs_Q>
1

> <r_epik_Metal_State_Penalty>
2.01024

> <b_epik_Metal_Only>
1

> <s_lp_Force_Field>
OPLS_2005

> <r_lp_Energy>
22.7494

> <b_lp_Chiralities_Consistent>
1

> <s_lp_Variant>
AV-unprocessed.smi:2032-16

> <Gold.Version>
5.8.1

> <Gold.Id.Protein>
6NUR|6NUR_protein|mol2

> <Gold.PLP.Fitness>
37.4046

> <Gold.PLP.PLP>
-34.1047

> <Gold.PLP.part.hbond>
-1.0000

> <Gold.PLP.part.metal>
0.0000

> <Gold.PLP.part.buried>
-6.0393

> <Gold.PLP.part.nonpolar>
-28.7814

> <Gold.PLP.part.repulsive>
1.0705

> <Gold.PLP.ligand.clash>
0.0000

> <Gold.PLP.ligand.torsion>
1.3836

> <Gold.PLP.Chemscore.Hbond>
1.0000

> <Gold.PLP.Chemscore.CHOScore>
0.9920

> <Gold.PLP.Chemscore.Metal>
0.0000

> <Gold.Chemscore.Hbonds>
donor molecule, donor type, donor heavy atom, donor atom, acceptor molecule, acceptor atom, score
      L1  H     8    33       P1 10175  1.00
      L1  C    14    34       P1  7921  0.51

> <Gold.PLP.Chemscore.Internal.Correction>
0.0911

> <Gold.Rescore>
     Score         DG    S(hbond)    S(metal)    S(lipo)     H(rot)  DE(clash)    DE(int)     intcor
     12.07     -13.79       1.00        0.00      76.26       1.54       0.17       1.55       ----

> <Gold.Chemscore.Fitness>
12.0680

> <Gold.Chemscore.DG>
-13.7893

> <Gold.Chemscore.ZeroCoef>
-5.4800

> <Gold.Chemscore.Hbond>
0.9993

> <Gold.Chemscore.Metal>
0.0000

> <Gold.Chemscore.Lipo>
76.2568

> <Gold.Chemscore.Internal_Hbond>
0.0000

> <Gold.Chemscore.DEClash>
0.1693

> <Gold.Chemscore.DEInternal>
1.5520

> <Gold.Chemscore.Rot>
1.5431

> <Gold.Chemscore.Internal.Correction>
   9.000000E+99

> <Gold.Chemscore.Hbonds>
donor molecule, donor type, donor heavy atom, donor atom, acceptor molecule, acceptor atom, score
      L1  H     8    33       P1 10175  1.00

> <Gold.Chemscore.Hbond.Weighted>
-3.3375

> <Gold.Chemscore.Metal.Weighted>
-0.0000

> <Gold.Chemscore.Lipo.Weighted>
-8.9220

> <Gold.Chemscore.Internal_Hbond.Weighted>
0.0000

> <Gold.Chemscore.DEClash.Weighted>
0.1693

> <Gold.Chemscore.DEInternal.Weighted>
1.5520

> <Gold.Chemscore.Rot.Weighted>
3.9503

> <Gold.Chemscore.Internal.Correction.Weighted>
   9.000000E+99

> <Gold.Protein.RotatedTorsions>
[ 6907 6896 6895 6894 ] final  143.05 input  -60.11 | X-H torsion
[ 7974 7965 7964 7962 ] final  -45.76 input  175.53 | X-H torsion
[ 8008 7997 7996 7995 ] final -140.84 input   59.86 | X-H torsion
[ 10167 10162 10161 10158 ] final  175.00 input  -65.29 | X-H torsion
[ 10718 10713 10712 10709 ] final -101.57 input   66.30 | X-H torsion
[ 10763 10752 10751 10750 ] final    4.70 input  -60.55 | X-H torsion
[ 11005 11000 10999 10996 ] final  -35.34 input  -57.11 | X-H torsion

> <Gold.Protein.ActiveResidues>
 VAL166  LYS551  ARG553  GLY616  TRP617  ASP618  TYR619  PRO620  LYS621  CYS622 
 ASP623  PHE694  ASN695  SER759  ASP760  ASP761  ALA762  ILE779  LEU786  VAL792 
 PHE793  MET794  SER795  GLU796  ALA797  LYS798  CYS799  TRP800  GLU811  SER814 

> <Gold.Protein.RotatedAtoms>
  152.2111  133.4912  159.5110 H   0  0  0  0  0  0  0  0  0  0  0  0  # atno 6907 bound_to 6896
  150.6990  134.1465  159.4133 H   0  0  0  0  0  0  0  0  0  0  0  0  # atno 6908 bound_to 6896
  151.9385  135.0224  160.0585 H   0  0  0  0  0  0  0  0  0  0  0  0  # atno 6909 bound_to 6896
  145.9788  140.7305  142.9374 H   0  0  0  0  0  0  0  0  0  0  0  0  # atno 7974 bound_to 7965
  155.4680  140.0551  157.2983 H   0  0  0  0  0  0  0  0  0  0  0  0  # atno 8008 bound_to 7997
  154.4710  140.2040  155.9950 H   0  0  0  0  0  0  0  0  0  0  0  0  # atno 8009 bound_to 7997
  156.1055  140.3212  155.8005 H   0  0  0  0  0  0  0  0  0  0  0  0  # atno 8010 bound_to 7997
  139.5161  144.3082  152.0316 H   0  0  0  0  0  0  0  0  0  0  0  0  # atno 10167 bound_to 10162
  156.0199  130.5379  150.6982 H   0  0  0  0  0  0  0  0  0  0  0  0  # atno 10718 bound_to 10713
  153.2681  135.6929  153.7509 H   0  0  0  0  0  0  0  0  0  0  0  0  # atno 10763 bound_to 10752
  153.6542  135.3371  155.3109 H   0  0  0  0  0  0  0  0  0  0  0  0  # atno 10764 bound_to 10752
  154.8454  135.4462  154.1694 H   0  0  0  0  0  0  0  0  0  0  0  0  # atno 10765 bound_to 10752
  140.9788  133.7068  156.1648 H   0  0  0  0  0  0  0  0  0  0  0  0  # atno 11005 bound_to 11000
  144.6856  140.2874  143.7283 LP  0  0  0  0  0  0  0  0  0  0  0  0  # atno 17320 bound_to 7965
  145.7799  139.1887  143.2163 LP  0  0  0  0  0  0  0  0  0  0  0  0  # atno 17321 bound_to 7965
  140.2527  144.4151  150.6215 LP  0  0  0  0  0  0  0  0  0  0  0  0  # atno 17342 bound_to 10162
  140.6213  143.2176  151.6688 LP  0  0  0  0  0  0  0  0  0  0  0  0  # atno 17343 bound_to 10162
  157.4648  131.0887  151.0707 LP  0  0  0  0  0  0  0  0  0  0  0  0  # atno 17370 bound_to 10713
  157.1184  130.6051  149.5499 LP  0  0  0  0  0  0  0  0  0  0  0  0  # atno 17371 bound_to 10713
  140.7218  134.4350  157.5574 LP  0  0  0  0  0  0  0  0  0  0  0  0  # atno 17394 bound_to 11000
  139.8941  134.8713  156.2190 LP  0  0  0  0  0  0  0  0  0  0  0  0  # atno 17395 bound_to 11000

$$$$
