#       Name:                AV-unprocessed.smi:646
#       Creating user name   scv26
#       Creation time:       Fri Mar 27 00:09:00 2020


#       File generated by GOLD software.
#

@<TRIPOS>MOLECULE
AV-unprocessed.smi:646
    51    52     1
SMALL
NO_CHARGES


@<TRIPOS>ATOM
      1 ****        -4.6244   0.5358  -1.6154 C.3            1 S1                 0.0000
      2 ****        -3.6395   0.5543  -0.5894 O.3            1 S1                 0.0000
      3 ****        -2.5547  -0.3777  -0.6991 C.3            1 S1                 0.0000
      4 ****        -3.0863  -1.8146  -0.7691 C.3            1 S1                 0.0000
      5 ****        -1.5389   0.1038  -1.7532 C.3            1 S1                 0.0000
      6 ****        -0.9379   0.9874  -0.6623 C.3            1 S1                 0.0000
      7 ****         0.5163   1.0582  -0.7335 N.am           1 S1                 0.0000
      8 ****         1.2794   1.8039   0.0790 C.2            1 S1                 0.0000
      9 ****         0.8225   2.5781   0.9195 O.2            1 S1                 0.0000
     10 ****         2.7907   1.6240  -0.0562 C.3            1 S1                 0.0000
     11 ****         3.1781   0.2551   0.4443 C.2            1 S1                 0.0000
     12 ****         3.2673  -0.1930   1.7939 C.2            1 S1                 0.0000
     13 ****         2.9988   0.5781   3.0542 C.3            1 S1                 0.0000
     14 ****         3.6193  -1.4654   1.8696 N.2            1 S1                 0.0000
     15 ****         3.7751  -1.8992   0.5497 O.3            1 S1                 0.0000
     16 ****         3.5038  -0.8592  -0.2790 C.2            1 S1                 0.0000
     17 ****         3.6016  -1.1261  -1.7427 C.3            1 S1                 0.0000
     18 ****        -1.4851  -0.0185   0.3839 C.3            1 S1                 0.0000
     19 ****        -2.0069   0.5914   1.6895 C.3            1 S1                 0.0000
     20 ****        -0.5414  -1.1618   0.8064 C.3            1 S1                 0.0000
     21 ****        -5.2990   1.3801  -1.4740 H              1 S1                 0.0000
     22 ****        -5.2309  -0.3688  -1.5763 H              1 S1                 0.0000
     23 ****        -4.1907   0.6240  -2.6108 H              1 S1                 0.0000
     24 ****        -2.2802  -2.5470  -0.7425 H              1 S1                 0.0000
     25 ****        -3.6335  -2.0026  -1.6925 H              1 S1                 0.0000
     26 ****        -3.7523  -2.0313   0.0664 H              1 S1                 0.0000
     27 ****        -0.8701  -0.6904  -2.0905 H              1 S1                 0.0000
     28 ****        -1.9475   0.6545  -2.5996 H              1 S1                 0.0000
     29 ****        -1.4290   1.9623  -0.6159 H              1 S1                 0.0000
     30 ****         0.9748   0.4515  -1.3974 H              1 S1                 0.0000
     31 ****         3.0723   1.7671  -1.1001 H              1 S1                 0.0000
     32 ****         3.2986   2.4084   0.5059 H              1 S1                 0.0000
     33 ****         3.3429   1.6086   2.9646 H              1 S1                 0.0000
     34 ****         3.5048   0.1353   3.9127 H              1 S1                 0.0000
     35 ****         1.9309   0.6040   3.2725 H              1 S1                 0.0000
     36 ****         2.7988  -0.6229  -2.2820 H              1 S1                 0.0000
     37 ****         3.5295  -2.1936  -1.9530 H              1 S1                 0.0000
     38 ****         4.5520  -0.7664  -2.1367 H              1 S1                 0.0000
     39 ****        -1.1905   0.8745   2.3551 H              1 S1                 0.0000
     40 ****        -2.6453  -0.1091   2.2285 H              1 S1                 0.0000
     41 ****        -2.5914   1.4945   1.5133 H              1 S1                 0.0000
     42 ****         0.2747  -0.8007   1.4329 H              1 S1                 0.0000
     43 ****        -0.0862  -1.6597  -0.0499 H              1 S1                 0.0000
     44 ****        -1.0696  -1.9249   1.3789 H              1 S1                 0.0000
     45 ****        -4.1051   0.3721   0.2767 LP             1 S1                 0.0000
     46 ****        -3.2449   1.4729  -0.5689 LP             1 S1                 0.0000
     47 ****        -0.1673   2.6759   1.0235 LP             1 S1                 0.0000
     48 ****         1.4410   3.1093   1.4985 LP             1 S1                 0.0000
     49 ****         3.7477  -2.0065   2.7007 LP             1 S1                 0.0000
     50 ****         3.1431  -2.6518   0.3649 LP             1 S1                 0.0000
     51 ****         4.7146  -2.2098   0.4052 LP             1 S1                 0.0000
@<TRIPOS>BOND
    1    1    2 1     
    2    1   21 1     
    3    1   22 1     
    4    1   23 1     
    5    2    3 1     
    6    3   18 1     
    7    3    4 1     
    8    3    5 1     
    9    4   24 1     
   10    4   25 1     
   11    4   26 1     
   12    5    6 1     
   13    5   27 1     
   14    5   28 1     
   15    6    7 1     
   16    6   18 1     
   17    6   29 1     
   18    7    8 am    
   19    7   30 1     
   20    8    9 2     
   21    8   10 1     
   22   10   11 1     
   23   10   31 1     
   24   10   32 1     
   25   11   16 2     
   26   11   12 1     
   27   12   13 1     
   28   12   14 2     
   29   13   33 1     
   30   13   34 1     
   31   13   35 1     
   32   14   15 1     
   33   15   16 1     
   34   16   17 1     
   35   17   36 1     
   36   17   37 1     
   37   17   38 1     
   38   18   19 1     
   39   18   20 1     
   40   19   39 1     
   41   19   40 1     
   42   19   41 1     
   43   20   42 1     
   44   20   43 1     
   45   20   44 1     
   46    2   45 1     
   47    2   46 1     
   48    9   47 1     
   49    9   48 1     
   50   14   49 1     
   51   15   50 1     
   52   15   51 1     
@<TRIPOS>SUBSTRUCTURE
      1 S1             1
@<TRIPOS>SET
LONE_PAIRS      STATIC     ATOMS    <user>   **** ""
7 45 46 47 48 49 50 51
DONOR_HYDROGENS      STATIC     ATOMS    <user>   **** ""
1 30
ATOM$BLUE        STATIC     ATOMS    COLORGROUP SYSTEM
7 45 46 47 48 49 50 51
ATOM$RED        STATIC     ATOMS    COLORGROUP SYSTEM
1 30
