AV-unprocessed.smi:1192|AV-procd|sdf|4988|dock2
  -GOLD-   22720 3583D 1   1.00000     0.00000
 Structure written by MMmdl.
 39 40  0  0  0  0  0  0  0  0  1 V2000
  150.8874  137.5250  159.8390 C   0  0  0  0  0  0  0  0  0  0  0  0
  149.7157  136.7659  159.6017 O   0  0  0  0  0  0  0  0  0  0  0  0
  148.6193  137.5724  159.2042 C   0  0  0  0  0  0  0  0  0  0  0  0
  148.8922  138.1264  157.8035 C   0  0  0  0  0  0  0  0  0  0  0  0
  148.4302  139.4712  157.7618 O   0  0  0  0  0  0  0  0  0  0  0  0
  148.3409  140.1110  156.5429 C   0  0  0  0  0  0  0  0  0  0  0  0
  148.5926  139.3953  155.4179 N   0  0  0  0  0  0  0  0  0  0  0  0
  148.4965  140.0180  154.2249 C   0  0  0  0  0  0  0  0  0  0  0  0
  148.1465  141.3743  154.0889 C   0  0  0  0  0  0  0  0  0  0  0  0
  147.8850  142.1165  155.2554 C   0  0  0  0  0  0  0  0  0  0  0  0
  147.9849  141.4809  156.5111 C   0  0  0  0  0  0  0  0  0  0  0  0
  147.6974  142.2611  157.7854 C   0  0  0  0  0  0  0  0  0  0  0  0
  148.7214  143.2570  158.0926 N   0  0  0  0  0  0  0  0  0  0  0  0
  149.9751  142.9962  158.4959 C   0  0  0  0  0  0  0  0  0  0  0  0
  150.4182  141.8563  158.6401 O   0  0  0  0  0  0  0  0  0  0  0  0
  150.8596  144.2235  158.7507 C   0  0  0  0  0  0  0  0  0  0  0  0
  152.2006  143.9531  159.4618 C   0  0  0  0  0  0  0  0  0  0  0  0
  151.9313  145.1783  160.3394 C   0  0  0  0  0  0  0  0  0  0  0  0
  150.4478  145.0427  159.9853 C   0  0  0  0  0  0  0  0  0  0  0  0
  151.6933  136.8635  160.1558 H   0  0  0  0  0  0  0  0  0  0  0  0
  150.7285  138.2618  160.6273 H   0  0  0  0  0  0  0  0  0  0  0  0
  151.2102  138.0421  158.9342 H   0  0  0  0  0  0  0  0  0  0  0  0
  147.7138  136.9640  159.1851 H   0  0  0  0  0  0  0  0  0  0  0  0
  148.4549  138.3864  159.9122 H   0  0  0  0  0  0  0  0  0  0  0  0
  149.9575  138.0587  157.5765 H   0  0  0  0  0  0  0  0  0  0  0  0
  148.3505  137.5350  157.0638 H   0  0  0  0  0  0  0  0  0  0  0  0
  148.7034  139.4162  153.3526 H   0  0  0  0  0  0  0  0  0  0  0  0
  148.0794  141.8332  153.1136 H   0  0  0  0  0  0  0  0  0  0  0  0
  147.6126  143.1592  155.1830 H   0  0  0  0  0  0  0  0  0  0  0  0
  146.7448  142.7831  157.6906 H   0  0  0  0  0  0  0  0  0  0  0  0
  147.5701  141.5467  158.6002 H   0  0  0  0  0  0  0  0  0  0  0  0
  148.4542  144.2255  157.9913 H   0  0  0  0  0  0  0  0  0  0  0  0
  150.9852  144.8445  157.8616 H   0  0  0  0  0  0  0  0  0  0  0  0
  152.2317  143.0294  160.0424 H   0  0  0  0  0  0  0  0  0  0  0  0
  153.0801  144.0523  158.8264 H   0  0  0  0  0  0  0  0  0  0  0  0
  152.1616  145.0421  161.3966 H   0  0  0  0  0  0  0  0  0  0  0  0
  152.3790  146.0896  159.9400 H   0  0  0  0  0  0  0  0  0  0  0  0
  149.9568  145.9888  159.7554 H   0  0  0  0  0  0  0  0  0  0  0  0
  149.8863  144.4706  160.7268 H   0  0  0  0  0  0  0  0  0  0  0  0
  1  2  1  0  0  0  0
  1 20  1  0  0  0  0
  1 21  1  0  0  0  0
  1 22  1  0  0  0  0
  2  3  1  0  0  0  0
  3  4  1  0  0  0  0
  3 23  1  0  0  0  0
  3 24  1  0  0  0  0
  4  5  1  0  0  0  0
  4 25  1  0  0  0  0
  4 26  1  0  0  0  0
  5  6  1  0  0  0  0
  6 11  1  0  0  0  0
  6  7  2  0  0  0  0
  7  8  1  0  0  0  0
  8  9  2  0  0  0  0
  8 27  1  0  0  0  0
  9 10  1  0  0  0  0
  9 28  1  0  0  0  0
 10 11  2  0  0  0  0
 10 29  1  0  0  0  0
 11 12  1  0  0  0  0
 12 13  1  0  0  0  0
 12 30  1  0  0  0  0
 12 31  1  0  0  0  0
 13 14  1  0  0  0  0
 13 32  1  0  0  0  0
 14 15  2  0  0  0  0
 14 16  1  0  0  0  0
 16 19  1  0  0  0  0
 16 17  1  0  0  0  0
 16 33  1  0  0  0  0
 17 18  1  0  0  0  0
 17 34  1  0  0  0  0
 17 35  1  0  0  0  0
 18 19  1  0  0  0  0
 18 36  1  0  0  0  0
 18 37  1  0  0  0  0
 19 38  1  0  0  0  0
 19 39  1  0  0  0  0
M  END
> <s_m_source_file>
AV-unprocessed.smi

> <i_m_source_file_index>
1192

> <i_lp_mmshare_version>
43012

> <i_f3d_flags>
0

> <s_epik_input>
W0NIM11PW0NIMl1bQ0gyXU9jMW5bY0hdW2NIXVtjSF1jMVtDSDJdW05IXUMoPU8pW0NIXTJbQ0gyXVtDSDJdW0NIMl0y

> <s_epik_cmdline>
J2VwaWtfcHl0aG9uJywgJy1waCcsICc3LjAnLCAnLXRuJywgJzgnLCAnLW1hJywgJzIwMCcsICctbWV0YWxfYmluZGluZycsICctaW1hZScsICc8aW5maWxlLm1hZT4nLCAnLW9tYWUnLCAnPG91dGZpbGUubWFlPic=

> <r_lp_tautomer_probability>
1

> <r_epik_Ionization_Penalty>
6.50215e-05

> <r_epik_Ionization_Penalty_Charging>
0

> <r_epik_Ionization_Penalty_Neutral>
6.50215e-05

> <r_epik_State_Penalty>
-0

> <r_epik_Charging_Adjusted_Penalty>
0

> <i_epik_Tot_Q>
0

> <i_epik_Tot_abs_Q>
0

> <r_epik_Metal_State_Penalty>
-0

> <b_epik_Metal_Only>
0

> <s_lp_Force_Field>
OPLS_2005

> <r_lp_Energy>
11.4086

> <b_lp_Chiralities_Consistent>
1

> <s_lp_Variant>
AV-unprocessed.smi:1192-1

> <Gold.Version>
5.8.1

> <Gold.Id.Protein>
6NUR|6NUR_protein|mol2

> <Gold.PLP.Fitness>
39.8266

> <Gold.PLP.PLP>
-32.2154

> <Gold.PLP.part.hbond>
-3.0000

> <Gold.PLP.part.metal>
0.0000

> <Gold.PLP.part.buried>
-2.0189

> <Gold.PLP.part.nonpolar>
-27.4077

> <Gold.PLP.part.repulsive>
0.1762

> <Gold.PLP.ligand.clash>
0.0000

> <Gold.PLP.ligand.torsion>
0.7025

> <Gold.PLP.Chemscore.Hbond>
1.8500

> <Gold.PLP.Chemscore.CHOScore>
1.0000

> <Gold.PLP.Chemscore.Metal>
0.0000

> <Gold.Chemscore.Hbonds>
donor molecule, donor type, donor heavy atom, donor atom, acceptor molecule, acceptor atom, score
      L1  H    13    32       P1  8029  0.75
      L1  C     8    27       P1  7957  1.00

> <Gold.PLP.Chemscore.Internal.Correction>
0.4661

> <Gold.Rescore>
     Score         DG    S(hbond)    S(metal)    S(lipo)     H(rot)  DE(clash)    DE(int)     intcor
     12.54     -13.00       1.07        0.00      80.01       2.12       0.03       0.43       ----

> <Gold.Chemscore.Fitness>
12.5350

> <Gold.Chemscore.DG>
-12.9994

> <Gold.Chemscore.ZeroCoef>
-5.4800

> <Gold.Chemscore.Hbond>
1.0750

> <Gold.Chemscore.Metal>
0.0000

> <Gold.Chemscore.Lipo>
80.0136

> <Gold.Chemscore.Internal_Hbond>
0.0000

> <Gold.Chemscore.DEClash>
0.0306

> <Gold.Chemscore.DEInternal>
0.4338

> <Gold.Chemscore.Rot>
2.1221

> <Gold.Chemscore.Internal.Correction>
   9.000000E+99

> <Gold.Chemscore.Hbonds>
donor molecule, donor type, donor heavy atom, donor atom, acceptor molecule, acceptor atom, score
      L1  H    13    32       P1  8029  0.09

> <Gold.Chemscore.Hbond.Weighted>
-3.5904

> <Gold.Chemscore.Metal.Weighted>
-0.0000

> <Gold.Chemscore.Lipo.Weighted>
-9.3616

> <Gold.Chemscore.Internal_Hbond.Weighted>
0.0000

> <Gold.Chemscore.DEClash.Weighted>
0.0306

> <Gold.Chemscore.DEInternal.Weighted>
0.4338

> <Gold.Chemscore.Rot.Weighted>
5.4326

> <Gold.Chemscore.Internal.Correction.Weighted>
   9.000000E+99

> <Gold.Protein.RotatedTorsions>
[ 6907 6896 6895 6894 ] final -138.13 input  -60.11 | X-H torsion
[ 7974 7965 7964 7962 ] final  107.07 input  175.53 | X-H torsion
[ 8008 7997 7996 7995 ] final   99.46 input   59.86 | X-H torsion
[ 10167 10162 10161 10158 ] final -139.67 input  -65.29 | X-H torsion
[ 10718 10713 10712 10709 ] final   50.87 input   66.30 | X-H torsion
[ 10763 10752 10751 10750 ] final  138.73 input  -60.55 | X-H torsion
[ 11005 11000 10999 10996 ] final   36.48 input  -57.11 | X-H torsion

> <Gold.Protein.ActiveResidues>
 VAL166  LYS551  ARG553  GLY616  TRP617  ASP618  TYR619  PRO620  LYS621  CYS622 
 ASP623  PHE694  ASN695  SER759  ASP760  ASP761  ALA762  ILE779  LEU786  VAL792 
 PHE793  MET794  SER795  GLU796  ALA797  LYS798  CYS799  TRP800  GLU811  SER814 

> <Gold.Protein.RotatedAtoms>
  151.0312  133.5789  159.2660 H   0  0  0  0  0  0  0  0  0  0  0  0  # atno 6907 bound_to 6896
  151.2870  135.0730  159.9200 H   0  0  0  0  0  0  0  0  0  0  0  0  # atno 6908 bound_to 6896
  152.5345  134.0017  159.7952 H   0  0  0  0  0  0  0  0  0  0  0  0  # atno 6909 bound_to 6896
  145.2984  139.2577  143.3827 H   0  0  0  0  0  0  0  0  0  0  0  0  # atno 7974 bound_to 7965
  156.1107  140.3228  155.8068 H   0  0  0  0  0  0  0  0  0  0  0  0  # atno 8008 bound_to 7997
  155.4678  140.0544  157.3000 H   0  0  0  0  0  0  0  0  0  0  0  0  # atno 8009 bound_to 7997
  154.4758  140.2031  155.9897 H   0  0  0  0  0  0  0  0  0  0  0  0  # atno 8010 bound_to 7997
  139.8356  143.7389  152.2665 H   0  0  0  0  0  0  0  0  0  0  0  0  # atno 10167 bound_to 10162
  157.4926  130.8386  149.8221 H   0  0  0  0  0  0  0  0  0  0  0  0  # atno 10718 bound_to 10713
  153.8944  135.3029  155.3448 H   0  0  0  0  0  0  0  0  0  0  0  0  # atno 10763 bound_to 10752
  154.7701  135.4890  153.9634 H   0  0  0  0  0  0  0  0  0  0  0  0  # atno 10764 bound_to 10752
  153.1279  135.6797  153.9325 H   0  0  0  0  0  0  0  0  0  0  0  0  # atno 10765 bound_to 10752
  140.2321  134.3515  155.7959 H   0  0  0  0  0  0  0  0  0  0  0  0  # atno 11005 bound_to 11000
  146.3160  140.3492  142.8654 LP  0  0  0  0  0  0  0  0  0  0  0  0  # atno 17320 bound_to 7965
  144.9114  140.7761  143.5805 LP  0  0  0  0  0  0  0  0  0  0  0  0  # atno 17321 bound_to 7965
  139.7610  144.7506  151.0364 LP  0  0  0  0  0  0  0  0  0  0  0  0  # atno 17342 bound_to 10162
  140.7803  143.4751  151.0093 LP  0  0  0  0  0  0  0  0  0  0  0  0  # atno 17343 bound_to 10162
  156.0182  130.3805  150.2043 LP  0  0  0  0  0  0  0  0  0  0  0  0  # atno 17370 bound_to 10713
  157.0232  130.9985  151.3333 LP  0  0  0  0  0  0  0  0  0  0  0  0  # atno 17371 bound_to 10713
  141.2217  133.7251  156.8749 LP  0  0  0  0  0  0  0  0  0  0  0  0  # atno 17394 bound_to 11000
  140.1740  134.9080  157.2867 LP  0  0  0  0  0  0  0  0  0  0  0  0  # atno 17395 bound_to 11000

$$$$
