AV-unprocessed.smi:415|AV-procd|sdf|2525|dock7
  -GOLD-   2262022483D 1   1.00000     0.00000
 Structure written by MMmdl.
 53 54  0  0  0  0  0  0  0  0  1 V2000
  145.5000  131.7402  150.1919 C   0  0  0  0  0  0  0  0  0  0  0  0
  145.2537  132.3869  151.4277 O   0  0  0  0  0  0  0  0  0  0  0  0
  146.2191  132.0611  152.4139 C   0  0  0  0  0  0  0  0  0  0  0  0
  147.2785  133.1738  152.4815 C   0  0  0  0  0  0  0  0  0  0  0  0
  148.0706  133.1351  153.6968 N   0  0  0  0  0  0  0  0  0  0  0  0
  148.8341  132.0365  154.0829 C   0  0  0  0  0  0  0  0  0  0  0  0
  148.8425  130.8973  153.2982 N   0  0  0  0  0  0  0  0  0  0  0  0
  149.5630  132.0507  155.2210 C   0  0  0  0  0  0  0  0  0  0  0  0
  149.5858  133.2066  156.1067 C   0  0  0  0  0  0  0  0  0  0  0  0
  150.2606  133.2461  157.1359 O   0  0  0  0  0  0  0  0  0  0  0  0
  148.7809  134.2991  155.7104 N   0  0  0  0  0  0  0  0  0  0  0  0
  148.7554  135.5148  156.5535 C   0  0  0  0  0  0  0  0  0  0  0  0
  148.5249  135.2087  158.0404 C   0  0  0  0  0  0  0  0  0  0  0  0
  149.4345  135.3418  158.8602 O   0  0  0  0  0  0  0  0  0  0  0  0
  147.2945  134.7868  158.3687 N   0  0  0  0  0  0  0  0  0  0  0  0
  146.8464  134.4469  159.7175 C   0  0  1  0  0  0  0  0  0  0  0  0
  147.6616  133.2477  160.2468 C   0  0  0  0  0  0  0  0  0  0  0  0
  147.2891  132.8948  161.6932 C   0  0  0  0  0  0  0  0  0  0  0  0
  147.4340  134.1146  162.6164 C   0  0  0  0  0  0  0  0  0  0  0  0
  146.6080  135.3200  162.1229 C   0  0  2  0  0  0  0  0  0  0  0  0
  145.0975  135.1063  162.3518 C   0  0  0  0  0  0  0  0  0  0  0  0
  146.9860  135.6718  160.6588 C   0  0  2  0  0  0  0  0  0  0  0  0
  146.2393  136.9177  160.1425 C   0  0  0  0  0  0  0  0  0  0  0  0
  148.0174  134.2883  154.5207 C   0  0  0  0  0  0  0  0  0  0  0  0
  147.3275  135.2655  154.2150 O   0  0  0  0  0  0  0  0  0  0  0  0
  144.7310  132.0217  149.4728 H   0  0  0  0  0  0  0  0  0  0  0  0
  145.4771  130.6553  150.3023 H   0  0  0  0  0  0  0  0  0  0  0  0
  146.4677  132.0305  149.7804 H   0  0  0  0  0  0  0  0  0  0  0  0
  145.7300  131.9672  153.3844 H   0  0  0  0  0  0  0  0  0  0  0  0
  146.6813  131.0980  152.1914 H   0  0  0  0  0  0  0  0  0  0  0  0
  147.9650  133.1210  151.6375 H   0  0  0  0  0  0  0  0  0  0  0  0
  146.8291  134.1662  152.4150 H   0  0  0  0  0  0  0  0  0  0  0  0
  148.3058  130.8379  152.4448 H   0  0  0  0  0  0  0  0  0  0  0  0
  149.5100  130.1558  153.4557 H   0  0  0  0  0  0  0  0  0  0  0  0
  150.1486  131.1833  155.4909 H   0  0  0  0  0  0  0  0  0  0  0  0
  149.6858  136.0742  156.4376 H   0  0  0  0  0  0  0  0  0  0  0  0
  147.9852  136.2164  156.2312 H   0  0  0  0  0  0  0  0  0  0  0  0
  146.6119  134.7018  157.6297 H   0  0  0  0  0  0  0  0  0  0  0  0
  145.7933  134.1650  159.6716 H   0  0  0  0  0  0  0  0  0  0  0  0
  147.5069  132.3753  159.6108 H   0  0  0  0  0  0  0  0  0  0  0  0
  148.7270  133.4777  160.1968 H   0  0  0  0  0  0  0  0  0  0  0  0
  146.2669  132.5171  161.7283 H   0  0  0  0  0  0  0  0  0  0  0  0
  147.9250  132.0845  162.0502 H   0  0  0  0  0  0  0  0  0  0  0  0
  147.1465  133.8487  163.6339 H   0  0  0  0  0  0  0  0  0  0  0  0
  148.4862  134.3977  162.6663 H   0  0  0  0  0  0  0  0  0  0  0  0
  146.8923  136.1696  162.7452 H   0  0  0  0  0  0  0  0  0  0  0  0
  144.6952  134.3059  161.7317 H   0  0  0  0  0  0  0  0  0  0  0  0
  144.5278  136.0099  162.1357 H   0  0  0  0  0  0  0  0  0  0  0  0
  144.8955  134.8469  163.3913 H   0  0  0  0  0  0  0  0  0  0  0  0
  148.0437  135.9407  160.6736 H   0  0  0  0  0  0  0  0  0  0  0  0
  145.1819  136.7121  159.9759 H   0  0  0  0  0  0  0  0  0  0  0  0
  146.6551  137.2703  159.1985 H   0  0  0  0  0  0  0  0  0  0  0  0
  146.3133  137.7414  160.8528 H   0  0  0  0  0  0  0  0  0  0  0  0
  1  2  1  0  0  0  0
  1 26  1  0  0  0  0
  1 27  1  0  0  0  0
  1 28  1  0  0  0  0
  2  3  1  0  0  0  0
  3  4  1  0  0  0  0
  3 29  1  0  0  0  0
  3 30  1  0  0  0  0
  4  5  1  0  0  0  0
  4 31  1  0  0  0  0
  4 32  1  0  0  0  0
  5 24  1  0  0  0  0
  5  6  1  0  0  0  0
  6  7  1  0  0  0  0
  6  8  2  0  0  0  0
  7 33  1  0  0  0  0
  7 34  1  0  0  0  0
  8  9  1  0  0  0  0
  8 35  1  0  0  0  0
  9 10  2  0  0  0  0
  9 11  1  0  0  0  0
 11 12  1  0  0  0  0
 11 24  1  0  0  0  0
 12 13  1  0  0  0  0
 12 36  1  0  0  0  0
 12 37  1  0  0  0  0
 13 14  2  0  0  0  0
 13 15  1  0  0  0  0
 15 16  1  0  0  0  0
 15 38  1  0  0  0  0
 16 22  1  0  0  0  0
 16 17  1  0  0  0  0
 16 39  1  0  0  0  0
 17 18  1  0  0  0  0
 17 40  1  0  0  0  0
 17 41  1  0  0  0  0
 18 19  1  0  0  0  0
 18 42  1  0  0  0  0
 18 43  1  0  0  0  0
 19 20  1  0  0  0  0
 19 44  1  0  0  0  0
 19 45  1  0  0  0  0
 20 21  1  0  0  0  0
 20 22  1  0  0  0  0
 20 46  1  0  0  0  0
 21 47  1  0  0  0  0
 21 48  1  0  0  0  0
 21 49  1  0  0  0  0
 22 23  1  0  0  0  0
 22 50  1  0  0  0  0
 23 51  1  0  0  0  0
 23 52  1  0  0  0  0
 23 53  1  0  0  0  0
 24 25  2  0  0  0  0
M  END
> <s_m_source_file>
AV-unprocessed.smi

> <i_m_source_file_index>
415

> <i_lp_mmshare_version>
43012

> <i_f3d_flags>
0

> <s_epik_input>
W0NIM11PW0NIMl1bQ0gyXW4xYyhbTkgyXSlbY0hdYyg9TyluKGMxPU8pW0NIMl1DKD1PKVtOSF1bQ0BASF0yW0NIMl1bQ0gyXVtDSDJdW0NAQEhdKFtDSDNdKVtDQEhdMltDSDNd

> <s_epik_cmdline>
J2VwaWtfcHl0aG9uJywgJy1waCcsICc3LjAnLCAnLXRuJywgJzgnLCAnLW1hJywgJzIwMCcsICctbWV0YWxfYmluZGluZycsICctaW1hZScsICc8aW5maWxlLm1hZT4nLCAnLW9tYWUnLCAnPG91dGZpbGUubWFlPic=

> <r_lp_tautomer_probability>
1

> <r_epik_Ionization_Penalty>
8.6647e-06

> <r_epik_Ionization_Penalty_Charging>
1.81162e-08

> <r_epik_Ionization_Penalty_Neutral>
8.64658e-06

> <r_epik_State_Penalty>
-0

> <r_epik_Charging_Adjusted_Penalty>
1.81162e-08

> <i_epik_Tot_Q>
0

> <i_epik_Tot_abs_Q>
0

> <r_epik_Metal_State_Penalty>
-0

> <b_epik_Metal_Only>
0

> <s_lp_Force_Field>
OPLS_2005

> <r_lp_Energy>
23.106

> <b_lp_Chiralities_Consistent>
1

> <s_lp_Variant>
AV-unprocessed.smi:415-8

> <Gold.Version>
5.8.1

> <Gold.Id.Protein>
6NUR|6NUR_protein|mol2

> <Gold.PLP.Fitness>
39.4390

> <Gold.PLP.PLP>
-35.7097

> <Gold.PLP.part.hbond>
-2.7316

> <Gold.PLP.part.metal>
0.0000

> <Gold.PLP.part.buried>
-2.2385

> <Gold.PLP.part.nonpolar>
-31.4254

> <Gold.PLP.part.repulsive>
1.7881

> <Gold.PLP.ligand.clash>
0.0000

> <Gold.PLP.ligand.torsion>
0.5746

> <Gold.PLP.Chemscore.Hbond>
1.6201

> <Gold.PLP.Chemscore.CHOScore>
0.0000

> <Gold.PLP.Chemscore.Metal>
0.0000

> <Gold.Chemscore.Hbonds>
donor molecule, donor type, donor heavy atom, donor atom, acceptor molecule, acceptor atom, score
      L1  H     7    33       P1 10747  0.26
      P1  H  6896  6908       L1    14  1.00

> <Gold.PLP.Chemscore.Internal.Correction>
0.0181

> <Gold.Rescore>
     Score         DG    S(hbond)    S(metal)    S(lipo)     H(rot)  DE(clash)    DE(int)     intcor
      9.69     -12.55       1.39        0.00      70.33       2.26       0.06       2.80       ----

> <Gold.Chemscore.Fitness>
9.6886

> <Gold.Chemscore.DG>
-12.5473

> <Gold.Chemscore.ZeroCoef>
-5.4800

> <Gold.Chemscore.Hbond>
1.3878

> <Gold.Chemscore.Metal>
0.0000

> <Gold.Chemscore.Lipo>
70.3337

> <Gold.Chemscore.Internal_Hbond>
0.0000

> <Gold.Chemscore.DEClash>
0.0580

> <Gold.Chemscore.DEInternal>
2.8007

> <Gold.Chemscore.Rot>
2.2645

> <Gold.Chemscore.Internal.Correction>
   9.000000E+99

> <Gold.Chemscore.Hbonds>
donor molecule, donor type, donor heavy atom, donor atom, acceptor molecule, acceptor atom, score
      L1  H     7    33       P1 10747  0.27
      P1  H  6896  6908       L1    14  0.99

> <Gold.Chemscore.Hbond.Weighted>
-4.6354

> <Gold.Chemscore.Metal.Weighted>
-0.0000

> <Gold.Chemscore.Lipo.Weighted>
-8.2290

> <Gold.Chemscore.Internal_Hbond.Weighted>
0.0000

> <Gold.Chemscore.DEClash.Weighted>
0.0580

> <Gold.Chemscore.DEInternal.Weighted>
2.8007

> <Gold.Chemscore.Rot.Weighted>
5.7972

> <Gold.Chemscore.Internal.Correction.Weighted>
   9.000000E+99

> <Gold.Protein.RotatedTorsions>
[ 6907 6896 6895 6894 ] final  169.04 input  -60.11 | X-H torsion
[ 7974 7965 7964 7962 ] final -116.77 input  175.53 | X-H torsion
[ 8008 7997 7996 7995 ] final   41.48 input   59.86 | X-H torsion
[ 10167 10162 10161 10158 ] final  125.68 input  -65.29 | X-H torsion
[ 10718 10713 10712 10709 ] final  -42.04 input   66.30 | X-H torsion
[ 10763 10752 10751 10750 ] final  108.32 input  -60.55 | X-H torsion
[ 11005 11000 10999 10996 ] final  -56.01 input  -57.11 | X-H torsion

> <Gold.Protein.ActiveResidues>
 VAL166  LYS551  ARG553  GLY616  TRP617  ASP618  TYR619  PRO620  LYS621  CYS622 
 ASP623  PHE694  ASN695  SER759  ASP760  ASP761  ALA762  ILE779  LEU786  VAL792 
 PHE793  MET794  SER795  GLU796  ALA797  LYS798  CYS799  TRP800  GLU811  SER814 

> <Gold.Protein.RotatedAtoms>
  151.8381  133.3419  159.3634 H   0  0  0  0  0  0  0  0  0  0  0  0  # atno 6907 bound_to 6896
  150.7243  134.5417  159.5760 H   0  0  0  0  0  0  0  0  0  0  0  0  # atno 6908 bound_to 6896
  152.2885  134.7749  160.0433 H   0  0  0  0  0  0  0  0  0  0  0  0  # atno 6909 bound_to 6896
  145.0929  140.8501  143.3972 H   0  0  0  0  0  0  0  0  0  0  0  0  # atno 7974 bound_to 7965
  155.2704  140.3365  155.4266 H   0  0  0  0  0  0  0  0  0  0  0  0  # atno 8008 bound_to 7997
  156.2135  140.1779  156.7683 H   0  0  0  0  0  0  0  0  0  0  0  0  # atno 8009 bound_to 7997
  154.5720  140.0668  156.8963 H   0  0  0  0  0  0  0  0  0  0  0  0  # atno 8010 bound_to 7997
  139.5672  144.6918  151.3877 H   0  0  0  0  0  0  0  0  0  0  0  0  # atno 10167 bound_to 10162
  156.2638  130.4199  149.8513 H   0  0  0  0  0  0  0  0  0  0  0  0  # atno 10718 bound_to 10713
  153.4190  135.3816  155.2099 H   0  0  0  0  0  0  0  0  0  0  0  0  # atno 10763 bound_to 10752
  154.8743  135.3812  154.4408 H   0  0  0  0  0  0  0  0  0  0  0  0  # atno 10764 bound_to 10752
  153.4925  135.7088  153.5938 H   0  0  0  0  0  0  0  0  0  0  0  0  # atno 10765 bound_to 10752
  141.1101  133.6611  156.4556 H   0  0  0  0  0  0  0  0  0  0  0  0  # atno 11005 bound_to 11000
  145.1045  139.2799  143.5669 LP  0  0  0  0  0  0  0  0  0  0  0  0  # atno 17320 bound_to 7965
  146.3531  140.0622  142.8628 LP  0  0  0  0  0  0  0  0  0  0  0  0  # atno 17321 bound_to 7965
  140.6956  143.7757  150.7321 LP  0  0  0  0  0  0  0  0  0  0  0  0  # atno 17342 bound_to 10162
  140.1252  143.4575  152.2288 LP  0  0  0  0  0  0  0  0  0  0  0  0  # atno 17343 bound_to 10162
  156.6018  130.8550  151.3433 LP  0  0  0  0  0  0  0  0  0  0  0  0  # atno 17370 bound_to 10713
  157.7260  130.9623  150.1638 LP  0  0  0  0  0  0  0  0  0  0  0  0  # atno 17371 bound_to 10713
  140.4799  134.6674  157.5166 LP  0  0  0  0  0  0  0  0  0  0  0  0  # atno 17394 bound_to 11000
  139.9990  134.6866  155.9562 LP  0  0  0  0  0  0  0  0  0  0  0  0  # atno 17395 bound_to 11000

$$$$
