AV-unprocessed.smi:1809|AV-procd|sdf|7324|dock8
  -GOLD-   22720 8583D 1   1.00000     0.00000
 Structure written by MMmdl.
 39 41  0  0  0  0  0  0  0  0  3 V2000
  146.1676  133.8220  162.3899 C   0  0  0  0  0  0  0  0  0  0  0  0
  146.8147  134.9969  161.7404 C   0  0  0  0  0  0  0  0  0  0  0  0
  146.7309  136.2333  162.2370 N   0  0  0  0  0  0  0  0  0  0  0  0
  147.4074  137.1579  161.4543 N   0  0  0  0  0  0  0  0  0  0  0  0
  147.9842  136.6109  160.3747 C   0  0  0  0  0  0  0  0  0  0  0  0
  148.6868  137.3360  159.4886 N   0  5  0  0  0  0  0  0  0  0  0  0
  149.4701  136.7160  158.5781 C   0  0  0  0  0  0  0  0  0  0  0  0
  150.6864  136.5309  158.6643 O   0  0  0  0  0  0  0  0  0  0  0  0
  148.8049  136.2892  157.4956 N   0  0  0  0  0  0  0  0  0  0  0  0
  149.3949  135.6077  156.3484 C   0  0  0  0  0  0  0  0  0  0  0  0
  149.7036  136.5877  155.2034 C   0  0  1  0  0  0  0  0  0  0  0  0
  148.4889  137.4586  154.8482 C   0  0  0  0  0  0  0  0  0  0  0  0
  148.8131  138.4197  153.7638 N   0  3  1  0  0  0  0  0  0  0  0  0
  147.7666  139.4526  153.5985 C   0  0  0  0  0  0  0  0  0  0  0  0
  148.2541  140.7016  154.3561 C   0  0  0  0  0  0  0  0  0  0  0  0
  149.6555  140.3538  154.8707 C   0  0  0  0  0  0  0  0  0  0  0  0
  150.0690  139.1639  154.0047 C   0  0  1  0  0  0  0  0  0  0  0  0
  151.2052  138.2820  154.5629 C   0  0  0  0  0  0  0  0  0  0  0  0
  150.7436  137.4612  155.6255 O   0  0  0  0  0  0  0  0  0  0  0  0
  147.7459  134.8674  160.2576 S   0  0  0  0  0  0  0  0  0  0  0  0
  145.0994  133.8187  162.1728 H   0  0  0  0  0  0  0  0  0  0  0  0
  146.3075  133.8628  163.4703 H   0  0  0  0  0  0  0  0  0  0  0  0
  146.6037  132.8951  162.0172 H   0  0  0  0  0  0  0  0  0  0  0  0
  147.8101  136.4586  157.4662 H   0  0  0  0  0  0  0  0  0  0  0  0
  150.3026  135.0893  156.6618 H   0  0  0  0  0  0  0  0  0  0  0  0
  148.7007  134.8384  156.0092 H   0  0  0  0  0  0  0  0  0  0  0  0
  150.0181  136.0274  154.3209 H   0  0  0  0  0  0  0  0  0  0  0  0
  147.6554  136.8322  154.5282 H   0  0  0  0  0  0  0  0  0  0  0  0
  148.1568  137.9988  155.7365 H   0  0  0  0  0  0  0  0  0  0  0  0
  147.6768  139.6813  152.5359 H   0  0  0  0  0  0  0  0  0  0  0  0
  146.7868  139.1137  153.9389 H   0  0  0  0  0  0  0  0  0  0  0  0
  148.2916  141.5585  153.6825 H   0  0  0  0  0  0  0  0  0  0  0  0
  147.5881  140.9604  155.1799 H   0  0  0  0  0  0  0  0  0  0  0  0
  150.3513  141.1901  154.7962 H   0  0  0  0  0  0  0  0  0  0  0  0
  149.6021  140.0578  155.9194 H   0  0  0  0  0  0  0  0  0  0  0  0
  150.3937  139.5617  153.0416 H   0  0  0  0  0  0  0  0  0  0  0  0
  151.6162  137.6502  153.7736 H   0  0  0  0  0  0  0  0  0  0  0  0
  152.0264  138.9036  154.9205 H   0  0  0  0  0  0  0  0  0  0  0  0
  148.9062  137.8895  152.9090 H   0  0  0  0  0  0  0  0  0  0  0  0
  1  2  1  0  0  0  0
  1 21  1  0  0  0  0
  1 22  1  0  0  0  0
  1 23  1  0  0  0  0
  2 20  1  0  0  0  0
  2  3  2  0  0  0  0
  3  4  1  0  0  0  0
  4  5  2  0  0  0  0
  5  6  1  0  0  0  0
  5 20  1  0  0  0  0
  6  7  1  0  0  0  0
  7  8  2  0  0  0  0
  7  9  1  0  0  0  0
  9 10  1  0  0  0  0
  9 24  1  0  0  0  0
 10 11  1  0  0  0  0
 10 25  1  0  0  0  0
 10 26  1  0  0  0  0
 11 19  1  0  0  0  0
 11 12  1  0  0  0  0
 11 27  1  0  0  0  0
 12 13  1  0  0  0  0
 12 28  1  0  0  0  0
 12 29  1  0  0  0  0
 13 17  1  0  0  0  0
 13 14  1  0  0  0  0
 13 39  1  0  0  0  0
 14 15  1  0  0  0  0
 14 30  1  0  0  0  0
 14 31  1  0  0  0  0
 15 16  1  0  0  0  0
 15 32  1  0  0  0  0
 15 33  1  0  0  0  0
 16 17  1  0  0  0  0
 16 34  1  0  0  0  0
 16 35  1  0  0  0  0
 17 18  1  0  0  0  0
 17 36  1  0  0  0  0
 18 19  1  0  0  0  0
 18 37  1  0  0  0  0
 18 38  1  0  0  0  0
M  CHG  1   6  -1
M  CHG  1  13   1
M  END
> <s_m_source_file>
AV-unprocessed.smi

> <i_m_source_file_index>
1809

> <i_lp_mmshare_version>
43012

> <i_f3d_flags>
0

> <s_epik_input>
W0NIM11jMW5uYyhzMSlbTkhdQyg9TylbTkhdW0NIMl1bQ0BIXShbQ0gyXTIpT1tDSDJdW0NAQEhdKE4yMylbQ0gyXVtDSDJdW0NIMl0z

> <s_epik_cmdline>
J2VwaWtfcHl0aG9uJywgJy1waCcsICc3LjAnLCAnLXRuJywgJzgnLCAnLW1hJywgJzIwMCcsICctbWV0YWxfYmluZGluZycsICctaW1hZScsICc8aW5maWxlLm1hZT4nLCAnLW9tYWUnLCAnPG91dGZpbGUubWFlPic=

> <r_lp_tautomer_probability>
1

> <r_epik_Ionization_Penalty>
3.2601

> <r_epik_Ionization_Penalty_Charging>
3.1406

> <r_epik_Ionization_Penalty_Neutral>
0.119497

> <r_epik_State_Penalty>
3.08894

> <r_epik_Charging_Adjusted_Penalty>
6.22954

> <i_epik_Tot_Q>
0

> <i_epik_Tot_abs_Q>
2

> <r_epik_Metal_State_Penalty>
0.510807

> <b_epik_Metal_Only>
1

> <s_lp_Force_Field>
OPLS_2005

> <r_lp_Energy>
28.9947

> <b_lp_Chiralities_Consistent>
1

> <s_lp_Variant>
AV-unprocessed.smi:1809-16

> <Gold.Version>
5.8.1

> <Gold.Id.Protein>
6NUR|6NUR_protein|mol2

> <Gold.PLP.Fitness>
43.0118

> <Gold.PLP.PLP>
-31.3822

> <Gold.PLP.part.hbond>
-5.1258

> <Gold.PLP.part.metal>
0.0000

> <Gold.PLP.part.buried>
-0.7797

> <Gold.PLP.part.nonpolar>
-24.9713

> <Gold.PLP.part.repulsive>
0.1516

> <Gold.PLP.ligand.clash>
0.0000

> <Gold.PLP.ligand.torsion>
0.9764

> <Gold.PLP.Chemscore.Hbond>
4.5200

> <Gold.PLP.Chemscore.CHOScore>
0.0000

> <Gold.PLP.Chemscore.Metal>
0.0000

> <Gold.Chemscore.Hbonds>
donor molecule, donor type, donor heavy atom, donor atom, acceptor molecule, acceptor atom, score
      L1  H    13    39       P1  7948  2.00
      P1  H  6896  6907       L1     8  0.86
      P1  H  6931  6943       L1     4  0.65
      P1  H  6934  6947       L1     4  0.91

> <Gold.PLP.Chemscore.Internal.Correction>
0.0225

> <Gold.Rescore>
     Score         DG    S(hbond)    S(metal)    S(lipo)     H(rot)  DE(clash)    DE(int)     intcor
     17.23     -18.37       2.57        0.00      65.87       1.32       0.22       0.92       ----

> <Gold.Chemscore.Fitness>
17.2281

> <Gold.Chemscore.DG>
-18.3693

> <Gold.Chemscore.ZeroCoef>
-5.4800

> <Gold.Chemscore.Hbond>
2.5667

> <Gold.Chemscore.Metal>
0.0000

> <Gold.Chemscore.Lipo>
65.8746

> <Gold.Chemscore.Internal_Hbond>
0.0000

> <Gold.Chemscore.DEClash>
0.2245

> <Gold.Chemscore.DEInternal>
0.9166

> <Gold.Chemscore.Rot>
1.3246

> <Gold.Chemscore.Internal.Correction>
   9.000000E+99

> <Gold.Chemscore.Hbonds>
donor molecule, donor type, donor heavy atom, donor atom, acceptor molecule, acceptor atom, score
      L1  H    13    39       P1  7948  0.97
      P1  H  6896  6907       L1     8  0.42
      P1  H  6931  6943       L1     4  0.06
      P1  H  6934  6947       L1     4  0.35

> <Gold.Chemscore.Hbond.Weighted>
-8.5729

> <Gold.Chemscore.Metal.Weighted>
-0.0000

> <Gold.Chemscore.Lipo.Weighted>
-7.7073

> <Gold.Chemscore.Internal_Hbond.Weighted>
0.0000

> <Gold.Chemscore.DEClash.Weighted>
0.2245

> <Gold.Chemscore.DEInternal.Weighted>
0.9166

> <Gold.Chemscore.Rot.Weighted>
3.3910

> <Gold.Chemscore.Internal.Correction.Weighted>
   9.000000E+99

> <Gold.Protein.RotatedTorsions>
[ 6907 6896 6895 6894 ] final  -48.96 input  -60.11 | X-H torsion
[ 7974 7965 7964 7962 ] final  116.61 input  175.53 | X-H torsion
[ 8008 7997 7996 7995 ] final -131.92 input   59.86 | X-H torsion
[ 10167 10162 10161 10158 ] final  129.51 input  -65.29 | X-H torsion
[ 10718 10713 10712 10709 ] final  143.95 input   66.30 | X-H torsion
[ 10763 10752 10751 10750 ] final  174.23 input  -60.55 | X-H torsion
[ 11005 11000 10999 10996 ] final  -33.75 input  -57.11 | X-H torsion

> <Gold.Protein.ActiveResidues>
 VAL166  LYS551  ARG553  GLY616  TRP617  ASP618  TYR619  PRO620  LYS621  CYS622 
 ASP623  PHE694  ASN695  SER759  ASP760  ASP761  ALA762  ILE779  LEU786  VAL792 
 PHE793  MET794  SER795  GLU796  ALA797  LYS798  CYS799  TRP800  GLU811  SER814 

> <Gold.Protein.RotatedAtoms>
  150.8853  134.8250  159.7254 H   0  0  0  0  0  0  0  0  0  0  0  0  # atno 6907 bound_to 6896
  152.4804  134.4732  159.9652 H   0  0  0  0  0  0  0  0  0  0  0  0  # atno 6908 bound_to 6896
  151.4801  133.3509  159.2872 H   0  0  0  0  0  0  0  0  0  0  0  0  # atno 6909 bound_to 6896
  145.1776  139.3067  143.4435 H   0  0  0  0  0  0  0  0  0  0  0  0  # atno 7974 bound_to 7965
  155.3204  140.0462  157.3039 H   0  0  0  0  0  0  0  0  0  0  0  0  # atno 8008 bound_to 7997
  154.5383  140.2279  155.8650 H   0  0  0  0  0  0  0  0  0  0  0  0  # atno 8009 bound_to 7997
  156.1856  140.3063  155.9239 H   0  0  0  0  0  0  0  0  0  0  0  0  # atno 8010 bound_to 7997
  139.5474  144.6785  151.4430 H   0  0  0  0  0  0  0  0  0  0  0  0  # atno 10167 bound_to 10162
  157.3630  131.0968  151.0898 H   0  0  0  0  0  0  0  0  0  0  0  0  # atno 10718 bound_to 10713
  154.4511  135.2765  155.1781 H   0  0  0  0  0  0  0  0  0  0  0  0  # atno 10763 bound_to 10752
  154.3607  135.6130  153.5693 H   0  0  0  0  0  0  0  0  0  0  0  0  # atno 10764 bound_to 10752
  152.9847  135.5834  154.4855 H   0  0  0  0  0  0  0  0  0  0  0  0  # atno 10765 bound_to 10752
  140.9661  133.7136  156.1447 H   0  0  0  0  0  0  0  0  0  0  0  0  # atno 11005 bound_to 11000
  146.3458  140.1943  142.8589 LP  0  0  0  0  0  0  0  0  0  0  0  0  # atno 17320 bound_to 7965
  145.0169  140.8761  143.5190 LP  0  0  0  0  0  0  0  0  0  0  0  0  # atno 17321 bound_to 7965
  140.6727  143.8259  150.7019 LP  0  0  0  0  0  0  0  0  0  0  0  0  # atno 17342 bound_to 10162
  140.1688  143.4212  152.2015 LP  0  0  0  0  0  0  0  0  0  0  0  0  # atno 17343 bound_to 10162
  157.2031  130.6404  149.5746 LP  0  0  0  0  0  0  0  0  0  0  0  0  # atno 17370 bound_to 10713
  155.9741  130.4684  150.6360 LP  0  0  0  0  0  0  0  0  0  0  0  0  # atno 17371 bound_to 10713
  140.7398  134.4163  157.5556 LP  0  0  0  0  0  0  0  0  0  0  0  0  # atno 17394 bound_to 11000
  139.8895  134.8829  156.2419 LP  0  0  0  0  0  0  0  0  0  0  0  0  # atno 17395 bound_to 11000

$$$$
