AV-unprocessed.smi:2044|AV-procd|sdf|8301|dock10
  -GOLD-   2272010563D 1   1.00000     0.00000
 Structure written by MMmdl.
 40 41  0  0  0  0  0  0  0  0  2 V2000
  136.5976  139.4601  154.3506 C   0  0  0  0  0  0  0  0  0  0  0  0
  138.0754  139.5407  154.1755 C   0  0  0  0  0  0  0  0  0  0  0  0
  138.9902  138.7049  153.5999 C   0  0  0  0  0  0  0  0  0  0  0  0
  140.2193  139.4034  153.7815 C   0  0  0  0  0  0  0  0  0  0  0  0
  141.5025  138.9722  153.3566 N   0  0  0  0  0  0  0  0  0  0  0  0
  141.9927  137.7218  153.3192 C   0  0  0  0  0  0  0  0  0  0  0  0
  141.3963  136.7083  153.6832 O   0  0  0  0  0  0  0  0  0  0  0  0
  143.2376  137.7018  152.8214 N   0  0  0  0  0  0  0  0  0  0  0  0
  144.0380  136.4958  152.6292 C   0  0  0  0  0  0  0  0  0  0  0  0
  145.4765  136.7929  152.1259 C   0  0  1  0  0  0  0  0  0  0  0  0
  146.1491  137.8521  153.0334 C   0  0  0  0  0  0  0  0  0  0  0  0
  146.2625  135.5208  152.0091 N   0  3  0  0  0  0  0  0  0  0  0  0
  146.4465  134.8414  153.3212 C   0  0  0  0  0  0  0  0  0  0  0  0
  147.3245  133.5876  153.1798 C   0  0  0  0  0  0  0  0  0  0  0  0
  146.7309  132.6989  152.2458 O   0  0  0  0  0  0  0  0  0  0  0  0
  146.6398  133.2858  150.9565 C   0  0  0  0  0  0  0  0  0  0  0  0
  145.7507  134.5403  151.0113 C   0  0  0  0  0  0  0  0  0  0  0  0
  140.0624  140.5541  154.4094 N   0  0  0  0  0  0  0  0  0  0  0  0
  138.6898  140.6503  154.6663 O   0  0  0  0  0  0  0  0  0  0  0  0
  136.2404  138.4446  154.1783 H   0  0  0  0  0  0  0  0  0  0  0  0
  136.0898  140.1208  153.6480 H   0  0  0  0  0  0  0  0  0  0  0  0
  136.3095  139.7526  155.3605 H   0  0  0  0  0  0  0  0  0  0  0  0
  138.7929  137.7538  153.1289 H   0  0  0  0  0  0  0  0  0  0  0  0
  142.1146  139.7050  153.0293 H   0  0  0  0  0  0  0  0  0  0  0  0
  143.6580  138.5788  152.5491 H   0  0  0  0  0  0  0  0  0  0  0  0
  144.0840  135.9704  153.5837 H   0  0  0  0  0  0  0  0  0  0  0  0
  143.4931  135.8395  151.9517 H   0  0  0  0  0  0  0  0  0  0  0  0
  145.4184  137.2299  151.1275 H   0  0  0  0  0  0  0  0  0  0  0  0
  145.5418  138.7526  153.1230 H   0  0  0  0  0  0  0  0  0  0  0  0
  147.1067  138.1855  152.6334 H   0  0  0  0  0  0  0  0  0  0  0  0
  146.3131  137.4681  154.0409 H   0  0  0  0  0  0  0  0  0  0  0  0
  146.9104  135.5045  154.0486 H   0  0  0  0  0  0  0  0  0  0  0  0
  145.4726  134.5628  153.7268 H   0  0  0  0  0  0  0  0  0  0  0  0
  148.3360  133.8502  152.8654 H   0  0  0  0  0  0  0  0  0  0  0  0
  147.4112  133.0804  154.1408 H   0  0  0  0  0  0  0  0  0  0  0  0
  147.6358  133.5307  150.5839 H   0  0  0  0  0  0  0  0  0  0  0  0
  146.2147  132.5560  150.2672 H   0  0  0  0  0  0  0  0  0  0  0  0
  144.7256  134.2623  151.2619 H   0  0  0  0  0  0  0  0  0  0  0  0
  145.7387  134.9733  150.0116 H   0  0  0  0  0  0  0  0  0  0  0  0
  147.1814  135.7864  151.6846 H   0  0  0  0  0  0  0  0  0  0  0  0
  1  2  1  0  0  0  0
  1 20  1  0  0  0  0
  1 21  1  0  0  0  0
  1 22  1  0  0  0  0
  2 19  1  0  0  0  0
  2  3  2  0  0  0  0
  3  4  1  0  0  0  0
  3 23  1  0  0  0  0
  4  5  1  0  0  0  0
  4 18  2  0  0  0  0
  5  6  1  0  0  0  0
  5 24  1  0  0  0  0
  6  7  2  0  0  0  0
  6  8  1  0  0  0  0
  8  9  1  0  0  0  0
  8 25  1  0  0  0  0
  9 10  1  0  0  0  0
  9 26  1  0  0  0  0
  9 27  1  0  0  0  0
 10 11  1  0  0  0  0
 10 12  1  0  0  0  0
 10 28  1  0  0  0  0
 11 29  1  0  0  0  0
 11 30  1  0  0  0  0
 11 31  1  0  0  0  0
 12 17  1  0  0  0  0
 12 13  1  0  0  0  0
 12 40  1  0  0  0  0
 13 14  1  0  0  0  0
 13 32  1  0  0  0  0
 13 33  1  0  0  0  0
 14 15  1  0  0  0  0
 14 34  1  0  0  0  0
 14 35  1  0  0  0  0
 15 16  1  0  0  0  0
 16 17  1  0  0  0  0
 16 36  1  0  0  0  0
 16 37  1  0  0  0  0
 17 38  1  0  0  0  0
 17 39  1  0  0  0  0
 18 19  1  0  0  0  0
M  CHG  1  12   1
M  END
> <s_m_source_file>
AV-unprocessed.smi

> <i_m_source_file_index>
2044

> <i_lp_mmshare_version>
43012

> <i_f3d_flags>
0

> <s_epik_input>
W0NIM11jMVtjSF1jKG5vMSlbTkhdQyg9TylbTkhdW0NIMl1bQ0BIXShbQ0gzXSlOMltDSDJdW0NIMl1PW0NIMl1bQ0gyXTI=

> <s_epik_cmdline>
J2VwaWtfcHl0aG9uJywgJy1waCcsICc3LjAnLCAnLXRuJywgJzgnLCAnLW1hJywgJzIwMCcsICctbWV0YWxfYmluZGluZycsICctaW1hZScsICc8aW5maWxlLm1hZT4nLCAnLW9tYWUnLCAnPG91dGZpbGUubWFlPic=

> <r_epik_Ionization_Penalty>
0.707076

> <r_epik_Ionization_Penalty_Charging>
0.707039

> <r_epik_Ionization_Penalty_Neutral>
3.67886e-05

> <r_epik_State_Penalty>
0.730276

> <r_epik_Charging_Adjusted_Penalty>
1.43732

> <i_epik_Tot_Q>
1

> <i_epik_Tot_abs_Q>
1

> <r_epik_Metal_State_Penalty>
0.743216

> <b_epik_Metal_Only>
0

> <s_lp_Force_Field>
OPLS_2005

> <r_lp_Energy>
19.4768

> <b_lp_Chiralities_Consistent>
1

> <s_lp_Variant>
AV-unprocessed.smi:2044-4

> <Gold.Version>
5.8.1

> <Gold.Id.Protein>
6NUR|6NUR_protein|mol2

> <Gold.PLP.Fitness>
39.6528

> <Gold.PLP.PLP>
-28.2127

> <Gold.PLP.part.hbond>
-4.8745

> <Gold.PLP.part.metal>
0.0000

> <Gold.PLP.part.buried>
-2.4381

> <Gold.PLP.part.nonpolar>
-21.1920

> <Gold.PLP.part.repulsive>
0.6208

> <Gold.PLP.ligand.clash>
0.0000

> <Gold.PLP.ligand.torsion>
0.3003

> <Gold.PLP.Chemscore.Hbond>
4.0000

> <Gold.PLP.Chemscore.CHOScore>
0.0000

> <Gold.PLP.Chemscore.Metal>
0.0000

> <Gold.Chemscore.Hbonds>
donor molecule, donor type, donor heavy atom, donor atom, acceptor molecule, acceptor atom, score
      L1  H     5    24       P1 10175  1.00
      L1  H     8    25       P1 10175  1.00
      L1  H    12    40       P1  7948  2.00

> <Gold.PLP.Chemscore.Internal.Correction>
0.0408

> <Gold.Rescore>
     Score         DG    S(hbond)    S(metal)    S(lipo)     H(rot)  DE(clash)    DE(int)     intcor
     17.23     -17.56       2.84        0.00      57.57       1.62       0.02       0.31       ----

> <Gold.Chemscore.Fitness>
17.2300

> <Gold.Chemscore.DG>
-17.5634

> <Gold.Chemscore.ZeroCoef>
-5.4800

> <Gold.Chemscore.Hbond>
2.8439

> <Gold.Chemscore.Metal>
0.0000

> <Gold.Chemscore.Lipo>
57.5686

> <Gold.Chemscore.Internal_Hbond>
0.0000

> <Gold.Chemscore.DEClash>
0.0185

> <Gold.Chemscore.DEInternal>
0.3149

> <Gold.Chemscore.Rot>
1.6213

> <Gold.Chemscore.Internal.Correction>
   9.000000E+99

> <Gold.Chemscore.Hbonds>
donor molecule, donor type, donor heavy atom, donor atom, acceptor molecule, acceptor atom, score
      L1  H     5    24       P1 10175  0.70
      L1  H     8    25       P1 10175  0.95
      L1  H    12    40       P1  7948  0.99

> <Gold.Chemscore.Hbond.Weighted>
-9.4985

> <Gold.Chemscore.Metal.Weighted>
-0.0000

> <Gold.Chemscore.Lipo.Weighted>
-6.7355

> <Gold.Chemscore.Internal_Hbond.Weighted>
0.0000

> <Gold.Chemscore.DEClash.Weighted>
0.0185

> <Gold.Chemscore.DEInternal.Weighted>
0.3149

> <Gold.Chemscore.Rot.Weighted>
4.1506

> <Gold.Chemscore.Internal.Correction.Weighted>
   9.000000E+99

> <Gold.Protein.RotatedTorsions>
[ 6907 6896 6895 6894 ] final -103.55 input  -60.11 | X-H torsion
[ 7974 7965 7964 7962 ] final  -86.46 input  175.53 | X-H torsion
[ 8008 7997 7996 7995 ] final   49.42 input   59.86 | X-H torsion
[ 10167 10162 10161 10158 ] final -150.17 input  -65.29 | X-H torsion
[ 10718 10713 10712 10709 ] final -109.69 input   66.30 | X-H torsion
[ 10763 10752 10751 10750 ] final  -46.22 input  -60.55 | X-H torsion
[ 11005 11000 10999 10996 ] final   84.00 input  -57.11 | X-H torsion

> <Gold.Protein.ActiveResidues>
 VAL166  LYS551  ARG553  GLY616  TRP617  ASP618  TYR619  PRO620  LYS621  CYS622 
 ASP623  PHE694  ASN695  SER759  ASP760  ASP761  ALA762  ILE779  LEU786  VAL792 
 PHE793  MET794  SER795  GLU796  ALA797  LYS798  CYS799  TRP800  GLU811  SER814 

> <Gold.Protein.RotatedAtoms>
  150.7245  134.0412  159.3766 H   0  0  0  0  0  0  0  0  0  0  0  0  # atno 6907 bound_to 6896
  151.8386  135.0595  160.0454 H   0  0  0  0  0  0  0  0  0  0  0  0  # atno 6908 bound_to 6896
  152.2880  133.5497  159.5575 H   0  0  0  0  0  0  0  0  0  0  0  0  # atno 6909 bound_to 6896
  145.4796  140.9557  143.1872 H   0  0  0  0  0  0  0  0  0  0  0  0  # atno 7974 bound_to 7965
  155.4020  140.3438  155.4257 H   0  0  0  0  0  0  0  0  0  0  0  0  # atno 8008 bound_to 7997
  156.1498  140.1567  156.8820 H   0  0  0  0  0  0  0  0  0  0  0  0  # atno 8009 bound_to 7997
  154.5042  140.0806  156.7842 H   0  0  0  0  0  0  0  0  0  0  0  0  # atno 8010 bound_to 7997
  139.7377  143.8710  152.2553 H   0  0  0  0  0  0  0  0  0  0  0  0  # atno 10167 bound_to 10162
  156.0550  130.5776  150.8134 H   0  0  0  0  0  0  0  0  0  0  0  0  # atno 10718 bound_to 10713
  154.0413  135.6643  153.4790 H   0  0  0  0  0  0  0  0  0  0  0  0  # atno 10763 bound_to 10752
  153.0500  135.5090  154.7839 H   0  0  0  0  0  0  0  0  0  0  0  0  # atno 10764 bound_to 10752
  154.6816  135.3046  154.9571 H   0  0  0  0  0  0  0  0  0  0  0  0  # atno 10765 bound_to 10752
  139.9013  134.8185  156.2385 H   0  0  0  0  0  0  0  0  0  0  0  0  # atno 11005 bound_to 11000
  144.7897  139.6354  143.7119 LP  0  0  0  0  0  0  0  0  0  0  0  0  # atno 17320 bound_to 7965
  146.2349  139.5885  142.9530 LP  0  0  0  0  0  0  0  0  0  0  0  0  # atno 17321 bound_to 7965
  139.8651  144.7097  150.9053 LP  0  0  0  0  0  0  0  0  0  0  0  0  # atno 17342 bound_to 10162
  140.7781  143.3785  151.1520 LP  0  0  0  0  0  0  0  0  0  0  0  0  # atno 17343 bound_to 10162
  157.5512  131.0944  150.9693 LP  0  0  0  0  0  0  0  0  0  0  0  0  # atno 17370 bound_to 10713
  156.9952  130.5579  149.5306 LP  0  0  0  0  0  0  0  0  0  0  0  0  # atno 17371 bound_to 10713
  141.0300  133.6994  156.1413 LP  0  0  0  0  0  0  0  0  0  0  0  0  # atno 17394 bound_to 11000
  140.7111  134.4461  157.5581 LP  0  0  0  0  0  0  0  0  0  0  0  0  # atno 17395 bound_to 11000

$$$$
