AV-unprocessed.smi:1830|AV-procd|sdf|7435|dock1
  -GOLD-   22720 9123D 1   1.00000     0.00000
 Structure written by MMmdl.
 53 56  0  0  0  0  0  0  0  0  2 V2000
  146.6705  132.6218  158.6628 O   0  0  0  0  0  0  0  0  0  0  0  0
  147.0186  133.5727  157.9625 C   0  0  0  0  0  0  0  0  0  0  0  0
  147.0949  133.5137  156.6259 N   0  0  0  0  0  0  0  0  0  0  0  0
  146.7691  132.3392  155.8238 C   0  0  0  0  0  0  0  0  0  0  0  0
  146.9385  132.6037  154.3169 C   0  0  1  0  0  0  0  0  0  0  0  0
  146.3500  131.4670  153.4666 C   0  0  0  0  0  0  0  0  0  0  0  0
  146.4862  131.7504  152.0155 N   0  3  1  0  0  0  0  0  0  0  0  0
  145.6837  130.8243  151.1858 C   0  0  0  0  0  0  0  0  0  0  0  0
  144.3746  131.5595  150.8438 C   0  0  0  0  0  0  0  0  0  0  0  0
  144.5233  132.9673  151.4318 C   0  0  0  0  0  0  0  0  0  0  0  0
  146.0303  133.1082  151.6456 C   0  0  1  0  0  0  0  0  0  0  0  0
  146.4749  134.1956  152.6455 C   0  0  0  0  0  0  0  0  0  0  0  0
  146.2338  133.7938  153.9865 O   0  0  0  0  0  0  0  0  0  0  0  0
  147.3520  134.7921  158.4172 N   0  0  0  0  0  0  0  0  0  0  0  0
  147.3745  135.2570  159.7631 C   0  0  0  0  0  0  0  0  0  0  0  0
  147.0452  134.4094  160.8493 C   0  0  0  0  0  0  0  0  0  0  0  0
  147.0645  134.9228  162.1571 C   0  0  0  0  0  0  0  0  0  0  0  0
  147.4163  136.2706  162.3361 C   0  0  0  0  0  0  0  0  0  0  0  0
  147.7521  137.0852  161.3164 N   0  0  0  0  0  0  0  0  0  0  0  0
  147.7539  136.6003  160.0500 C   0  0  0  0  0  0  0  0  0  0  0  0
  148.1379  137.4958  159.0254 N   0  0  0  0  0  0  0  0  0  0  0  0
  147.1328  137.8847  158.0406 C   0  0  0  0  0  0  0  0  0  0  0  0
  147.8621  138.0007  156.6979 C   0  0  0  0  0  0  0  0  0  0  0  0
  149.3218  138.1954  157.0959 C   0  0  0  0  0  0  0  0  0  0  0  0
  149.4299  137.3512  158.3623 C   0  0  0  0  0  0  0  0  0  0  0  0
  147.3870  134.3412  156.1264 H   0  0  0  0  0  0  0  0  0  0  0  0
  147.3995  131.5046  156.1354 H   0  0  0  0  0  0  0  0  0  0  0  0
  145.7413  132.0469  156.0411 H   0  0  0  0  0  0  0  0  0  0  0  0
  147.9989  132.7181  154.0842 H   0  0  0  0  0  0  0  0  0  0  0  0
  146.8537  130.5261  153.6919 H   0  0  0  0  0  0  0  0  0  0  0  0
  145.2974  131.3312  153.7211 H   0  0  0  0  0  0  0  0  0  0  0  0
  146.2377  130.6191  150.2690 H   0  0  0  0  0  0  0  0  0  0  0  0
  145.5089  129.8662  151.6779 H   0  0  0  0  0  0  0  0  0  0  0  0
  144.2406  131.6040  149.7624 H   0  0  0  0  0  0  0  0  0  0  0  0
  143.5049  131.0517  151.2616 H   0  0  0  0  0  0  0  0  0  0  0  0
  144.1167  133.7409  150.7796 H   0  0  0  0  0  0  0  0  0  0  0  0
  143.9984  133.0267  152.3863 H   0  0  0  0  0  0  0  0  0  0  0  0
  146.4745  133.3405  150.6760 H   0  0  0  0  0  0  0  0  0  0  0  0
  147.5376  134.4104  152.5214 H   0  0  0  0  0  0  0  0  0  0  0  0
  145.9460  135.1285  152.4497 H   0  0  0  0  0  0  0  0  0  0  0  0
  147.5158  135.4986  157.7152 H   0  0  0  0  0  0  0  0  0  0  0  0
  146.7853  133.3722  160.7032 H   0  0  0  0  0  0  0  0  0  0  0  0
  146.8131  134.2988  163.0019 H   0  0  0  0  0  0  0  0  0  0  0  0
  147.4372  136.7050  163.3245 H   0  0  0  0  0  0  0  0  0  0  0  0
  146.3104  137.1697  157.9864 H   0  0  0  0  0  0  0  0  0  0  0  0
  146.7224  138.8541  158.3235 H   0  0  0  0  0  0  0  0  0  0  0  0
  147.7563  137.0686  156.1414 H   0  0  0  0  0  0  0  0  0  0  0  0
  147.4782  138.8091  156.0754 H   0  0  0  0  0  0  0  0  0  0  0  0
  150.0226  137.8879  156.3193 H   0  0  0  0  0  0  0  0  0  0  0  0
  149.5083  139.2447  157.3281 H   0  0  0  0  0  0  0  0  0  0  0  0
  150.2456  137.6855  159.0037 H   0  0  0  0  0  0  0  0  0  0  0  0
  149.6134  136.3113  158.0888 H   0  0  0  0  0  0  0  0  0  0  0  0
  147.4640  131.6573  151.7791 H   0  0  0  0  0  0  0  0  0  0  0  0
  1  2  2  0  0  0  0
  2  3  1  0  0  0  0
  2 14  1  0  0  0  0
  3  4  1  0  0  0  0
  3 26  1  0  0  0  0
  4  5  1  0  0  0  0
  4 27  1  0  0  0  0
  4 28  1  0  0  0  0
  5 13  1  0  0  0  0
  5  6  1  0  0  0  0
  5 29  1  0  0  0  0
  6  7  1  0  0  0  0
  6 30  1  0  0  0  0
  6 31  1  0  0  0  0
  7 11  1  0  0  0  0
  7  8  1  0  0  0  0
  7 53  1  0  0  0  0
  8  9  1  0  0  0  0
  8 32  1  0  0  0  0
  8 33  1  0  0  0  0
  9 10  1  0  0  0  0
  9 34  1  0  0  0  0
  9 35  1  0  0  0  0
 10 11  1  0  0  0  0
 10 36  1  0  0  0  0
 10 37  1  0  0  0  0
 11 12  1  0  0  0  0
 11 38  1  0  0  0  0
 12 13  1  0  0  0  0
 12 39  1  0  0  0  0
 12 40  1  0  0  0  0
 14 15  1  0  0  0  0
 14 41  1  0  0  0  0
 15 20  1  0  0  0  0
 15 16  2  0  0  0  0
 16 17  1  0  0  0  0
 16 42  1  0  0  0  0
 17 18  2  0  0  0  0
 17 43  1  0  0  0  0
 18 19  1  0  0  0  0
 18 44  1  0  0  0  0
 19 20  2  0  0  0  0
 20 21  1  0  0  0  0
 21 25  1  0  0  0  0
 21 22  1  0  0  0  0
 22 23  1  0  0  0  0
 22 45  1  0  0  0  0
 22 46  1  0  0  0  0
 23 24  1  0  0  0  0
 23 47  1  0  0  0  0
 23 48  1  0  0  0  0
 24 25  1  0  0  0  0
 24 49  1  0  0  0  0
 24 50  1  0  0  0  0
 25 51  1  0  0  0  0
 25 52  1  0  0  0  0
M  CHG  1   7   1
M  END
> <s_m_source_file>
AV-unprocessed.smi

> <i_m_source_file_index>
1830

> <i_lp_mmshare_version>
43012

> <i_f3d_flags>
0

> <s_epik_input>
W0NIMl0xW0NIMl1bQ0gyXVtDQEhdKE4xMilbQ0gyXU9bQ0BASF0oW0NIMl0yKVtDSDJdW05IXUMoPU8pW05IXWMzW2NIXVtjSF1bY0hdbmMzTjRbQ0gyXVtDSDJdW0NIMl1bQ0gyXTQ=

> <s_epik_cmdline>
J2VwaWtfcHl0aG9uJywgJy1waCcsICc3LjAnLCAnLXRuJywgJzgnLCAnLW1hJywgJzIwMCcsICctbWV0YWxfYmluZGluZycsICctaW1hZScsICc8aW5maWxlLm1hZT4nLCAnLW9tYWUnLCAnPG91dGZpbGUubWFlPic=

> <r_lp_tautomer_probability>
1

> <r_epik_Ionization_Penalty>
0.193547

> <r_epik_Ionization_Penalty_Charging>
0.10673

> <r_epik_Ionization_Penalty_Neutral>
0.0868166

> <r_epik_State_Penalty>
0.173595

> <r_epik_Charging_Adjusted_Penalty>
0.280326

> <i_epik_Tot_Q>
1

> <i_epik_Tot_abs_Q>
1

> <r_epik_Metal_State_Penalty>
0.164683

> <b_epik_Metal_Only>
0

> <s_lp_Force_Field>
OPLS_2005

> <r_lp_Energy>
64.3317

> <b_lp_Chiralities_Consistent>
1

> <s_lp_Variant>
AV-unprocessed.smi:1830-4

> <Gold.Version>
5.8.1

> <Gold.Id.Protein>
6NUR|6NUR_protein|mol2

> <Gold.PLP.Fitness>
39.0665

> <Gold.PLP.PLP>
-31.8859

> <Gold.PLP.part.hbond>
-3.3357

> <Gold.PLP.part.metal>
0.0000

> <Gold.PLP.part.buried>
-4.6323

> <Gold.PLP.part.nonpolar>
-22.9635

> <Gold.PLP.part.repulsive>
0.1107

> <Gold.PLP.ligand.clash>
0.0000

> <Gold.PLP.ligand.torsion>
0.2242

> <Gold.PLP.Chemscore.Hbond>
2.4355

> <Gold.PLP.Chemscore.CHOScore>
0.0000

> <Gold.PLP.Chemscore.Metal>
0.0000

> <Gold.Chemscore.Hbonds>
donor molecule, donor type, donor heavy atom, donor atom, acceptor molecule, acceptor atom, score
      L1  H     7    53       P1 10747  0.35
      P1  H  6931  6943       L1    19  1.00
      P1  H  6934  6947       L1    19  0.77

> <Gold.PLP.Chemscore.Internal.Correction>
0.3227

> <Gold.Rescore>
     Score         DG    S(hbond)    S(metal)    S(lipo)     H(rot)  DE(clash)    DE(int)     intcor
     16.37     -18.11       2.05        0.00      80.17       1.41       0.15       1.59       ----

> <Gold.Chemscore.Fitness>
16.3694

> <Gold.Chemscore.DG>
-18.1057

> <Gold.Chemscore.ZeroCoef>
-5.4800

> <Gold.Chemscore.Hbond>
2.0501

> <Gold.Chemscore.Metal>
0.0000

> <Gold.Chemscore.Lipo>
80.1663

> <Gold.Chemscore.Internal_Hbond>
0.0000

> <Gold.Chemscore.DEClash>
0.1460

> <Gold.Chemscore.DEInternal>
1.5902

> <Gold.Chemscore.Rot>
1.4067

> <Gold.Chemscore.Internal.Correction>
   9.000000E+99

> <Gold.Chemscore.Hbonds>
donor molecule, donor type, donor heavy atom, donor atom, acceptor molecule, acceptor atom, score
      L1  H     7    53       P1 10747  0.33
      P1  H  6931  6943       L1    19  0.62
      P1  H  6934  6947       L1    19  0.19

> <Gold.Chemscore.Hbond.Weighted>
-6.8473

> <Gold.Chemscore.Metal.Weighted>
-0.0000

> <Gold.Chemscore.Lipo.Weighted>
-9.3795

> <Gold.Chemscore.Internal_Hbond.Weighted>
0.0000

> <Gold.Chemscore.DEClash.Weighted>
0.1460

> <Gold.Chemscore.DEInternal.Weighted>
1.5902

> <Gold.Chemscore.Rot.Weighted>
3.6011

> <Gold.Chemscore.Internal.Correction.Weighted>
   9.000000E+99

> <Gold.Protein.RotatedTorsions>
[ 6907 6896 6895 6894 ] final -172.48 input  -60.11 | X-H torsion
[ 7974 7965 7964 7962 ] final -120.49 input  175.53 | X-H torsion
[ 8008 7997 7996 7995 ] final -140.29 input   59.86 | X-H torsion
[ 10167 10162 10161 10158 ] final -148.85 input  -65.29 | X-H torsion
[ 10718 10713 10712 10709 ] final  -75.30 input   66.30 | X-H torsion
[ 10763 10752 10751 10750 ] final  -72.09 input  -60.55 | X-H torsion
[ 11005 11000 10999 10996 ] final   19.54 input  -57.11 | X-H torsion

> <Gold.Protein.ActiveResidues>
 VAL166  LYS551  ARG553  GLY616  TRP617  ASP618  TYR619  PRO620  LYS621  CYS622 
 ASP623  PHE694  ASN695  SER759  ASP760  ASP761  ALA762  ILE779  LEU786  VAL792 
 PHE793  MET794  SER795  GLU796  ALA797  LYS798  CYS799  TRP800  GLU811  SER814 

> <Gold.Protein.RotatedAtoms>
  151.5406  133.3433  159.2934 H   0  0  0  0  0  0  0  0  0  0  0  0  # atno 6907 bound_to 6896
  150.8538  134.7873  159.7040 H   0  0  0  0  0  0  0  0  0  0  0  0  # atno 6908 bound_to 6896
  152.4577  134.5263  159.9849 H   0  0  0  0  0  0  0  0  0  0  0  0  # atno 6909 bound_to 6896
  145.0508  140.8217  143.4210 H   0  0  0  0  0  0  0  0  0  0  0  0  # atno 7974 bound_to 7965
  155.4589  140.0544  157.2993 H   0  0  0  0  0  0  0  0  0  0  0  0  # atno 8008 bound_to 7997
  154.4746  140.2055  155.9866 H   0  0  0  0  0  0  0  0  0  0  0  0  # atno 8009 bound_to 7997
  156.1110  140.3204  155.8078 H   0  0  0  0  0  0  0  0  0  0  0  0  # atno 8010 bound_to 7997
  139.7494  143.8541  152.2583 H   0  0  0  0  0  0  0  0  0  0  0  0  # atno 10167 bound_to 10162
  156.0212  130.4437  150.3022 H   0  0  0  0  0  0  0  0  0  0  0  0  # atno 10718 bound_to 10713
  154.4408  135.5941  153.6128 H   0  0  0  0  0  0  0  0  0  0  0  0  # atno 10763 bound_to 10752
  152.9805  135.5997  154.3724 H   0  0  0  0  0  0  0  0  0  0  0  0  # atno 10764 bound_to 10752
  154.3574  135.2841  155.2318 H   0  0  0  0  0  0  0  0  0  0  0  0  # atno 10765 bound_to 10752
  140.4125  134.1603  155.7668 H   0  0  0  0  0  0  0  0  0  0  0  0  # atno 11005 bound_to 11000
  145.1529  139.2503  143.5431 LP  0  0  0  0  0  0  0  0  0  0  0  0  # atno 17320 bound_to 7965
  146.3518  140.1236  142.8599 LP  0  0  0  0  0  0  0  0  0  0  0  0  # atno 17321 bound_to 7965
  139.8515  144.7162  150.9209 LP  0  0  0  0  0  0  0  0  0  0  0  0  # atno 17342 bound_to 10162
  140.7796  143.3895  151.1334 LP  0  0  0  0  0  0  0  0  0  0  0  0  # atno 17343 bound_to 10162
  157.1125  131.0225  151.3042 LP  0  0  0  0  0  0  0  0  0  0  0  0  # atno 17370 bound_to 10713
  157.4693  130.7699  149.7309 LP  0  0  0  0  0  0  0  0  0  0  0  0  # atno 17371 bound_to 10713
  141.1815  133.8403  157.1239 LP  0  0  0  0  0  0  0  0  0  0  0  0  # atno 17394 bound_to 11000
  140.0257  134.9925  157.0681 LP  0  0  0  0  0  0  0  0  0  0  0  0  # atno 17395 bound_to 11000

$$$$
