AV-unprocessed.smi:2787|AV-procd|sdf|10756|dock1
  -GOLD-   2272015183D 1   1.00000     0.00000
 Structure written by MMmdl.
 35 36  0  0  0  0  0  0  0  0  1 V2000
  151.9708  137.1449  153.7311 O   0  0  0  0  0  0  0  0  0  0  0  0
  150.9262  137.6260  154.5509 C   0  0  0  0  0  0  0  0  0  0  0  0
  151.4727  138.6082  155.5966 C   0  0  0  0  0  0  0  0  0  0  0  0
  150.4021  139.0905  156.5903 C   0  0  0  0  0  0  0  0  0  0  0  0
  150.7676  140.3876  157.2503 C   0  0  0  0  0  0  0  0  0  0  0  0
  151.9339  140.5370  157.8796 N   0  0  0  0  0  0  0  0  0  0  0  0
  151.8804  141.8444  158.3191 C   0  0  0  0  0  0  0  0  0  0  0  0
  152.8200  142.6054  159.0506 C   0  0  0  0  0  0  0  0  0  0  0  0
  152.5434  143.9458  159.3900 C   0  0  0  0  0  0  0  0  0  0  0  0
  151.3265  144.5432  159.0029 C   0  0  0  0  0  0  0  0  0  0  0  0
  150.3765  143.8020  158.2741 C   0  0  0  0  0  0  0  0  0  0  0  0
  150.6563  142.4632  157.9387 C   0  0  0  0  0  0  0  0  0  0  0  0
  149.9560  141.4778  157.2473 N   0  0  0  0  0  0  0  0  0  0  0  0
  148.6262  141.6248  156.6658 C   0  0  0  0  0  0  0  0  0  0  0  0
  148.5643  141.2006  155.1842 C   0  0  2  0  0  0  0  0  0  0  0  0
  149.3852  142.0567  154.4120 O   0  0  0  0  0  0  0  0  0  0  0  0
  147.1322  141.2167  154.6162 C   0  0  0  0  0  0  0  0  0  0  0  0
  146.6947  142.4716  154.5087 F   0  0  0  0  0  0  0  0  0  0  0  0
  147.1336  140.6760  153.3977 F   0  0  0  0  0  0  0  0  0  0  0  0
  146.3014  140.5184  155.3911 F   0  0  0  0  0  0  0  0  0  0  0  0
  151.6185  136.9580  152.8742 H   0  0  0  0  0  0  0  0  0  0  0  0
  150.1643  138.1007  153.9318 H   0  0  0  0  0  0  0  0  0  0  0  0
  150.4566  136.7757  155.0458 H   0  0  0  0  0  0  0  0  0  0  0  0
  152.2738  138.1187  156.1513 H   0  0  0  0  0  0  0  0  0  0  0  0
  151.9336  139.4580  155.0930 H   0  0  0  0  0  0  0  0  0  0  0  0
  149.4389  139.1755  156.0908 H   0  0  0  0  0  0  0  0  0  0  0  0
  150.2647  138.3396  157.3693 H   0  0  0  0  0  0  0  0  0  0  0  0
  153.7554  142.1569  159.3506 H   0  0  0  0  0  0  0  0  0  0  0  0
  153.2689  144.5183  159.9493 H   0  0  0  0  0  0  0  0  0  0  0  0
  151.1229  145.5711  159.2654 H   0  0  0  0  0  0  0  0  0  0  0  0
  149.4452  144.2596  157.9753 H   0  0  0  0  0  0  0  0  0  0  0  0
  147.9124  141.0583  157.2628 H   0  0  0  0  0  0  0  0  0  0  0  0
  148.3217  142.6670  156.7638 H   0  0  0  0  0  0  0  0  0  0  0  0
  148.9595  140.1905  155.0835 H   0  0  0  0  0  0  0  0  0  0  0  0
  149.3284  142.9294  154.7703 H   0  0  0  0  0  0  0  0  0  0  0  0
  1  2  1  0  0  0  0
  1 21  1  0  0  0  0
  2  3  1  0  0  0  0
  2 22  1  0  0  0  0
  2 23  1  0  0  0  0
  3  4  1  0  0  0  0
  3 24  1  0  0  0  0
  3 25  1  0  0  0  0
  4  5  1  0  0  0  0
  4 26  1  0  0  0  0
  4 27  1  0  0  0  0
  5 13  1  0  0  0  0
  5  6  2  0  0  0  0
  6  7  1  0  0  0  0
  7 12  2  0  0  0  0
  7  8  1  0  0  0  0
  8  9  2  0  0  0  0
  8 28  1  0  0  0  0
  9 10  1  0  0  0  0
  9 29  1  0  0  0  0
 10 11  2  0  0  0  0
 10 30  1  0  0  0  0
 11 12  1  0  0  0  0
 11 31  1  0  0  0  0
 12 13  1  0  0  0  0
 13 14  1  0  0  0  0
 14 15  1  0  0  0  0
 14 32  1  0  0  0  0
 14 33  1  0  0  0  0
 15 16  1  0  0  0  0
 15 17  1  0  0  0  0
 15 34  1  0  0  0  0
 16 35  1  0  0  0  0
 17 18  1  0  0  0  0
 17 19  1  0  0  0  0
 17 20  1  0  0  0  0
M  END
> <s_m_source_file>
AV-unprocessed.smi

> <i_m_source_file_index>
2787

> <i_lp_mmshare_version>
43012

> <i_f3d_flags>
0

> <s_epik_input>
W09IXVtDSDJdW0NIMl1bQ0gyXWMobjEpbihbQ0gyXVtDQEhdKFtPSF0pQyhGKShGKUYpYyhjMTIpW2NIXVtjSF1bY0hdW2NIXTI=

> <s_epik_cmdline>
J2VwaWtfcHl0aG9uJywgJy1waCcsICc3LjAnLCAnLXRuJywgJzgnLCAnLW1hJywgJzIwMCcsICctbWV0YWxfYmluZGluZycsICctaW1hZScsICc8aW5maWxlLm1hZT4nLCAnLW9tYWUnLCAnPG91dGZpbGUubWFlPic=

> <r_epik_Ionization_Penalty>
0.137914

> <r_epik_Ionization_Penalty_Charging>
0

> <r_epik_Ionization_Penalty_Neutral>
0.137914

> <r_epik_State_Penalty>
0.107668

> <r_epik_Charging_Adjusted_Penalty>
0.107668

> <i_epik_Tot_Q>
0

> <i_epik_Tot_abs_Q>
0

> <r_epik_Metal_State_Penalty>
0.000111872

> <b_epik_Metal_Only>
0

> <s_lp_Force_Field>
OPLS_2005

> <r_lp_Energy>
10.5181

> <b_lp_Chiralities_Consistent>
1

> <s_lp_Variant>
AV-unprocessed.smi:2787-1

> <Gold.Version>
5.8.1

> <Gold.Id.Protein>
6NUR|6NUR_protein|mol2

> <Gold.PLP.Fitness>
49.6019

> <Gold.PLP.PLP>
-40.4029

> <Gold.PLP.part.hbond>
-5.0000

> <Gold.PLP.part.metal>
0.0000

> <Gold.PLP.part.buried>
-0.8680

> <Gold.PLP.part.nonpolar>
-34.0933

> <Gold.PLP.part.repulsive>
0.0000

> <Gold.PLP.ligand.clash>
0.0000

> <Gold.PLP.ligand.torsion>
0.3160

> <Gold.PLP.Chemscore.Hbond>
3.2480

> <Gold.PLP.Chemscore.CHOScore>
0.0000

> <Gold.PLP.Chemscore.Metal>
0.0000

> <Gold.Chemscore.Hbonds>
donor molecule, donor type, donor heavy atom, donor atom, acceptor molecule, acceptor atom, score
      L1  H     1    21       P1  7949  1.00
      L1  H    16    35       P1  8028  0.99
      P1  H  8011  8017       L1    16  0.23
      P1  H 10752 10765       L1     1  1.00

> <Gold.PLP.Chemscore.Internal.Correction>
0.0869

> <Gold.Rescore>
     Score         DG    S(hbond)    S(metal)    S(lipo)     H(rot)  DE(clash)    DE(int)     intcor
     16.05     -16.65       2.79        0.00      90.96       3.44       0.10       0.51       ----

> <Gold.Chemscore.Fitness>
16.0453

> <Gold.Chemscore.DG>
-16.6498

> <Gold.Chemscore.ZeroCoef>
-5.4800

> <Gold.Chemscore.Hbond>
2.7923

> <Gold.Chemscore.Metal>
0.0000

> <Gold.Chemscore.Lipo>
90.9559

> <Gold.Chemscore.Internal_Hbond>
0.0000

> <Gold.Chemscore.DEClash>
0.0991

> <Gold.Chemscore.DEInternal>
0.5054

> <Gold.Chemscore.Rot>
3.4369

> <Gold.Chemscore.Internal.Correction>
   9.000000E+99

> <Gold.Chemscore.Hbonds>
donor molecule, donor type, donor heavy atom, donor atom, acceptor molecule, acceptor atom, score
      L1  H     1    21       P1  7949  0.97
      L1  H    16    35       P1  8028  0.92
      P1  H  8011  8017       L1    16  0.08
      P1  H 10752 10765       L1     1  0.30

> <Gold.Chemscore.Hbond.Weighted>
-9.3263

> <Gold.Chemscore.Metal.Weighted>
-0.0000

> <Gold.Chemscore.Lipo.Weighted>
-10.6418

> <Gold.Chemscore.Internal_Hbond.Weighted>
0.0000

> <Gold.Chemscore.DEClash.Weighted>
0.0991

> <Gold.Chemscore.DEInternal.Weighted>
0.5054

> <Gold.Chemscore.Rot.Weighted>
8.7984

> <Gold.Chemscore.Internal.Correction.Weighted>
   9.000000E+99

> <Gold.Protein.RotatedTorsions>
[ 6907 6896 6895 6894 ] final   37.93 input  -60.11 | X-H torsion
[ 7974 7965 7964 7962 ] final   22.65 input  175.53 | X-H torsion
[ 8008 7997 7996 7995 ] final   98.06 input   59.86 | X-H torsion
[ 10167 10162 10161 10158 ] final -167.99 input  -65.29 | X-H torsion
[ 10718 10713 10712 10709 ] final  162.10 input   66.30 | X-H torsion
[ 10763 10752 10751 10750 ] final  142.56 input  -60.55 | X-H torsion
[ 11005 11000 10999 10996 ] final  -79.10 input  -57.11 | X-H torsion

> <Gold.Protein.ActiveResidues>
 VAL166  LYS551  ARG553  GLY616  TRP617  ASP618  TYR619  PRO620  LYS621  CYS622 
 ASP623  PHE694  ASN695  SER759  ASP760  ASP761  ALA762  ILE779  LEU786  VAL792 
 PHE793  MET794  SER795  GLU796  ALA797  LYS798  CYS799  TRP800  GLU811  SER814 

> <Gold.Protein.RotatedAtoms>
  152.1497  134.8998  160.0548 H   0  0  0  0  0  0  0  0  0  0  0  0  # atno 6907 bound_to 6896
  152.0035  133.3829  159.4199 H   0  0  0  0  0  0  0  0  0  0  0  0  # atno 6908 bound_to 6896
  150.6874  134.3730  159.5044 H   0  0  0  0  0  0  0  0  0  0  0  0  # atno 6909 bound_to 6896
  146.2019  139.7855  142.8755 H   0  0  0  0  0  0  0  0  0  0  0  0  # atno 7974 bound_to 7965
  156.0965  140.3249  155.7885 H   0  0  0  0  0  0  0  0  0  0  0  0  # atno 8008 bound_to 7997
  155.4908  140.0561  157.2971 H   0  0  0  0  0  0  0  0  0  0  0  0  # atno 8009 bound_to 7997
  154.4670  140.1994  156.0108 H   0  0  0  0  0  0  0  0  0  0  0  0  # atno 8010 bound_to 7997
  139.6013  144.1004  152.1746 H   0  0  0  0  0  0  0  0  0  0  0  0  # atno 10167 bound_to 10162
  157.1273  131.0508  151.2387 H   0  0  0  0  0  0  0  0  0  0  0  0  # atno 10718 bound_to 10713
  153.9578  135.2963  155.3435 H   0  0  0  0  0  0  0  0  0  0  0  0  # atno 10763 bound_to 10752
  154.7391  135.5033  153.9095 H   0  0  0  0  0  0  0  0  0  0  0  0  # atno 10764 bound_to 10752
  153.0961  135.6721  153.9869 H   0  0  0  0  0  0  0  0  0  0  0  0  # atno 10765 bound_to 10752
  141.1666  133.7091  156.8071 H   0  0  0  0  0  0  0  0  0  0  0  0  # atno 11005 bound_to 11000
  145.3453  141.0296  143.3369 LP  0  0  0  0  0  0  0  0  0  0  0  0  # atno 17320 bound_to 7965
  144.8703  139.5047  143.6770 LP  0  0  0  0  0  0  0  0  0  0  0  0  # atno 17321 bound_to 7965
  140.0601  144.5863  150.7269 LP  0  0  0  0  0  0  0  0  0  0  0  0  # atno 17342 bound_to 10162
  140.7252  143.2629  151.4145 LP  0  0  0  0  0  0  0  0  0  0  0  0  # atno 17343 bound_to 10162
  157.4423  130.7551  149.7080 LP  0  0  0  0  0  0  0  0  0  0  0  0  # atno 17370 bound_to 10713
  155.9815  130.4018  150.3466 LP  0  0  0  0  0  0  0  0  0  0  0  0  # atno 17371 bound_to 10713
  140.2214  134.8754  157.3381 LP  0  0  0  0  0  0  0  0  0  0  0  0  # atno 17394 bound_to 11000
  140.1984  134.4285  155.7676 LP  0  0  0  0  0  0  0  0  0  0  0  0  # atno 17395 bound_to 11000

$$$$
