AV-unprocessed.smi:1762|AV-procd|sdf|7123|dock5
  -GOLD-   22720 8353D 1   1.00000     0.00000
 Structure written by MMmdl.
 52 53  0  0  0  0  0  0  0  0  3 V2000
  149.1014  140.6238  154.6881 C   0  0  0  0  0  0  0  0  0  0  0  0
  149.6747  139.2620  154.2807 C   0  0  2  0  0  0  0  0  0  0  0  0
  148.9478  138.0957  154.9769 C   0  0  0  0  0  0  0  0  0  0  0  0
  149.5665  136.7882  154.6231 N   0  3  2  0  0  0  0  0  0  0  0  0
  148.8936  135.5842  155.2188 C   0  0  2  0  0  0  0  0  0  0  0  0
  149.7767  134.9511  156.3223 C   0  0  0  0  0  0  0  0  0  0  0  0
  150.7664  134.2942  155.9802 O   0  0  0  0  0  0  0  0  0  0  0  0
  149.3089  135.2514  157.5645 N   0  5  0  0  0  0  0  0  0  0  0  0
  147.9407  135.6886  157.8358 C   0  0  0  0  0  0  0  0  0  0  0  0
  147.9193  136.6943  159.0105 C   0  0  0  0  0  0  0  0  0  0  0  0
  147.2825  136.1759  160.2988 C   0  0  0  0  0  0  0  0  0  0  0  0
  146.9036  134.8192  160.4172 C   0  0  0  0  0  0  0  0  0  0  0  0
  146.3186  134.3830  161.6211 C   0  0  0  0  0  0  0  0  0  0  0  0
  146.1237  135.3156  162.6571 C   0  0  0  0  0  0  0  0  0  0  0  0
  146.5221  136.6495  162.4406 C   0  0  0  0  0  0  0  0  0  0  0  0
  147.0843  137.0787  161.2906 N   0  0  0  0  0  0  0  0  0  0  0  0
  148.4410  134.5058  154.1748 C   0  0  0  0  0  0  0  0  0  0  0  0
  146.9958  134.7127  153.6815 C   0  0  0  0  0  0  0  0  0  0  0  0
  148.6382  133.0471  154.6378 C   0  0  0  0  0  0  0  0  0  0  0  0
  151.0269  136.8470  154.9206 C   0  0  0  0  0  0  0  0  0  0  0  0
  151.6914  138.0425  154.2156 C   0  0  2  0  0  0  0  0  0  0  0  0
  153.1819  138.1572  154.5545 C   0  0  0  0  0  0  0  0  0  0  0  0
  151.0504  139.2393  154.6348 O   0  0  0  0  0  0  0  0  0  0  0  0
  148.0456  140.7004  154.4271 H   0  0  0  0  0  0  0  0  0  0  0  0
  149.6273  141.4344  154.1833 H   0  0  0  0  0  0  0  0  0  0  0  0
  149.1931  140.7857  155.7623 H   0  0  0  0  0  0  0  0  0  0  0  0
  149.5803  139.1580  153.1983 H   0  0  0  0  0  0  0  0  0  0  0  0
  148.9682  138.2250  156.0602 H   0  0  0  0  0  0  0  0  0  0  0  0
  147.9061  138.1367  154.6654 H   0  0  0  0  0  0  0  0  0  0  0  0
  147.9752  135.9655  155.6726 H   0  0  0  0  0  0  0  0  0  0  0  0
  147.4678  136.1502  156.9675 H   0  0  0  0  0  0  0  0  0  0  0  0
  147.3097  134.8381  158.0958 H   0  0  0  0  0  0  0  0  0  0  0  0
  148.9438  136.9930  159.2363 H   0  0  0  0  0  0  0  0  0  0  0  0
  147.4095  137.6088  158.7042 H   0  0  0  0  0  0  0  0  0  0  0  0
  147.0725  134.1260  159.6063 H   0  0  0  0  0  0  0  0  0  0  0  0
  146.0267  133.3512  161.7477 H   0  0  0  0  0  0  0  0  0  0  0  0
  145.6788  135.0170  163.5946 H   0  0  0  0  0  0  0  0  0  0  0  0
  146.3837  137.3923  163.2120 H   0  0  0  0  0  0  0  0  0  0  0  0
  149.0423  134.6431  153.2773 H   0  0  0  0  0  0  0  0  0  0  0  0
  146.2628  134.5256  154.4671 H   0  0  0  0  0  0  0  0  0  0  0  0
  146.7639  134.0394  152.8561 H   0  0  0  0  0  0  0  0  0  0  0  0
  146.8471  135.7315  153.3229 H   0  0  0  0  0  0  0  0  0  0  0  0
  147.9510  132.7821  155.4412 H   0  0  0  0  0  0  0  0  0  0  0  0
  149.6508  132.8632  154.9954 H   0  0  0  0  0  0  0  0  0  0  0  0
  148.4537  132.3538  153.8169 H   0  0  0  0  0  0  0  0  0  0  0  0
  151.1728  136.9190  155.9998 H   0  0  0  0  0  0  0  0  0  0  0  0
  151.5338  135.9383  154.5965 H   0  0  0  0  0  0  0  0  0  0  0  0
  151.5897  137.9359  153.1340 H   0  0  0  0  0  0  0  0  0  0  0  0
  153.7252  137.2643  154.2443 H   0  0  0  0  0  0  0  0  0  0  0  0
  153.3345  138.2867  155.6264 H   0  0  0  0  0  0  0  0  0  0  0  0
  153.6320  139.0116  154.0484 H   0  0  0  0  0  0  0  0  0  0  0  0
  149.4775  136.6868  153.6220 H   0  0  0  0  0  0  0  0  0  0  0  0
  1  2  1  0  0  0  0
  1 24  1  0  0  0  0
  1 25  1  0  0  0  0
  1 26  1  0  0  0  0
  2 23  1  0  0  0  0
  2  3  1  0  0  0  0
  2 27  1  0  0  0  0
  3  4  1  0  0  0  0
  3 28  1  0  0  0  0
  3 29  1  0  0  0  0
  4  5  1  0  0  0  0
  4 20  1  0  0  0  0
  4 52  1  0  0  0  0
  5  6  1  0  0  0  0
  5 17  1  0  0  0  0
  5 30  1  0  0  0  0
  6  7  2  0  0  0  0
  6  8  1  0  0  0  0
  8  9  1  0  0  0  0
  9 10  1  0  0  0  0
  9 31  1  0  0  0  0
  9 32  1  0  0  0  0
 10 11  1  0  0  0  0
 10 33  1  0  0  0  0
 10 34  1  0  0  0  0
 11 16  1  0  0  0  0
 11 12  2  0  0  0  0
 12 13  1  0  0  0  0
 12 35  1  0  0  0  0
 13 14  2  0  0  0  0
 13 36  1  0  0  0  0
 14 15  1  0  0  0  0
 14 37  1  0  0  0  0
 15 16  2  0  0  0  0
 15 38  1  0  0  0  0
 17 18  1  0  0  0  0
 17 19  1  0  0  0  0
 17 39  1  0  0  0  0
 18 40  1  0  0  0  0
 18 41  1  0  0  0  0
 18 42  1  0  0  0  0
 19 43  1  0  0  0  0
 19 44  1  0  0  0  0
 19 45  1  0  0  0  0
 20 21  1  0  0  0  0
 20 46  1  0  0  0  0
 20 47  1  0  0  0  0
 21 22  1  0  0  0  0
 21 23  1  0  0  0  0
 21 48  1  0  0  0  0
 22 49  1  0  0  0  0
 22 50  1  0  0  0  0
 22 51  1  0  0  0  0
M  CHG  1   4   1
M  CHG  1   8  -1
M  END
> <s_m_source_file>
AV-unprocessed.smi

> <i_m_source_file_index>
1762

> <i_lp_mmshare_version>
43012

> <i_f3d_flags>
0

> <s_epik_input>
W0NIM11bQ0BASF0xW0NIMl1OKFtDSDJdW0NASF0oTzEpW0NIM10pW0NAQEhdKFtDSF0oW0NIM10pW0NIM10pQyg9TylbTkhdW0NIMl1bQ0gyXWMyW2NIXVtjSF1bY0hdW2NIXW4y

> <s_epik_cmdline>
J2VwaWtfcHl0aG9uJywgJy1waCcsICc3LjAnLCAnLXRuJywgJzgnLCAnLW1hJywgJzIwMCcsICctbWV0YWxfYmluZGluZycsICctaW1hZScsICc8aW5maWxlLm1hZT4nLCAnLW9tYWUnLCAnPG91dGZpbGUubWFlPic=

> <r_epik_Ionization_Penalty>
7.82966

> <r_epik_Ionization_Penalty_Charging>
7.7461

> <r_epik_Ionization_Penalty_Neutral>
0.0835571

> <r_epik_State_Penalty>
8.52273

> <r_epik_Charging_Adjusted_Penalty>
16.2688

> <i_epik_Tot_Q>
0

> <i_epik_Tot_abs_Q>
2

> <r_epik_Metal_State_Penalty>
4.47451

> <b_epik_Metal_Only>
1

> <s_lp_Force_Field>
OPLS_2005

> <r_lp_Energy>
21.039

> <b_lp_Chiralities_Consistent>
1

> <s_lp_Variant>
AV-unprocessed.smi:1762-25

> <Gold.Version>
5.8.1

> <Gold.Id.Protein>
6NUR|6NUR_protein|mol2

> <Gold.PLP.Fitness>
54.8464

> <Gold.PLP.PLP>
-43.6649

> <Gold.PLP.part.hbond>
-5.8863

> <Gold.PLP.part.metal>
0.0000

> <Gold.PLP.part.buried>
-2.3162

> <Gold.PLP.part.nonpolar>
-34.2592

> <Gold.PLP.part.repulsive>
0.1544

> <Gold.PLP.ligand.clash>
2.9090

> <Gold.PLP.ligand.torsion>
3.3510

> <Gold.PLP.Chemscore.Hbond>
6.8187

> <Gold.PLP.Chemscore.CHOScore>
0.0000

> <Gold.PLP.Chemscore.Metal>
0.0000

> <Gold.Chemscore.Hbonds>
donor molecule, donor type, donor heavy atom, donor atom, acceptor molecule, acceptor atom, score
      L1  H     4    52       P1  7948  2.00
      P1  H  6931  6943       L1    16  0.17
      P1  H  6934  6947       L1    16  1.00
      P1  H  7989  7998       L1    23  0.77

> <Gold.PLP.Chemscore.Internal.Correction>
0.3364

> <Gold.Rescore>
     Score         DG    S(hbond)    S(metal)    S(lipo)     H(rot)  DE(clash)    DE(int)     intcor
     16.56     -26.35       3.78        0.00     105.55       1.60       4.40       5.39       ----

> <Gold.Chemscore.Fitness>
16.5603

> <Gold.Chemscore.DG>
-26.3471

> <Gold.Chemscore.ZeroCoef>
-5.4800

> <Gold.Chemscore.Hbond>
3.7776

> <Gold.Chemscore.Metal>
0.0000

> <Gold.Chemscore.Lipo>
105.5461

> <Gold.Chemscore.Internal_Hbond>
0.0000

> <Gold.Chemscore.DEClash>
4.3979

> <Gold.Chemscore.DEInternal>
5.3889

> <Gold.Chemscore.Rot>
1.6012

> <Gold.Chemscore.Internal.Correction>
   9.000000E+99

> <Gold.Chemscore.Hbonds>
donor molecule, donor type, donor heavy atom, donor atom, acceptor molecule, acceptor atom, score
      L1  H     4    52       P1  7948  0.82
      P1  H  6896  6908       L1     8  0.03
      P1  H  6931  6943       L1    16  0.09
      P1  H  6934  6947       L1    16  0.92
      P1  H  7989  7998       L1    23  0.10

> <Gold.Chemscore.Hbond.Weighted>
-12.6172

> <Gold.Chemscore.Metal.Weighted>
-0.0000

> <Gold.Chemscore.Lipo.Weighted>
-12.3489

> <Gold.Chemscore.Internal_Hbond.Weighted>
0.0000

> <Gold.Chemscore.DEClash.Weighted>
4.3979

> <Gold.Chemscore.DEInternal.Weighted>
5.3889

> <Gold.Chemscore.Rot.Weighted>
4.0990

> <Gold.Chemscore.Internal.Correction.Weighted>
   9.000000E+99

> <Gold.Protein.RotatedTorsions>
[ 6907 6896 6895 6894 ] final  162.30 input  -60.11 | X-H torsion
[ 7974 7965 7964 7962 ] final  -42.72 input  175.53 | X-H torsion
[ 8008 7997 7996 7995 ] final  106.55 input   59.86 | X-H torsion
[ 10167 10162 10161 10158 ] final -122.36 input  -65.29 | X-H torsion
[ 10718 10713 10712 10709 ] final   34.65 input   66.30 | X-H torsion
[ 10763 10752 10751 10750 ] final -153.70 input  -60.55 | X-H torsion
[ 11005 11000 10999 10996 ] final  -88.05 input  -57.11 | X-H torsion

> <Gold.Protein.ActiveResidues>
 VAL166  LYS551  ARG553  GLY616  TRP617  ASP618  TYR619  PRO620  LYS621  CYS622 
 ASP623  PHE694  ASN695  SER759  ASP760  ASP761  ALA762  ILE779  LEU786  VAL792 
 PHE793  MET794  SER795  GLU796  ALA797  LYS798  CYS799  TRP800  GLU811  SER814 

> <Gold.Protein.RotatedAtoms>
  151.9425  133.3642  159.3969 H   0  0  0  0  0  0  0  0  0  0  0  0  # atno 6907 bound_to 6896
  150.6996  134.4425  159.5308 H   0  0  0  0  0  0  0  0  0  0  0  0  # atno 6908 bound_to 6896
  152.2084  134.8524  160.0551 H   0  0  0  0  0  0  0  0  0  0  0  0  # atno 6909 bound_to 6896
  146.0088  140.6988  142.9234 H   0  0  0  0  0  0  0  0  0  0  0  0  # atno 7974 bound_to 7965
  156.1752  140.3111  155.9046 H   0  0  0  0  0  0  0  0  0  0  0  0  # atno 8008 bound_to 7997
  155.3502  140.0470  157.3063 H   0  0  0  0  0  0  0  0  0  0  0  0  # atno 8009 bound_to 7997
  154.5283  140.2222  155.8860 H   0  0  0  0  0  0  0  0  0  0  0  0  # atno 8010 bound_to 7997
  140.0151  143.5401  152.2246 H   0  0  0  0  0  0  0  0  0  0  0  0  # atno 10167 bound_to 10162
  157.3129  130.7408  149.6736 H   0  0  0  0  0  0  0  0  0  0  0  0  # atno 10718 bound_to 10713
  154.7909  135.3207  154.7778 H   0  0  0  0  0  0  0  0  0  0  0  0  # atno 10763 bound_to 10752
  153.8467  135.6866  153.4801 H   0  0  0  0  0  0  0  0  0  0  0  0  # atno 10764 bound_to 10752
  153.1579  135.4672  154.9671 H   0  0  0  0  0  0  0  0  0  0  0  0  # atno 10765 bound_to 10752
  141.1608  133.7547  156.9395 H   0  0  0  0  0  0  0  0  0  0  0  0  # atno 11005 bound_to 11000
  144.6945  140.3363  143.7207 LP  0  0  0  0  0  0  0  0  0  0  0  0  # atno 17320 bound_to 7965
  145.7373  139.1754  143.2396 LP  0  0  0  0  0  0  0  0  0  0  0  0  # atno 17321 bound_to 7965
  139.6178  144.7623  151.2807 LP  0  0  0  0  0  0  0  0  0  0  0  0  # atno 17342 bound_to 10162
  140.7365  143.6704  150.8086 LP  0  0  0  0  0  0  0  0  0  0  0  0  # atno 17343 bound_to 10162
  155.9679  130.4246  150.4615 LP  0  0  0  0  0  0  0  0  0  0  0  0  # atno 17370 bound_to 10713
  157.2617  131.0568  151.2316 LP  0  0  0  0  0  0  0  0  0  0  0  0  # atno 17371 bound_to 10713
  140.1331  134.9342  157.2365 LP  0  0  0  0  0  0  0  0  0  0  0  0  # atno 17394 bound_to 11000
  140.2928  134.3221  155.7310 LP  0  0  0  0  0  0  0  0  0  0  0  0  # atno 17395 bound_to 11000

$$$$
