#       Name:                AV-unprocessed.smi:2447
#       Creating user name   scv26
#       Creation time:       Fri Mar 27 13:28:16 2020


#       File generated by GOLD software.
#

@<TRIPOS>MOLECULE
AV-unprocessed.smi:2447
    34    35     1
SMALL
NO_CHARGES


@<TRIPOS>ATOM
      1 ****        -5.5182  -1.1005   0.0004 N.am           1 S1                 0.0000
      2 ****        -4.2228  -0.7882  -0.0001 C.2            1 S1                 0.0000
      3 ****        -3.9155   0.4035  -0.0014 O.2            1 S1                 0.0000
      4 ****        -3.3977  -1.8652   0.0009 N.pl3          1 S1                -1.0000
      5 ****        -2.0501  -1.8024   0.0004 C.2            1 S1                 0.0000
      6 ****        -1.3612  -2.9864  -0.0004 N.2            1 S1                 0.0000
      7 ****        -0.1124  -2.5456  -0.0005 C.2            1 S1                 0.0000
      8 ****        -0.0131  -1.2193   0.0001 N.pl3          1 S1                 0.0000
      9 ****         1.1624  -0.3625   0.0000 C.3            1 S1                 0.0000
     10 ****         1.2260   0.5111   1.2701 C.3            1 S1                 0.0000
     11 ****         2.4760   1.4061   1.2690 C.3            1 S1                 0.0000
     12 ****         2.5393   2.2715  -0.0002 C.3            1 S1                 0.0000
     13 ****         2.4759   1.4060  -1.2691 C.3            1 S1                 0.0000
     14 ****         1.2258   0.5110  -1.2700 C.3            1 S1                 0.0000
     15 ****        -1.2683  -0.7135   0.0008 N.2            1 S1                 0.0000
     16 ****        -6.2115  -0.3676  -0.0004 H              1 S1                 0.0000
     17 ****        -5.7938  -2.0713   0.0015 H              1 S1                 0.0000
     18 ****         0.7438  -3.2037  -0.0011 H              1 S1                 0.0000
     19 ****         2.0337  -1.0196   0.0000 H              1 S1                 0.0000
     20 ****         0.3362   1.1389   1.3382 H              1 S1                 0.0000
     21 ****         1.2263  -0.1212   2.1585 H              1 S1                 0.0000
     22 ****         2.4768   2.0429   2.1539 H              1 S1                 0.0000
     23 ****         3.3705   0.7852   1.3338 H              1 S1                 0.0000
     24 ****         1.7091   2.9790  -0.0001 H              1 S1                 0.0000
     25 ****         3.4531   2.8663  -0.0002 H              1 S1                 0.0000
     26 ****         2.4765   2.0429  -2.1542 H              1 S1                 0.0000
     27 ****         3.3703   0.7852  -1.3341 H              1 S1                 0.0000
     28 ****         1.2261  -0.1214  -2.1585 H              1 S1                 0.0000
     29 ****         0.3361   1.1388  -1.3381 H              1 S1                 0.0000
     30 ****        -4.6292   1.1039  -0.0020 LP             1 S1                 0.0000
     31 ****        -2.9520   0.6714  -0.0018 LP             1 S1                 0.0000
     32 ****        -3.8193  -2.7720   0.0021 LP             1 S1                 0.0000
     33 ****        -1.7062  -3.9250  -0.0008 LP             1 S1                 0.0000
     34 ****        -1.5471   0.2469   0.0015 LP             1 S1                 0.0000
@<TRIPOS>BOND
    1    1    2 am    
    2    1   16 1     
    3    1   17 1     
    4    2    3 2     
    5    2    4 1     
    6    4    5 1     
    7    5   15 2     
    8    5    6 1     
    9    6    7 2     
   10    7    8 1     
   11    7   18 1     
   12    8    9 1     
   13    8   15 1     
   14    9   14 1     
   15    9   10 1     
   16    9   19 1     
   17   10   11 1     
   18   10   20 1     
   19   10   21 1     
   20   11   12 1     
   21   11   22 1     
   22   11   23 1     
   23   12   13 1     
   24   12   24 1     
   25   12   25 1     
   26   13   14 1     
   27   13   26 1     
   28   13   27 1     
   29   14   28 1     
   30   14   29 1     
   31    3   30 1     
   32    3   31 1     
   33    4   32 1     
   34    6   33 1     
   35   15   34 1     
@<TRIPOS>SUBSTRUCTURE
      1 S1             1
@<TRIPOS>SET
LONE_PAIRS      STATIC     ATOMS    <user>   **** ""
5 30 31 32 33 34
DONOR_HYDROGENS      STATIC     ATOMS    <user>   **** ""
2 16 17
ATOM$BLUE        STATIC     ATOMS    COLORGROUP SYSTEM
5 30 31 32 33 34
ATOM$RED        STATIC     ATOMS    COLORGROUP SYSTEM
2 16 17
