#       Name:                AV-unprocessed.smi:281
#       Creating user name   scv26
#       Creation time:       Thu Mar 26 21:39:54 2020


#       File generated by GOLD software.
#

@<TRIPOS>MOLECULE
AV-unprocessed.smi:281
    67    71     1
SMALL
NO_CHARGES


@<TRIPOS>ATOM
      1 ****        -4.1775  -3.1167  -1.3281 C.3            1 S1                 0.0000
      2 ****        -3.5489  -2.3453  -0.1632 C.3            1 S1                 0.0000
      3 ****        -2.0219  -2.2237  -0.3097 C.3            1 S1                 0.0000
      4 ****        -1.4877  -1.3936   0.7602 N.3            1 S1                 0.0000
      5 ****        -0.1403  -1.3684   0.8173 C.ar           1 S1                 0.0000
      6 ****         0.4398  -1.9021   1.9195 N.ar           1 S1                 0.0000
      7 ****         1.7712  -1.9046   2.0370 C.ar           1 S1                 0.0000
      8 ****         2.6859  -1.4333   1.1866 N.ar           1 S1                 0.0000
      9 ****         2.1028  -0.8910   0.0788 C.ar           1 S1                 0.0000
     10 ****         0.7066  -0.8204  -0.1871 C.ar           1 S1                 0.0000
     11 ****         0.4877  -0.2089  -1.4156 N.2            1 S1                 0.0000
     12 ****         1.6868   0.0654  -1.8516 C.2            1 S1                 0.0000
     13 ****         2.7160  -0.2999  -1.0125 N.pl3          1 S1                 0.0000
     14 ****         4.1409  -0.1157  -1.2452 C.3            1 S1                 0.0000
     15 ****         4.7037   1.2056  -0.6665 C.3            1 S1                 0.0000
     16 ****         4.5292   1.2064   0.7386 O.3            1 S1                 0.0000
     17 ****         6.1892   1.3932  -0.9839 C.3            1 S1                 0.0000
     18 ****         6.1983   2.5190  -2.0108 C.3            1 S1                 0.0000
     19 ****         5.1240   3.3366  -1.5834 O.3            1 S1                 0.0000
     20 ****         4.0474   2.4699  -1.2570 C.3            1 S1                 0.0000
     21 ****        -2.0994  -0.0727   0.8009 C.3            1 S1                 0.0000
     22 ****        -3.6403  -0.1917   0.9108 C.3            1 S1                 0.0000
     23 ****        -4.1010  -0.6716   2.2837 C.3            1 S1                 0.0000
     24 ****        -4.1365   0.6126   3.1045 C.3            1 S1                 0.0000
     25 ****        -4.4507   1.6493   2.1822 O.3            1 S1                 0.0000
     26 ****        -4.3823   1.1575   0.8464 C.3            1 S1                 0.0000
     27 ****        -3.8086   2.2213  -0.1012 C.3            1 S1                 0.0000
     28 ****        -4.1305  -1.0411  -0.1319 O.3            1 S1                 0.0000
     29 ****        -3.7765  -4.1285  -1.3909 H              1 S1                 0.0000
     30 ****        -3.9851  -2.6200  -2.2795 H              1 S1                 0.0000
     31 ****        -5.2580  -3.1944  -1.2055 H              1 S1                 0.0000
     32 ****        -3.7854  -2.8721   0.7623 H              1 S1                 0.0000
     33 ****        -1.5615  -3.2122  -0.2762 H              1 S1                 0.0000
     34 ****        -1.7758  -1.7843  -1.2771 H              1 S1                 0.0000
     35 ****         2.1597  -2.3457   2.9430 H              1 S1                 0.0000
     36 ****         1.8520   0.5471  -2.8042 H              1 S1                 0.0000
     37 ****         4.6697  -0.9697  -0.8195 H              1 S1                 0.0000
     38 ****         4.3155  -0.1560  -2.3212 H              1 S1                 0.0000
     39 ****         4.8679   2.0193   1.0818 H              1 S1                 0.0000
     40 ****         6.7418   1.7161  -0.0998 H              1 S1                 0.0000
     41 ****         6.6719   0.4894  -1.3575 H              1 S1                 0.0000
     42 ****         7.1414   3.0654  -2.0303 H              1 S1                 0.0000
     43 ****         5.9963   2.1378  -3.0131 H              1 S1                 0.0000
     44 ****         3.5201   2.2431  -2.1840 H              1 S1                 0.0000
     45 ****         3.3370   2.9509  -0.5831 H              1 S1                 0.0000
     46 ****        -1.6935   0.5039   1.6331 H              1 S1                 0.0000
     47 ****        -1.8312   0.4564  -0.1135 H              1 S1                 0.0000
     48 ****        -5.1094  -1.0821   2.2137 H              1 S1                 0.0000
     49 ****        -3.4613  -1.4362   2.7259 H              1 S1                 0.0000
     50 ****        -4.8642   0.5667   3.9150 H              1 S1                 0.0000
     51 ****        -3.1579   0.8170   3.5403 H              1 S1                 0.0000
     52 ****        -5.4140   0.9597   0.5505 H              1 S1                 0.0000
     53 ****        -3.7261   1.8366  -1.1180 H              1 S1                 0.0000
     54 ****        -2.8212   2.5556   0.2177 H              1 S1                 0.0000
     55 ****        -4.4548   3.0987  -0.1306 H              1 S1                 0.0000
     56 ****        -1.7584  -1.8476   1.6091 LP             1 S1                 0.0000
     57 ****        -0.1275  -2.2935   2.6441 LP             1 S1                 0.0000
     58 ****         3.6730  -1.4727   1.3418 LP             1 S1                 0.0000
     59 ****        -0.3871  -0.0220  -1.8626 LP             1 S1                 0.0000
     60 ****         5.0259   0.4373   1.1408 LP             1 S1                 0.0000
     61 ****         3.5568   1.1266   0.9580 LP             1 S1                 0.0000
     62 ****         4.8532   3.9594  -2.3174 LP             1 S1                 0.0000
     63 ****         5.3943   3.8664  -0.7795 LP             1 S1                 0.0000
     64 ****        -3.7974   2.3984   2.2922 LP             1 S1                 0.0000
     65 ****        -5.3753   1.9840   2.3640 LP             1 S1                 0.0000
     66 ****        -5.1180  -1.1433  -0.0118 LP             1 S1                 0.0000
     67 ****        -3.9456  -0.5966  -1.0083 LP             1 S1                 0.0000
@<TRIPOS>BOND
    1    1    2 1     
    2    1   29 1     
    3    1   30 1     
    4    1   31 1     
    5    2   28 1     
    6    2    3 1     
    7    2   32 1     
    8    3    4 1     
    9    3   33 1     
   10    3   34 1     
   11    4    5 1     
   12    4   21 1     
   13    5   10 ar    
   14    5    6 ar    
   15    6    7 ar    
   16    7    8 ar    
   17    7   35 1     
   18    8    9 ar    
   19    9   13 1     
   20    9   10 ar    
   21   10   11 1     
   22   11   12 2     
   23   12   13 1     
   24   12   36 1     
   25   13   14 1     
   26   14   15 1     
   27   14   37 1     
   28   14   38 1     
   29   15   20 1     
   30   15   16 1     
   31   15   17 1     
   32   16   39 1     
   33   17   18 1     
   34   17   40 1     
   35   17   41 1     
   36   18   19 1     
   37   18   42 1     
   38   18   43 1     
   39   19   20 1     
   40   20   44 1     
   41   20   45 1     
   42   21   22 1     
   43   21   46 1     
   44   21   47 1     
   45   22   26 1     
   46   22   23 1     
   47   22   28 1     
   48   23   24 1     
   49   23   48 1     
   50   23   49 1     
   51   24   25 1     
   52   24   50 1     
   53   24   51 1     
   54   25   26 1     
   55   26   27 1     
   56   26   52 1     
   57   27   53 1     
   58   27   54 1     
   59   27   55 1     
   60    4   56 1     
   61    6   57 1     
   62    8   58 1     
   63   11   59 1     
   64   16   60 1     
   65   16   61 1     
   66   19   62 1     
   67   19   63 1     
   68   25   64 1     
   69   25   65 1     
   70   28   66 1     
   71   28   67 1     
@<TRIPOS>SUBSTRUCTURE
      1 S1             1
@<TRIPOS>SET
LONE_PAIRS      STATIC     ATOMS    <user>   **** ""
12 56 57 58 59 60 61 62 63 64 65 66 67
DONOR_HYDROGENS      STATIC     ATOMS    <user>   **** ""
1 39
ATOM$BLUE        STATIC     ATOMS    COLORGROUP SYSTEM
12 56 57 58 59 60 61 62 63 64 65 66 67
ATOM$RED        STATIC     ATOMS    COLORGROUP SYSTEM
1 39
