AV-unprocessed.smi:2855|AV-procd|sdf|10989|dock3
  -GOLD-   2272015443D 1   1.00000     0.00000
 Structure written by MMmdl.
 46 47  0  0  0  0  0  0  0  0  2 V2000
  152.0002  145.2063  159.1596 C   0  0  0  0  0  0  0  0  0  0  0  0
  151.9275  143.6918  159.4004 C   0  0  2  0  0  0  0  0  0  0  0  0
  153.1749  143.1773  160.1377 C   0  0  0  0  0  0  0  0  0  0  0  0
  153.0958  141.6635  160.3847 C   0  0  0  0  0  0  0  0  0  0  0  0
  152.9050  140.8689  159.0704 C   0  0  1  0  0  0  0  0  0  0  0  0
  152.9129  139.3246  159.2823 C   0  0  0  0  0  0  0  0  0  0  0  0
  153.7608  138.8591  160.4804 C   0  0  0  0  0  0  0  0  0  0  0  0
  153.3089  138.5582  158.0083 C   0  0  0  0  0  0  0  0  0  0  0  0
  151.6580  141.3979  158.3062 C   0  0  2  0  0  0  0  0  0  0  0  0
  151.5235  140.7491  157.0024 N   0  0  0  0  0  0  0  0  0  0  0  0
  150.5187  140.9252  156.1303 C   0  0  0  0  0  0  0  0  0  0  0  0
  149.5652  141.6772  156.3376 O   0  0  0  0  0  0  0  0  0  0  0  0
  150.6120  140.0971  154.8409 C   0  0  0  0  0  0  0  0  0  0  0  0
  150.3715  138.6592  155.0443 N   0  0  0  0  0  0  0  0  0  0  0  0
  149.0879  138.2685  155.4645 C   0  0  0  0  0  0  0  0  0  0  0  0
  148.7712  136.9767  155.6745 C   0  0  0  0  0  0  0  0  0  0  0  0
  149.8016  135.9694  155.4550 C   0  0  0  0  0  0  0  0  0  0  0  0
  149.5325  134.7854  155.6486 O   0  0  0  0  0  0  0  0  0  0  0  0
  151.0298  136.3977  155.0400 N   0  5  0  0  0  0  0  0  0  0  0  0
  151.3363  137.7152  154.8265 C   0  0  0  0  0  0  0  0  0  0  0  0
  152.4498  138.0796  154.4472 O   0  0  0  0  0  0  0  0  0  0  0  0
  151.7390  142.9210  158.0824 C   0  0  0  0  0  0  0  0  0  0  0  0
  152.8516  145.4677  158.5302 H   0  0  0  0  0  0  0  0  0  0  0  0
  152.1015  145.7493  160.0997 H   0  0  0  0  0  0  0  0  0  0  0  0
  151.0976  145.5680  158.6661 H   0  0  0  0  0  0  0  0  0  0  0  0
  151.0582  143.5002  160.0313 H   0  0  0  0  0  0  0  0  0  0  0  0
  154.0704  143.4064  159.5582 H   0  0  0  0  0  0  0  0  0  0  0  0
  153.2840  143.6954  161.0912 H   0  0  0  0  0  0  0  0  0  0  0  0
  154.0044  141.3477  160.8961 H   0  0  0  0  0  0  0  0  0  0  0  0
  152.2710  141.4618  161.0685 H   0  0  0  0  0  0  0  0  0  0  0  0
  153.7679  141.0951  158.4414 H   0  0  0  0  0  0  0  0  0  0  0  0
  151.8884  139.0160  159.4896 H   0  0  0  0  0  0  0  0  0  0  0  0
  154.8204  139.0649  160.3313 H   0  0  0  0  0  0  0  0  0  0  0  0
  153.6580  137.7844  160.6317 H   0  0  0  0  0  0  0  0  0  0  0  0
  153.4524  139.3407  161.4075 H   0  0  0  0  0  0  0  0  0  0  0  0
  154.3573  138.7081  157.7512 H   0  0  0  0  0  0  0  0  0  0  0  0
  152.7056  138.8691  157.1550 H   0  0  0  0  0  0  0  0  0  0  0  0
  153.1588  137.4860  158.1386 H   0  0  0  0  0  0  0  0  0  0  0  0
  150.7718  141.2101  158.9140 H   0  0  0  0  0  0  0  0  0  0  0  0
  152.2590  140.1090  156.7410 H   0  0  0  0  0  0  0  0  0  0  0  0
  149.9134  140.5016  154.1063 H   0  0  0  0  0  0  0  0  0  0  0  0
  151.6014  140.2507  154.4076 H   0  0  0  0  0  0  0  0  0  0  0  0
  148.3829  139.0759  155.5972 H   0  0  0  0  0  0  0  0  0  0  0  0
  147.7792  136.6931  155.9942 H   0  0  0  0  0  0  0  0  0  0  0  0
  150.8308  143.2651  157.5849 H   0  0  0  0  0  0  0  0  0  0  0  0
  152.5642  143.1504  157.4063 H   0  0  0  0  0  0  0  0  0  0  0  0
  1  2  1  0  0  0  0
  1 23  1  0  0  0  0
  1 24  1  0  0  0  0
  1 25  1  0  0  0  0
  2 22  1  0  0  0  0
  2  3  1  0  0  0  0
  2 26  1  0  0  0  0
  3  4  1  0  0  0  0
  3 27  1  0  0  0  0
  3 28  1  0  0  0  0
  4  5  1  0  0  0  0
  4 29  1  0  0  0  0
  4 30  1  0  0  0  0
  5  6  1  0  0  0  0
  5  9  1  0  0  0  0
  5 31  1  0  0  0  0
  6  7  1  0  0  0  0
  6  8  1  0  0  0  0
  6 32  1  0  0  0  0
  7 33  1  0  0  0  0
  7 34  1  0  0  0  0
  7 35  1  0  0  0  0
  8 36  1  0  0  0  0
  8 37  1  0  0  0  0
  8 38  1  0  0  0  0
  9 10  1  0  0  0  0
  9 22  1  0  0  0  0
  9 39  1  0  0  0  0
 10 11  1  0  0  0  0
 10 40  1  0  0  0  0
 11 12  2  0  0  0  0
 11 13  1  0  0  0  0
 13 14  1  0  0  0  0
 13 41  1  0  0  0  0
 13 42  1  0  0  0  0
 14 20  1  0  0  0  0
 14 15  1  0  0  0  0
 15 16  2  0  0  0  0
 15 43  1  0  0  0  0
 16 17  1  0  0  0  0
 16 44  1  0  0  0  0
 17 18  2  0  0  0  0
 17 19  1  0  0  0  0
 19 20  1  0  0  0  0
 20 21  2  0  0  0  0
 22 45  1  0  0  0  0
 22 46  1  0  0  0  0
M  CHG  1  19  -1
M  END
> <s_m_source_file>
AV-unprocessed.smi

> <i_m_source_file_index>
2855

> <i_lp_mmshare_version>
43012

> <i_f3d_flags>
0

> <s_epik_input>
W0NIM11bQ0BASF0xW0NIMl1bQ0gyXVtDQEBIXShbQ0hdKFtDSDNdKVtDSDNdKVtDQEhdKFtDSDJdMSlbTkhdQyg9TylbQ0gyXW4yW2NIXVtjSF1jKD1PKVtuSF1jMj1P

> <s_epik_cmdline>
J2VwaWtfcHl0aG9uJywgJy1waCcsICc3LjAnLCAnLXRuJywgJzgnLCAnLW1hJywgJzIwMCcsICctbWV0YWxfYmluZGluZycsICctaW1hZScsICc8aW5maWxlLm1hZT4nLCAnLW9tYWUnLCAnPG91dGZpbGUubWFlPic=

> <r_lp_tautomer_probability>
0.999537

> <r_epik_Ionization_Penalty>
3.12102

> <r_epik_Ionization_Penalty_Charging>
2.9581e-08

> <r_epik_Ionization_Penalty_Neutral>
3.12102

> <r_epik_State_Penalty>
3.12011

> <r_epik_Charging_Adjusted_Penalty>
3.12011

> <i_epik_Tot_Q>
-1

> <i_epik_Tot_abs_Q>
1

> <r_epik_Metal_State_Penalty>
0.463583

> <b_epik_Metal_Only>
1

> <s_lp_Force_Field>
OPLS_2005

> <r_lp_Energy>
24.0282

> <b_lp_Chiralities_Consistent>
1

> <s_lp_Variant>
AV-unprocessed.smi:2855-13

> <Gold.Version>
5.8.1

> <Gold.Id.Protein>
6NUR|6NUR_protein|mol2

> <Gold.PLP.Fitness>
45.3833

> <Gold.PLP.PLP>
-40.6790

> <Gold.PLP.part.hbond>
-1.8628

> <Gold.PLP.part.metal>
0.0000

> <Gold.PLP.part.buried>
-2.2652

> <Gold.PLP.part.nonpolar>
-36.7146

> <Gold.PLP.part.repulsive>
0.5191

> <Gold.PLP.ligand.clash>
0.0024

> <Gold.PLP.ligand.torsion>
0.6805

> <Gold.PLP.Chemscore.Hbond>
2.0000

> <Gold.PLP.Chemscore.CHOScore>
0.0000

> <Gold.PLP.Chemscore.Metal>
0.0000

> <Gold.Chemscore.Hbonds>
donor molecule, donor type, donor heavy atom, donor atom, acceptor molecule, acceptor atom, score
      P1  H 10752 10763       L1    19  1.48

> <Gold.PLP.Chemscore.Internal.Correction>
0.0678

> <Gold.Rescore>
     Score         DG    S(hbond)    S(metal)    S(lipo)     H(rot)  DE(clash)    DE(int)     intcor
     12.17     -15.21       0.81        0.00      99.53       1.81       0.21       2.83       ----

> <Gold.Chemscore.Fitness>
12.1682

> <Gold.Chemscore.DG>
-15.2112

> <Gold.Chemscore.ZeroCoef>
-5.4800

> <Gold.Chemscore.Hbond>
0.8143

> <Gold.Chemscore.Metal>
0.0000

> <Gold.Chemscore.Lipo>
99.5293

> <Gold.Chemscore.Internal_Hbond>
0.0000

> <Gold.Chemscore.DEClash>
0.2145

> <Gold.Chemscore.DEInternal>
2.8285

> <Gold.Chemscore.Rot>
1.8100

> <Gold.Chemscore.Internal.Correction>
   9.000000E+99

> <Gold.Chemscore.Hbonds>
donor molecule, donor type, donor heavy atom, donor atom, acceptor molecule, acceptor atom, score
      P1  H 10752 10763       L1    19  0.17

> <Gold.Chemscore.Hbond.Weighted>
-2.7197

> <Gold.Chemscore.Metal.Weighted>
-0.0000

> <Gold.Chemscore.Lipo.Weighted>
-11.6449

> <Gold.Chemscore.Internal_Hbond.Weighted>
0.0000

> <Gold.Chemscore.DEClash.Weighted>
0.2145

> <Gold.Chemscore.DEInternal.Weighted>
2.8285

> <Gold.Chemscore.Rot.Weighted>
4.6335

> <Gold.Chemscore.Internal.Correction.Weighted>
   9.000000E+99

> <Gold.Protein.RotatedTorsions>
[ 6907 6896 6895 6894 ] final  126.68 input  -60.11 | X-H torsion
[ 7974 7965 7964 7962 ] final -165.66 input  175.53 | X-H torsion
[ 8008 7997 7996 7995 ] final   15.56 input   59.86 | X-H torsion
[ 10167 10162 10161 10158 ] final  -15.20 input  -65.29 | X-H torsion
[ 10718 10713 10712 10709 ] final -171.62 input   66.30 | X-H torsion
[ 10763 10752 10751 10750 ] final   64.67 input  -60.55 | X-H torsion
[ 11005 11000 10999 10996 ] final  143.03 input  -57.11 | X-H torsion

> <Gold.Protein.ActiveResidues>
 VAL166  LYS551  ARG553  GLY616  TRP617  ASP618  TYR619  PRO620  LYS621  CYS622 
 ASP623  PHE694  ASN695  SER759  ASP760  ASP761  ALA762  ILE779  LEU786  VAL792 
 PHE793  MET794  SER795  GLU796  ALA797  LYS798  CYS799  TRP800  GLU811  SER814 

> <Gold.Protein.RotatedAtoms>
  152.3881  133.6640  159.6215 H   0  0  0  0  0  0  0  0  0  0  0  0  # atno 6907 bound_to 6896
  150.7796  133.9000  159.3347 H   0  0  0  0  0  0  0  0  0  0  0  0  # atno 6908 bound_to 6896
  151.6792  135.0966  160.0264 H   0  0  0  0  0  0  0  0  0  0  0  0  # atno 6909 bound_to 6896
  144.7264  140.2781  143.6240 H   0  0  0  0  0  0  0  0  0  0  0  0  # atno 7974 bound_to 7965
  154.8644  140.2949  155.5519 H   0  0  0  0  0  0  0  0  0  0  0  0  # atno 8008 bound_to 7997
  156.3020  140.2472  156.3556 H   0  0  0  0  0  0  0  0  0  0  0  0  # atno 8009 bound_to 7997
  154.8884  140.0395  157.1813 H   0  0  0  0  0  0  0  0  0  0  0  0  # atno 8010 bound_to 7997
  140.7214  143.5243  150.9596 H   0  0  0  0  0  0  0  0  0  0  0  0  # atno 10167 bound_to 10162
  156.7435  130.9351  151.3111 H   0  0  0  0  0  0  0  0  0  0  0  0  # atno 10718 bound_to 10713
  153.0065  135.5385  154.6546 H   0  0  0  0  0  0  0  0  0  0  0  0  # atno 10763 bound_to 10752
  154.5769  135.2846  155.0773 H   0  0  0  0  0  0  0  0  0  0  0  0  # atno 10764 bound_to 10752
  154.1917  135.6499  153.5114 H   0  0  0  0  0  0  0  0  0  0  0  0  # atno 10765 bound_to 10752
  140.0522  134.9249  157.1037 H   0  0  0  0  0  0  0  0  0  0  0  0  # atno 11005 bound_to 11000
  145.7976  139.1951  143.2066 LP  0  0  0  0  0  0  0  0  0  0  0  0  # atno 17320 bound_to 7965
  146.0703  140.7876  142.9691 LP  0  0  0  0  0  0  0  0  0  0  0  0  # atno 17321 bound_to 7965
  139.8961  143.6893  152.3138 LP  0  0  0  0  0  0  0  0  0  0  0  0  # atno 17342 bound_to 10162
  139.7226  144.7599  151.0930 LP  0  0  0  0  0  0  0  0  0  0  0  0  # atno 17343 bound_to 10162
  157.6808  130.9138  150.0262 LP  0  0  0  0  0  0  0  0  0  0  0  0  # atno 17370 bound_to 10713
  156.1448  130.3642  149.9527 LP  0  0  0  0  0  0  0  0  0  0  0  0  # atno 17371 bound_to 10713
  140.3899  134.2195  155.7166 LP  0  0  0  0  0  0  0  0  0  0  0  0  # atno 17394 bound_to 11000
  141.1936  133.8148  157.0793 LP  0  0  0  0  0  0  0  0  0  0  0  0  # atno 17395 bound_to 11000

$$$$
