#       Name:                AV-unprocessed.smi:1552
#       Creating user name   scv26
#       Creation time:       Fri Mar 27 06:41:45 2020


#       File generated by GOLD software.
#

@<TRIPOS>MOLECULE
AV-unprocessed.smi:1552
    56    57     1
SMALL
NO_CHARGES


@<TRIPOS>ATOM
      1 ****        -1.1884   3.9605  -1.3477 C.3            1 S1                 0.0000
      2 ****        -1.0861   2.5401  -1.7571 N.4            1 S1                 1.0000
      3 ****         0.0862   2.2992  -2.6322 C.3            1 S1                 0.0000
      4 ****        -1.2777   1.5701  -0.6324 C.3            1 S1                 0.0000
      5 ****        -0.0506   1.4939   0.3180 C.3            1 S1                 0.0000
      6 ****         1.0066   0.6231  -0.1909 N.am           1 S1                 0.0000
      7 ****         2.3185   0.6499   0.0967 C.2            1 S1                 0.0000
      8 ****         2.7687   1.5037   0.8580 O.2            1 S1                 0.0000
      9 ****         3.2856  -0.3607  -0.5464 C.3            1 S1                 0.0000
     10 ****         3.9864  -1.1615   0.4697 N.am           1 S1                 0.0000
     11 ****         5.2745  -0.7502   0.8568 C.2            1 S1                 0.0000
     12 ****         5.9834  -1.4160   1.7884 C.2            1 S1                 0.0000
     13 ****         5.3821  -2.5932   2.4026 C.2            1 S1                 0.0000
     14 ****         6.0143  -3.2143   3.2546 O.2            1 S1                 0.0000
     15 ****         4.1291  -2.9511   1.9953 N.pl3          1 S1                -1.0000
     16 ****         3.4205  -2.2646   1.0468 C.2            1 S1                 0.0000
     17 ****         2.2905  -2.6067   0.6969 O.2            1 S1                 0.0000
     18 ****        -1.7989   0.1908  -1.1387 C.3            1 S1                 0.0000
     19 ****        -3.0711   0.3407  -2.0099 C.3            1 S1                 0.0000
     20 ****        -3.5982  -1.0146  -2.5081 C.3            1 S1                 0.0000
     21 ****        -3.8761  -1.9678  -1.3388 C.3            1 S1                 0.0000
     22 ****        -2.6237  -2.1404  -0.4698 C.3            1 S1                 0.0000
     23 ****        -2.0969  -0.7845   0.0269 C.3            1 S1                 0.0000
     24 ****        -0.3450   4.2659  -0.7290 H              1 S1                 0.0000
     25 ****        -2.1074   4.1439  -0.7906 H              1 S1                 0.0000
     26 ****        -1.2060   4.6061  -2.2262 H              1 S1                 0.0000
     27 ****         1.0213   2.5331  -2.1247 H              1 S1                 0.0000
     28 ****         0.0283   2.9316  -3.5184 H              1 S1                 0.0000
     29 ****         0.1274   1.2662  -2.9748 H              1 S1                 0.0000
     30 ****        -2.0909   1.9809  -0.0319 H              1 S1                 0.0000
     31 ****         0.3165   2.4990   0.5102 H              1 S1                 0.0000
     32 ****        -0.3590   1.1038   1.2882 H              1 S1                 0.0000
     33 ****         0.7160  -0.0640  -0.8713 H              1 S1                 0.0000
     34 ****         2.8099  -1.0098  -1.2794 H              1 S1                 0.0000
     35 ****         4.0076   0.2108  -1.1310 H              1 S1                 0.0000
     36 ****         5.6448   0.1347   0.3602 H              1 S1                 0.0000
     37 ****         6.9703  -1.0850   2.0763 H              1 S1                 0.0000
     38 ****        -1.0301  -0.2712  -1.7585 H              1 S1                 0.0000
     39 ****        -3.8521   0.8443  -1.4384 H              1 S1                 0.0000
     40 ****        -2.8725   0.9699  -2.8776 H              1 S1                 0.0000
     41 ****        -4.5085  -0.8678  -3.0904 H              1 S1                 0.0000
     42 ****        -2.8694  -1.4657  -3.1826 H              1 S1                 0.0000
     43 ****        -4.6937  -1.5767  -0.7317 H              1 S1                 0.0000
     44 ****        -4.2053  -2.9363  -1.7164 H              1 S1                 0.0000
     45 ****        -2.8485  -2.7852   0.3803 H              1 S1                 0.0000
     46 ****        -1.8464  -2.6466  -1.0438 H              1 S1                 0.0000
     47 ****        -1.2000  -0.9658   0.6183 H              1 S1                 0.0000
     48 ****        -2.8261  -0.3377   0.7040 H              1 S1                 0.0000
     49 ****        -1.8896   2.3922  -2.3507 H              1 S1                 0.0000
     50 ****         2.1577   2.1820   1.2660 LP             1 S1                 0.0000
     51 ****         3.7460   1.5199   1.0693 LP             1 S1                 0.0000
     52 ****         6.9297  -2.9102   3.5186 LP             1 S1                 0.0000
     53 ****         5.6132  -4.0236   3.6837 LP             1 S1                 0.0000
     54 ****         3.7073  -3.7565   2.4116 LP             1 S1                 0.0000
     55 ****         1.8018  -2.0804   0.0011 LP             1 S1                 0.0000
     56 ****         1.8617  -3.4108   1.1085 LP             1 S1                 0.0000
@<TRIPOS>BOND
    1    1    2 1     
    2    1   24 1     
    3    1   25 1     
    4    1   26 1     
    5    2    3 1     
    6    2    4 1     
    7    2   49 1     
    8    3   27 1     
    9    3   28 1     
   10    3   29 1     
   11    4    5 1     
   12    4   18 1     
   13    4   30 1     
   14    5    6 1     
   15    5   31 1     
   16    5   32 1     
   17    6    7 am    
   18    6   33 1     
   19    7    8 2     
   20    7    9 1     
   21    9   10 1     
   22    9   34 1     
   23    9   35 1     
   24   10   16 am    
   25   10   11 1     
   26   11   12 2     
   27   11   36 1     
   28   12   13 1     
   29   12   37 1     
   30   13   14 2     
   31   13   15 1     
   32   15   16 1     
   33   16   17 2     
   34   18   23 1     
   35   18   19 1     
   36   18   38 1     
   37   19   20 1     
   38   19   39 1     
   39   19   40 1     
   40   20   21 1     
   41   20   41 1     
   42   20   42 1     
   43   21   22 1     
   44   21   43 1     
   45   21   44 1     
   46   22   23 1     
   47   22   45 1     
   48   22   46 1     
   49   23   47 1     
   50   23   48 1     
   51    8   50 1     
   52    8   51 1     
   53   14   52 1     
   54   14   53 1     
   55   15   54 1     
   56   17   55 1     
   57   17   56 1     
@<TRIPOS>SUBSTRUCTURE
      1 S1             1
@<TRIPOS>SET
LONE_PAIRS      STATIC     ATOMS    <user>   **** ""
7 50 51 52 53 54 55 56
DONOR_HYDROGENS      STATIC     ATOMS    <user>   **** ""
2 49 33
ATOM$BLUE        STATIC     ATOMS    COLORGROUP SYSTEM
7 50 51 52 53 54 55 56
ATOM$RED        STATIC     ATOMS    COLORGROUP SYSTEM
2 49 33
