AV-unprocessed.smi:1392|AV-procd|sdf|5660|dock4
  -GOLD-   22720 5283D 1   1.00000     0.00000
 Structure written by MMmdl.
 40 41  0  0  0  0  0  0  0  0  2 V2000
  152.1246  141.9114  158.2321 C   0  0  0  0  0  0  0  0  0  0  0  0
  151.4526  142.4353  157.0503 N   0  0  0  0  0  0  0  0  0  0  0  0
  151.4359  143.8700  156.7872 C   0  0  0  0  0  0  0  0  0  0  0  0
  150.8390  141.5479  156.1398 C   0  0  0  0  0  0  0  0  0  0  0  0
  151.2917  140.2235  155.9222 C   0  0  0  0  0  0  0  0  0  0  0  0
  150.6255  139.3981  154.9934 C   0  0  0  0  0  0  0  0  0  0  0  0
  149.5161  139.8958  154.2787 C   0  0  0  0  0  0  0  0  0  0  0  0
  148.8746  139.0201  153.3602 N   0  0  0  0  0  0  0  0  0  0  0  0
  147.6140  139.0655  152.8949 C   0  0  0  0  0  0  0  0  0  0  0  0
  146.7727  139.9115  153.1968 O   0  0  0  0  0  0  0  0  0  0  0  0
  147.3795  138.0667  152.0320 N   0  0  0  0  0  0  0  0  0  0  0  0
  146.1155  137.8393  151.3391 C   0  0  0  0  0  0  0  0  0  0  0  0
  145.5185  136.4571  151.6645 C   0  0  1  0  0  0  0  0  0  0  0  0
  144.0477  136.4922  152.0244 C   0  0  0  0  0  0  0  0  0  0  0  0
  143.6480  135.0343  151.8278 C   0  0  0  0  0  0  0  0  0  0  0  0
  144.4406  134.5661  150.7411 O   0  0  0  0  0  0  0  0  0  0  0  0
  145.5186  135.4663  150.4974 C   0  0  0  0  0  0  0  0  0  0  0  0
  149.0947  141.2217  154.5395 C   0  0  0  0  0  0  0  0  0  0  0  0
  149.7614  141.9774  155.4387 N   0  3  0  0  0  0  0  0  0  0  0  0
  151.4224  141.3641  158.8615 H   0  0  0  0  0  0  0  0  0  0  0  0
  152.5533  142.7141  158.8326 H   0  0  0  0  0  0  0  0  0  0  0  0
  152.9352  141.2399  157.9467 H   0  0  0  0  0  0  0  0  0  0  0  0
  150.4108  144.2387  156.7376 H   0  0  0  0  0  0  0  0  0  0  0  0
  151.9313  144.0922  155.8415 H   0  0  0  0  0  0  0  0  0  0  0  0
  151.9516  144.4240  157.5720 H   0  0  0  0  0  0  0  0  0  0  0  0
  152.1419  139.8238  156.4542 H   0  0  0  0  0  0  0  0  0  0  0  0
  150.9722  138.3880  154.8302 H   0  0  0  0  0  0  0  0  0  0  0  0
  149.4617  138.2973  152.9705 H   0  0  0  0  0  0  0  0  0  0  0  0
  148.1276  137.4175  151.8367 H   0  0  0  0  0  0  0  0  0  0  0  0
  145.4043  138.6271  151.5933 H   0  0  0  0  0  0  0  0  0  0  0  0
  146.2980  137.9263  150.2675 H   0  0  0  0  0  0  0  0  0  0  0  0
  146.0608  136.0115  152.5004 H   0  0  0  0  0  0  0  0  0  0  0  0
  143.8627  136.8502  153.0375 H   0  0  0  0  0  0  0  0  0  0  0  0
  143.4974  137.1285  151.3298 H   0  0  0  0  0  0  0  0  0  0  0  0
  143.8950  134.4505  152.7152 H   0  0  0  0  0  0  0  0  0  0  0  0
  142.5829  134.9146  151.6284 H   0  0  0  0  0  0  0  0  0  0  0  0
  145.3287  135.9781  149.5532 H   0  0  0  0  0  0  0  0  0  0  0  0
  146.4657  134.9340  150.4070 H   0  0  0  0  0  0  0  0  0  0  0  0
  148.2498  141.7108  154.0792 H   0  0  0  0  0  0  0  0  0  0  0  0
  149.4313  142.9291  155.6000 H   0  0  0  0  0  0  0  0  0  0  0  0
  1  2  1  0  0  0  0
  1 20  1  0  0  0  0
  1 21  1  0  0  0  0
  1 22  1  0  0  0  0
  2  3  1  0  0  0  0
  2  4  1  0  0  0  0
  3 23  1  0  0  0  0
  3 24  1  0  0  0  0
  3 25  1  0  0  0  0
  4 19  1  0  0  0  0
  4  5  2  0  0  0  0
  5  6  1  0  0  0  0
  5 26  1  0  0  0  0
  6  7  2  0  0  0  0
  6 27  1  0  0  0  0
  7  8  1  0  0  0  0
  7 18  1  0  0  0  0
  8  9  1  0  0  0  0
  8 28  1  0  0  0  0
  9 10  2  0  0  0  0
  9 11  1  0  0  0  0
 11 12  1  0  0  0  0
 11 29  1  0  0  0  0
 12 13  1  0  0  0  0
 12 30  1  0  0  0  0
 12 31  1  0  0  0  0
 13 17  1  0  0  0  0
 13 14  1  0  0  0  0
 13 32  1  0  0  0  0
 14 15  1  0  0  0  0
 14 33  1  0  0  0  0
 14 34  1  0  0  0  0
 15 16  1  0  0  0  0
 15 35  1  0  0  0  0
 15 36  1  0  0  0  0
 16 17  1  0  0  0  0
 17 37  1  0  0  0  0
 17 38  1  0  0  0  0
 18 19  2  0  0  0  0
 18 39  1  0  0  0  0
 19 40  1  0  0  0  0
M  CHG  1  19   1
M  END
> <s_m_source_file>
AV-unprocessed.smi

> <i_m_source_file_index>
1392

> <i_lp_mmshare_version>
43012

> <i_f3d_flags>
0

> <s_epik_input>
W0NIM11OKFtDSDNdKWMxW2NIXVtjSF1jKFtjSF1uMSlbTkhdQyg9TylbTkhdW0NIMl1bQ0BASF0yW0NIMl1bQ0gyXU9bQ0gyXTI=

> <s_epik_cmdline>
J2VwaWtfcHl0aG9uJywgJy1waCcsICc3LjAnLCAnLXRuJywgJzgnLCAnLW1hJywgJzIwMCcsICctbWV0YWxfYmluZGluZycsICctaW1hZScsICc8aW5maWxlLm1hZT4nLCAnLW9tYWUnLCAnPG91dGZpbGUubWFlPic=

> <r_lp_tautomer_probability>
0.999994

> <r_epik_Ionization_Penalty>
0.261114

> <r_epik_Ionization_Penalty_Charging>
0.261094

> <r_epik_Ionization_Penalty_Neutral>
2.01539e-05

> <r_epik_State_Penalty>
0.252829

> <r_epik_Charging_Adjusted_Penalty>
0.513923

> <i_epik_Tot_Q>
1

> <i_epik_Tot_abs_Q>
1

> <r_epik_Metal_State_Penalty>
0.54073

> <b_epik_Metal_Only>
0

> <s_lp_Force_Field>
OPLS_2005

> <r_lp_Energy>
29.0313

> <b_lp_Chiralities_Consistent>
1

> <s_lp_Variant>
AV-unprocessed.smi:1392-2

> <Gold.Version>
5.8.1

> <Gold.Id.Protein>
6NUR|6NUR_protein|mol2

> <Gold.PLP.Fitness>
44.9558

> <Gold.PLP.PLP>
-38.3105

> <Gold.PLP.part.hbond>
-4.0000

> <Gold.PLP.part.metal>
0.0000

> <Gold.PLP.part.buried>
-1.5295

> <Gold.PLP.part.nonpolar>
-34.2871

> <Gold.PLP.part.repulsive>
0.6416

> <Gold.PLP.ligand.clash>
0.0000

> <Gold.PLP.ligand.torsion>
1.1830

> <Gold.PLP.Chemscore.Hbond>
3.0000

> <Gold.PLP.Chemscore.CHOScore>
0.0000

> <Gold.PLP.Chemscore.Metal>
0.0000

> <Gold.Chemscore.Hbonds>
donor molecule, donor type, donor heavy atom, donor atom, acceptor molecule, acceptor atom, score
      L1  H     8    28       P1  7948  0.12
      L1  H    11    29       P1  7948  0.71
      L1  H    19    40       P1  8028  2.00

> <Gold.PLP.Chemscore.Internal.Correction>
0.0114

> <Gold.Rescore>
     Score         DG    S(hbond)    S(metal)    S(lipo)     H(rot)  DE(clash)    DE(int)     intcor
     16.15     -18.25       1.99        0.00      79.07       1.23       0.26       1.85       ----

> <Gold.Chemscore.Fitness>
16.1476

> <Gold.Chemscore.DG>
-18.2506

> <Gold.Chemscore.ZeroCoef>
-5.4800

> <Gold.Chemscore.Hbond>
1.9939

> <Gold.Chemscore.Metal>
0.0000

> <Gold.Chemscore.Lipo>
79.0737

> <Gold.Chemscore.Internal_Hbond>
0.0000

> <Gold.Chemscore.DEClash>
0.2551

> <Gold.Chemscore.DEInternal>
1.8480

> <Gold.Chemscore.Rot>
1.2268

> <Gold.Chemscore.Internal.Correction>
   9.000000E+99

> <Gold.Chemscore.Hbonds>
donor molecule, donor type, donor heavy atom, donor atom, acceptor molecule, acceptor atom, score
      L1  H     8    28       P1  7948  0.11
      L1  H    11    29       P1  7948  0.71
      L1  H    19    40       P1  8028  1.00

> <Gold.Chemscore.Hbond.Weighted>
-6.6596

> <Gold.Chemscore.Metal.Weighted>
-0.0000

> <Gold.Chemscore.Lipo.Weighted>
-9.2516

> <Gold.Chemscore.Internal_Hbond.Weighted>
0.0000

> <Gold.Chemscore.DEClash.Weighted>
0.2551

> <Gold.Chemscore.DEInternal.Weighted>
1.8480

> <Gold.Chemscore.Rot.Weighted>
3.1406

> <Gold.Chemscore.Internal.Correction.Weighted>
   9.000000E+99

> <Gold.Protein.RotatedTorsions>
[ 6907 6896 6895 6894 ] final  -47.50 input  -60.11 | X-H torsion
[ 7974 7965 7964 7962 ] final  167.03 input  175.53 | X-H torsion
[ 8008 7997 7996 7995 ] final -135.78 input   59.86 | X-H torsion
[ 10167 10162 10161 10158 ] final  161.11 input  -65.29 | X-H torsion
[ 10718 10713 10712 10709 ] final  168.83 input   66.30 | X-H torsion
[ 10763 10752 10751 10750 ] final  158.24 input  -60.55 | X-H torsion
[ 11005 11000 10999 10996 ] final -151.93 input  -57.11 | X-H torsion

> <Gold.Protein.ActiveResidues>
 VAL166  LYS551  ARG553  GLY616  TRP617  ASP618  TYR619  PRO620  LYS621  CYS622 
 ASP623  PHE694  ASN695  SER759  ASP760  ASP761  ALA762  ILE779  LEU786  VAL792 
 PHE793  MET794  SER795  GLU796  ALA797  LYS798  CYS799  TRP800  GLU811  SER814 

> <Gold.Protein.RotatedAtoms>
  150.9002  134.8413  159.7354 H   0  0  0  0  0  0  0  0  0  0  0  0  # atno 6907 bound_to 6896
  152.4888  134.4514  159.9585 H   0  0  0  0  0  0  0  0  0  0  0  0  # atno 6908 bound_to 6896
  151.4567  133.3564  159.2838 H   0  0  0  0  0  0  0  0  0  0  0  0  # atno 6909 bound_to 6896
  144.7440  139.8701  143.6388 H   0  0  0  0  0  0  0  0  0  0  0  0  # atno 7974 bound_to 7965
  155.3844  140.0496  157.3042 H   0  0  0  0  0  0  0  0  0  0  0  0  # atno 8008 bound_to 7997
  154.5067  140.2177  155.9199 H   0  0  0  0  0  0  0  0  0  0  0  0  # atno 8009 bound_to 7997
  156.1534  140.3131  155.8690 H   0  0  0  0  0  0  0  0  0  0  0  0  # atno 8010 bound_to 7997
  139.4846  144.4569  151.8757 H   0  0  0  0  0  0  0  0  0  0  0  0  # atno 10167 bound_to 10162
  157.0314  131.0260  151.2743 H   0  0  0  0  0  0  0  0  0  0  0  0  # atno 10718 bound_to 10713
  154.2130  135.2785  155.2952 H   0  0  0  0  0  0  0  0  0  0  0  0  # atno 10763 bound_to 10752
  154.5763  135.5603  153.7146 H   0  0  0  0  0  0  0  0  0  0  0  0  # atno 10764 bound_to 10752
  153.0059  135.6334  154.2269 H   0  0  0  0  0  0  0  0  0  0  0  0  # atno 10765 bound_to 10752
  140.7243  134.3692  157.5178 H   0  0  0  0  0  0  0  0  0  0  0  0  # atno 11005 bound_to 11000
  146.1286  139.4317  143.0183 LP  0  0  0  0  0  0  0  0  0  0  0  0  # atno 17320 bound_to 7965
  145.7197  141.0079  143.1409 LP  0  0  0  0  0  0  0  0  0  0  0  0  # atno 17321 bound_to 7965
  140.4029  144.2470  150.5892 LP  0  0  0  0  0  0  0  0  0  0  0  0  # atno 17342 bound_to 10162
  140.5040  143.2309  151.8636 LP  0  0  0  0  0  0  0  0  0  0  0  0  # atno 17343 bound_to 10162
  157.5175  130.7977  149.7772 LP  0  0  0  0  0  0  0  0  0  0  0  0  # atno 17370 bound_to 10713
  156.0068  130.3852  150.2402 LP  0  0  0  0  0  0  0  0  0  0  0  0  # atno 17371 bound_to 10713
  139.8841  134.8976  156.2726 LP  0  0  0  0  0  0  0  0  0  0  0  0  # atno 17394 bound_to 11000
  140.9977  133.7170  156.0911 LP  0  0  0  0  0  0  0  0  0  0  0  0  # atno 17395 bound_to 11000

$$$$
