#       Name:                AV-unprocessed.smi:911
#       Creating user name   scv26
#       Creation time:       Fri Mar 27 02:04:22 2020


#       File generated by GOLD software.
#

@<TRIPOS>MOLECULE
AV-unprocessed.smi:911
    53    55     1
SMALL
NO_CHARGES


@<TRIPOS>ATOM
      1 ****        -4.1454  -0.2611  -0.4391 C.3            1 S1                 0.0000
      2 ****        -3.2373  -1.4754  -0.0967 C.3            1 S1                 0.0000
      3 ****        -4.1004  -2.3910   0.8163 C.3            1 S1                 0.0000
      4 ****        -2.6443  -2.1925  -1.3262 C.3            1 S1                 0.0000
      5 ****        -1.6975  -3.2479  -0.7122 C.3            1 S1                 0.0000
      6 ****        -1.1501  -2.5225   0.5328 C.3            1 S1                 0.0000
      7 ****        -1.8220  -1.1243   0.4383 C.3            1 S1                 0.0000
      8 ****        -1.7864  -0.3477   1.7657 C.3            1 S1                 0.0000
      9 ****        -1.1832  -0.3528  -0.7609 C.3            1 S1                 0.0000
     10 ****         0.2801  -0.3540  -0.7733 N.am           1 S1                 0.0000
     11 ****         1.0630   0.6079  -0.2624 C.2            1 S1                 0.0000
     12 ****         0.6218   1.6170   0.2893 O.2            1 S1                 0.0000
     13 ****         2.5757   0.3729  -0.3752 C.3            1 S1                 0.0000
     14 ****         3.3608   1.6163  -0.2990 N.am           1 S1                 0.0000
     15 ****         3.8751   1.9731   0.9635 C.2            1 S1                 0.0000
     16 ****         4.5965   3.0956   1.1514 C.2            1 S1                 0.0000
     17 ****         5.1100   3.4505   2.4560 N.pl3          1 S1                 1.0000
     18 ****         5.7435   4.4943   2.5748 O.2            1 S1                 0.0000
     19 ****         4.8987   2.6996   3.4036 O.2            1 S1                -1.0000
     20 ****         4.8374   3.9429  -0.0005 C.2            1 S1                 0.0000
     21 ****         4.3454   3.6088  -1.2095 C.2            1 S1                 0.0000
     22 ****         3.5557   2.3897  -1.4107 C.2            1 S1                 0.0000
     23 ****         3.0971   2.0828  -2.5113 O.2            1 S1                 0.0000
     24 ****        -1.7508  -1.1154  -1.9798 C.3            1 S1                 0.0000
     25 ****        -5.0613  -0.5935  -0.9286 H              1 S1                 0.0000
     26 ****        -3.7003   0.4810  -1.0977 H              1 S1                 0.0000
     27 ****        -4.4415   0.2672   0.4677 H              1 S1                 0.0000
     28 ****        -3.6150  -3.3063   1.1469 H              1 S1                 0.0000
     29 ****        -5.0102  -2.6974   0.2993 H              1 S1                 0.0000
     30 ****        -4.4094  -1.8598   1.7170 H              1 S1                 0.0000
     31 ****        -3.3789  -2.6173  -2.0111 H              1 S1                 0.0000
     32 ****        -2.2327  -4.1571  -0.4370 H              1 S1                 0.0000
     33 ****        -0.9026  -3.5397  -1.3995 H              1 S1                 0.0000
     34 ****        -1.4415  -3.0439   1.4448 H              1 S1                 0.0000
     35 ****        -0.0610  -2.4901   0.5464 H              1 S1                 0.0000
     36 ****        -0.7610  -0.1768   2.0934 H              1 S1                 0.0000
     37 ****        -2.2955  -0.8933   2.5600 H              1 S1                 0.0000
     38 ****        -2.2678   0.6254   1.6689 H              1 S1                 0.0000
     39 ****        -1.5361   0.6791  -0.7868 H              1 S1                 0.0000
     40 ****         0.7285  -1.1502  -1.2028 H              1 S1                 0.0000
     41 ****         2.8716  -0.3140   0.4187 H              1 S1                 0.0000
     42 ****         2.7940  -0.1569  -1.3046 H              1 S1                 0.0000
     43 ****         3.6336   1.2811   1.7576 H              1 S1                 0.0000
     44 ****         5.4135   4.8514   0.0978 H              1 S1                 0.0000
     45 ****         4.5362   4.2547  -2.0539 H              1 S1                 0.0000
     46 ****        -0.9761  -1.5566  -2.6088 H              1 S1                 0.0000
     47 ****        -2.3308  -0.4523  -2.6218 H              1 S1                 0.0000
     48 ****        -0.3658   1.7495   0.3734 LP             1 S1                 0.0000
     49 ****         1.2512   2.3036   0.6531 LP             1 S1                 0.0000
     50 ****         5.8957   5.0802   1.7788 LP             1 S1                 0.0000
     51 ****         6.1078   4.7592   3.4676 LP             1 S1                 0.0000
     52 ****         2.5623   1.2441  -2.6139 LP             1 S1                 0.0000
     53 ****         3.2595   2.6722  -3.3027 LP             1 S1                 0.0000
@<TRIPOS>BOND
    1    1    2 1     
    2    1   25 1     
    3    1   26 1     
    4    1   27 1     
    5    2    7 1     
    6    2    3 1     
    7    2    4 1     
    8    3   28 1     
    9    3   29 1     
   10    3   30 1     
   11    4   24 1     
   12    4    5 1     
   13    4   31 1     
   14    5    6 1     
   15    5   32 1     
   16    5   33 1     
   17    6    7 1     
   18    6   34 1     
   19    6   35 1     
   20    7    8 1     
   21    7    9 1     
   22    8   36 1     
   23    8   37 1     
   24    8   38 1     
   25    9   10 1     
   26    9   24 1     
   27    9   39 1     
   28   10   11 am    
   29   10   40 1     
   30   11   12 2     
   31   11   13 1     
   32   13   14 1     
   33   13   41 1     
   34   13   42 1     
   35   14   22 am    
   36   14   15 1     
   37   15   16 2     
   38   15   43 1     
   39   16   17 1     
   40   16   20 1     
   41   17   18 2     
   42   17   19 1     
   43   20   21 2     
   44   20   44 1     
   45   21   22 1     
   46   21   45 1     
   47   22   23 2     
   48   24   46 1     
   49   24   47 1     
   50   12   48 1     
   51   12   49 1     
   52   18   50 1     
   53   18   51 1     
   54   23   52 1     
   55   23   53 1     
@<TRIPOS>SUBSTRUCTURE
      1 S1             1
@<TRIPOS>SET
LONE_PAIRS      STATIC     ATOMS    <user>   **** ""
7 48 49 50 51 19 52 53
DONOR_HYDROGENS      STATIC     ATOMS    <user>   **** ""
1 40
ATOM$BLUE        STATIC     ATOMS    COLORGROUP SYSTEM
7 48 49 50 51 19 52 53
ATOM$RED        STATIC     ATOMS    COLORGROUP SYSTEM
1 40
