AV-unprocessed.smi:3161|AV-procd|sdf|12059|dock6
  -GOLD-   2272017483D 1   1.00000     0.00000
 Structure written by MMmdl.
 40 41  0  0  0  0  0  0  0  0  1 V2000
  146.7103  141.0647  153.2333 C   0  0  0  0  0  0  0  0  0  0  0  0
  147.9922  140.7047  153.9273 C   0  0  0  0  0  0  0  0  0  0  0  0
  149.1020  141.5506  154.2107 C   0  0  0  0  0  0  0  0  0  0  0  0
  150.0804  140.9220  154.8414 N   0  0  0  0  0  0  0  0  0  0  0  0
  149.6346  139.6548  154.9772 N   0  0  0  0  0  0  0  0  0  0  0  0
  150.4653  138.6597  155.6332 C   0  0  0  0  0  0  0  0  0  0  0  0
  151.9632  139.0231  155.5928 C   0  0  2  0  0  0  0  0  0  0  0  0
  152.7986  137.9179  156.2644 C   0  0  0  0  0  0  0  0  0  0  0  0
  152.1843  140.3288  156.2245 N   0  0  0  0  0  0  0  0  0  0  0  0
  151.7050  140.4584  157.5991 C   0  0  0  0  0  0  0  0  0  0  0  0
  152.1874  141.7760  158.2221 C   0  0  2  0  0  0  0  0  0  0  0  0
  152.0637  141.7600  159.7578 C   0  0  0  0  0  0  0  0  0  0  0  0
  152.4691  143.1171  160.3448 C   0  0  0  0  0  0  0  0  0  0  0  0
  151.6701  144.2339  159.6650 C   0  0  0  0  0  0  0  0  0  0  0  0
  151.7936  144.1247  158.1373 C   0  0  0  0  0  0  0  0  0  0  0  0
  151.3771  142.8320  157.7083 O   0  0  0  0  0  0  0  0  0  0  0  0
  148.3762  139.4966  154.4369 C   0  0  0  0  0  0  0  0  0  0  0  0
  146.7465  142.0690  152.8100 H   0  0  0  0  0  0  0  0  0  0  0  0
  145.8621  141.0347  153.9172 H   0  0  0  0  0  0  0  0  0  0  0  0
  146.4892  140.3796  152.4149 H   0  0  0  0  0  0  0  0  0  0  0  0
  149.2239  142.5985  153.9791 H   0  0  0  0  0  0  0  0  0  0  0  0
  150.1265  138.5271  156.6624 H   0  0  0  0  0  0  0  0  0  0  0  0
  150.2974  137.7080  155.1273 H   0  0  0  0  0  0  0  0  0  0  0  0
  152.2657  139.0793  154.5463 H   0  0  0  0  0  0  0  0  0  0  0  0
  152.5711  136.9425  155.8337 H   0  0  0  0  0  0  0  0  0  0  0  0
  152.5952  137.8607  157.3344 H   0  0  0  0  0  0  0  0  0  0  0  0
  153.8686  138.0766  156.1326 H   0  0  0  0  0  0  0  0  0  0  0  0
  151.7778  141.0629  155.6527 H   0  0  0  0  0  0  0  0  0  0  0  0
  150.6171  140.4161  157.6445 H   0  0  0  0  0  0  0  0  0  0  0  0
  152.0788  139.6207  158.1888 H   0  0  0  0  0  0  0  0  0  0  0  0
  153.2311  141.9445  157.9488 H   0  0  0  0  0  0  0  0  0  0  0  0
  151.0357  141.5317  160.0423 H   0  0  0  0  0  0  0  0  0  0  0  0
  152.6877  140.9717  160.1799 H   0  0  0  0  0  0  0  0  0  0  0  0
  152.3041  143.1314  161.4226 H   0  0  0  0  0  0  0  0  0  0  0  0
  153.5360  143.2809  160.1880 H   0  0  0  0  0  0  0  0  0  0  0  0
  150.6202  144.1598  159.9509 H   0  0  0  0  0  0  0  0  0  0  0  0
  152.0195  145.2096  160.0041 H   0  0  0  0  0  0  0  0  0  0  0  0
  151.1657  144.8749  157.6565 H   0  0  0  0  0  0  0  0  0  0  0  0
  152.8185  144.3142  157.8145 H   0  0  0  0  0  0  0  0  0  0  0  0
  147.8644  138.5457  154.4581 H   0  0  0  0  0  0  0  0  0  0  0  0
  1  2  1  0  0  0  0
  1 18  1  0  0  0  0
  1 19  1  0  0  0  0
  1 20  1  0  0  0  0
  2 17  2  0  0  0  0
  2  3  1  0  0  0  0
  3  4  2  0  0  0  0
  3 21  1  0  0  0  0
  4  5  1  0  0  0  0
  5  6  1  0  0  0  0
  5 17  1  0  0  0  0
  6  7  1  0  0  0  0
  6 22  1  0  0  0  0
  6 23  1  0  0  0  0
  7  8  1  0  0  0  0
  7  9  1  0  0  0  0
  7 24  1  0  0  0  0
  8 25  1  0  0  0  0
  8 26  1  0  0  0  0
  8 27  1  0  0  0  0
  9 10  1  0  0  0  0
  9 28  1  0  0  0  0
 10 11  1  0  0  0  0
 10 29  1  0  0  0  0
 10 30  1  0  0  0  0
 11 16  1  0  0  0  0
 11 12  1  0  0  0  0
 11 31  1  0  0  0  0
 12 13  1  0  0  0  0
 12 32  1  0  0  0  0
 12 33  1  0  0  0  0
 13 14  1  0  0  0  0
 13 34  1  0  0  0  0
 13 35  1  0  0  0  0
 14 15  1  0  0  0  0
 14 36  1  0  0  0  0
 14 37  1  0  0  0  0
 15 16  1  0  0  0  0
 15 38  1  0  0  0  0
 15 39  1  0  0  0  0
 17 40  1  0  0  0  0
M  END
> <s_m_source_file>
AV-unprocessed.smi

> <i_m_source_file_index>
3161

> <i_lp_mmshare_version>
43012

> <i_f3d_flags>
0

> <s_epik_input>
W0NIM11jMVtjSF1ubihbY0hdMSlbQ0gyXVtDQEhdKFtDSDNdKVtOSF1bQ0gyXVtDQEBIXTJbQ0gyXVtDSDJdW0NIMl1bQ0gyXU8y

> <s_epik_cmdline>
J2VwaWtfcHl0aG9uJywgJy1waCcsICc3LjAnLCAnLXRuJywgJzgnLCAnLW1hJywgJzIwMCcsICctbWV0YWxfYmluZGluZycsICctaW1hZScsICc8aW5maWxlLm1hZT4nLCAnLW9tYWUnLCAnPG91dGZpbGUubWFlPic=

> <r_lp_tautomer_probability>
1

> <r_epik_Ionization_Penalty>
2.51986

> <r_epik_Ionization_Penalty_Charging>
0

> <r_epik_Ionization_Penalty_Neutral>
2.51986

> <r_epik_State_Penalty>
2.68614

> <r_epik_Charging_Adjusted_Penalty>
2.68614

> <i_epik_Tot_Q>
0

> <i_epik_Tot_abs_Q>
0

> <r_epik_Metal_State_Penalty>
2.68606

> <b_epik_Metal_Only>
0

> <s_lp_Force_Field>
OPLS_2005

> <r_lp_Energy>
14.7371

> <b_lp_Chiralities_Consistent>
1

> <s_lp_Variant>
AV-unprocessed.smi:3161-5

> <Gold.Version>
5.8.1

> <Gold.Id.Protein>
6NUR|6NUR_protein|mol2

> <Gold.PLP.Fitness>
40.8719

> <Gold.PLP.PLP>
-33.8360

> <Gold.PLP.part.hbond>
-2.0000

> <Gold.PLP.part.metal>
0.0000

> <Gold.PLP.part.buried>
0.2569

> <Gold.PLP.part.nonpolar>
-29.9588

> <Gold.PLP.part.repulsive>
0.1508

> <Gold.PLP.ligand.clash>
0.0000

> <Gold.PLP.ligand.torsion>
0.5057

> <Gold.PLP.Chemscore.Hbond>
1.6750

> <Gold.PLP.Chemscore.CHOScore>
1.0000

> <Gold.PLP.Chemscore.Metal>
0.0000

> <Gold.Chemscore.Hbonds>
donor molecule, donor type, donor heavy atom, donor atom, acceptor molecule, acceptor atom, score
      P1  H  7989  7998       L1     4  0.70
      P1  H  7997  8009       L1     9  0.55
      L1  C     3    21       P1  8028  0.56

> <Gold.PLP.Chemscore.Internal.Correction>
0.0224

> <Gold.Rescore>
     Score         DG    S(hbond)    S(metal)    S(lipo)     H(rot)  DE(clash)    DE(int)     intcor
     14.71     -15.30       0.47        0.00     103.43       1.50       0.27       0.32       ----

> <Gold.Chemscore.Fitness>
14.7084

> <Gold.Chemscore.DG>
-15.2956

> <Gold.Chemscore.ZeroCoef>
-5.4800

> <Gold.Chemscore.Hbond>
0.4678

> <Gold.Chemscore.Metal>
0.0000

> <Gold.Chemscore.Lipo>
103.4272

> <Gold.Chemscore.Internal_Hbond>
0.0000

> <Gold.Chemscore.DEClash>
0.2659

> <Gold.Chemscore.DEInternal>
0.3213

> <Gold.Chemscore.Rot>
1.5030

> <Gold.Chemscore.Internal.Correction>
   9.000000E+99

> <Gold.Chemscore.Hbonds>
donor molecule, donor type, donor heavy atom, donor atom, acceptor molecule, acceptor atom, score
      P1  H  7989  7998       L1     4  0.19
      P1  H  7997  8009       L1     9  0.04

> <Gold.Chemscore.Hbond.Weighted>
-1.5623

> <Gold.Chemscore.Metal.Weighted>
-0.0000

> <Gold.Chemscore.Lipo.Weighted>
-12.1010

> <Gold.Chemscore.Internal_Hbond.Weighted>
0.0000

> <Gold.Chemscore.DEClash.Weighted>
0.2659

> <Gold.Chemscore.DEInternal.Weighted>
0.3213

> <Gold.Chemscore.Rot.Weighted>
3.8477

> <Gold.Chemscore.Internal.Correction.Weighted>
   9.000000E+99

> <Gold.Protein.RotatedTorsions>
[ 6907 6896 6895 6894 ] final  113.24 input  -60.11 | X-H torsion
[ 7974 7965 7964 7962 ] final  -11.12 input  175.53 | X-H torsion
[ 8008 7997 7996 7995 ] final -169.24 input   59.86 | X-H torsion
[ 10167 10162 10161 10158 ] final   18.66 input  -65.29 | X-H torsion
[ 10718 10713 10712 10709 ] final  103.17 input   66.30 | X-H torsion
[ 10763 10752 10751 10750 ] final   -3.98 input  -60.55 | X-H torsion
[ 11005 11000 10999 10996 ] final  -19.07 input  -57.11 | X-H torsion

> <Gold.Protein.ActiveResidues>
 VAL166  LYS551  ARG553  GLY616  TRP617  ASP618  TYR619  PRO620  LYS621  CYS622 
 ASP623  PHE694  ASN695  SER759  ASP760  ASP761  ALA762  ILE779  LEU786  VAL792 
 PHE793  MET794  SER795  GLU796  ALA797  LYS798  CYS799  TRP800  GLU811  SER814 

> <Gold.Protein.RotatedAtoms>
  152.4872  133.8403  159.7149 H   0  0  0  0  0  0  0  0  0  0  0  0  # atno 6907 bound_to 6896
  150.8969  133.7160  159.2896 H   0  0  0  0  0  0  0  0  0  0  0  0  # atno 6908 bound_to 6896
  151.4615  135.1042  159.9778 H   0  0  0  0  0  0  0  0  0  0  0  0  # atno 6909 bound_to 6896
  146.2198  140.2865  142.8365 H   0  0  0  0  0  0  0  0  0  0  0  0  # atno 7974 bound_to 7965
  155.9023  140.1043  157.1340 H   0  0  0  0  0  0  0  0  0  0  0  0  # atno 8008 bound_to 7997
  154.4028  140.1290  156.4516 H   0  0  0  0  0  0  0  0  0  0  0  0  # atno 8009 bound_to 7997
  155.7408  140.3467  155.5105 H   0  0  0  0  0  0  0  0  0  0  0  0  # atno 8010 bound_to 7997
  140.5637  143.9290  150.6661 H   0  0  0  0  0  0  0  0  0  0  0  0  # atno 10167 bound_to 10162
  157.6780  131.0772  150.5515 H   0  0  0  0  0  0  0  0  0  0  0  0  # atno 10718 bound_to 10713
  153.3786  135.6997  153.6582 H   0  0  0  0  0  0  0  0  0  0  0  0  # atno 10763 bound_to 10752
  153.5203  135.3613  155.2629 H   0  0  0  0  0  0  0  0  0  0  0  0  # atno 10764 bound_to 10752
  154.8690  135.4156  154.3079 H   0  0  0  0  0  0  0  0  0  0  0  0  # atno 10765 bound_to 10752
  140.8330  133.7982  155.9779 H   0  0  0  0  0  0  0  0  0  0  0  0  # atno 11005 bound_to 11000
  144.9158  140.7811  143.5779 LP  0  0  0  0  0  0  0  0  0  0  0  0  # atno 17320 bound_to 7965
  145.2798  139.1922  143.4797 LP  0  0  0  0  0  0  0  0  0  0  0  0  # atno 17321 bound_to 7965
  140.2748  143.3431  152.1205 LP  0  0  0  0  0  0  0  0  0  0  0  0  # atno 17342 bound_to 10162
  139.5082  144.6846  151.5920 LP  0  0  0  0  0  0  0  0  0  0  0  0  # atno 17343 bound_to 10162
  156.5819  130.4306  149.5973 LP  0  0  0  0  0  0  0  0  0  0  0  0  # atno 17370 bound_to 10713
  156.2654  130.6986  151.1768 LP  0  0  0  0  0  0  0  0  0  0  0  0  # atno 17371 bound_to 10713
  140.8977  134.2417  157.5059 LP  0  0  0  0  0  0  0  0  0  0  0  0  # atno 17394 bound_to 11000
  139.8704  134.9692  156.4657 LP  0  0  0  0  0  0  0  0  0  0  0  0  # atno 17395 bound_to 11000

$$$$
