AV-unprocessed.smi:91|AV-procd|sdf|833|dock4
  -GOLD-   2262017253D 1   1.00000     0.00000
 Structure written by MMmdl.
 60 63  0  0  0  0  0  0  0  0  1 V2000
  145.9593  133.1022  156.7777 C   0  0  0  0  0  0  0  0  0  0  0  0
  146.3373  134.2727  157.4805 O   0  0  0  0  0  0  0  0  0  0  0  0
  147.4645  134.0650  158.3172 C   0  0  0  0  0  0  0  0  0  0  0  0
  148.7585  134.2974  157.5251 C   0  0  2  0  0  0  0  0  0  0  0  0
  148.8719  135.7272  156.9666 C   0  0  0  0  0  0  0  0  0  0  0  0
  150.0660  135.8398  156.1432 N   0  0  0  0  0  0  0  0  0  0  0  0
  150.3380  137.1032  155.7548 C   0  0  0  0  0  0  0  0  0  0  0  0
  150.5231  137.3877  154.4388 N   0  0  0  0  0  0  0  0  0  0  0  0
  150.7882  138.6423  154.0614 C   0  0  0  0  0  0  0  0  0  0  0  0
  150.9075  139.7350  154.8192 N   0  0  0  0  0  0  0  0  0  0  0  0
  150.7176  139.4487  156.1394 C   0  0  0  0  0  0  0  0  0  0  0  0
  150.4337  138.1674  156.6878 C   0  0  0  0  0  0  0  0  0  0  0  0
  150.3116  138.2531  158.0682 N   0  0  0  0  0  0  0  0  0  0  0  0
  150.5119  139.5177  158.3231 C   0  0  0  0  0  0  0  0  0  0  0  0
  150.7542  140.3098  157.2224 N   0  0  0  0  0  0  0  0  0  0  0  0
  150.9976  141.7424  157.2144 C   0  0  0  0  0  0  0  0  0  0  0  0
  150.9586  142.3580  158.6399 C   0  0  2  0  0  0  0  0  0  0  0  0
  150.3087  143.7602  158.6170 C   0  0  0  0  0  0  0  0  0  0  0  0
  150.9467  144.5968  157.6756 O   0  0  0  0  0  0  0  0  0  0  0  0
  152.3715  142.4126  159.2768 C   0  0  2  0  0  0  0  0  0  0  0  0
  153.0334  141.0615  159.4868 C   0  0  0  0  0  0  0  0  0  0  0  0
  154.1208  141.3912  160.5018 C   0  0  0  0  0  0  0  0  0  0  0  0
  153.5672  142.4064  161.3291 O   0  0  0  0  0  0  0  0  0  0  0  0
  152.4114  142.9618  160.7088 C   0  0  0  0  0  0  0  0  0  0  0  0
  150.0855  134.8661  155.0594 C   0  0  0  0  0  0  0  0  0  0  0  0
  149.9670  133.4277  155.6116 C   0  0  0  0  0  0  0  0  0  0  0  0
  149.6958  132.4498  154.4582 C   0  0  0  0  0  0  0  0  0  0  0  0
  151.2450  132.9890  156.3581 C   0  0  0  0  0  0  0  0  0  0  0  0
  148.8188  133.3417  156.4644 O   0  0  0  0  0  0  0  0  0  0  0  0
  145.0924  133.3144  156.1522 H   0  0  0  0  0  0  0  0  0  0  0  0
  145.6898  132.2993  157.4651 H   0  0  0  0  0  0  0  0  0  0  0  0
  146.7647  132.7537  156.1299 H   0  0  0  0  0  0  0  0  0  0  0  0
  147.4240  134.7539  159.1625 H   0  0  0  0  0  0  0  0  0  0  0  0
  147.4531  133.0520  158.7227 H   0  0  0  0  0  0  0  0  0  0  0  0
  149.5893  134.1165  158.2071 H   0  0  0  0  0  0  0  0  0  0  0  0
  147.9947  135.9704  156.3653 H   0  0  0  0  0  0  0  0  0  0  0  0
  148.9134  136.4480  157.7846 H   0  0  0  0  0  0  0  0  0  0  0  0
  150.9236  138.7926  153.0005 H   0  0  0  0  0  0  0  0  0  0  0  0
  150.4865  139.9063  159.3299 H   0  0  0  0  0  0  0  0  0  0  0  0
  151.9547  141.9227  156.7250 H   0  0  0  0  0  0  0  0  0  0  0  0
  150.2562  142.2065  156.5628 H   0  0  0  0  0  0  0  0  0  0  0  0
  150.3401  141.7279  159.2823 H   0  0  0  0  0  0  0  0  0  0  0  0
  149.2587  143.7049  158.3321 H   0  0  0  0  0  0  0  0  0  0  0  0
  150.3481  144.2248  159.6027 H   0  0  0  0  0  0  0  0  0  0  0  0
  150.3087  144.8726  157.0354 H   0  0  0  0  0  0  0  0  0  0  0  0
  153.0266  143.0240  158.6537 H   0  0  0  0  0  0  0  0  0  0  0  0
  152.3252  140.3516  159.9168 H   0  0  0  0  0  0  0  0  0  0  0  0
  153.4414  140.6301  158.5729 H   0  0  0  0  0  0  0  0  0  0  0  0
  154.4290  140.5226  161.0840 H   0  0  0  0  0  0  0  0  0  0  0  0
  155.0011  141.7934  159.9990 H   0  0  0  0  0  0  0  0  0  0  0  0
  152.4455  144.0511  160.7354 H   0  0  0  0  0  0  0  0  0  0  0  0
  151.5356  142.6386  161.2732 H   0  0  0  0  0  0  0  0  0  0  0  0
  149.2531  135.0715  154.3841 H   0  0  0  0  0  0  0  0  0  0  0  0
  151.0014  134.9745  154.4765 H   0  0  0  0  0  0  0  0  0  0  0  0
  150.5104  132.4554  153.7332 H   0  0  0  0  0  0  0  0  0  0  0  0
  148.7791  132.7090  153.9274 H   0  0  0  0  0  0  0  0  0  0  0  0
  149.5845  131.4287  154.8244 H   0  0  0  0  0  0  0  0  0  0  0  0
  152.0953  132.9385  155.6773 H   0  0  0  0  0  0  0  0  0  0  0  0
  151.1196  132.0014  156.8028 H   0  0  0  0  0  0  0  0  0  0  0  0
  151.5204  133.6783  157.1559 H   0  0  0  0  0  0  0  0  0  0  0  0
  1  2  1  0  0  0  0
  1 30  1  0  0  0  0
  1 31  1  0  0  0  0
  1 32  1  0  0  0  0
  2  3  1  0  0  0  0
  3  4  1  0  0  0  0
  3 33  1  0  0  0  0
  3 34  1  0  0  0  0
  4 29  1  0  0  0  0
  4  5  1  0  0  0  0
  4 35  1  0  0  0  0
  5  6  1  0  0  0  0
  5 36  1  0  0  0  0
  5 37  1  0  0  0  0
  6  7  1  0  0  0  0
  6 25  1  0  0  0  0
  7 12  1  0  0  0  0
  7  8  2  0  0  0  0
  8  9  1  0  0  0  0
  9 10  2  0  0  0  0
  9 38  1  0  0  0  0
 10 11  1  0  0  0  0
 11 15  1  0  0  0  0
 11 12  2  0  0  0  0
 12 13  1  0  0  0  0
 13 14  2  0  0  0  0
 14 15  1  0  0  0  0
 14 39  1  0  0  0  0
 15 16  1  0  0  0  0
 16 17  1  0  0  0  0
 16 40  1  0  0  0  0
 16 41  1  0  0  0  0
 17 18  1  0  0  0  0
 17 20  1  0  0  0  0
 17 42  1  0  0  0  0
 18 19  1  0  0  0  0
 18 43  1  0  0  0  0
 18 44  1  0  0  0  0
 19 45  1  0  0  0  0
 20 24  1  0  0  0  0
 20 21  1  0  0  0  0
 20 46  1  0  0  0  0
 21 22  1  0  0  0  0
 21 47  1  0  0  0  0
 21 48  1  0  0  0  0
 22 23  1  0  0  0  0
 22 49  1  0  0  0  0
 22 50  1  0  0  0  0
 23 24  1  0  0  0  0
 24 51  1  0  0  0  0
 24 52  1  0  0  0  0
 25 26  1  0  0  0  0
 25 53  1  0  0  0  0
 25 54  1  0  0  0  0
 26 27  1  0  0  0  0
 26 28  1  0  0  0  0
 26 29  1  0  0  0  0
 27 55  1  0  0  0  0
 27 56  1  0  0  0  0
 27 57  1  0  0  0  0
 28 58  1  0  0  0  0
 28 59  1  0  0  0  0
 28 60  1  0  0  0  0
M  END
> <s_m_source_file>
AV-unprocessed.smi

> <i_m_source_file_index>
91

> <i_lp_mmshare_version>
43012

> <i_f3d_flags>
0

> <s_epik_input>
W0NIM11PW0NIMl1bQ0BASF0oTzEpW0NIMl1OKFtDSDJdQzEoW0NIM10pW0NIM10pYyhuW2NIXW4yKWMoYzIzKW5bY0hdbjNbQ0gyXVtDQEhdKFtDSDJdW09IXSlbQ0BASF00W0NIMl1bQ0gyXU9bQ0gyXTQ=

> <s_epik_cmdline>
J2VwaWtfcHl0aG9uJywgJy1waCcsICc3LjAnLCAnLXRuJywgJzgnLCAnLW1hJywgJzIwMCcsICctbWV0YWxfYmluZGluZycsICctaW1hZScsICc8aW5maWxlLm1hZT4nLCAnLW9tYWUnLCAnPG91dGZpbGUubWFlPic=

> <r_lp_tautomer_probability>
1

> <r_epik_Ionization_Penalty>
8.63591e-05

> <r_epik_Ionization_Penalty_Charging>
0

> <r_epik_Ionization_Penalty_Neutral>
8.63591e-05

> <r_epik_State_Penalty>
-0

> <r_epik_Charging_Adjusted_Penalty>
0

> <i_epik_Tot_Q>
0

> <i_epik_Tot_abs_Q>
0

> <r_epik_Metal_State_Penalty>
-0

> <b_epik_Metal_Only>
0

> <s_lp_Force_Field>
OPLS_2005

> <r_lp_Energy>
49.9364

> <b_lp_Chiralities_Consistent>
1

> <s_lp_Variant>
AV-unprocessed.smi:91-1

> <Gold.Version>
5.8.1

> <Gold.Id.Protein>
6NUR|6NUR_protein|mol2

> <Gold.PLP.Fitness>
47.2531

> <Gold.PLP.PLP>
-40.0080

> <Gold.PLP.part.hbond>
-2.0000

> <Gold.PLP.part.metal>
0.0000

> <Gold.PLP.part.buried>
-7.6421

> <Gold.PLP.part.nonpolar>
-31.0630

> <Gold.PLP.part.repulsive>
0.3375

> <Gold.PLP.ligand.clash>
0.0000

> <Gold.PLP.ligand.torsion>
0.7525

> <Gold.PLP.Chemscore.Hbond>
1.9000

> <Gold.PLP.Chemscore.CHOScore>
0.9005

> <Gold.PLP.Chemscore.Metal>
0.0000

> <Gold.Chemscore.Hbonds>
donor molecule, donor type, donor heavy atom, donor atom, acceptor molecule, acceptor atom, score
      L1  H    19    45       P1  8028  1.00
      P1  H  7989  7998       L1    10  0.85
      L1  C     9    38       P1  7957  0.82

> <Gold.PLP.Chemscore.Internal.Correction>
0.3486

> <Gold.Rescore>
     Score         DG    S(hbond)    S(metal)    S(lipo)     H(rot)  DE(clash)    DE(int)     intcor
     13.30     -14.28       1.72        0.00      92.42       3.03       0.04       0.94       ----

> <Gold.Chemscore.Fitness>
13.2998

> <Gold.Chemscore.DG>
-14.2751

> <Gold.Chemscore.ZeroCoef>
-5.4800

> <Gold.Chemscore.Hbond>
1.7171

> <Gold.Chemscore.Metal>
0.0000

> <Gold.Chemscore.Lipo>
92.4180

> <Gold.Chemscore.Internal_Hbond>
0.0000

> <Gold.Chemscore.DEClash>
0.0389

> <Gold.Chemscore.DEInternal>
0.9364

> <Gold.Chemscore.Rot>
3.0284

> <Gold.Chemscore.Internal.Correction>
   9.000000E+99

> <Gold.Chemscore.Hbonds>
donor molecule, donor type, donor heavy atom, donor atom, acceptor molecule, acceptor atom, score
      L1  H    19    45       P1  8028  0.39
      P1  H  7989  7998       L1    10  0.15

> <Gold.Chemscore.Hbond.Weighted>
-5.7350

> <Gold.Chemscore.Metal.Weighted>
-0.0000

> <Gold.Chemscore.Lipo.Weighted>
-10.8129

> <Gold.Chemscore.Internal_Hbond.Weighted>
0.0000

> <Gold.Chemscore.DEClash.Weighted>
0.0389

> <Gold.Chemscore.DEInternal.Weighted>
0.9364

> <Gold.Chemscore.Rot.Weighted>
7.7528

> <Gold.Chemscore.Internal.Correction.Weighted>
   9.000000E+99

> <Gold.Protein.RotatedTorsions>
[ 6907 6896 6895 6894 ] final  152.94 input  -60.11 | X-H torsion
[ 7974 7965 7964 7962 ] final -166.09 input  175.53 | X-H torsion
[ 8008 7997 7996 7995 ] final -125.95 input   59.86 | X-H torsion
[ 10167 10162 10161 10158 ] final  166.15 input  -65.29 | X-H torsion
[ 10718 10713 10712 10709 ] final   96.19 input   66.30 | X-H torsion
[ 10763 10752 10751 10750 ] final  -27.00 input  -60.55 | X-H torsion
[ 11005 11000 10999 10996 ] final  -51.70 input  -57.11 | X-H torsion

> <Gold.Protein.ActiveResidues>
 VAL166  LYS551  ARG553  GLY616  TRP617  ASP618  TYR619  PRO620  LYS621  CYS622 
 ASP623  PHE694  ASN695  SER759  ASP760  ASP761  ALA762  ILE779  LEU786  VAL792 
 PHE793  MET794  SER795  GLU796  ALA797  LYS798  CYS799  TRP800  GLU811  SER814 

> <Gold.Protein.RotatedAtoms>
  152.0796  133.4146  159.4495 H   0  0  0  0  0  0  0  0  0  0  0  0  # atno 6907 bound_to 6896
  150.6862  134.2997  159.4710 H   0  0  0  0  0  0  0  0  0  0  0  0  # atno 6908 bound_to 6896
  152.0837  134.9453  160.0623 H   0  0  0  0  0  0  0  0  0  0  0  0  # atno 6909 bound_to 6896
  144.7254  140.2718  143.6249 H   0  0  0  0  0  0  0  0  0  0  0  0  # atno 7974 bound_to 7965
  155.2217  140.0422  157.2949 H   0  0  0  0  0  0  0  0  0  0  0  0  # atno 8008 bound_to 7997
  154.5945  140.2435  155.7846 H   0  0  0  0  0  0  0  0  0  0  0  0  # atno 8009 bound_to 7997
  156.2281  140.2947  156.0127 H   0  0  0  0  0  0  0  0  0  0  0  0  # atno 8010 bound_to 7997
  139.4919  144.4057  151.9358 H   0  0  0  0  0  0  0  0  0  0  0  0  # atno 10167 bound_to 10162
  157.6930  131.0570  150.4454 H   0  0  0  0  0  0  0  0  0  0  0  0  # atno 10718 bound_to 10713
  153.7250  135.6942  153.5003 H   0  0  0  0  0  0  0  0  0  0  0  0  # atno 10763 bound_to 10752
  153.2176  135.4381  155.0451 H   0  0  0  0  0  0  0  0  0  0  0  0  # atno 10764 bound_to 10752
  154.8272  135.3452  154.6782 H   0  0  0  0  0  0  0  0  0  0  0  0  # atno 10765 bound_to 10752
  141.0885  133.6637  156.3915 H   0  0  0  0  0  0  0  0  0  0  0  0  # atno 11005 bound_to 11000
  145.8035  139.1974  143.2034 LP  0  0  0  0  0  0  0  0  0  0  0  0  # atno 17320 bound_to 7965
  146.0656  140.7924  142.9713 LP  0  0  0  0  0  0  0  0  0  0  0  0  # atno 17321 bound_to 7965
  140.3497  144.3103  150.5951 LP  0  0  0  0  0  0  0  0  0  0  0  0  # atno 17342 bound_to 10162
  140.5495  143.2209  151.7950 LP  0  0  0  0  0  0  0  0  0  0  0  0  # atno 17343 bound_to 10162
  156.4809  130.4073  149.6462 LP  0  0  0  0  0  0  0  0  0  0  0  0  # atno 17370 bound_to 10713
  156.3508  130.7431  151.2390 LP  0  0  0  0  0  0  0  0  0  0  0  0  # atno 17371 bound_to 10713
  140.5307  134.6215  157.5349 LP  0  0  0  0  0  0  0  0  0  0  0  0  # atno 17394 bound_to 11000
  139.9707  134.7298  156.0048 LP  0  0  0  0  0  0  0  0  0  0  0  0  # atno 17395 bound_to 11000

$$$$
