AV-unprocessed.smi:3208|AV-procd|sdf|12263|dock4
  -GOLD-   2272018 93D 1   1.00000     0.00000
 Structure written by MMmdl.
 30 30  0  0  0  0  0  0  0  0  3 V2000
  147.2784  141.2818  153.7966 C   0  0  0  0  0  0  0  0  0  0  0  0
  147.9432  141.3308  154.9607 C   0  0  0  0  0  0  0  0  0  0  0  0
  149.4417  141.4940  155.0874 C   0  0  0  0  0  0  0  0  0  0  0  0
  150.1085  140.4025  154.4647 O   0  0  0  0  0  0  0  0  0  0  0  0
  150.5920  139.3937  155.3482 C   0  0  1  0  0  0  0  0  0  0  0  0
  151.1813  138.2683  154.4847 C   0  0  0  0  0  0  0  0  0  0  0  0
  151.6477  139.9755  156.3023 C   0  0  0  0  0  0  0  0  0  0  0  0
  152.8440  139.8692  156.0277 O   0  0  0  0  0  0  0  0  0  0  0  0
  151.1664  140.5930  157.3972 N   0  0  0  0  0  0  0  0  0  0  0  0
  151.8828  141.2157  158.4568 C   0  0  0  0  0  0  0  0  0  0  0  0
  151.4699  142.3770  159.0237 N   0  3  0  0  0  0  0  0  0  0  0  0
  152.1294  142.9945  160.0275 C   0  0  0  0  0  0  0  0  0  0  0  0
  153.3139  142.4305  160.5382 C   0  0  0  0  0  0  0  0  0  0  0  0
  153.7882  141.2239  159.9862 C   0  0  0  0  0  0  0  0  0  0  0  0
  153.0689  140.6103  158.9385 C   0  0  0  0  0  0  0  0  0  0  0  0
  153.5292  139.4396  158.4037 O   0  5  0  0  0  0  0  0  0  0  0  0
  147.7945  141.3586  152.8507 H   0  0  0  0  0  0  0  0  0  0  0  0
  146.2050  141.1632  153.7761 H   0  0  0  0  0  0  0  0  0  0  0  0
  147.3921  141.2502  155.8864 H   0  0  0  0  0  0  0  0  0  0  0  0
  149.7436  142.4434  154.6430 H   0  0  0  0  0  0  0  0  0  0  0  0
  149.6932  141.5317  156.1480 H   0  0  0  0  0  0  0  0  0  0  0  0
  149.7576  138.9837  155.9210 H   0  0  0  0  0  0  0  0  0  0  0  0
  151.5850  137.4649  155.1018 H   0  0  0  0  0  0  0  0  0  0  0  0
  151.9828  138.6328  153.8410 H   0  0  0  0  0  0  0  0  0  0  0  0
  150.4156  137.8346  153.8412 H   0  0  0  0  0  0  0  0  0  0  0  0
  150.1611  140.6189  157.4934 H   0  0  0  0  0  0  0  0  0  0  0  0
  151.6920  143.9141  160.3878 H   0  0  0  0  0  0  0  0  0  0  0  0
  153.8511  142.9142  161.3406 H   0  0  0  0  0  0  0  0  0  0  0  0
  154.6953  140.7747  160.3635 H   0  0  0  0  0  0  0  0  0  0  0  0
  150.6139  142.8062  158.6705 H   0  0  0  0  0  0  0  0  0  0  0  0
  1  2  2  0  0  0  0
  1 17  1  0  0  0  0
  1 18  1  0  0  0  0
  2  3  1  0  0  0  0
  2 19  1  0  0  0  0
  3  4  1  0  0  0  0
  3 20  1  0  0  0  0
  3 21  1  0  0  0  0
  4  5  1  0  0  0  0
  5  6  1  0  0  0  0
  5  7  1  0  0  0  0
  5 22  1  0  0  0  0
  6 23  1  0  0  0  0
  6 24  1  0  0  0  0
  6 25  1  0  0  0  0
  7  8  2  0  0  0  0
  7  9  1  0  0  0  0
  9 26  1  0  0  0  0
  9 10  1  0  0  0  0
 10 15  2  0  0  0  0
 10 11  1  0  0  0  0
 11 30  1  0  0  0  0
 11 12  2  0  0  0  0
 12 27  1  0  0  0  0
 12 13  1  0  0  0  0
 13 28  1  0  0  0  0
 13 14  2  0  0  0  0
 14 15  1  0  0  0  0
 14 29  1  0  0  0  0
 15 16  1  0  0  0  0
M  CHG  1  11   1
M  CHG  1  16  -1
M  END
> <s_m_source_file>
AV-unprocessed.smi

> <i_m_source_file_index>
3208

> <i_lp_mmshare_version>
43012

> <i_f3d_flags>
0

> <s_epik_input>
W0NIMl09W0NIXVtDSDJdT1tDQEhdKFtDSDNdKUMoPU8pW05IXWMxbltjSF1bY0hdW2NIXWMxW09IXQ==

> <s_epik_cmdline>
J2VwaWtfcHl0aG9uJywgJy1waCcsICc3LjAnLCAnLXRuJywgJzgnLCAnLW1hJywgJzIwMCcsICctbWV0YWxfYmluZGluZycsICctaW1hZScsICc8aW5maWxlLm1hZT4nLCAnLW9tYWUnLCAnPG91dGZpbGUubWFlPic=

> <r_lp_tautomer_probability>
0.56342

> <r_epik_Ionization_Penalty>
0.29395

> <r_epik_Ionization_Penalty_Charging>
0.0267837

> <r_epik_Ionization_Penalty_Neutral>
0.267166

> <r_epik_State_Penalty>
0.587031

> <r_epik_Charging_Adjusted_Penalty>
0.613815

> <i_epik_Tot_Q>
0

> <i_epik_Tot_abs_Q>
2

> <r_epik_Metal_State_Penalty>
2.67911

> <b_epik_Metal_Only>
0

> <s_lp_Force_Field>
OPLS_2005

> <r_lp_Energy>
5.73852

> <b_lp_Chiralities_Consistent>
1

> <s_lp_Variant>
AV-unprocessed.smi:3208-4

> <Gold.Version>
5.8.1

> <Gold.Id.Protein>
6NUR|6NUR_protein|mol2

> <Gold.PLP.Fitness>
41.2028

> <Gold.PLP.PLP>
-34.3648

> <Gold.PLP.part.hbond>
-3.0000

> <Gold.PLP.part.metal>
0.0000

> <Gold.PLP.part.buried>
-4.1326

> <Gold.PLP.part.nonpolar>
-27.6393

> <Gold.PLP.part.repulsive>
0.2348

> <Gold.PLP.ligand.clash>
0.0000

> <Gold.PLP.ligand.torsion>
1.2707

> <Gold.PLP.Chemscore.Hbond>
2.9600

> <Gold.PLP.Chemscore.CHOScore>
0.0000

> <Gold.PLP.Chemscore.Metal>
0.0000

> <Gold.Chemscore.Hbonds>
donor molecule, donor type, donor heavy atom, donor atom, acceptor molecule, acceptor atom, score
      P1  H  7989  7998       L1     4  0.93
      P1  H  7997  8008       L1    16  2.00

> <Gold.PLP.Chemscore.Internal.Correction>
0.4995

> <Gold.Rescore>
     Score         DG    S(hbond)    S(metal)    S(lipo)     H(rot)  DE(clash)    DE(int)     intcor
      9.97     -15.21       1.71        0.00      71.51       1.70       0.03       5.21       ----

> <Gold.Chemscore.Fitness>
9.9744

> <Gold.Chemscore.DG>
-15.2071

> <Gold.Chemscore.ZeroCoef>
-5.4800

> <Gold.Chemscore.Hbond>
1.7087

> <Gold.Chemscore.Metal>
0.0000

> <Gold.Chemscore.Lipo>
71.5117

> <Gold.Chemscore.Internal_Hbond>
0.0000

> <Gold.Chemscore.DEClash>
0.0274

> <Gold.Chemscore.DEInternal>
5.2053

> <Gold.Chemscore.Rot>
1.6979

> <Gold.Chemscore.Internal.Correction>
   9.000000E+99

> <Gold.Chemscore.Hbonds>
donor molecule, donor type, donor heavy atom, donor atom, acceptor molecule, acceptor atom, score
      P1  H  7989  7998       L1     4  0.36
      P1  H  7997  8008       L1     8  0.42

> <Gold.Chemscore.Hbond.Weighted>
-5.7070

> <Gold.Chemscore.Metal.Weighted>
-0.0000

> <Gold.Chemscore.Lipo.Weighted>
-8.3669

> <Gold.Chemscore.Internal_Hbond.Weighted>
0.0000

> <Gold.Chemscore.DEClash.Weighted>
0.0274

> <Gold.Chemscore.DEInternal.Weighted>
5.2053

> <Gold.Chemscore.Rot.Weighted>
4.3467

> <Gold.Chemscore.Internal.Correction.Weighted>
   9.000000E+99

> <Gold.Protein.RotatedTorsions>
[ 6907 6896 6895 6894 ] final   96.80 input  -60.11 | X-H torsion
[ 7974 7965 7964 7962 ] final  154.46 input  175.53 | X-H torsion
[ 8008 7997 7996 7995 ] final  -77.67 input   59.86 | X-H torsion
[ 10167 10162 10161 10158 ] final   41.17 input  -65.29 | X-H torsion
[ 10718 10713 10712 10709 ] final   21.99 input   66.30 | X-H torsion
[ 10763 10752 10751 10750 ] final  -60.63 input  -60.55 | X-H torsion
[ 11005 11000 10999 10996 ] final   16.26 input  -57.11 | X-H torsion

> <Gold.Protein.ActiveResidues>
 VAL166  LYS551  ARG553  GLY616  TRP617  ASP618  TYR619  PRO620  LYS621  CYS622 
 ASP623  PHE694  ASN695  SER759  ASP760  ASP761  ALA762  ILE779  LEU786  VAL792 
 PHE793  MET794  SER795  GLU796  ALA797  LYS798  CYS799  TRP800  GLU811  SER814 

> <Gold.Protein.RotatedAtoms>
  152.5431  134.0831  159.8243 H   0  0  0  0  0  0  0  0  0  0  0  0  # atno 6907 bound_to 6896
  151.0930  133.5294  159.2621 H   0  0  0  0  0  0  0  0  0  0  0  0  # atno 6908 bound_to 6896
  151.2078  135.0478  159.8953 H   0  0  0  0  0  0  0  0  0  0  0  0  # atno 6909 bound_to 6896
  144.8087  139.6937  143.6151 H   0  0  0  0  0  0  0  0  0  0  0  0  # atno 7974 bound_to 7965
  154.5618  140.0706  156.8830 H   0  0  0  0  0  0  0  0  0  0  0  0  # atno 8008 bound_to 7997
  155.2798  140.3371  155.4241 H   0  0  0  0  0  0  0  0  0  0  0  0  # atno 8009 bound_to 7997
  156.2048  140.1736  156.7809 H   0  0  0  0  0  0  0  0  0  0  0  0  # atno 8010 bound_to 7997
  140.3669  144.2155  150.6135 H   0  0  0  0  0  0  0  0  0  0  0  0  # atno 10167 bound_to 10162
  157.1462  130.6654  149.5997 H   0  0  0  0  0  0  0  0  0  0  0  0  # atno 10718 bound_to 10713
  154.2722  135.6288  153.5314 H   0  0  0  0  0  0  0  0  0  0  0  0  # atno 10763 bound_to 10752
  152.9878  135.5613  154.5588 H   0  0  0  0  0  0  0  0  0  0  0  0  # atno 10764 bound_to 10752
  154.5160  135.2879  155.1278 H   0  0  0  0  0  0  0  0  0  0  0  0  # atno 10765 bound_to 10752
  140.4491  134.1243  155.7700 H   0  0  0  0  0  0  0  0  0  0  0  0  # atno 11005 bound_to 11000
  146.2382  139.5948  142.9509 LP  0  0  0  0  0  0  0  0  0  0  0  0  # atno 17320 bound_to 7965
  145.5376  141.0423  143.2348 LP  0  0  0  0  0  0  0  0  0  0  0  0  # atno 17321 bound_to 7965
  140.5072  143.2301  151.8591 LP  0  0  0  0  0  0  0  0  0  0  0  0  # atno 17342 bound_to 10162
  139.4808  144.4992  151.9083 LP  0  0  0  0  0  0  0  0  0  0  0  0  # atno 17343 bound_to 10162
  155.9779  130.4760  150.6623 LP  0  0  0  0  0  0  0  0  0  0  0  0  # atno 17370 bound_to 10713
  157.4262  131.0843  151.1083 LP  0  0  0  0  0  0  0  0  0  0  0  0  # atno 17371 bound_to 10713
  141.1672  133.8679  157.1679 LP  0  0  0  0  0  0  0  0  0  0  0  0  # atno 17394 bound_to 11000
  140.0019  135.0024  157.0208 LP  0  0  0  0  0  0  0  0  0  0  0  0  # atno 17395 bound_to 11000

$$$$
