AV-unprocessed.smi:2806|AV-procd|sdf|10815|dock1
  -GOLD-   2272015253D 1   1.00000     0.00000
 Structure written by MMmdl.
 47 48  0  0  0  0  0  0  0  0  1 V2000
  142.0787  144.7041  154.6775 C   0  0  0  0  0  0  0  0  0  0  0  0
  143.5935  144.6978  154.9447 C   0  0  0  0  0  0  0  0  0  0  0  0
  144.3206  145.1407  153.6629 C   0  0  0  0  0  0  0  0  0  0  0  0
  143.8993  145.6769  156.0930 C   0  0  0  0  0  0  0  0  0  0  0  0
  144.0619  142.9947  155.4218 S   0  0  0  0  0  0  0  0  0  0  0  0
  145.8685  143.0271  155.6622 C   0  0  0  0  0  0  0  0  0  0  0  0
  146.5847  141.7677  155.1723 C   0  0  0  0  0  0  0  0  0  0  0  0
  145.9523  140.7316  154.9663 O   0  0  0  0  0  0  0  0  0  0  0  0
  147.9075  141.8742  154.9756 N   0  0  0  0  0  0  0  0  0  0  0  0
  148.7537  140.8134  154.4431 C   0  0  0  0  0  0  0  0  0  0  0  0
  149.9925  140.5726  155.2884 C   0  0  0  0  0  0  0  0  0  0  0  0
  150.7529  139.3981  155.1298 C   0  0  0  0  0  0  0  0  0  0  0  0
  151.8923  139.2277  155.9372 C   0  0  0  0  0  0  0  0  0  0  0  0
  152.2906  140.1324  156.8559 N   0  0  0  0  0  0  0  0  0  0  0  0
  151.5680  141.2690  157.0152 C   0  0  0  0  0  0  0  0  0  0  0  0
  151.9955  142.2029  157.9838 N   0  0  0  0  0  0  0  0  0  0  0  0
  151.5280  143.5827  157.8630 C   0  0  0  0  0  0  0  0  0  0  0  0
  152.3264  144.5022  158.8023 C   0  0  0  0  0  0  0  0  0  0  0  0
  152.2500  144.0098  160.1360 O   0  0  0  0  0  0  0  0  0  0  0  0
  152.8091  142.7056  160.2524 C   0  0  0  0  0  0  0  0  0  0  0  0
  152.0276  141.7238  159.3630 C   0  0  0  0  0  0  0  0  0  0  0  0
  150.4060  141.5211  156.2474 C   0  0  0  0  0  0  0  0  0  0  0  0
  141.7261  145.6967  154.3947 H   0  0  0  0  0  0  0  0  0  0  0  0
  141.5184  144.3970  155.5615 H   0  0  0  0  0  0  0  0  0  0  0  0
  141.8169  144.0205  153.8689 H   0  0  0  0  0  0  0  0  0  0  0  0
  144.2115  144.4053  152.8650 H   0  0  0  0  0  0  0  0  0  0  0  0
  145.3847  145.2953  153.8346 H   0  0  0  0  0  0  0  0  0  0  0  0
  143.9210  146.0854  153.2943 H   0  0  0  0  0  0  0  0  0  0  0  0
  143.5306  146.6775  155.8641 H   0  0  0  0  0  0  0  0  0  0  0  0
  144.9681  145.7679  156.2807 H   0  0  0  0  0  0  0  0  0  0  0  0
  143.4258  145.3576  157.0220 H   0  0  0  0  0  0  0  0  0  0  0  0
  146.2960  143.9205  155.2097 H   0  0  0  0  0  0  0  0  0  0  0  0
  146.0543  143.1073  156.7334 H   0  0  0  0  0  0  0  0  0  0  0  0
  148.3505  142.7601  155.1707 H   0  0  0  0  0  0  0  0  0  0  0  0
  148.1711  139.8925  154.4140 H   0  0  0  0  0  0  0  0  0  0  0  0
  149.0320  141.0349  153.4113 H   0  0  0  0  0  0  0  0  0  0  0  0
  150.4760  138.6457  154.4063 H   0  0  0  0  0  0  0  0  0  0  0  0
  152.5001  138.3398  155.8443 H   0  0  0  0  0  0  0  0  0  0  0  0
  151.6399  143.9321  156.8357 H   0  0  0  0  0  0  0  0  0  0  0  0
  150.4664  143.6272  158.1100 H   0  0  0  0  0  0  0  0  0  0  0  0
  153.3689  144.5694  158.4871 H   0  0  0  0  0  0  0  0  0  0  0  0
  151.9194  145.5131  158.7727 H   0  0  0  0  0  0  0  0  0  0  0  0
  153.8650  142.7239  159.9769 H   0  0  0  0  0  0  0  0  0  0  0  0
  152.7576  142.3895  161.2945 H   0  0  0  0  0  0  0  0  0  0  0  0
  151.0025  141.6353  159.7242 H   0  0  0  0  0  0  0  0  0  0  0  0
  152.4792  140.7359  159.4403 H   0  0  0  0  0  0  0  0  0  0  0  0
  149.8243  142.4191  156.3933 H   0  0  0  0  0  0  0  0  0  0  0  0
  1  2  1  0  0  0  0
  1 23  1  0  0  0  0
  1 24  1  0  0  0  0
  1 25  1  0  0  0  0
  2  3  1  0  0  0  0
  2  4  1  0  0  0  0
  2  5  1  0  0  0  0
  3 26  1  0  0  0  0
  3 27  1  0  0  0  0
  3 28  1  0  0  0  0
  4 29  1  0  0  0  0
  4 30  1  0  0  0  0
  4 31  1  0  0  0  0
  5  6  1  0  0  0  0
  6  7  1  0  0  0  0
  6 32  1  0  0  0  0
  6 33  1  0  0  0  0
  7  8  2  0  0  0  0
  7  9  1  0  0  0  0
  9 10  1  0  0  0  0
  9 34  1  0  0  0  0
 10 11  1  0  0  0  0
 10 35  1  0  0  0  0
 10 36  1  0  0  0  0
 11 22  1  0  0  0  0
 11 12  2  0  0  0  0
 12 13  1  0  0  0  0
 12 37  1  0  0  0  0
 13 14  2  0  0  0  0
 13 38  1  0  0  0  0
 14 15  1  0  0  0  0
 15 16  1  0  0  0  0
 15 22  2  0  0  0  0
 16 21  1  0  0  0  0
 16 17  1  0  0  0  0
 17 18  1  0  0  0  0
 17 39  1  0  0  0  0
 17 40  1  0  0  0  0
 18 19  1  0  0  0  0
 18 41  1  0  0  0  0
 18 42  1  0  0  0  0
 19 20  1  0  0  0  0
 20 21  1  0  0  0  0
 20 43  1  0  0  0  0
 20 44  1  0  0  0  0
 21 45  1  0  0  0  0
 21 46  1  0  0  0  0
 22 47  1  0  0  0  0
M  END
> <s_m_source_file>
AV-unprocessed.smi

> <i_m_source_file_index>
2806

> <i_lp_mmshare_version>
43012

> <i_f3d_flags>
0

> <s_epik_input>
W0NIM11DKFtDSDNdKShbQ0gzXSlTW0NIMl1DKD1PKVtOSF1bQ0gyXWMxW2NIXVtjSF1uYyhbY0hdMSlOMltDSDJdW0NIMl1PW0NIMl1bQ0gyXTI=

> <s_epik_cmdline>
J2VwaWtfcHl0aG9uJywgJy1waCcsICc3LjAnLCAnLXRuJywgJzgnLCAnLW1hJywgJzIwMCcsICctbWV0YWxfYmluZGluZycsICctaW1hZScsICc8aW5maWxlLm1hZT4nLCAnLW9tYWUnLCAnPG91dGZpbGUubWFlPic=

> <r_lp_tautomer_probability>
1

> <r_epik_Ionization_Penalty>
0.00423361

> <r_epik_Ionization_Penalty_Charging>
0

> <r_epik_Ionization_Penalty_Neutral>
0.00423361

> <r_epik_State_Penalty>
0.00304279

> <r_epik_Charging_Adjusted_Penalty>
0.00304279

> <i_epik_Tot_Q>
0

> <i_epik_Tot_abs_Q>
0

> <r_epik_Metal_State_Penalty>
-0

> <b_epik_Metal_Only>
0

> <s_lp_Force_Field>
OPLS_2005

> <r_lp_Energy>
13.38

> <b_lp_Chiralities_Consistent>
1

> <s_lp_Variant>
AV-unprocessed.smi:2806-1

> <Gold.Version>
5.8.1

> <Gold.Id.Protein>
6NUR|6NUR_protein|mol2

> <Gold.PLP.Fitness>
49.3913

> <Gold.PLP.PLP>
-45.2757

> <Gold.PLP.part.hbond>
-2.0000

> <Gold.PLP.part.metal>
0.0000

> <Gold.PLP.part.buried>
-3.1567

> <Gold.PLP.part.nonpolar>
-39.5750

> <Gold.PLP.part.repulsive>
0.3330

> <Gold.PLP.ligand.clash>
0.0000

> <Gold.PLP.ligand.torsion>
1.0462

> <Gold.PLP.Chemscore.Hbond>
1.8775

> <Gold.PLP.Chemscore.CHOScore>
0.0000

> <Gold.PLP.Chemscore.Metal>
0.0000

> <Gold.Chemscore.Hbonds>
donor molecule, donor type, donor heavy atom, donor atom, acceptor molecule, acceptor atom, score
      L1  H     9    34       P1  8028  0.89
      P1  H  7997  8010       L1    14  0.82

> <Gold.PLP.Chemscore.Internal.Correction>
0.5755

> <Gold.Rescore>
     Score         DG    S(hbond)    S(metal)    S(lipo)     H(rot)  DE(clash)    DE(int)     intcor
     17.59     -18.94       1.10        0.00     121.38       1.73       0.50       0.85       ----

> <Gold.Chemscore.Fitness>
17.5876

> <Gold.Chemscore.DG>
-18.9408

> <Gold.Chemscore.ZeroCoef>
-5.4800

> <Gold.Chemscore.Hbond>
1.1049

> <Gold.Chemscore.Metal>
0.0000

> <Gold.Chemscore.Lipo>
121.3788

> <Gold.Chemscore.Internal_Hbond>
0.0000

> <Gold.Chemscore.DEClash>
0.5043

> <Gold.Chemscore.DEInternal>
0.8489

> <Gold.Chemscore.Rot>
1.7308

> <Gold.Chemscore.Internal.Correction>
   9.000000E+99

> <Gold.Chemscore.Hbonds>
donor molecule, donor type, donor heavy atom, donor atom, acceptor molecule, acceptor atom, score
      L1  H     9    34       P1  8028  0.87
      P1  H  7997  8010       L1    14  0.18

> <Gold.Chemscore.Hbond.Weighted>
-3.6904

> <Gold.Chemscore.Metal.Weighted>
-0.0000

> <Gold.Chemscore.Lipo.Weighted>
-14.2013

> <Gold.Chemscore.Internal_Hbond.Weighted>
0.0000

> <Gold.Chemscore.DEClash.Weighted>
0.5043

> <Gold.Chemscore.DEInternal.Weighted>
0.8489

> <Gold.Chemscore.Rot.Weighted>
4.4309

> <Gold.Chemscore.Internal.Correction.Weighted>
   9.000000E+99

> <Gold.Protein.RotatedTorsions>
[ 6907 6896 6895 6894 ] final  127.35 input  -60.11 | X-H torsion
[ 7974 7965 7964 7962 ] final  -87.63 input  175.53 | X-H torsion
[ 8008 7997 7996 7995 ] final   71.09 input   59.86 | X-H torsion
[ 10167 10162 10161 10158 ] final   47.97 input  -65.29 | X-H torsion
[ 10718 10713 10712 10709 ] final   33.93 input   66.30 | X-H torsion
[ 10763 10752 10751 10750 ] final   40.12 input  -60.55 | X-H torsion
[ 11005 11000 10999 10996 ] final  -95.12 input  -57.11 | X-H torsion

> <Gold.Protein.ActiveResidues>
 VAL166  LYS551  ARG553  GLY616  TRP617  ASP618  TYR619  PRO620  LYS621  CYS622 
 ASP623  PHE694  ASN695  SER759  ASP760  ASP761  ALA762  ILE779  LEU786  VAL792 
 PHE793  MET794  SER795  GLU796  ALA797  LYS798  CYS799  TRP800  GLU811  SER814 

> <Gold.Protein.RotatedAtoms>
  152.3820  133.6559  159.6168 H   0  0  0  0  0  0  0  0  0  0  0  0  # atno 6907 bound_to 6896
  150.7749  133.9098  159.3375 H   0  0  0  0  0  0  0  0  0  0  0  0  # atno 6908 bound_to 6896
  151.6901  135.0949  160.0283 H   0  0  0  0  0  0  0  0  0  0  0  0  # atno 6909 bound_to 6896
  145.4640  140.9560  143.1954 H   0  0  0  0  0  0  0  0  0  0  0  0  # atno 7974 bound_to 7965
  155.7487  140.3489  155.5139 H   0  0  0  0  0  0  0  0  0  0  0  0  # atno 8008 bound_to 7997
  155.9026  140.1036  157.1360 H   0  0  0  0  0  0  0  0  0  0  0  0  # atno 8009 bound_to 7997
  154.4045  140.1283  156.4442 H   0  0  0  0  0  0  0  0  0  0  0  0  # atno 8010 bound_to 7997
  140.2982  144.2966  150.6225 H   0  0  0  0  0  0  0  0  0  0  0  0  # atno 10167 bound_to 10162
  157.3041  130.7365  149.6684 H   0  0  0  0  0  0  0  0  0  0  0  0  # atno 10718 bound_to 10713
  152.9946  135.6201  154.2574 H   0  0  0  0  0  0  0  0  0  0  0  0  # atno 10763 bound_to 10752
  154.2311  135.2792  155.2891 H   0  0  0  0  0  0  0  0  0  0  0  0  # atno 10764 bound_to 10752
  154.5448  135.5750  153.6929 H   0  0  0  0  0  0  0  0  0  0  0  0  # atno 10765 bound_to 10752
  141.1451  133.8003  157.0391 H   0  0  0  0  0  0  0  0  0  0  0  0  # atno 11005 bound_to 11000
  144.7985  139.6186  143.7082 LP  0  0  0  0  0  0  0  0  0  0  0  0  # atno 17320 bound_to 7965
  146.2435  139.6049  142.9475 LP  0  0  0  0  0  0  0  0  0  0  0  0  # atno 17321 bound_to 7965
  140.5674  143.2184  151.7659 LP  0  0  0  0  0  0  0  0  0  0  0  0  # atno 17342 bound_to 10162
  139.4921  144.4264  151.9920 LP  0  0  0  0  0  0  0  0  0  0  0  0  # atno 17343 bound_to 10162
  155.9673  130.4271  150.4729 LP  0  0  0  0  0  0  0  0  0  0  0  0  # atno 17370 bound_to 10713
  157.2715  131.0588  151.2256 LP  0  0  0  0  0  0  0  0  0  0  0  0  # atno 17371 bound_to 10713
  140.0704  134.9705  157.1458 LP  0  0  0  0  0  0  0  0  0  0  0  0  # atno 17394 bound_to 11000
  140.3719  134.2381  155.7177 LP  0  0  0  0  0  0  0  0  0  0  0  0  # atno 17395 bound_to 11000

$$$$
