AV-unprocessed.smi:1088|AV-procd|sdf|4729|dock3
  -GOLD-   22720 3263D 1   1.00000     0.00000
 Structure written by MMmdl.
 48 49  0  0  0  0  0  0  0  0  2 V2000
  148.9670  132.7490  153.9385 C   0  0  0  0  0  0  0  0  0  0  0  0
  148.7748  134.1089  154.2868 O   0  0  0  0  0  0  0  0  0  0  0  0
  147.5385  134.3321  154.9438 C   0  0  0  0  0  0  0  0  0  0  0  0
  146.9308  135.6482  154.4326 C   0  0  0  0  0  0  0  0  0  0  0  0
  146.6176  135.6065  152.9783 N   0  3  1  0  0  0  0  0  0  0  0  0
  145.9424  134.3622  152.5368 C   0  0  0  0  0  0  0  0  0  0  0  0
  145.1058  134.7446  151.3212 C   0  0  0  0  0  0  0  0  0  0  0  0
  144.6493  136.1497  151.6767 C   0  0  0  0  0  0  0  0  0  0  0  0
  145.8666  136.7594  152.3908 C   0  0  1  0  0  0  0  0  0  0  0  0
  145.5127  137.9194  153.3561 C   0  0  0  0  0  0  0  0  0  0  0  0
  146.5555  138.9415  153.3692 N   0  0  0  0  0  0  0  0  0  0  0  0
  146.7141  139.8781  154.3169 C   0  0  0  0  0  0  0  0  0  0  0  0
  146.0160  139.9404  155.3295 O   0  0  0  0  0  0  0  0  0  0  0  0
  147.8345  140.8993  154.0810 C   0  0  0  0  0  0  0  0  0  0  0  0
  149.1002  140.5026  154.7121 N   0  0  0  0  0  0  0  0  0  0  0  0
  149.7989  141.4155  155.4811 C   0  0  0  0  0  0  0  0  0  0  0  0
  150.9799  141.1388  156.0756 C   0  0  0  0  0  0  0  0  0  0  0  0
  151.5980  139.8261  155.9373 C   0  0  0  0  0  0  0  0  0  0  0  0
  152.6849  139.5368  156.4392 O   0  0  0  0  0  0  0  0  0  0  0  0
  150.8546  138.9050  155.1621 N   0  0  0  0  0  0  0  0  0  0  0  0
  151.4208  137.5873  154.9592 C   0  0  0  0  0  0  0  0  0  0  0  0
  149.6272  139.2051  154.5285 C   0  0  0  0  0  0  0  0  0  0  0  0
  149.0312  138.3820  153.8291 O   0  0  0  0  0  0  0  0  0  0  0  0
  149.9252  132.6318  153.4329 H   0  0  0  0  0  0  0  0  0  0  0  0
  148.1854  132.4006  153.2619 H   0  0  0  0  0  0  0  0  0  0  0  0
  148.9735  132.1119  154.8239 H   0  0  0  0  0  0  0  0  0  0  0  0
  146.8600  133.4922  154.7886 H   0  0  0  0  0  0  0  0  0  0  0  0
  147.7083  134.4082  156.0189 H   0  0  0  0  0  0  0  0  0  0  0  0
  146.0253  135.8768  154.9961 H   0  0  0  0  0  0  0  0  0  0  0  0
  147.6474  136.4432  154.6372 H   0  0  0  0  0  0  0  0  0  0  0  0
  146.6603  133.5730  152.3111 H   0  0  0  0  0  0  0  0  0  0  0  0
  145.2811  134.0002  153.3260 H   0  0  0  0  0  0  0  0  0  0  0  0
  145.7280  134.7672  150.4253 H   0  0  0  0  0  0  0  0  0  0  0  0
  144.2760  134.0601  151.1432 H   0  0  0  0  0  0  0  0  0  0  0  0
  144.3373  136.7245  150.8042 H   0  0  0  0  0  0  0  0  0  0  0  0
  143.8003  136.0892  152.3593 H   0  0  0  0  0  0  0  0  0  0  0  0
  146.5263  137.1619  151.6206 H   0  0  0  0  0  0  0  0  0  0  0  0
  144.5481  138.3608  153.1005 H   0  0  0  0  0  0  0  0  0  0  0  0
  145.4271  137.5494  154.3775 H   0  0  0  0  0  0  0  0  0  0  0  0
  147.1832  138.9616  152.5783 H   0  0  0  0  0  0  0  0  0  0  0  0
  147.9689  141.0147  153.0047 H   0  0  0  0  0  0  0  0  0  0  0  0
  147.5319  141.8815  154.4489 H   0  0  0  0  0  0  0  0  0  0  0  0
  149.3856  142.4053  155.6094 H   0  0  0  0  0  0  0  0  0  0  0  0
  151.4770  141.9010  156.6574 H   0  0  0  0  0  0  0  0  0  0  0  0
  150.6225  136.8616  154.7996 H   0  0  0  0  0  0  0  0  0  0  0  0
  151.9705  137.2887  155.8531 H   0  0  0  0  0  0  0  0  0  0  0  0
  152.0769  137.6559  154.0908 H   0  0  0  0  0  0  0  0  0  0  0  0
  147.5118  135.6167  152.5084 H   0  0  0  0  0  0  0  0  0  0  0  0
  1  2  1  0  0  0  0
  1 24  1  0  0  0  0
  1 25  1  0  0  0  0
  1 26  1  0  0  0  0
  2  3  1  0  0  0  0
  3  4  1  0  0  0  0
  3 27  1  0  0  0  0
  3 28  1  0  0  0  0
  4  5  1  0  0  0  0
  4 29  1  0  0  0  0
  4 30  1  0  0  0  0
  5  9  1  0  0  0  0
  5  6  1  0  0  0  0
  5 48  1  0  0  0  0
  6  7  1  0  0  0  0
  6 31  1  0  0  0  0
  6 32  1  0  0  0  0
  7  8  1  0  0  0  0
  7 33  1  0  0  0  0
  7 34  1  0  0  0  0
  8  9  1  0  0  0  0
  8 35  1  0  0  0  0
  8 36  1  0  0  0  0
  9 10  1  0  0  0  0
  9 37  1  0  0  0  0
 10 11  1  0  0  0  0
 10 38  1  0  0  0  0
 10 39  1  0  0  0  0
 11 12  1  0  0  0  0
 11 40  1  0  0  0  0
 12 13  2  0  0  0  0
 12 14  1  0  0  0  0
 14 15  1  0  0  0  0
 14 41  1  0  0  0  0
 14 42  1  0  0  0  0
 15 22  1  0  0  0  0
 15 16  1  0  0  0  0
 16 17  2  0  0  0  0
 16 43  1  0  0  0  0
 17 18  1  0  0  0  0
 17 44  1  0  0  0  0
 18 19  2  0  0  0  0
 18 20  1  0  0  0  0
 20 21  1  0  0  0  0
 20 22  1  0  0  0  0
 21 45  1  0  0  0  0
 21 46  1  0  0  0  0
 21 47  1  0  0  0  0
 22 23  2  0  0  0  0
M  CHG  1   5   1
M  END
> <s_m_source_file>
AV-unprocessed.smi

> <i_m_source_file_index>
1088

> <i_lp_mmshare_version>
43012

> <i_f3d_flags>
0

> <s_epik_input>
W0NIM11PW0NIMl1bQ0gyXU4xW0NIMl1bQ0gyXVtDSDJdW0NASF0xW0NIMl1bTkhdQyg9TylbQ0gyXW4yW2NIXVtjSF1jKD1PKW4oW0NIM10pYzI9Tw==

> <s_epik_cmdline>
J2VwaWtfcHl0aG9uJywgJy1waCcsICc3LjAnLCAnLXRuJywgJzgnLCAnLW1hJywgJzIwMCcsICctbWV0YWxfYmluZGluZycsICctaW1hZScsICc8aW5maWxlLm1hZT4nLCAnLW9tYWUnLCAnPG91dGZpbGUubWFlPic=

> <r_lp_tautomer_probability>
1

> <r_epik_Ionization_Penalty>
0.0127388

> <r_epik_Ionization_Penalty_Charging>
0.0127387

> <r_epik_Ionization_Penalty_Neutral>
8.26414e-08

> <r_epik_State_Penalty>
0.00987716

> <r_epik_Charging_Adjusted_Penalty>
0.0226159

> <i_epik_Tot_Q>
1

> <i_epik_Tot_abs_Q>
1

> <r_epik_Metal_State_Penalty>
0.00987836

> <b_epik_Metal_Only>
0

> <s_lp_Force_Field>
OPLS_2005

> <r_lp_Energy>
40.5069

> <b_lp_Chiralities_Consistent>
1

> <s_lp_Variant>
AV-unprocessed.smi:1088-2

> <Gold.Version>
5.8.1

> <Gold.Id.Protein>
6NUR|6NUR_protein|mol2

> <Gold.PLP.Fitness>
45.0269

> <Gold.PLP.PLP>
-35.5720

> <Gold.PLP.part.hbond>
-2.0000

> <Gold.PLP.part.metal>
0.0000

> <Gold.PLP.part.buried>
-3.5747

> <Gold.PLP.part.nonpolar>
-31.9254

> <Gold.PLP.part.repulsive>
3.3540

> <Gold.PLP.ligand.clash>
0.0000

> <Gold.PLP.ligand.torsion>
1.3809

> <Gold.PLP.Chemscore.Hbond>
3.0000

> <Gold.PLP.Chemscore.CHOScore>
1.0000

> <Gold.PLP.Chemscore.Metal>
0.0000

> <Gold.Chemscore.Hbonds>
donor molecule, donor type, donor heavy atom, donor atom, acceptor molecule, acceptor atom, score
      L1  H     5    48       P1  7948  2.00
      P1  H  7997  8010       L1    19  1.00
      L1  C    16    43       P1  8028  1.00

> <Gold.PLP.Chemscore.Internal.Correction>
0.2166

> <Gold.Rescore>
     Score         DG    S(hbond)    S(metal)    S(lipo)     H(rot)  DE(clash)    DE(int)     intcor
      9.47     -12.32       1.94        0.00      59.22       2.57       0.06       2.78       ----

> <Gold.Chemscore.Fitness>
9.4703

> <Gold.Chemscore.DG>
-12.3157

> <Gold.Chemscore.ZeroCoef>
-5.4800

> <Gold.Chemscore.Hbond>
1.9414

> <Gold.Chemscore.Metal>
0.0000

> <Gold.Chemscore.Lipo>
59.2183

> <Gold.Chemscore.Internal_Hbond>
0.0000

> <Gold.Chemscore.DEClash>
0.0633

> <Gold.Chemscore.DEInternal>
2.7822

> <Gold.Chemscore.Rot>
2.5692

> <Gold.Chemscore.Internal.Correction>
   9.000000E+99

> <Gold.Chemscore.Hbonds>
donor molecule, donor type, donor heavy atom, donor atom, acceptor molecule, acceptor atom, score
      L1  H     5    48       P1  7948  0.99
      P1  H  7997  8010       L1    19  1.00

> <Gold.Chemscore.Hbond.Weighted>
-6.4843

> <Gold.Chemscore.Metal.Weighted>
-0.0000

> <Gold.Chemscore.Lipo.Weighted>
-6.9285

> <Gold.Chemscore.Internal_Hbond.Weighted>
0.0000

> <Gold.Chemscore.DEClash.Weighted>
0.0633

> <Gold.Chemscore.DEInternal.Weighted>
2.7822

> <Gold.Chemscore.Rot.Weighted>
6.5772

> <Gold.Chemscore.Internal.Correction.Weighted>
   9.000000E+99

> <Gold.Protein.RotatedTorsions>
[ 6907 6896 6895 6894 ] final   54.98 input  -60.11 | X-H torsion
[ 7974 7965 7964 7962 ] final  131.10 input  175.53 | X-H torsion
[ 8008 7997 7996 7995 ] final   66.51 input   59.86 | X-H torsion
[ 10167 10162 10161 10158 ] final  -93.88 input  -65.29 | X-H torsion
[ 10718 10713 10712 10709 ] final  167.58 input   66.30 | X-H torsion
[ 10763 10752 10751 10750 ] final -169.66 input  -60.55 | X-H torsion
[ 11005 11000 10999 10996 ] final   75.73 input  -57.11 | X-H torsion

> <Gold.Protein.ActiveResidues>
 VAL166  LYS551  ARG553  GLY616  TRP617  ASP618  TYR619  PRO620  LYS621  CYS622 
 ASP623  PHE694  ASN695  SER759  ASP760  ASP761  ALA762  ILE779  LEU786  VAL792 
 PHE793  MET794  SER795  GLU796  ALA797  LYS798  CYS799  TRP800  GLU811  SER814 

> <Gold.Protein.RotatedAtoms>
  152.3493  134.7028  160.0240 H   0  0  0  0  0  0  0  0  0  0  0  0  # atno 6907 bound_to 6896
  151.7387  133.3315  159.3368 H   0  0  0  0  0  0  0  0  0  0  0  0  # atno 6908 bound_to 6896
  150.7529  134.6231  159.6191 H   0  0  0  0  0  0  0  0  0  0  0  0  # atno 6909 bound_to 6896
  145.0109  139.4222  143.5245 H   0  0  0  0  0  0  0  0  0  0  0  0  # atno 7974 bound_to 7965
  155.6785  140.3496  155.4846 H   0  0  0  0  0  0  0  0  0  0  0  0  # atno 8008 bound_to 7997
  155.9627  140.1140  157.0904 H   0  0  0  0  0  0  0  0  0  0  0  0  # atno 8009 bound_to 7997
  154.4147  140.1172  156.5187 H   0  0  0  0  0  0  0  0  0  0  0  0  # atno 8010 bound_to 7997
  140.3201  143.3054  152.0056 H   0  0  0  0  0  0  0  0  0  0  0  0  # atno 10167 bound_to 10162
  157.0495  131.0309  151.2686 H   0  0  0  0  0  0  0  0  0  0  0  0  # atno 10718 bound_to 10713
  154.6499  135.2910  155.0000 H   0  0  0  0  0  0  0  0  0  0  0  0  # atno 10763 bound_to 10752
  154.1096  135.6564  153.4886 H   0  0  0  0  0  0  0  0  0  0  0  0  # atno 10764 bound_to 10752
  153.0371  135.5262  154.7402 H   0  0  0  0  0  0  0  0  0  0  0  0  # atno 10765 bound_to 10752
  139.9330  134.7542  156.1307 H   0  0  0  0  0  0  0  0  0  0  0  0  # atno 11005 bound_to 11000
  146.3469  139.9552  142.8724 LP  0  0  0  0  0  0  0  0  0  0  0  0  # atno 17320 bound_to 7965
  145.2025  140.9860  143.4147 LP  0  0  0  0  0  0  0  0  0  0  0  0  # atno 17321 bound_to 7965
  139.4876  144.6318  151.7055 LP  0  0  0  0  0  0  0  0  0  0  0  0  # atno 17342 bound_to 10162
  140.5491  144.0454  150.6119 LP  0  0  0  0  0  0  0  0  0  0  0  0  # atno 17343 bound_to 10162
  157.5041  130.7898  149.7636 LP  0  0  0  0  0  0  0  0  0  0  0  0  # atno 17370 bound_to 10713
  156.0012  130.3879  150.2599 LP  0  0  0  0  0  0  0  0  0  0  0  0  # atno 17371 bound_to 10713
  141.0929  133.6707  156.2581 LP  0  0  0  0  0  0  0  0  0  0  0  0  # atno 17394 bound_to 11000
  140.6150  134.5420  157.5539 LP  0  0  0  0  0  0  0  0  0  0  0  0  # atno 17395 bound_to 11000

$$$$
