AV-unprocessed.smi:2578|AV-procd|sdf|10122|dock7
  -GOLD-   2272014143D 1   1.00000     0.00000
 Structure written by MMmdl.
 41 42  0  0  0  0  0  0  0  0  1 V2000
  151.2435  144.7883  158.8380 C   0  0  0  0  0  0  0  0  0  0  0  0
  151.7079  143.4143  159.2922 C   0  0  0  0  0  0  0  0  0  0  0  0
  152.6230  143.3090  160.2815 C   0  0  0  0  0  0  0  0  0  0  0  0
  153.1157  142.0207  160.7708 C   0  0  0  0  0  0  0  0  0  0  0  0
  153.9507  141.9352  161.6717 O   0  0  0  0  0  0  0  0  0  0  0  0
  152.5889  140.9224  160.1637 N   0  0  0  0  0  0  0  0  0  0  0  0
  153.0163  139.5841  160.5815 C   0  0  0  0  0  0  0  0  0  0  0  0
  151.6401  141.0175  159.1316 C   0  0  0  0  0  0  0  0  0  0  0  0
  151.1801  142.2038  158.6743 C   0  0  0  0  0  0  0  0  0  0  0  0
  150.2319  142.3511  157.6461 N   0  0  0  0  0  0  0  0  0  0  0  0
  149.2359  141.5295  157.2631 C   0  0  0  0  0  0  0  0  0  0  0  0
  148.9594  140.4406  157.7650 O   0  0  0  0  0  0  0  0  0  0  0  0
  148.5506  142.0571  156.2384 N   0  0  0  0  0  0  0  0  0  0  0  0
  147.3967  141.4378  155.5967 C   0  0  0  0  0  0  0  0  0  0  0  0
  147.5873  141.3376  154.0737 C   0  0  0  0  0  0  0  0  0  0  0  0
  147.1365  140.0031  153.5139 C   0  0  0  0  0  0  0  0  0  0  0  0
  147.1815  139.6216  152.2383 C   0  0  0  0  0  0  0  0  0  0  0  0
  146.6282  138.2391  152.0263 C   0  0  0  0  0  0  0  0  0  0  0  0
  146.1913  137.7903  153.4388 C   0  0  0  0  0  0  0  0  0  0  0  0
  146.5350  138.9465  154.4046 C   0  0  0  0  0  0  0  0  0  0  0  0
  151.7272  145.5864  159.4021 H   0  0  0  0  0  0  0  0  0  0  0  0
  150.1664  144.8881  158.9733 H   0  0  0  0  0  0  0  0  0  0  0  0
  151.4745  144.9364  157.7829 H   0  0  0  0  0  0  0  0  0  0  0  0
  153.0148  144.2064  160.7381 H   0  0  0  0  0  0  0  0  0  0  0  0
  152.4875  138.7867  160.0586 H   0  0  0  0  0  0  0  0  0  0  0  0
  152.8421  139.4398  161.6488 H   0  0  0  0  0  0  0  0  0  0  0  0
  154.0816  139.4488  160.3900 H   0  0  0  0  0  0  0  0  0  0  0  0
  151.3300  140.0576  158.7535 H   0  0  0  0  0  0  0  0  0  0  0  0
  150.3156  143.2118  157.1255 H   0  0  0  0  0  0  0  0  0  0  0  0
  148.8423  142.9550  155.8811 H   0  0  0  0  0  0  0  0  0  0  0  0
  147.2679  140.4415  156.0206 H   0  0  0  0  0  0  0  0  0  0  0  0
  146.4932  141.9985  155.8407 H   0  0  0  0  0  0  0  0  0  0  0  0
  147.0304  142.1263  153.5666 H   0  0  0  0  0  0  0  0  0  0  0  0
  148.6387  141.4875  153.8245 H   0  0  0  0  0  0  0  0  0  0  0  0
  147.5622  140.2178  151.4220 H   0  0  0  0  0  0  0  0  0  0  0  0
  145.7864  138.2716  151.3340 H   0  0  0  0  0  0  0  0  0  0  0  0
  147.3965  137.5853  151.6126 H   0  0  0  0  0  0  0  0  0  0  0  0
  145.1219  137.5771  153.4605 H   0  0  0  0  0  0  0  0  0  0  0  0
  146.7090  136.8759  153.7310 H   0  0  0  0  0  0  0  0  0  0  0  0
  147.2495  138.6307  155.1650 H   0  0  0  0  0  0  0  0  0  0  0  0
  145.6452  139.3335  154.9027 H   0  0  0  0  0  0  0  0  0  0  0  0
  1  2  1  0  0  0  0
  1 21  1  0  0  0  0
  1 22  1  0  0  0  0
  1 23  1  0  0  0  0
  2  9  1  0  0  0  0
  2  3  2  0  0  0  0
  3  4  1  0  0  0  0
  3 24  1  0  0  0  0
  4  5  2  0  0  0  0
  4  6  1  0  0  0  0
  6  7  1  0  0  0  0
  6  8  1  0  0  0  0
  7 25  1  0  0  0  0
  7 26  1  0  0  0  0
  7 27  1  0  0  0  0
  8  9  2  0  0  0  0
  8 28  1  0  0  0  0
  9 10  1  0  0  0  0
 10 11  1  0  0  0  0
 10 29  1  0  0  0  0
 11 12  2  0  0  0  0
 11 13  1  0  0  0  0
 13 14  1  0  0  0  0
 13 30  1  0  0  0  0
 14 15  1  0  0  0  0
 14 31  1  0  0  0  0
 14 32  1  0  0  0  0
 15 16  1  0  0  0  0
 15 33  1  0  0  0  0
 15 34  1  0  0  0  0
 16 20  1  0  0  0  0
 16 17  2  0  0  0  0
 17 18  1  0  0  0  0
 17 35  1  0  0  0  0
 18 19  1  0  0  0  0
 18 36  1  0  0  0  0
 18 37  1  0  0  0  0
 19 20  1  0  0  0  0
 19 38  1  0  0  0  0
 19 39  1  0  0  0  0
 20 40  1  0  0  0  0
 20 41  1  0  0  0  0
M  END
> <s_m_source_file>
AV-unprocessed.smi

> <i_m_source_file_index>
2578

> <i_lp_mmshare_version>
43012

> <i_f3d_flags>
0

> <s_epik_input>
W0NIM11jMVtjSF1jKD1PKW4oW0NIM10pW2NIXWMxW05IXUMoPU8pW05IXVtDSDJdW0NIMl1DMj1bQ0hdW0NIMl1bQ0gyXVtDSDJdMg==

> <s_epik_cmdline>
J2VwaWtfcHl0aG9uJywgJy1waCcsICc3LjAnLCAnLXRuJywgJzgnLCAnLW1hJywgJzIwMCcsICctbWV0YWxfYmluZGluZycsICctaW1hZScsICc8aW5maWxlLm1hZT4nLCAnLW9tYWUnLCAnPG91dGZpbGUubWFlPic=

> <r_lp_tautomer_probability>
1

> <r_epik_Ionization_Penalty>
2.83926e-05

> <r_epik_Ionization_Penalty_Charging>
8.15285e-06

> <r_epik_Ionization_Penalty_Neutral>
2.02397e-05

> <r_epik_State_Penalty>
-0

> <r_epik_Charging_Adjusted_Penalty>
8.15285e-06

> <i_epik_Tot_Q>
0

> <i_epik_Tot_abs_Q>
0

> <r_epik_Metal_State_Penalty>
-0

> <b_epik_Metal_Only>
0

> <s_lp_Force_Field>
OPLS_2005

> <r_lp_Energy>
31.0137

> <b_lp_Chiralities_Consistent>
1

> <s_lp_Variant>
AV-unprocessed.smi:2578-1

> <Gold.Version>
5.8.1

> <Gold.Id.Protein>
6NUR|6NUR_protein|mol2

> <Gold.PLP.Fitness>
44.3326

> <Gold.PLP.PLP>
-42.3504

> <Gold.PLP.part.hbond>
-2.3010

> <Gold.PLP.part.metal>
0.0000

> <Gold.PLP.part.buried>
-0.3954

> <Gold.PLP.part.nonpolar>
-40.1616

> <Gold.PLP.part.repulsive>
0.1283

> <Gold.PLP.ligand.clash>
0.0000

> <Gold.PLP.ligand.torsion>
0.5031

> <Gold.PLP.Chemscore.Hbond>
0.9920

> <Gold.PLP.Chemscore.CHOScore>
0.0000

> <Gold.PLP.Chemscore.Metal>
0.0000

> <Gold.Chemscore.Hbonds>
donor molecule, donor type, donor heavy atom, donor atom, acceptor molecule, acceptor atom, score
      L1  H    13    30       P1  8028  1.00

> <Gold.PLP.Chemscore.Internal.Correction>
0.0124

> <Gold.Rescore>
     Score         DG    S(hbond)    S(metal)    S(lipo)     H(rot)  DE(clash)    DE(int)     intcor
     15.41     -16.71       0.99        0.00      97.32       1.35       0.74       0.56       ----

> <Gold.Chemscore.Fitness>
15.4119

> <Gold.Chemscore.DG>
-16.7139

> <Gold.Chemscore.ZeroCoef>
-5.4800

> <Gold.Chemscore.Hbond>
0.9886

> <Gold.Chemscore.Metal>
0.0000

> <Gold.Chemscore.Lipo>
97.3178

> <Gold.Chemscore.Internal_Hbond>
0.0000

> <Gold.Chemscore.DEClash>
0.7386

> <Gold.Chemscore.DEInternal>
0.5635

> <Gold.Chemscore.Rot>
1.3493

> <Gold.Chemscore.Internal.Correction>
   9.000000E+99

> <Gold.Chemscore.Hbonds>
donor molecule, donor type, donor heavy atom, donor atom, acceptor molecule, acceptor atom, score
      L1  H    13    30       P1  8028  0.99

> <Gold.Chemscore.Hbond.Weighted>
-3.3019

> <Gold.Chemscore.Metal.Weighted>
-0.0000

> <Gold.Chemscore.Lipo.Weighted>
-11.3862

> <Gold.Chemscore.Internal_Hbond.Weighted>
0.0000

> <Gold.Chemscore.DEClash.Weighted>
0.7386

> <Gold.Chemscore.DEInternal.Weighted>
0.5635

> <Gold.Chemscore.Rot.Weighted>
3.4541

> <Gold.Chemscore.Internal.Correction.Weighted>
   9.000000E+99

> <Gold.Protein.RotatedTorsions>
[ 6907 6896 6895 6894 ] final   -9.29 input  -60.11 | X-H torsion
[ 7974 7965 7964 7962 ] final -102.20 input  175.53 | X-H torsion
[ 8008 7997 7996 7995 ] final  -28.02 input   59.86 | X-H torsion
[ 10167 10162 10161 10158 ] final -139.50 input  -65.29 | X-H torsion
[ 10718 10713 10712 10709 ] final -153.78 input   66.30 | X-H torsion
[ 10763 10752 10751 10750 ] final   70.91 input  -60.55 | X-H torsion
[ 11005 11000 10999 10996 ] final   54.97 input  -57.11 | X-H torsion

> <Gold.Protein.ActiveResidues>
 VAL166  LYS551  ARG553  GLY616  TRP617  ASP618  TYR619  PRO620  LYS621  CYS622 
 ASP623  PHE694  ASN695  SER759  ASP760  ASP761  ALA762  ILE779  LEU786  VAL792 
 PHE793  MET794  SER795  GLU796  ALA797  LYS798  CYS799  TRP800  GLU811  SER814 

> <Gold.Protein.RotatedAtoms>
  151.4202  135.0997  159.9611 H   0  0  0  0  0  0  0  0  0  0  0  0  # atno 6907 bound_to 6896
  152.4991  133.8714  159.7311 H   0  0  0  0  0  0  0  0  0  0  0  0  # atno 6908 bound_to 6896
  150.9229  133.6801  159.2856 H   0  0  0  0  0  0  0  0  0  0  0  0  # atno 6909 bound_to 6896
  145.2718  140.9301  143.2982 H   0  0  0  0  0  0  0  0  0  0  0  0  # atno 7974 bound_to 7965
  154.4350  140.1856  156.1024 H   0  0  0  0  0  0  0  0  0  0  0  0  # atno 8008 bound_to 7997
  156.0281  140.3333  155.7085 H   0  0  0  0  0  0  0  0  0  0  0  0  # atno 8009 bound_to 7997
  155.5878  140.0628  157.2757 H   0  0  0  0  0  0  0  0  0  0  0  0  # atno 8010 bound_to 7997
  139.8373  143.7368  152.2664 H   0  0  0  0  0  0  0  0  0  0  0  0  # atno 10167 bound_to 10162
  156.4904  130.8345  151.2568 H   0  0  0  0  0  0  0  0  0  0  0  0  # atno 10718 bound_to 10713
  153.0369  135.5156  154.7514 H   0  0  0  0  0  0  0  0  0  0  0  0  # atno 10763 bound_to 10752
  154.6483  135.2921  155.0021 H   0  0  0  0  0  0  0  0  0  0  0  0  # atno 10764 bound_to 10752
  154.0914  135.6649  153.4905 H   0  0  0  0  0  0  0  0  0  0  0  0  # atno 10765 bound_to 10752
  140.0644  134.5558  155.9116 H   0  0  0  0  0  0  0  0  0  0  0  0  # atno 11005 bound_to 11000
  144.9328  139.4278  143.6487 LP  0  0  0  0  0  0  0  0  0  0  0  0  # atno 17320 bound_to 7965
  146.3244  139.8248  142.8920 LP  0  0  0  0  0  0  0  0  0  0  0  0  # atno 17321 bound_to 7965
  139.7594  144.7511  151.0386 LP  0  0  0  0  0  0  0  0  0  0  0  0  # atno 17342 bound_to 10162
  140.7801  143.4768  151.0071 LP  0  0  0  0  0  0  0  0  0  0  0  0  # atno 17343 bound_to 10162
  157.7474  131.0015  150.2966 LP  0  0  0  0  0  0  0  0  0  0  0  0  # atno 17370 bound_to 10713
  156.3432  130.3819  149.7391 LP  0  0  0  0  0  0  0  0  0  0  0  0  # atno 17371 bound_to 10713
  141.1986  133.6602  156.5802 LP  0  0  0  0  0  0  0  0  0  0  0  0  # atno 17394 bound_to 11000
  140.3722  134.7596  157.4606 LP  0  0  0  0  0  0  0  0  0  0  0  0  # atno 17395 bound_to 11000

$$$$
