#       Name:                AV-unprocessed.smi:82
#       Creating user name   scv26
#       Creation time:       Thu Mar 26 17:17:33 2020


#       File generated by GOLD software.
#

@<TRIPOS>MOLECULE
AV-unprocessed.smi:82
    68    71     1
SMALL
NO_CHARGES


@<TRIPOS>ATOM
      1 ****        -6.3769   0.1925   4.6580 C.3            1 S1                 0.0000
      2 ****        -5.5491   1.0085   3.8437 O.3            1 S1                 0.0000
      3 ****        -4.2718   1.2890   4.4014 C.3            1 S1                 0.0000
      4 ****        -3.3163   0.0845   4.2937 C.3            1 S1                 0.0000
      5 ****        -3.1681  -0.4262   2.9036 N.4            1 S1                 1.0000
      6 ****        -2.5183  -1.7626   2.8647 C.3            1 S1                 0.0000
      7 ****        -2.5264  -2.3457   1.4409 C.3            1 S1                 0.0000
      8 ****        -1.9513  -1.4049   0.4829 N.pl3          1 S1                 0.0000
      9 ****        -0.6215  -1.4637   0.2021 C.ar           1 S1                 0.0000
     10 ****         0.2211  -2.0897   1.0669 N.ar           1 S1                 0.0000
     11 ****         1.5327  -2.1421   0.8195 C.ar           1 S1                 0.0000
     12 ****         2.2043  -1.6493  -0.2218 N.ar           1 S1                 0.0000
     13 ****         1.3663  -1.0351  -1.1049 C.ar           1 S1                 0.0000
     14 ****        -0.0445  -0.8955  -0.9708 C.ar           1 S1                 0.0000
     15 ****        -0.5534  -0.2163  -2.0712 N.2            1 S1                 0.0000
     16 ****         0.4948   0.0406  -2.8052 C.2            1 S1                 0.0000
     17 ****         1.6904  -0.4274  -2.3055 N.pl3          1 S1                 0.0000
     18 ****         3.0008  -0.2854  -2.8755 C.3            1 S1                 0.0000
     19 ****         3.8610   0.9355  -2.5517 C.3            1 S1                 0.0000
     20 ****         4.5192   0.8288  -3.9474 C.3            1 S1                 0.0000
     21 ****         4.7443   2.1629  -4.6789 C.3            1 S1                 0.0000
     22 ****         4.9303   1.9612  -6.0652 O.3            1 S1                 0.0000
     23 ****         5.8183  -0.0013  -4.0014 C.3            1 S1                 0.0000
     24 ****         6.8524   0.6083  -3.2553 O.3            1 S1                 0.0000
     25 ****         3.2345   0.0682  -4.3478 C.3            1 S1                 0.0000
     26 ****        -2.5765  -0.0841   0.4932 C.3            1 S1                 0.0000
     27 ****        -2.5981   0.5370   1.9091 C.3            1 S1                 0.0000
     28 ****        -1.2203   1.1013   2.3152 C.3            1 S1                 0.0000
     29 ****        -7.3520   0.0812   4.1839 H              1 S1                 0.0000
     30 ****        -6.5330   0.6415   5.6396 H              1 S1                 0.0000
     31 ****        -5.9605  -0.8058   4.7902 H              1 S1                 0.0000
     32 ****        -3.8538   2.1492   3.8795 H              1 S1                 0.0000
     33 ****        -4.3739   1.6008   5.4420 H              1 S1                 0.0000
     34 ****        -2.3409   0.3401   4.7076 H              1 S1                 0.0000
     35 ****        -3.6921  -0.7199   4.9261 H              1 S1                 0.0000
     36 ****        -1.4981  -1.6862   3.2415 H              1 S1                 0.0000
     37 ****        -3.0445  -2.4473   3.5304 H              1 S1                 0.0000
     38 ****        -2.0110  -3.3064   1.4122 H              1 S1                 0.0000
     39 ****        -3.5541  -2.5487   1.1373 H              1 S1                 0.0000
     40 ****         2.1288  -2.6523   1.5619 H              1 S1                 0.0000
     41 ****         0.4129   0.5804  -3.7365 H              1 S1                 0.0000
     42 ****         3.5361  -1.2046  -2.6301 H              1 S1                 0.0000
     43 ****         3.2645   1.8412  -2.4274 H              1 S1                 0.0000
     44 ****         4.5359   0.7957  -1.7069 H              1 S1                 0.0000
     45 ****         3.8863   2.8237  -4.5517 H              1 S1                 0.0000
     46 ****         5.6045   2.7009  -4.2803 H              1 S1                 0.0000
     47 ****         5.0704   2.8013  -6.4747 H              1 S1                 0.0000
     48 ****         5.6653  -1.0028  -3.5993 H              1 S1                 0.0000
     49 ****         6.1618  -0.1389  -5.0269 H              1 S1                 0.0000
     50 ****         6.5776   0.6652  -2.3530 H              1 S1                 0.0000
     51 ****         3.3991  -0.7915  -4.9983 H              1 S1                 0.0000
     52 ****         2.4753   0.7310  -4.7650 H              1 S1                 0.0000
     53 ****        -2.1028   0.6048  -0.2045 H              1 S1                 0.0000
     54 ****        -3.6006  -0.2063   0.1385 H              1 S1                 0.0000
     55 ****        -3.2776   1.3862   1.8452 H              1 S1                 0.0000
     56 ****        -0.8238   1.7484   1.5322 H              1 S1                 0.0000
     57 ****        -0.4864   0.3154   2.4894 H              1 S1                 0.0000
     58 ****        -1.2815   1.7058   3.2195 H              1 S1                 0.0000
     59 ****        -4.1126  -0.5938   2.5870 H              1 S1                 0.0000
     60 ****        -6.0205   1.8768   3.6890 LP             1 S1                 0.0000
     61 ****        -5.4133   0.5426   2.9693 LP             1 S1                 0.0000
     62 ****        -0.1444  -2.5144   1.8951 LP             1 S1                 0.0000
     63 ****         3.1948  -1.7209  -0.3399 LP             1 S1                 0.0000
     64 ****        -1.5065   0.0217  -2.2583 LP             1 S1                 0.0000
     65 ****         4.1179   1.5275  -6.4549 LP             1 S1                 0.0000
     66 ****         5.7263   1.3752  -6.2169 LP             1 S1                 0.0000
     67 ****         7.0304   1.5254  -3.6122 LP             1 S1                 0.0000
     68 ****         7.6849   0.0580  -3.3204 LP             1 S1                 0.0000
@<TRIPOS>BOND
    1    1    2 1     
    2    1   29 1     
    3    1   30 1     
    4    1   31 1     
    5    2    3 1     
    6    3    4 1     
    7    3   32 1     
    8    3   33 1     
    9    4    5 1     
   10    4   34 1     
   11    4   35 1     
   12    5   27 1     
   13    5    6 1     
   14    5   59 1     
   15    6    7 1     
   16    6   36 1     
   17    6   37 1     
   18    7    8 1     
   19    7   38 1     
   20    7   39 1     
   21    8    9 1     
   22    8   26 1     
   23    9   14 ar    
   24    9   10 ar    
   25   10   11 ar    
   26   11   12 ar    
   27   11   40 1     
   28   12   13 ar    
   29   13   17 1     
   30   13   14 ar    
   31   14   15 1     
   32   15   16 2     
   33   16   17 1     
   34   16   41 1     
   35   17   18 1     
   36   18   25 1     
   37   18   19 1     
   38   18   42 1     
   39   19   20 1     
   40   19   43 1     
   41   19   44 1     
   42   20   21 1     
   43   20   23 1     
   44   20   25 1     
   45   21   22 1     
   46   21   45 1     
   47   21   46 1     
   48   22   47 1     
   49   23   24 1     
   50   23   48 1     
   51   23   49 1     
   52   24   50 1     
   53   25   51 1     
   54   25   52 1     
   55   26   27 1     
   56   26   53 1     
   57   26   54 1     
   58   27   28 1     
   59   27   55 1     
   60   28   56 1     
   61   28   57 1     
   62   28   58 1     
   63    2   60 1     
   64    2   61 1     
   65   10   62 1     
   66   12   63 1     
   67   15   64 1     
   68   22   65 1     
   69   22   66 1     
   70   24   67 1     
   71   24   68 1     
@<TRIPOS>SUBSTRUCTURE
      1 S1             1
@<TRIPOS>SET
LONE_PAIRS      STATIC     ATOMS    <user>   **** ""
9 60 61 62 63 64 65 66 67 68
DONOR_HYDROGENS      STATIC     ATOMS    <user>   **** ""
3 59 47 50
ATOM$BLUE        STATIC     ATOMS    COLORGROUP SYSTEM
9 60 61 62 63 64 65 66 67 68
ATOM$RED        STATIC     ATOMS    COLORGROUP SYSTEM
3 59 47 50
