AV-unprocessed.smi:58|AV-procd|sdf|583|dock3
  -GOLD-   2262016483D 1   1.00000     0.00000
 Structure written by MMmdl.
 32 33  0  0  0  0  0  0  0  0  1 V2000
  153.8604  141.5060  160.0298 C   0  0  0  0  0  0  0  0  0  0  0  0
  152.8843  141.9175  159.0444 N   0  0  0  0  0  0  0  0  0  0  0  0
  152.4261  143.1861  158.7644 C   0  0  0  0  0  0  0  0  0  0  0  0
  151.5158  143.0772  157.7517 C   0  0  0  0  0  0  0  0  0  0  0  0
  150.8164  144.1484  157.1575 N   0  0  0  0  0  0  0  0  0  0  0  0
  151.4656  141.6724  157.4879 C   0  0  0  0  0  0  0  0  0  0  0  0
  150.6016  141.1155  156.3902 C   0  0  0  0  0  0  0  0  0  0  0  0
  151.1346  140.5914  155.4113 O   0  0  0  0  0  0  0  0  0  0  0  0
  149.2604  141.2617  156.5047 N   0  0  0  0  0  0  0  0  0  0  0  0
  148.5564  141.8495  157.6476 C   0  0  0  0  0  0  0  0  0  0  0  0
  147.0818  141.9061  157.2547 C   0  0  0  0  0  0  0  0  0  0  0  0
  146.9411  140.8085  156.2111 C   0  0  0  0  0  0  0  0  0  0  0  0
  148.3006  140.7854  155.4993 C   0  0  1  0  0  0  0  0  0  0  0  0
  148.3214  141.6793  154.2388 C   0  0  0  0  0  0  0  0  0  0  0  0
  149.4297  141.3558  153.4261 O   0  0  0  0  0  0  0  0  0  0  0  0
  152.3084  140.9905  158.2529 N   0  0  0  0  0  0  0  0  0  0  0  0
  154.2115  142.3714  160.5924 H   0  0  0  0  0  0  0  0  0  0  0  0
  154.7106  141.0371  159.5336 H   0  0  0  0  0  0  0  0  0  0  0  0
  153.4097  140.7930  160.7209 H   0  0  0  0  0  0  0  0  0  0  0  0
  152.7866  144.0527  159.2994 H   0  0  0  0  0  0  0  0  0  0  0  0
  150.9542  145.1023  157.4601 H   0  0  0  0  0  0  0  0  0  0  0  0
  150.0476  143.9931  156.5211 H   0  0  0  0  0  0  0  0  0  0  0  0
  148.6806  141.2027  158.5171 H   0  0  0  0  0  0  0  0  0  0  0  0
  148.9360  142.8408  157.8994 H   0  0  0  0  0  0  0  0  0  0  0  0
  146.4120  141.7709  158.1043 H   0  0  0  0  0  0  0  0  0  0  0  0
  146.8581  142.8734  156.8031 H   0  0  0  0  0  0  0  0  0  0  0  0
  146.7786  139.8535  156.7127 H   0  0  0  0  0  0  0  0  0  0  0  0
  146.0978  140.9713  155.5392 H   0  0  0  0  0  0  0  0  0  0  0  0
  148.5469  139.7593  155.2191 H   0  0  0  0  0  0  0  0  0  0  0  0
  147.4022  141.5689  153.6625 H   0  0  0  0  0  0  0  0  0  0  0  0
  148.4067  142.7333  154.5026 H   0  0  0  0  0  0  0  0  0  0  0  0
  149.1757  140.6655  152.8326 H   0  0  0  0  0  0  0  0  0  0  0  0
  1  2  1  0  0  0  0
  1 17  1  0  0  0  0
  1 18  1  0  0  0  0
  1 19  1  0  0  0  0
  2 16  1  0  0  0  0
  2  3  1  0  0  0  0
  3  4  2  0  0  0  0
  3 20  1  0  0  0  0
  4  5  1  0  0  0  0
  4  6  1  0  0  0  0
  5 21  1  0  0  0  0
  5 22  1  0  0  0  0
  6  7  1  0  0  0  0
  6 16  2  0  0  0  0
  7  8  2  0  0  0  0
  7  9  1  0  0  0  0
  9 13  1  0  0  0  0
  9 10  1  0  0  0  0
 10 11  1  0  0  0  0
 10 23  1  0  0  0  0
 10 24  1  0  0  0  0
 11 12  1  0  0  0  0
 11 25  1  0  0  0  0
 11 26  1  0  0  0  0
 12 13  1  0  0  0  0
 12 27  1  0  0  0  0
 12 28  1  0  0  0  0
 13 14  1  0  0  0  0
 13 29  1  0  0  0  0
 14 15  1  0  0  0  0
 14 30  1  0  0  0  0
 14 31  1  0  0  0  0
 15 32  1  0  0  0  0
M  END
> <s_m_source_file>
AV-unprocessed.smi

> <i_m_source_file_index>
58

> <i_lp_mmshare_version>
43012

> <i_f3d_flags>
0

> <s_epik_input>
W0NIM11uMVtjSF1jKFtOSDJdKWMobjEpQyg9TylOMltDSDJdW0NIMl1bQ0gyXVtDQEhdMltDSDJdW09IXQ==

> <s_epik_cmdline>
J2VwaWtfcHl0aG9uJywgJy1waCcsICc3LjAnLCAnLXRuJywgJzgnLCAnLW1hJywgJzIwMCcsICctbWV0YWxfYmluZGluZycsICctaW1hZScsICc8aW5maWxlLm1hZT4nLCAnLW9tYWUnLCAnPG91dGZpbGUubWFlPic=

> <r_lp_tautomer_probability>
1

> <r_epik_Ionization_Penalty>
5.64206e-05

> <r_epik_Ionization_Penalty_Charging>
0

> <r_epik_Ionization_Penalty_Neutral>
5.64206e-05

> <r_epik_State_Penalty>
-0

> <r_epik_Charging_Adjusted_Penalty>
0

> <i_epik_Tot_Q>
0

> <i_epik_Tot_abs_Q>
0

> <r_epik_Metal_State_Penalty>
-0

> <b_epik_Metal_Only>
0

> <s_lp_Force_Field>
OPLS_2005

> <r_lp_Energy>
40.444

> <b_lp_Chiralities_Consistent>
1

> <s_lp_Variant>
AV-unprocessed.smi:58-1

> <Gold.Version>
5.8.1

> <Gold.Id.Protein>
6NUR|6NUR_protein|mol2

> <Gold.PLP.Fitness>
38.7945

> <Gold.PLP.PLP>
-30.9478

> <Gold.PLP.part.hbond>
-5.0000

> <Gold.PLP.part.metal>
0.0000

> <Gold.PLP.part.buried>
-3.1611

> <Gold.PLP.part.nonpolar>
-21.8697

> <Gold.PLP.part.repulsive>
0.0588

> <Gold.PLP.ligand.clash>
0.0000

> <Gold.PLP.ligand.torsion>
1.3388

> <Gold.PLP.Chemscore.Hbond>
3.4125

> <Gold.PLP.Chemscore.CHOScore>
0.0000

> <Gold.PLP.Chemscore.Metal>
0.0000

> <Gold.Chemscore.Hbonds>
donor molecule, donor type, donor heavy atom, donor atom, acceptor molecule, acceptor atom, score
      L1  H     5    22       P1  8028  0.86
      L1  H    15    32       P1  7957  0.77
      P1  H  7989  7998       L1     8  0.88
      P1  H  8011  8017       L1    15  0.83

> <Gold.PLP.Chemscore.Internal.Correction>
0.2868

> <Gold.Rescore>
     Score         DG    S(hbond)    S(metal)    S(lipo)     H(rot)  DE(clash)    DE(int)     intcor
     15.93     -17.19       2.65        0.00      57.06       1.49       0.02       1.24       ----

> <Gold.Chemscore.Fitness>
15.9334

> <Gold.Chemscore.DG>
-17.1883

> <Gold.Chemscore.ZeroCoef>
-5.4800

> <Gold.Chemscore.Hbond>
2.6494

> <Gold.Chemscore.Metal>
0.0000

> <Gold.Chemscore.Lipo>
57.0555

> <Gold.Chemscore.Internal_Hbond>
0.0000

> <Gold.Chemscore.DEClash>
0.0180

> <Gold.Chemscore.DEInternal>
1.2370

> <Gold.Chemscore.Rot>
1.4907

> <Gold.Chemscore.Internal.Correction>
   9.000000E+99

> <Gold.Chemscore.Hbonds>
donor molecule, donor type, donor heavy atom, donor atom, acceptor molecule, acceptor atom, score
      L1  H     5    22       P1  8028  0.84
      L1  H    15    32       P1  7957  0.78
      P1  H  7989  7998       L1     8  0.84
      P1  H  8011  8017       L1    15  0.12

> <Gold.Chemscore.Hbond.Weighted>
-8.8491

> <Gold.Chemscore.Metal.Weighted>
-0.0000

> <Gold.Chemscore.Lipo.Weighted>
-6.6755

> <Gold.Chemscore.Internal_Hbond.Weighted>
0.0000

> <Gold.Chemscore.DEClash.Weighted>
0.0180

> <Gold.Chemscore.DEInternal.Weighted>
1.2370

> <Gold.Chemscore.Rot.Weighted>
3.8163

> <Gold.Chemscore.Internal.Correction.Weighted>
   9.000000E+99

> <Gold.Protein.RotatedTorsions>
[ 6907 6896 6895 6894 ] final   18.35 input  -60.11 | X-H torsion
[ 7974 7965 7964 7962 ] final   13.22 input  175.53 | X-H torsion
[ 8008 7997 7996 7995 ] final -122.59 input   59.86 | X-H torsion
[ 10167 10162 10161 10158 ] final  -72.73 input  -65.29 | X-H torsion
[ 10718 10713 10712 10709 ] final  -60.87 input   66.30 | X-H torsion
[ 10763 10752 10751 10750 ] final   71.06 input  -60.55 | X-H torsion
[ 11005 11000 10999 10996 ] final  123.91 input  -57.11 | X-H torsion

> <Gold.Protein.ActiveResidues>
 VAL166  LYS551  ARG553  GLY616  TRP617  ASP618  TYR619  PRO620  LYS621  CYS622 
 ASP623  PHE694  ASN695  SER759  ASP760  ASP761  ALA762  ILE779  LEU786  VAL792 
 PHE793  MET794  SER795  GLU796  ALA797  LYS798  CYS799  TRP800  GLU811  SER814 

> <Gold.Protein.RotatedAtoms>
  151.8640  135.0514  160.0472 H   0  0  0  0  0  0  0  0  0  0  0  0  # atno 6907 bound_to 6896
  152.2641  133.5319  159.5407 H   0  0  0  0  0  0  0  0  0  0  0  0  # atno 6908 bound_to 6896
  150.7127  134.0705  159.3905 H   0  0  0  0  0  0  0  0  0  0  0  0  # atno 6909 bound_to 6896
  146.2334  139.9221  142.8508 H   0  0  0  0  0  0  0  0  0  0  0  0  # atno 7974 bound_to 7965
  155.1667  140.0407  157.2854 H   0  0  0  0  0  0  0  0  0  0  0  0  # atno 8008 bound_to 7997
  154.6298  140.2521  155.7420 H   0  0  0  0  0  0  0  0  0  0  0  0  # atno 8009 bound_to 7997
  156.2479  140.2877  156.0645 H   0  0  0  0  0  0  0  0  0  0  0  0  # atno 8010 bound_to 7997
  140.5168  143.2337  151.7499 H   0  0  0  0  0  0  0  0  0  0  0  0  # atno 10167 bound_to 10162
  156.0961  130.4193  150.0914 H   0  0  0  0  0  0  0  0  0  0  0  0  # atno 10718 bound_to 10713
  153.0377  135.5151  154.7536 H   0  0  0  0  0  0  0  0  0  0  0  0  # atno 10763 bound_to 10752
  154.6499  135.2923  155.0002 H   0  0  0  0  0  0  0  0  0  0  0  0  # atno 10764 bound_to 10752
  154.0890  135.6653  153.4902 H   0  0  0  0  0  0  0  0  0  0  0  0  # atno 10765 bound_to 10752
  139.9334  134.9640  156.8331 H   0  0  0  0  0  0  0  0  0  0  0  0  # atno 11005 bound_to 11000
  145.2127  140.9902  143.4091 LP  0  0  0  0  0  0  0  0  0  0  0  0  # atno 17320 bound_to 7965
  144.9678  139.3912  143.6324 LP  0  0  0  0  0  0  0  0  0  0  0  0  # atno 17321 bound_to 7965
  139.4911  144.4312  151.9870 LP  0  0  0  0  0  0  0  0  0  0  0  0  # atno 17342 bound_to 10162
  140.3407  144.3207  150.5968 LP  0  0  0  0  0  0  0  0  0  0  0  0  # atno 17343 bound_to 10162
  156.8912  130.9589  151.3588 LP  0  0  0  0  0  0  0  0  0  0  0  0  # atno 17370 bound_to 10713
  157.6122  130.8591  149.8970 LP  0  0  0  0  0  0  0  0  0  0  0  0  # atno 17371 bound_to 10713
  140.6140  134.0056  155.7589 LP  0  0  0  0  0  0  0  0  0  0  0  0  # atno 17394 bound_to 11000
  141.0936  133.9879  157.3198 LP  0  0  0  0  0  0  0  0  0  0  0  0  # atno 17395 bound_to 11000

$$$$
