AV-unprocessed.smi:670|AV-procd|sdf|3268|dock9
  -GOLD-   22720 0223D 1   1.00000     0.00000
 Structure written by MMmdl.
 44 45  0  0  0  0  0  0  0  0  2 V2000
  153.6311  141.0976  160.3565 C   0  0  0  0  0  0  0  0  0  0  0  0
  152.5282  141.9909  159.7665 C   0  0  1  0  0  0  0  0  0  0  0  0
  152.9759  143.4668  159.7408 C   0  0  0  0  0  0  0  0  0  0  0  0
  151.8919  144.3821  159.1511 C   0  0  0  0  0  0  0  0  0  0  0  0
  151.4868  143.9187  157.7453 C   0  0  0  0  0  0  0  0  0  0  0  0
  151.0292  142.4543  157.7649 C   0  0  0  0  0  0  0  0  0  0  0  0
  152.1088  141.5236  158.3546 C   0  0  2  0  0  0  0  0  0  0  0  0
  151.5623  140.2168  158.4630 O   0  0  0  0  0  0  0  0  0  0  0  0
  151.6780  139.4323  157.2844 C   0  0  0  0  0  0  0  0  0  0  0  0
  151.3344  137.9803  157.6296 C   0  0  0  0  0  0  0  0  0  0  0  0
  150.0370  137.9331  158.2914 N   0  0  0  0  0  0  0  0  0  0  0  0
  149.2697  136.8458  158.4683 C   0  0  0  0  0  0  0  0  0  0  0  0
  149.6125  135.7170  158.1171 O   0  0  0  0  0  0  0  0  0  0  0  0
  147.8931  137.0441  159.1270 C   0  0  0  0  0  0  0  0  0  0  0  0
  147.7115  136.3278  160.4013 N   0  0  0  0  0  0  0  0  0  0  0  0
  147.8646  137.1709  161.5838 N   0  5  0  0  0  0  0  0  0  0  0  0
  147.7012  136.6203  162.8160 C   0  0  0  0  0  0  0  0  0  0  0  0
  147.7939  137.2706  163.8541 O   0  0  0  0  0  0  0  0  0  0  0  0
  147.4054  135.1996  162.8970 C   0  0  0  0  0  0  0  0  0  0  0  0
  147.2747  134.4441  161.7889 C   0  0  0  0  0  0  0  0  0  0  0  0
  147.4138  134.9976  160.4475 C   0  0  0  0  0  0  0  0  0  0  0  0
  147.2682  134.3185  159.4313 O   0  0  0  0  0  0  0  0  0  0  0  0
  154.5287  141.1150  159.7375 H   0  0  0  0  0  0  0  0  0  0  0  0
  153.3018  140.0612  160.4356 H   0  0  0  0  0  0  0  0  0  0  0  0
  153.9100  141.4286  161.3571 H   0  0  0  0  0  0  0  0  0  0  0  0
  151.6572  141.9181  160.4201 H   0  0  0  0  0  0  0  0  0  0  0  0
  153.2221  143.7996  160.7498 H   0  0  0  0  0  0  0  0  0  0  0  0
  153.8897  143.5643  159.1530 H   0  0  0  0  0  0  0  0  0  0  0  0
  151.0171  144.3818  159.8027 H   0  0  0  0  0  0  0  0  0  0  0  0
  152.2510  145.4109  159.1146 H   0  0  0  0  0  0  0  0  0  0  0  0
  150.6874  144.5519  157.3596 H   0  0  0  0  0  0  0  0  0  0  0  0
  152.3300  144.0304  157.0626 H   0  0  0  0  0  0  0  0  0  0  0  0
  150.1225  142.3690  158.3641 H   0  0  0  0  0  0  0  0  0  0  0  0
  150.7584  142.1460  156.7553 H   0  0  0  0  0  0  0  0  0  0  0  0
  152.9907  141.5165  157.7104 H   0  0  0  0  0  0  0  0  0  0  0  0
  151.0141  139.7843  156.4937 H   0  0  0  0  0  0  0  0  0  0  0  0
  152.6975  139.5069  156.9051 H   0  0  0  0  0  0  0  0  0  0  0  0
  151.3352  137.3815  156.7177 H   0  0  0  0  0  0  0  0  0  0  0  0
  152.0900  137.5555  158.2909 H   0  0  0  0  0  0  0  0  0  0  0  0
  149.6720  138.8125  158.6305 H   0  0  0  0  0  0  0  0  0  0  0  0
  147.7239  138.1122  159.2725 H   0  0  0  0  0  0  0  0  0  0  0  0
  147.1323  136.7279  158.4116 H   0  0  0  0  0  0  0  0  0  0  0  0
  147.2863  134.7400  163.8670 H   0  0  0  0  0  0  0  0  0  0  0  0
  147.0510  133.3934  161.8965 H   0  0  0  0  0  0  0  0  0  0  0  0
  1  2  1  0  0  0  0
  1 23  1  0  0  0  0
  1 24  1  0  0  0  0
  1 25  1  0  0  0  0
  2  7  1  0  0  0  0
  2  3  1  0  0  0  0
  2 26  1  0  0  0  0
  3  4  1  0  0  0  0
  3 27  1  0  0  0  0
  3 28  1  0  0  0  0
  4  5  1  0  0  0  0
  4 29  1  0  0  0  0
  4 30  1  0  0  0  0
  5  6  1  0  0  0  0
  5 31  1  0  0  0  0
  5 32  1  0  0  0  0
  6  7  1  0  0  0  0
  6 33  1  0  0  0  0
  6 34  1  0  0  0  0
  7  8  1  0  0  0  0
  7 35  1  0  0  0  0
  8  9  1  0  0  0  0
  9 10  1  0  0  0  0
  9 36  1  0  0  0  0
  9 37  1  0  0  0  0
 10 11  1  0  0  0  0
 10 38  1  0  0  0  0
 10 39  1  0  0  0  0
 11 12  1  0  0  0  0
 11 40  1  0  0  0  0
 12 13  2  0  0  0  0
 12 14  1  0  0  0  0
 14 41  1  0  0  0  0
 14 42  1  0  0  0  0
 14 15  1  0  0  0  0
 15 16  1  0  0  0  0
 15 21  1  0  0  0  0
 16 17  1  0  0  0  0
 17 18  2  0  0  0  0
 17 19  1  0  0  0  0
 19 43  1  0  0  0  0
 19 20  2  0  0  0  0
 20 44  1  0  0  0  0
 20 21  1  0  0  0  0
 21 22  2  0  0  0  0
M  CHG  1  16  -1
M  END
> <s_m_source_file>
AV-unprocessed.smi

> <i_m_source_file_index>
670

> <i_lp_mmshare_version>
43012

> <i_f3d_flags>
0

> <s_epik_input>
W0NIM11bQ0BASF0xW0NIMl1bQ0gyXVtDSDJdW0NIMl1bQ0BIXTFPW0NIMl1bQ0gyXVtOSF1DKD1PKVtDSDJdbjJbbkhdYyg9TylbY0hdW2NIXWMyPU8=

> <s_epik_cmdline>
J2VwaWtfcHl0aG9uJywgJy1waCcsICc3LjAnLCAnLXRuJywgJzgnLCAnLW1hJywgJzIwMCcsICctbWV0YWxfYmluZGluZycsICctaW1hZScsICc8aW5maWxlLm1hZT4nLCAnLW9tYWUnLCAnPG91dGZpbGUubWFlPic=

> <r_lp_tautomer_probability>
1

> <r_epik_Ionization_Penalty>
0.0975638

> <r_epik_Ionization_Penalty_Charging>
0.0975637

> <r_epik_Ionization_Penalty_Neutral>
2.78599e-08

> <r_epik_State_Penalty>
0.0343507

> <r_epik_Charging_Adjusted_Penalty>
0.131914

> <i_epik_Tot_Q>
-1

> <i_epik_Tot_abs_Q>
1

> <r_epik_Metal_State_Penalty>
0.0343507

> <b_epik_Metal_Only>
0

> <s_lp_Force_Field>
OPLS_2005

> <r_lp_Energy>
24.2447

> <b_lp_Chiralities_Consistent>
1

> <s_lp_Variant>
AV-unprocessed.smi:670-4

> <Gold.Version>
5.8.1

> <Gold.Id.Protein>
6NUR|6NUR_protein|mol2

> <Gold.PLP.Fitness>
58.9706

> <Gold.PLP.PLP>
-47.4701

> <Gold.PLP.part.hbond>
-4.0255

> <Gold.PLP.part.metal>
0.0000

> <Gold.PLP.part.buried>
-3.6048

> <Gold.PLP.part.nonpolar>
-40.0175

> <Gold.PLP.part.repulsive>
0.1826

> <Gold.PLP.ligand.clash>
0.0000

> <Gold.PLP.ligand.torsion>
0.7340

> <Gold.PLP.Chemscore.Hbond>
4.3005

> <Gold.PLP.Chemscore.CHOScore>
0.0000

> <Gold.PLP.Chemscore.Metal>
0.0000

> <Gold.Chemscore.Hbonds>
donor molecule, donor type, donor heavy atom, donor atom, acceptor molecule, acceptor atom, score
      P1  H  6896  6909       L1    13  0.80
      P1  H  6931  6943       L1    16  2.00
      P1  H  6934  6947       L1    16  1.23

> <Gold.PLP.Chemscore.Internal.Correction>
0.0669

> <Gold.Rescore>
     Score         DG    S(hbond)    S(metal)    S(lipo)     H(rot)  DE(clash)    DE(int)     intcor
     15.24     -17.96       1.94        0.00     104.75       2.45       0.71       2.01       ----

> <Gold.Chemscore.Fitness>
15.2363

> <Gold.Chemscore.DG>
-17.9575

> <Gold.Chemscore.ZeroCoef>
-5.4800

> <Gold.Chemscore.Hbond>
1.9434

> <Gold.Chemscore.Metal>
0.0000

> <Gold.Chemscore.Lipo>
104.7516

> <Gold.Chemscore.Internal_Hbond>
0.0000

> <Gold.Chemscore.DEClash>
0.7092

> <Gold.Chemscore.DEInternal>
2.0120

> <Gold.Chemscore.Rot>
2.4490

> <Gold.Chemscore.Internal.Correction>
   9.000000E+99

> <Gold.Chemscore.Hbonds>
donor molecule, donor type, donor heavy atom, donor atom, acceptor molecule, acceptor atom, score
      P1  H  6896  6909       L1    13  0.71
      P1  H  6931  6943       L1    16  0.25
      P1  H  6934  6947       L1    16  0.26

> <Gold.Chemscore.Hbond.Weighted>
-6.4909

> <Gold.Chemscore.Metal.Weighted>
-0.0000

> <Gold.Chemscore.Lipo.Weighted>
-12.2559

> <Gold.Chemscore.Internal_Hbond.Weighted>
0.0000

> <Gold.Chemscore.DEClash.Weighted>
0.7092

> <Gold.Chemscore.DEInternal.Weighted>
2.0120

> <Gold.Chemscore.Rot.Weighted>
6.2694

> <Gold.Chemscore.Internal.Correction.Weighted>
   9.000000E+99

> <Gold.Protein.RotatedTorsions>
[ 6907 6896 6895 6894 ] final   51.35 input  -60.11 | X-H torsion
[ 7974 7965 7964 7962 ] final   31.20 input  175.53 | X-H torsion
[ 8008 7997 7996 7995 ] final -166.64 input   59.86 | X-H torsion
[ 10167 10162 10161 10158 ] final  136.67 input  -65.29 | X-H torsion
[ 10718 10713 10712 10709 ] final  -79.53 input   66.30 | X-H torsion
[ 10763 10752 10751 10750 ] final -146.45 input  -60.55 | X-H torsion
[ 11005 11000 10999 10996 ] final  -49.01 input  -57.11 | X-H torsion

> <Gold.Protein.ActiveResidues>
 VAL166  LYS551  ARG553  GLY616  TRP617  ASP618  TYR619  PRO620  LYS621  CYS622 
 ASP623  PHE694  ASN695  SER759  ASP760  ASP761  ALA762  ILE779  LEU786  VAL792 
 PHE793  MET794  SER795  GLU796  ALA797  LYS798  CYS799  TRP800  GLU811  SER814 

> <Gold.Protein.RotatedAtoms>
  152.3117  134.7489  160.0334 H   0  0  0  0  0  0  0  0  0  0  0  0  # atno 6907 bound_to 6896
  151.7967  133.3360  159.3523 H   0  0  0  0  0  0  0  0  0  0  0  0  # atno 6908 bound_to 6896
  150.7323  134.5722  159.5940 H   0  0  0  0  0  0  0  0  0  0  0  0  # atno 6909 bound_to 6896
  146.1565  139.6688  142.9063 H   0  0  0  0  0  0  0  0  0  0  0  0  # atno 7974 bound_to 7965
  155.8666  140.0986  157.1578 H   0  0  0  0  0  0  0  0  0  0  0  0  # atno 8008 bound_to 7997
  154.3994  140.1355  156.4089 H   0  0  0  0  0  0  0  0  0  0  0  0  # atno 8009 bound_to 7997
  155.7797  140.3459  155.5293 H   0  0  0  0  0  0  0  0  0  0  0  0  # atno 8010 bound_to 7997
  139.5172  144.6452  151.5459 H   0  0  0  0  0  0  0  0  0  0  0  0  # atno 10167 bound_to 10162
  156.0090  130.4548  150.3662 H   0  0  0  0  0  0  0  0  0  0  0  0  # atno 10718 bound_to 10713
  154.8335  135.3386  154.6664 H   0  0  0  0  0  0  0  0  0  0  0  0  # atno 10763 bound_to 10752
  153.7281  135.6954  153.5000 H   0  0  0  0  0  0  0  0  0  0  0  0  # atno 10764 bound_to 10752
  153.2332  135.4409  155.0570 H   0  0  0  0  0  0  0  0  0  0  0  0  # atno 10765 bound_to 10752
  141.0734  133.6672  156.3524 H   0  0  0  0  0  0  0  0  0  0  0  0  # atno 11005 bound_to 11000
  145.4696  141.0435  143.2706 LP  0  0  0  0  0  0  0  0  0  0  0  0  # atno 17320 bound_to 7965
  144.7970  139.6215  143.7088 LP  0  0  0  0  0  0  0  0  0  0  0  0  # atno 17321 bound_to 7965
  140.6234  143.9215  150.6545 LP  0  0  0  0  0  0  0  0  0  0  0  0  # atno 17342 bound_to 10162
  140.2496  143.3603  152.1417 LP  0  0  0  0  0  0  0  0  0  0  0  0  # atno 17343 bound_to 10162
  157.1748  131.0377  151.2777 LP  0  0  0  0  0  0  0  0  0  0  0  0  # atno 17370 bound_to 10713
  157.4197  130.7431  149.6904 LP  0  0  0  0  0  0  0  0  0  0  0  0  # atno 17371 bound_to 10713
  140.5624  134.5921  157.5437 LP  0  0  0  0  0  0  0  0  0  0  0  0  # atno 17394 bound_to 11000
  139.9547  134.7556  156.0369 LP  0  0  0  0  0  0  0  0  0  0  0  0  # atno 17395 bound_to 11000

$$$$
