AV-unprocessed.smi:583|AV-procd|sdf|2997|dock2
  -GOLD-   2262023503D 1   1.00000     0.00000
 Structure written by MMmdl.
 35 36  0  0  0  0  0  0  0  0  1 V2000
  155.1155  139.9306  159.2097 O   0  0  0  0  0  0  0  0  0  0  0  0
  154.0768  139.9658  159.8682 C   0  0  0  0  0  0  0  0  0  0  0  0
  154.1011  140.6130  161.2638 C   0  0  0  0  0  0  0  0  0  0  0  0
  153.4534  141.9347  161.3507 N   0  0  0  0  0  0  0  0  0  0  0  0
  152.8999  142.4550  160.1640 C   0  0  0  0  0  0  0  0  0  0  0  0
  152.2694  143.6439  160.1091 C   0  0  0  0  0  0  0  0  0  0  0  0
  151.7260  144.2021  158.8030 C   0  0  0  0  0  0  0  0  0  0  0  0
  150.9635  143.2883  158.2042 F   0  0  0  0  0  0  0  0  0  0  0  0
  150.9832  145.2884  159.0170 F   0  0  0  0  0  0  0  0  0  0  0  0
  152.7154  144.5278  157.9696 F   0  0  0  0  0  0  0  0  0  0  0  0
  152.2130  144.4018  161.3437 C   0  0  0  0  0  0  0  0  0  0  0  0
  152.7408  143.9208  162.4862 C   0  0  0  0  0  0  0  0  0  0  0  0
  153.3978  142.6130  162.5362 C   0  0  0  0  0  0  0  0  0  0  0  0
  153.8644  142.1534  163.5786 O   0  0  0  0  0  0  0  0  0  0  0  0
  152.9149  139.4625  159.4176 N   0  0  0  0  0  0  0  0  0  0  0  0
  152.7218  138.8138  158.1256 C   0  0  2  0  0  0  0  0  0  0  0  0
  152.3880  139.8262  157.0108 C   0  0  0  0  0  0  0  0  0  0  0  0
  151.8358  139.0617  155.8017 C   0  0  0  0  0  0  0  0  0  0  0  0
  150.9843  137.5861  156.4775 S   0  0  0  0  0  0  0  0  0  0  0  0
  149.5291  137.7964  156.4413 O   0  0  0  0  0  0  0  0  0  0  0  0
  151.5899  136.3787  155.8955 O   0  0  0  0  0  0  0  0  0  0  0  0
  151.5754  137.7963  158.1990 C   0  0  0  0  0  0  0  0  0  0  0  0
  153.6450  139.9196  161.9726 H   0  0  0  0  0  0  0  0  0  0  0  0
  155.1425  140.6870  161.5804 H   0  0  0  0  0  0  0  0  0  0  0  0
  153.0180  141.8196  159.2979 H   0  0  0  0  0  0  0  0  0  0  0  0
  151.7353  145.3706  161.3547 H   0  0  0  0  0  0  0  0  0  0  0  0
  152.6779  144.5120  163.3881 H   0  0  0  0  0  0  0  0  0  0  0  0
  152.1062  139.5314  160.0182 H   0  0  0  0  0  0  0  0  0  0  0  0
  153.6304  138.2769  157.8465 H   0  0  0  0  0  0  0  0  0  0  0  0
  151.6200  140.5134  157.3692 H   0  0  0  0  0  0  0  0  0  0  0  0
  153.2526  140.4317  156.7366 H   0  0  0  0  0  0  0  0  0  0  0  0
  151.1456  139.6547  155.2016 H   0  0  0  0  0  0  0  0  0  0  0  0
  152.6471  138.7166  155.1604 H   0  0  0  0  0  0  0  0  0  0  0  0
  151.8823  136.8352  158.6120 H   0  0  0  0  0  0  0  0  0  0  0  0
  150.7421  138.1790  158.7894 H   0  0  0  0  0  0  0  0  0  0  0  0
  1  2  2  0  0  0  0
  2  3  1  0  0  0  0
  2 15  1  0  0  0  0
  3  4  1  0  0  0  0
  3 23  1  0  0  0  0
  3 24  1  0  0  0  0
  4 13  1  0  0  0  0
  4  5  1  0  0  0  0
  5  6  2  0  0  0  0
  5 25  1  0  0  0  0
  6  7  1  0  0  0  0
  6 11  1  0  0  0  0
  7  8  1  0  0  0  0
  7  9  1  0  0  0  0
  7 10  1  0  0  0  0
 11 12  2  0  0  0  0
 11 26  1  0  0  0  0
 12 13  1  0  0  0  0
 12 27  1  0  0  0  0
 13 14  2  0  0  0  0
 15 16  1  0  0  0  0
 15 28  1  0  0  0  0
 16 22  1  0  0  0  0
 16 17  1  0  0  0  0
 16 29  1  0  0  0  0
 17 18  1  0  0  0  0
 17 30  1  0  0  0  0
 17 31  1  0  0  0  0
 18 19  1  0  0  0  0
 18 32  1  0  0  0  0
 18 33  1  0  0  0  0
 19 20  2  0  0  0  0
 19 21  2  0  0  0  0
 19 22  1  0  0  0  0
 22 34  1  0  0  0  0
 22 35  1  0  0  0  0
M  END
> <s_m_source_file>
AV-unprocessed.smi

> <i_m_source_file_index>
583

> <i_lp_mmshare_version>
43012

> <i_f3d_flags>
0

> <s_epik_input>
Tz1TMSg9TylbQ0gyXVtDSDJdW0NASF0oW0NIMl0xKVtOSF1DKD1PKVtDSDJdbjJbY0hdYyhDKEYpKEYpRilbY0hdW2NIXWMyPU8=

> <s_epik_cmdline>
J2VwaWtfcHl0aG9uJywgJy1waCcsICc3LjAnLCAnLXRuJywgJzgnLCAnLW1hJywgJzIwMCcsICctbWV0YWxfYmluZGluZycsICctaW1hZScsICc8aW5maWxlLm1hZT4nLCAnLW9tYWUnLCAnPG91dGZpbGUubWFlPic=

> <r_lp_tautomer_probability>
1

> <r_epik_Ionization_Penalty>
1.22016e-07

> <r_epik_Ionization_Penalty_Charging>
1.48237e-08

> <r_epik_Ionization_Penalty_Neutral>
1.07193e-07

> <r_epik_State_Penalty>
-0

> <r_epik_Charging_Adjusted_Penalty>
1.48237e-08

> <i_epik_Tot_Q>
0

> <i_epik_Tot_abs_Q>
0

> <r_epik_Metal_State_Penalty>
-0

> <b_epik_Metal_Only>
0

> <s_lp_Force_Field>
OPLS_2005

> <r_lp_Energy>
16.6381

> <b_lp_Chiralities_Consistent>
1

> <s_lp_Variant>
AV-unprocessed.smi:583-1

> <Gold.Version>
5.8.1

> <Gold.Id.Protein>
6NUR|6NUR_protein|mol2

> <Gold.PLP.Fitness>
52.1328

> <Gold.PLP.PLP>
-47.7746

> <Gold.PLP.part.hbond>
-2.0000

> <Gold.PLP.part.metal>
0.0000

> <Gold.PLP.part.buried>
-2.0197

> <Gold.PLP.part.nonpolar>
-42.8937

> <Gold.PLP.part.repulsive>
0.1943

> <Gold.PLP.ligand.clash>
0.0000

> <Gold.PLP.ligand.torsion>
0.8451

> <Gold.PLP.Chemscore.Hbond>
1.9920

> <Gold.PLP.Chemscore.CHOScore>
0.0000

> <Gold.PLP.Chemscore.Metal>
0.0000

> <Gold.Chemscore.Hbonds>
donor molecule, donor type, donor heavy atom, donor atom, acceptor molecule, acceptor atom, score
      P1  H  7997  8010       L1     1  0.99
      P1  H 10752 10765       L1    21  1.00

> <Gold.PLP.Chemscore.Internal.Correction>
0.0725

> <Gold.Rescore>
     Score         DG    S(hbond)    S(metal)    S(lipo)     H(rot)  DE(clash)    DE(int)     intcor
     16.57     -18.24       1.98        0.00      90.43       1.73       0.75       0.92       ----

> <Gold.Chemscore.Fitness>
16.5672

> <Gold.Chemscore.DG>
-18.2365

> <Gold.Chemscore.ZeroCoef>
-5.4800

> <Gold.Chemscore.Hbond>
1.9785

> <Gold.Chemscore.Metal>
0.0000

> <Gold.Chemscore.Lipo>
90.4329

> <Gold.Chemscore.Internal_Hbond>
0.0000

> <Gold.Chemscore.DEClash>
0.7483

> <Gold.Chemscore.DEInternal>
0.9210

> <Gold.Chemscore.Rot>
1.7314

> <Gold.Chemscore.Internal.Correction>
   9.000000E+99

> <Gold.Chemscore.Hbonds>
donor molecule, donor type, donor heavy atom, donor atom, acceptor molecule, acceptor atom, score
      P1  H  7997  8010       L1     1  0.94
      P1  H 10752 10765       L1    21  0.96

> <Gold.Chemscore.Hbond.Weighted>
-6.6082

> <Gold.Chemscore.Metal.Weighted>
-0.0000

> <Gold.Chemscore.Lipo.Weighted>
-10.5806

> <Gold.Chemscore.Internal_Hbond.Weighted>
0.0000

> <Gold.Chemscore.DEClash.Weighted>
0.7483

> <Gold.Chemscore.DEInternal.Weighted>
0.9210

> <Gold.Chemscore.Rot.Weighted>
4.4324

> <Gold.Chemscore.Internal.Correction.Weighted>
   9.000000E+99

> <Gold.Protein.RotatedTorsions>
[ 6907 6896 6895 6894 ] final   19.12 input  -60.11 | X-H torsion
[ 7974 7965 7964 7962 ] final  -10.09 input  175.53 | X-H torsion
[ 8008 7997 7996 7995 ] final  -20.57 input   59.86 | X-H torsion
[ 10167 10162 10161 10158 ] final -116.03 input  -65.29 | X-H torsion
[ 10718 10713 10712 10709 ] final  -48.77 input   66.30 | X-H torsion
[ 10763 10752 10751 10750 ] final -147.24 input  -60.55 | X-H torsion
[ 11005 11000 10999 10996 ] final  -26.37 input  -57.11 | X-H torsion

> <Gold.Protein.ActiveResidues>
 VAL166  LYS551  ARG553  GLY616  TRP617  ASP618  TYR619  PRO620  LYS621  CYS622 
 ASP623  PHE694  ASN695  SER759  ASP760  ASP761  ALA762  ILE779  LEU786  VAL792 
 PHE793  MET794  SER795  GLU796  ALA797  LYS798  CYS799  TRP800  GLU811  SER814 

> <Gold.Protein.RotatedAtoms>
  151.8760  135.0472  160.0483 H   0  0  0  0  0  0  0  0  0  0  0  0  # atno 6907 bound_to 6896
  152.2551  133.5244  159.5356 H   0  0  0  0  0  0  0  0  0  0  0  0  # atno 6908 bound_to 6896
  150.7097  134.0823  159.3945 H   0  0  0  0  0  0  0  0  0  0  0  0  # atno 6909 bound_to 6896
  146.2231  140.2713  142.8357 H   0  0  0  0  0  0  0  0  0  0  0  0  # atno 7974 bound_to 7965
  154.4761  140.2058  155.9875 H   0  0  0  0  0  0  0  0  0  0  0  0  # atno 8008 bound_to 7997
  156.1091  140.3232  155.8017 H   0  0  0  0  0  0  0  0  0  0  0  0  # atno 8009 bound_to 7997
  155.4666  140.0528  157.2975 H   0  0  0  0  0  0  0  0  0  0  0  0  # atno 8010 bound_to 7997
  140.0836  143.4765  152.1911 H   0  0  0  0  0  0  0  0  0  0  0  0  # atno 10167 bound_to 10162
  156.1956  130.4154  149.9311 H   0  0  0  0  0  0  0  0  0  0  0  0  # atno 10718 bound_to 10713
  154.8296  135.3365  154.6786 H   0  0  0  0  0  0  0  0  0  0  0  0  # atno 10763 bound_to 10752
  153.7408  135.6946  153.4972 H   0  0  0  0  0  0  0  0  0  0  0  0  # atno 10764 bound_to 10752
  153.2245  135.4437  155.0478 H   0  0  0  0  0  0  0  0  0  0  0  0  # atno 10765 bound_to 10752
  140.9023  133.7516  156.0560 H   0  0  0  0  0  0  0  0  0  0  0  0  # atno 11005 bound_to 11000
  144.9266  140.7928  143.5715 LP  0  0  0  0  0  0  0  0  0  0  0  0  # atno 17320 bound_to 7965
  145.2654  139.1976  143.4870 LP  0  0  0  0  0  0  0  0  0  0  0  0  # atno 17321 bound_to 7965
  139.5765  144.7490  151.3751 LP  0  0  0  0  0  0  0  0  0  0  0  0  # atno 17342 bound_to 10162
  140.7065  143.7501  150.7491 LP  0  0  0  0  0  0  0  0  0  0  0  0  # atno 17343 bound_to 10162
  156.7037  130.8943  151.3602 LP  0  0  0  0  0  0  0  0  0  0  0  0  # atno 17370 bound_to 10713
  157.6955  130.9278  150.0634 LP  0  0  0  0  0  0  0  0  0  0  0  0  # atno 17371 bound_to 10713
  140.8215  134.3284  157.5380 LP  0  0  0  0  0  0  0  0  0  0  0  0  # atno 17394 bound_to 11000
  139.8744  134.9312  156.3521 LP  0  0  0  0  0  0  0  0  0  0  0  0  # atno 17395 bound_to 11000

$$$$
