AV-unprocessed.smi:86|AV-procd|sdf|816|dock4
  -GOLD-   2262017213D 1   1.00000     0.00000
 Structure written by MMmdl.
 51 55  0  0  0  0  0  0  0  0  1 V2000
  151.5637  136.0838  155.6192 O   0  0  0  0  0  0  0  0  0  0  0  0
  150.6427  135.0134  155.6805 C   0  0  0  0  0  0  0  0  0  0  0  0
  149.2659  135.4827  156.1837 C   0  0  0  0  0  0  0  0  0  0  0  0
  149.3430  135.9479  157.6533 C   0  0  0  0  0  0  0  0  0  0  0  0
  149.9817  137.2422  157.8404 N   0  0  0  0  0  0  0  0  0  0  0  0
  149.5484  138.4482  157.3401 C   0  0  0  0  0  0  0  0  0  0  0  0
  150.2940  139.4745  157.6426 N   0  0  0  0  0  0  0  0  0  0  0  0
  151.3153  138.9445  158.4247 C   0  0  0  0  0  0  0  0  0  0  0  0
  152.4567  139.4882  159.0884 C   0  0  0  0  0  0  0  0  0  0  0  0
  152.8121  140.7996  159.0716 N   0  0  0  0  0  0  0  0  0  0  0  0
  153.8879  141.3263  159.9082 C   0  0  0  0  0  0  0  0  0  0  0  0
  153.5557  142.8104  160.1267 C   0  0  2  0  0  0  0  0  0  0  0  0
  152.7866  143.0202  161.4501 C   0  0  0  0  0  0  0  0  0  0  0  0
  152.1093  144.3951  161.5165 C   0  0  0  0  0  0  0  0  0  0  0  0
  151.1431  144.5723  160.3356 C   0  0  1  0  0  0  0  0  0  0  0  0
  150.5302  145.8417  160.4149 O   0  0  0  0  0  0  0  0  0  0  0  0
  151.8881  144.4469  158.9963 C   0  0  0  0  0  0  0  0  0  0  0  0
  152.7085  143.1466  158.8878 C   0  0  2  0  0  0  0  0  0  0  0  0
  151.9119  141.8621  158.6516 C   0  0  0  0  0  0  0  0  0  0  0  0
  153.2465  138.6196  159.7733 N   0  0  0  0  0  0  0  0  0  0  0  0
  152.9470  137.3192  159.8215 C   0  0  0  0  0  0  0  0  0  0  0  0
  151.9213  136.6797  159.2597 N   0  0  0  0  0  0  0  0  0  0  0  0
  151.1261  137.5379  158.5609 C   0  0  0  0  0  0  0  0  0  0  0  0
  148.5190  136.4232  155.2276 C   0  0  0  0  0  0  0  0  0  0  0  0
  147.6963  135.3497  154.7247 O   0  0  0  0  0  0  0  0  0  0  0  0
  148.1109  134.5315  155.8385 C   0  0  0  0  0  0  0  0  0  0  0  0
  151.2722  136.7638  156.2075 H   0  0  0  0  0  0  0  0  0  0  0  0
  150.5593  134.5895  154.6792 H   0  0  0  0  0  0  0  0  0  0  0  0
  151.0533  134.2211  156.3068 H   0  0  0  0  0  0  0  0  0  0  0  0
  148.3434  135.9975  158.0867 H   0  0  0  0  0  0  0  0  0  0  0  0
  149.8841  135.2196  158.2585 H   0  0  0  0  0  0  0  0  0  0  0  0
  148.6600  138.5424  156.7327 H   0  0  0  0  0  0  0  0  0  0  0  0
  153.9822  140.7956  160.8565 H   0  0  0  0  0  0  0  0  0  0  0  0
  154.8294  141.2192  159.3685 H   0  0  0  0  0  0  0  0  0  0  0  0
  154.4628  143.4157  160.1455 H   0  0  0  0  0  0  0  0  0  0  0  0
  152.0231  142.2493  161.5637 H   0  0  0  0  0  0  0  0  0  0  0  0
  153.4656  142.8992  162.2946 H   0  0  0  0  0  0  0  0  0  0  0  0
  151.5700  144.4926  162.4595 H   0  0  0  0  0  0  0  0  0  0  0  0
  152.8670  145.1801  161.5066 H   0  0  0  0  0  0  0  0  0  0  0  0
  150.3561  143.8198  160.3915 H   0  0  0  0  0  0  0  0  0  0  0  0
  149.6734  145.7380  160.7997 H   0  0  0  0  0  0  0  0  0  0  0  0
  151.1877  144.5165  158.1632 H   0  0  0  0  0  0  0  0  0  0  0  0
  152.5701  145.2919  158.8909 H   0  0  0  0  0  0  0  0  0  0  0  0
  153.3885  143.2558  158.0412 H   0  0  0  0  0  0  0  0  0  0  0  0
  151.6299  141.7606  157.6033 H   0  0  0  0  0  0  0  0  0  0  0  0
  151.0079  141.8358  159.2606 H   0  0  0  0  0  0  0  0  0  0  0  0
  153.6271  136.7032  160.3910 H   0  0  0  0  0  0  0  0  0  0  0  0
  147.9246  137.1868  155.7319 H   0  0  0  0  0  0  0  0  0  0  0  0
  149.1484  136.8676  154.4558 H   0  0  0  0  0  0  0  0  0  0  0  0
  148.4311  133.5344  155.5342 H   0  0  0  0  0  0  0  0  0  0  0  0
  147.3329  134.4747  156.6008 H   0  0  0  0  0  0  0  0  0  0  0  0
  1  2  1  0  0  0  0
  1 27  1  0  0  0  0
  2  3  1  0  0  0  0
  2 28  1  0  0  0  0
  2 29  1  0  0  0  0
  3 26  1  0  0  0  0
  3  4  1  0  0  0  0
  3 24  1  0  0  0  0
  4  5  1  0  0  0  0
  4 30  1  0  0  0  0
  4 31  1  0  0  0  0
  5 23  1  0  0  0  0
  5  6  1  0  0  0  0
  6  7  2  0  0  0  0
  6 32  1  0  0  0  0
  7  8  1  0  0  0  0
  8 23  2  0  0  0  0
  8  9  1  0  0  0  0
  9 10  1  0  0  0  0
  9 20  2  0  0  0  0
 10 19  1  0  0  0  0
 10 11  1  0  0  0  0
 11 12  1  0  0  0  0
 11 33  1  0  0  0  0
 11 34  1  0  0  0  0
 12 18  1  0  0  0  0
 12 13  1  0  0  0  0
 12 35  1  0  0  0  0
 13 14  1  0  0  0  0
 13 36  1  0  0  0  0
 13 37  1  0  0  0  0
 14 15  1  0  0  0  0
 14 38  1  0  0  0  0
 14 39  1  0  0  0  0
 15 16  1  0  0  0  0
 15 17  1  0  0  0  0
 15 40  1  0  0  0  0
 16 41  1  0  0  0  0
 17 18  1  0  0  0  0
 17 42  1  0  0  0  0
 17 43  1  0  0  0  0
 18 19  1  0  0  0  0
 18 44  1  0  0  0  0
 19 45  1  0  0  0  0
 19 46  1  0  0  0  0
 20 21  1  0  0  0  0
 21 22  2  0  0  0  0
 21 47  1  0  0  0  0
 22 23  1  0  0  0  0
 24 25  1  0  0  0  0
 24 48  1  0  0  0  0
 24 49  1  0  0  0  0
 25 26  1  0  0  0  0
 26 50  1  0  0  0  0
 26 51  1  0  0  0  0
M  END
> <s_m_source_file>
AV-unprocessed.smi

> <i_m_source_file_index>
86

> <i_lp_mmshare_version>
43012

> <i_f3d_flags>
0

> <s_epik_input>
W0NIMl0xT1tDSDJdQzEoW0NIMl1bT0hdKVtDSDJdbihbY0hdbjIpYyhjMjMpbltjSF1uYzNOKFtDSDJdNClbQ0gyXVtDQEBIXShbQ0BIXTQ1KVtDSDJdW0NASF0oW09IXSlbQ0gyXVtDSDJdNQ==

> <s_epik_cmdline>
J2VwaWtfcHl0aG9uJywgJy1waCcsICc3LjAnLCAnLXRuJywgJzgnLCAnLW1hJywgJzIwMCcsICctbWV0YWxfYmluZGluZycsICctaW1hZScsICc8aW5maWxlLm1hZT4nLCAnLW9tYWUnLCAnPG91dGZpbGUubWFlPic=

> <r_lp_tautomer_probability>
1

> <r_epik_Ionization_Penalty>
0.00425795

> <r_epik_Ionization_Penalty_Charging>
0

> <r_epik_Ionization_Penalty_Neutral>
0.00425795

> <r_epik_State_Penalty>
0.00299946

> <r_epik_Charging_Adjusted_Penalty>
0.00299946

> <i_epik_Tot_Q>
0

> <i_epik_Tot_abs_Q>
0

> <r_epik_Metal_State_Penalty>
-0

> <b_epik_Metal_Only>
0

> <s_lp_Force_Field>
OPLS_2005

> <r_lp_Energy>
53.5956

> <b_lp_Chiralities_Consistent>
1

> <s_lp_Variant>
AV-unprocessed.smi:86-5

> <Gold.Version>
5.8.1

> <Gold.Id.Protein>
6NUR|6NUR_protein|mol2

> <Gold.PLP.Fitness>
50.2387

> <Gold.PLP.PLP>
-44.5603

> <Gold.PLP.part.hbond>
-4.0000

> <Gold.PLP.part.metal>
0.0000

> <Gold.PLP.part.buried>
-6.0169

> <Gold.PLP.part.nonpolar>
-34.3532

> <Gold.PLP.part.repulsive>
0.1013

> <Gold.PLP.ligand.clash>
0.0000

> <Gold.PLP.ligand.torsion>
0.3946

> <Gold.PLP.Chemscore.Hbond>
2.0000

> <Gold.PLP.Chemscore.CHOScore>
0.0000

> <Gold.PLP.Chemscore.Metal>
0.0000

> <Gold.Chemscore.Hbonds>
donor molecule, donor type, donor heavy atom, donor atom, acceptor molecule, acceptor atom, score
      P1  H  6896  6907       L1    22  1.00
      P1  H 10752 10764       L1     1  1.00

> <Gold.PLP.Chemscore.Internal.Correction>
0.4677

> <Gold.Rescore>
     Score         DG    S(hbond)    S(metal)    S(lipo)     H(rot)  DE(clash)    DE(int)     intcor
     14.60     -17.84       1.95        0.00     110.52       2.76       1.33       1.91       ----

> <Gold.Chemscore.Fitness>
14.5956

> <Gold.Chemscore.DG>
-17.8412

> <Gold.Chemscore.ZeroCoef>
-5.4800

> <Gold.Chemscore.Hbond>
1.9473

> <Gold.Chemscore.Metal>
0.0000

> <Gold.Chemscore.Lipo>
110.5183

> <Gold.Chemscore.Internal_Hbond>
0.0000

> <Gold.Chemscore.DEClash>
1.3337

> <Gold.Chemscore.DEInternal>
1.9119

> <Gold.Chemscore.Rot>
2.7630

> <Gold.Chemscore.Internal.Correction>
   9.000000E+99

> <Gold.Chemscore.Hbonds>
donor molecule, donor type, donor heavy atom, donor atom, acceptor molecule, acceptor atom, score
      P1  H  6896  6907       L1    22  0.84
      P1  H 10752 10764       L1     1  0.70

> <Gold.Chemscore.Hbond.Weighted>
-6.5039

> <Gold.Chemscore.Metal.Weighted>
-0.0000

> <Gold.Chemscore.Lipo.Weighted>
-12.9306

> <Gold.Chemscore.Internal_Hbond.Weighted>
0.0000

> <Gold.Chemscore.DEClash.Weighted>
1.3337

> <Gold.Chemscore.DEInternal.Weighted>
1.9119

> <Gold.Chemscore.Rot.Weighted>
7.0734

> <Gold.Chemscore.Internal.Correction.Weighted>
   9.000000E+99

> <Gold.Protein.RotatedTorsions>
[ 6907 6896 6895 6894 ] final   -1.14 input  -60.11 | X-H torsion
[ 7974 7965 7964 7962 ] final  -65.91 input  175.53 | X-H torsion
[ 8008 7997 7996 7995 ] final -131.33 input   59.86 | X-H torsion
[ 10167 10162 10161 10158 ] final  -79.97 input  -65.29 | X-H torsion
[ 10718 10713 10712 10709 ] final  -68.94 input   66.30 | X-H torsion
[ 10763 10752 10751 10750 ] final  -44.37 input  -60.55 | X-H torsion
[ 11005 11000 10999 10996 ] final  -13.75 input  -57.11 | X-H torsion

> <Gold.Protein.ActiveResidues>
 VAL166  LYS551  ARG553  GLY616  TRP617  ASP618  TYR619  PRO620  LYS621  CYS622 
 ASP623  PHE694  ASN695  SER759  ASP760  ASP761  ALA762  ILE779  LEU786  VAL792 
 PHE793  MET794  SER795  GLU796  ALA797  LYS798  CYS799  TRP800  GLU811  SER814 

> <Gold.Protein.RotatedAtoms>
  151.5509  135.1067  159.9949 H   0  0  0  0  0  0  0  0  0  0  0  0  # atno 6907 bound_to 6896
  152.4492  133.7591  159.6747 H   0  0  0  0  0  0  0  0  0  0  0  0  # atno 6908 bound_to 6896
  150.8415  133.7861  159.3083 H   0  0  0  0  0  0  0  0  0  0  0  0  # atno 6909 bound_to 6896
  145.7484  140.8920  143.0493 H   0  0  0  0  0  0  0  0  0  0  0  0  # atno 7974 bound_to 7965
  155.3105  140.0457  157.3034 H   0  0  0  0  0  0  0  0  0  0  0  0  # atno 8008 bound_to 7997
  154.5435  140.2295  155.8567 H   0  0  0  0  0  0  0  0  0  0  0  0  # atno 8009 bound_to 7997
  156.1903  140.3052  155.9326 H   0  0  0  0  0  0  0  0  0  0  0  0  # atno 8010 bound_to 7997
  140.4545  143.2472  151.8440 H   0  0  0  0  0  0  0  0  0  0  0  0  # atno 10167 bound_to 10162
  156.0480  130.4303  150.2074 H   0  0  0  0  0  0  0  0  0  0  0  0  # atno 10718 bound_to 10713
  154.0110  135.6681  153.4765 H   0  0  0  0  0  0  0  0  0  0  0  0  # atno 10763 bound_to 10752
  153.0621  135.5022  154.8113 H   0  0  0  0  0  0  0  0  0  0  0  0  # atno 10764 bound_to 10752
  154.6996  135.3076  154.9325 H   0  0  0  0  0  0  0  0  0  0  0  0  # atno 10765 bound_to 10752
  140.7794  133.8375  155.9278 H   0  0  0  0  0  0  0  0  0  0  0  0  # atno 11005 bound_to 11000
  144.6855  139.9557  143.7479 LP  0  0  0  0  0  0  0  0  0  0  0  0  # atno 17320 bound_to 7965
  146.0380  139.3395  143.0714 LP  0  0  0  0  0  0  0  0  0  0  0  0  # atno 17321 bound_to 7965
  139.4800  144.5081  151.8970 LP  0  0  0  0  0  0  0  0  0  0  0  0  # atno 17342 bound_to 10162
  140.4167  144.2297  150.5887 LP  0  0  0  0  0  0  0  0  0  0  0  0  # atno 17343 bound_to 10162
  157.0161  130.9965  151.3352 LP  0  0  0  0  0  0  0  0  0  0  0  0  # atno 17370 bound_to 10713
  157.5376  130.8099  149.7991 LP  0  0  0  0  0  0  0  0  0  0  0  0  # atno 17371 bound_to 10713
  140.9497  134.1794  157.4736 LP  0  0  0  0  0  0  0  0  0  0  0  0  # atno 17394 bound_to 11000
  139.8744  134.9904  156.5503 LP  0  0  0  0  0  0  0  0  0  0  0  0  # atno 17395 bound_to 11000

$$$$
