AV-unprocessed.smi:2229|AV-procd|sdf|9031|dock4
  -GOLD-   2272012233D 1   1.00000     0.00000
 Structure written by MMmdl.
 43 44  0  0  0  0  0  0  0  0  2 V2000
  152.0547  144.4899  158.6275 C   0  0  0  0  0  0  0  0  0  0  0  0
  151.9464  143.1349  159.3433 C   0  0  0  0  0  0  0  0  0  0  0  0
  153.2240  142.8579  160.1557 C   0  0  0  0  0  0  0  0  0  0  0  0
  151.6366  142.0098  158.3344 C   0  0  0  0  0  0  0  0  0  0  0  0
  150.3109  142.1972  157.5760 C   0  0  0  0  0  0  0  0  0  0  0  0
  150.0176  141.0657  156.5736 C   0  0  2  0  0  0  0  0  0  0  0  0
  151.1351  140.7867  155.5655 C   0  0  0  0  0  0  0  0  0  0  0  0
  150.4385  139.9944  154.4623 C   0  0  0  0  0  0  0  0  0  0  0  0
  149.0384  140.6080  154.3593 C   0  0  0  0  0  0  0  0  0  0  0  0
  148.7704  141.3163  155.7015 C   0  0  1  0  0  0  0  0  0  0  0  0
  147.5724  140.7901  156.3492 N   0  0  0  0  0  0  0  0  0  0  0  0
  146.3463  141.3263  156.2544 C   0  0  0  0  0  0  0  0  0  0  0  0
  146.0742  142.2726  155.5145 O   0  0  0  0  0  0  0  0  0  0  0  0
  145.2595  140.6879  157.1262 C   0  0  0  0  0  0  0  0  0  0  0  0
  145.6099  140.6956  158.5491 N   0  0  0  0  0  0  0  0  0  0  0  0
  146.0116  141.8268  159.2138 C   0  0  0  0  0  0  0  0  0  0  0  0
  146.2500  141.5686  160.4495 N   0  0  0  0  0  0  0  0  0  0  0  0
  145.9930  140.1720  160.6292 N   0  5  0  0  0  0  0  0  0  0  0  0
  145.6043  139.6906  159.4278 C   0  0  0  0  0  0  0  0  0  0  0  0
  145.2859  138.5387  159.1335 O   0  0  0  0  0  0  0  0  0  0  0  0
  152.8731  144.4926  157.9068 H   0  0  0  0  0  0  0  0  0  0  0  0
  152.2345  145.2974  159.3378 H   0  0  0  0  0  0  0  0  0  0  0  0
  151.1363  144.7267  158.0897 H   0  0  0  0  0  0  0  0  0  0  0  0
  151.1114  143.2047  160.0419 H   0  0  0  0  0  0  0  0  0  0  0  0
  154.0878  142.7244  159.5036 H   0  0  0  0  0  0  0  0  0  0  0  0
  153.1309  141.9625  160.7694 H   0  0  0  0  0  0  0  0  0  0  0  0
  153.4456  143.6844  160.8313 H   0  0  0  0  0  0  0  0  0  0  0  0
  152.4444  141.9555  157.6038 H   0  0  0  0  0  0  0  0  0  0  0  0
  151.6337  141.0498  158.8524 H   0  0  0  0  0  0  0  0  0  0  0  0
  149.4926  142.2335  158.2933 H   0  0  0  0  0  0  0  0  0  0  0  0
  150.3090  143.1601  157.0641 H   0  0  0  0  0  0  0  0  0  0  0  0
  149.8594  140.1438  157.1372 H   0  0  0  0  0  0  0  0  0  0  0  0
  151.5213  141.7235  155.1611 H   0  0  0  0  0  0  0  0  0  0  0  0
  151.9704  140.2395  156.0037 H   0  0  0  0  0  0  0  0  0  0  0  0
  150.9809  140.0259  153.5170 H   0  0  0  0  0  0  0  0  0  0  0  0
  150.3570  138.9490  154.7629 H   0  0  0  0  0  0  0  0  0  0  0  0
  149.0111  141.3389  153.5503 H   0  0  0  0  0  0  0  0  0  0  0  0
  148.2943  139.8456  154.1240 H   0  0  0  0  0  0  0  0  0  0  0  0
  148.6662  142.3846  155.5010 H   0  0  0  0  0  0  0  0  0  0  0  0
  147.6985  140.0071  156.9739 H   0  0  0  0  0  0  0  0  0  0  0  0
  144.3217  141.2174  156.9519 H   0  0  0  0  0  0  0  0  0  0  0  0
  145.0927  139.6548  156.8163 H   0  0  0  0  0  0  0  0  0  0  0  0
  146.0913  142.7776  158.6844 H   0  0  0  0  0  0  0  0  0  0  0  0
  1  2  1  0  0  0  0
  1 21  1  0  0  0  0
  1 22  1  0  0  0  0
  1 23  1  0  0  0  0
  2  3  1  0  0  0  0
  2  4  1  0  0  0  0
  2 24  1  0  0  0  0
  3 25  1  0  0  0  0
  3 26  1  0  0  0  0
  3 27  1  0  0  0  0
  4  5  1  0  0  0  0
  4 28  1  0  0  0  0
  4 29  1  0  0  0  0
  5  6  1  0  0  0  0
  5 30  1  0  0  0  0
  5 31  1  0  0  0  0
  6 10  1  0  0  0  0
  6  7  1  0  0  0  0
  6 32  1  0  0  0  0
  7  8  1  0  0  0  0
  7 33  1  0  0  0  0
  7 34  1  0  0  0  0
  8  9  1  0  0  0  0
  8 35  1  0  0  0  0
  8 36  1  0  0  0  0
  9 10  1  0  0  0  0
  9 37  1  0  0  0  0
  9 38  1  0  0  0  0
 10 11  1  0  0  0  0
 10 39  1  0  0  0  0
 11 12  1  0  0  0  0
 11 40  1  0  0  0  0
 12 13  2  0  0  0  0
 12 14  1  0  0  0  0
 14 15  1  0  0  0  0
 14 41  1  0  0  0  0
 14 42  1  0  0  0  0
 15 19  1  0  0  0  0
 15 16  1  0  0  0  0
 16 17  2  0  0  0  0
 16 43  1  0  0  0  0
 17 18  1  0  0  0  0
 18 19  1  0  0  0  0
 19 20  2  0  0  0  0
M  CHG  1  18  -1
M  END
> <s_m_source_file>
AV-unprocessed.smi

> <i_m_source_file_index>
2229

> <i_lp_mmshare_version>
43012

> <i_f3d_flags>
0

> <s_epik_input>
W0NIM11bQ0hdKFtDSDNdKVtDSDJdW0NIMl1bQ0BASF0xW0NIMl1bQ0gyXVtDSDJdW0NASF0xW05IXUMoPU8pW0NIMl1uMltjSF1uW25IXWMyPU8=

> <s_epik_cmdline>
J2VwaWtfcHl0aG9uJywgJy1waCcsICc3LjAnLCAnLXRuJywgJzgnLCAnLW1hJywgJzIwMCcsICctbWV0YWxfYmluZGluZycsICctaW1hZScsICc8aW5maWxlLm1hZT4nLCAnLW9tYWUnLCAnPG91dGZpbGUubWFlPic=

> <r_lp_tautomer_probability>
1

> <r_epik_Ionization_Penalty>
13.6733

> <r_epik_Ionization_Penalty_Charging>
13.6725

> <r_epik_Ionization_Penalty_Neutral>
0.000837689

> <r_epik_State_Penalty>
5.67062

> <r_epik_Charging_Adjusted_Penalty>
19.3431

> <i_epik_Tot_Q>
-1

> <i_epik_Tot_abs_Q>
1

> <r_epik_Metal_State_Penalty>
1.61781

> <b_epik_Metal_Only>
1

> <s_lp_Force_Field>
OPLS_2005

> <r_lp_Energy>
25.828

> <b_lp_Chiralities_Consistent>
1

> <s_lp_Variant>
AV-unprocessed.smi:2229-5

> <Gold.Version>
5.8.1

> <Gold.Id.Protein>
6NUR|6NUR_protein|mol2

> <Gold.PLP.Fitness>
40.8943

> <Gold.PLP.PLP>
-33.2097

> <Gold.PLP.part.hbond>
-1.0000

> <Gold.PLP.part.metal>
0.0000

> <Gold.PLP.part.buried>
-4.7310

> <Gold.PLP.part.nonpolar>
-29.7462

> <Gold.PLP.part.repulsive>
0.6651

> <Gold.PLP.ligand.clash>
0.0000

> <Gold.PLP.ligand.torsion>
0.4636

> <Gold.PLP.Chemscore.Hbond>
2.0000

> <Gold.PLP.Chemscore.CHOScore>
0.8588

> <Gold.PLP.Chemscore.Metal>
0.0000

> <Gold.PLP.Chemscore.Internal.Correction>
0.0355

> <Gold.Rescore>
     Score         DG    S(hbond)    S(metal)    S(lipo)     H(rot)  DE(clash)    DE(int)     intcor
     10.16     -10.70       0.45        0.00      88.52       2.59       0.03       0.52       ----

> <Gold.Chemscore.Fitness>
10.1563

> <Gold.Chemscore.DG>
-10.7047

> <Gold.Chemscore.ZeroCoef>
-5.4800

> <Gold.Chemscore.Hbond>
0.4517

> <Gold.Chemscore.Metal>
0.0000

> <Gold.Chemscore.Lipo>
88.5162

> <Gold.Chemscore.Internal_Hbond>
0.0000

> <Gold.Chemscore.DEClash>
0.0308

> <Gold.Chemscore.DEInternal>
0.5176

> <Gold.Chemscore.Rot>
2.5939

> <Gold.Chemscore.Internal.Correction>
   9.000000E+99

> <Gold.Chemscore.Hbond.Weighted>
-1.5088

> <Gold.Chemscore.Metal.Weighted>
-0.0000

> <Gold.Chemscore.Lipo.Weighted>
-10.3564

> <Gold.Chemscore.Internal_Hbond.Weighted>
0.0000

> <Gold.Chemscore.DEClash.Weighted>
0.0308

> <Gold.Chemscore.DEInternal.Weighted>
0.5176

> <Gold.Chemscore.Rot.Weighted>
6.6405

> <Gold.Chemscore.Internal.Correction.Weighted>
   9.000000E+99

> <Gold.Protein.RotatedTorsions>
[ 6907 6896 6895 6894 ] final -160.47 input  -60.11 | X-H torsion
[ 7974 7965 7964 7962 ] final -178.56 input  175.53 | X-H torsion
[ 8008 7997 7996 7995 ] final   48.37 input   59.86 | X-H torsion
[ 10167 10162 10161 10158 ] final   80.60 input  -65.29 | X-H torsion
[ 10718 10713 10712 10709 ] final   -1.38 input   66.30 | X-H torsion
[ 10763 10752 10751 10750 ] final   16.00 input  -60.55 | X-H torsion
[ 11005 11000 10999 10996 ] final -158.94 input  -57.11 | X-H torsion

> <Gold.Protein.ActiveResidues>
 VAL166  LYS551  ARG553  GLY616  TRP617  ASP618  TYR619  PRO620  LYS621  CYS622 
 ASP623  PHE694  ASN695  SER759  ASP760  ASP761  ALA762  ILE779  LEU786  VAL792 
 PHE793  MET794  SER795  GLU796  ALA797  LYS798  CYS799  TRP800  GLU811  SER814 

> <Gold.Protein.RotatedAtoms>
  151.3495  133.3931  159.2678 H   0  0  0  0  0  0  0  0  0  0  0  0  # atno 6907 bound_to 6896
  150.9812  134.9168  159.7856 H   0  0  0  0  0  0  0  0  0  0  0  0  # atno 6908 bound_to 6896
  152.5218  134.3459  159.9286 H   0  0  0  0  0  0  0  0  0  0  0  0  # atno 6909 bound_to 6896
  144.7131  140.0850  143.6424 H   0  0  0  0  0  0  0  0  0  0  0  0  # atno 7974 bound_to 7965
  155.3846  140.3430  155.4248 H   0  0  0  0  0  0  0  0  0  0  0  0  # atno 8008 bound_to 7997
  156.1591  140.1595  156.8675 H   0  0  0  0  0  0  0  0  0  0  0  0  # atno 8009 bound_to 7997
  154.5123  140.0787  156.7995 H   0  0  0  0  0  0  0  0  0  0  0  0  # atno 8010 bound_to 7997
  139.9480  144.6045  150.8188 H   0  0  0  0  0  0  0  0  0  0  0  0  # atno 10167 bound_to 10162
  156.8065  130.5410  149.5714 H   0  0  0  0  0  0  0  0  0  0  0  0  # atno 10718 bound_to 10713
  153.1472  135.6771  153.8936 H   0  0  0  0  0  0  0  0  0  0  0  0  # atno 10763 bound_to 10752
  153.8374  135.3110  155.3425 H   0  0  0  0  0  0  0  0  0  0  0  0  # atno 10764 bound_to 10752
  154.7834  135.4875  153.9979 H   0  0  0  0  0  0  0  0  0  0  0  0  # atno 10765 bound_to 10752
  140.6481  134.4480  157.5234 H   0  0  0  0  0  0  0  0  0  0  0  0  # atno 11005 bound_to 11000
  145.9669  139.2841  143.1122 LP  0  0  0  0  0  0  0  0  0  0  0  0  # atno 17320 bound_to 7965
  145.9159  140.9148  143.0430 LP  0  0  0  0  0  0  0  0  0  0  0  0  # atno 17321 bound_to 7965
  140.7591  143.3122  151.2818 LP  0  0  0  0  0  0  0  0  0  0  0  0  # atno 17342 bound_to 10162
  139.6651  144.0120  152.2717 LP  0  0  0  0  0  0  0  0  0  0  0  0  # atno 17343 bound_to 10162
  156.1070  130.6012  150.9987 LP  0  0  0  0  0  0  0  0  0  0  0  0  # atno 17370 bound_to 10713
  157.6528  131.0894  150.8014 LP  0  0  0  0  0  0  0  0  0  0  0  0  # atno 17371 bound_to 10713
  139.9056  134.8458  156.1721 LP  0  0  0  0  0  0  0  0  0  0  0  0  # atno 17394 bound_to 11000
  141.0557  133.6866  156.1856 LP  0  0  0  0  0  0  0  0  0  0  0  0  # atno 17395 bound_to 11000

$$$$
