AV-unprocessed.smi:21|AV-procd|sdf|129|dock2
  -GOLD-   2262015313D 1   1.00000     0.00000
 Structure written by MMmdl.
 62 65  0  0  0  0  0  0  0  0  2 V2000
  144.6275  132.4892  149.7125 C   0  0  0  0  0  0  0  0  0  0  0  0
  144.7904  132.6302  151.1143 O   0  0  0  0  0  0  0  0  0  0  0  0
  145.7402  131.7309  151.6662 C   0  0  1  0  0  0  0  0  0  0  0  0
  146.0731  132.1200  153.1000 C   0  0  0  0  0  0  0  0  0  0  0  0
  146.6067  130.8136  153.6918 C   0  0  1  0  0  0  0  0  0  0  0  0
  146.5065  130.7533  155.2320 C   0  0  0  0  0  0  0  0  0  0  0  0
  147.7081  130.2242  155.8759 N   0  0  0  0  0  0  0  0  0  0  0  0
  148.2852  129.0095  155.3168 C   0  0  0  0  0  0  0  0  0  0  0  0
  148.6501  131.0942  156.3148 C   0  0  0  0  0  0  0  0  0  0  0  0
  149.3959  130.7053  157.3794 N   0  0  0  0  0  0  0  0  0  0  0  0
  150.3259  131.5214  157.8841 C   0  0  0  0  0  0  0  0  0  0  0  0
  150.6660  132.7477  157.4830 N   0  0  0  0  0  0  0  0  0  0  0  0
  149.9292  133.1376  156.4039 C   0  0  0  0  0  0  0  0  0  0  0  0
  148.9143  132.3790  155.7549 C   0  0  0  0  0  0  0  0  0  0  0  0
  148.3984  133.1048  154.6861 N   0  0  0  0  0  0  0  0  0  0  0  0
  149.0601  134.2290  154.7101 C   0  0  0  0  0  0  0  0  0  0  0  0
  149.9895  134.3371  155.7186 N   0  0  0  0  0  0  0  0  0  0  0  0
  150.8489  135.4733  155.9951 C   0  0  0  0  0  0  0  0  0  0  0  0
  150.6207  136.0896  157.3973 C   0  0  2  0  0  0  0  0  0  0  0  0
  149.1846  135.8581  157.9365 C   0  0  0  0  0  0  0  0  0  0  0  0
  149.1329  135.9294  159.3474 O   0  0  0  0  0  0  0  0  0  0  0  0
  151.0398  137.5822  157.3916 C   0  0  1  0  0  0  0  0  0  0  0  0
  151.0644  138.2745  158.7509 C   0  0  0  0  0  0  0  0  0  0  0  0
  152.1286  139.3443  158.5525 C   0  0  0  0  0  0  0  0  0  0  0  0
  153.1059  138.6686  157.7799 O   0  0  0  0  0  0  0  0  0  0  0  0
  152.4336  137.8760  156.8078 C   0  0  0  0  0  0  0  0  0  0  0  0
  145.8053  129.7452  153.0513 N   0  3  2  0  0  0  0  0  0  0  0  0
  146.5437  128.4798  152.8450 C   0  0  0  0  0  0  0  0  0  0  0  0
  145.2063  130.2994  151.8137 C   0  0  0  0  0  0  0  0  0  0  0  0
  146.6622  131.7305  151.0813 H   0  0  0  0  0  0  0  0  0  0  0  0
  147.6393  130.6950  153.3599 H   0  0  0  0  0  0  0  0  0  0  0  0
  143.8999  133.2181  149.3558 H   0  0  0  0  0  0  0  0  0  0  0  0
  144.2618  131.4964  149.4483 H   0  0  0  0  0  0  0  0  0  0  0  0
  145.5660  132.6680  149.1863 H   0  0  0  0  0  0  0  0  0  0  0  0
  146.7922  132.9377  153.1604 H   0  0  0  0  0  0  0  0  0  0  0  0
  145.1666  132.4301  153.6224 H   0  0  0  0  0  0  0  0  0  0  0  0
  146.3232  131.7581  155.6147 H   0  0  0  0  0  0  0  0  0  0  0  0
  145.6446  130.1622  155.5397 H   0  0  0  0  0  0  0  0  0  0  0  0
  148.8534  128.4649  156.0715 H   0  0  0  0  0  0  0  0  0  0  0  0
  148.9525  129.2457  154.4871 H   0  0  0  0  0  0  0  0  0  0  0  0
  147.5055  128.3439  154.9458 H   0  0  0  0  0  0  0  0  0  0  0  0
  150.8726  131.1391  158.7336 H   0  0  0  0  0  0  0  0  0  0  0  0
  148.8784  135.0202  153.9974 H   0  0  0  0  0  0  0  0  0  0  0  0
  151.8817  135.1384  155.8923 H   0  0  0  0  0  0  0  0  0  0  0  0
  150.6900  136.2238  155.2200 H   0  0  0  0  0  0  0  0  0  0  0  0
  151.3098  135.5960  158.0849 H   0  0  0  0  0  0  0  0  0  0  0  0
  148.4942  136.6099  157.5559 H   0  0  0  0  0  0  0  0  0  0  0  0
  148.7986  134.8906  157.6151 H   0  0  0  0  0  0  0  0  0  0  0  0
  148.3026  136.3057  159.5966 H   0  0  0  0  0  0  0  0  0  0  0  0
  150.3296  138.1257  156.7658 H   0  0  0  0  0  0  0  0  0  0  0  0
  150.0970  138.6897  159.0345 H   0  0  0  0  0  0  0  0  0  0  0  0
  151.3836  137.5967  159.5417 H   0  0  0  0  0  0  0  0  0  0  0  0
  151.7349  140.1920  157.9901 H   0  0  0  0  0  0  0  0  0  0  0  0
  152.5398  139.7117  159.4931 H   0  0  0  0  0  0  0  0  0  0  0  0
  153.0132  136.9797  156.5880 H   0  0  0  0  0  0  0  0  0  0  0  0
  152.3453  138.4415  155.8793 H   0  0  0  0  0  0  0  0  0  0  0  0
  147.3863  128.6213  152.1667 H   0  0  0  0  0  0  0  0  0  0  0  0
  145.8863  127.7201  152.4213 H   0  0  0  0  0  0  0  0  0  0  0  0
  146.9274  128.0995  153.7919 H   0  0  0  0  0  0  0  0  0  0  0  0
  144.1240  130.3084  151.9471 H   0  0  0  0  0  0  0  0  0  0  0  0
  145.4222  129.6982  150.9291 H   0  0  0  0  0  0  0  0  0  0  0  0
  145.0340  129.5463  153.6725 H   0  0  0  0  0  0  0  0  0  0  0  0
  1  2  1  0  0  0  0
  1 32  1  0  0  0  0
  1 33  1  0  0  0  0
  1 34  1  0  0  0  0
  2  3  1  0  0  0  0
  3 30  1  0  0  0  0
  3 29  1  0  0  0  0
  3  4  1  0  0  0  0
  4  5  1  0  0  0  0
  4 35  1  0  0  0  0
  4 36  1  0  0  0  0
  5 31  1  0  0  0  0
  5  6  1  0  0  0  0
  5 27  1  0  0  0  0
  6  7  1  0  0  0  0
  6 37  1  0  0  0  0
  6 38  1  0  0  0  0
  7  8  1  0  0  0  0
  7  9  1  0  0  0  0
  8 39  1  0  0  0  0
  8 40  1  0  0  0  0
  8 41  1  0  0  0  0
  9 14  1  0  0  0  0
  9 10  2  0  0  0  0
 10 11  1  0  0  0  0
 11 12  2  0  0  0  0
 11 42  1  0  0  0  0
 12 13  1  0  0  0  0
 13 17  1  0  0  0  0
 13 14  2  0  0  0  0
 14 15  1  0  0  0  0
 15 16  2  0  0  0  0
 16 17  1  0  0  0  0
 16 43  1  0  0  0  0
 17 18  1  0  0  0  0
 18 19  1  0  0  0  0
 18 44  1  0  0  0  0
 18 45  1  0  0  0  0
 19 20  1  0  0  0  0
 19 22  1  0  0  0  0
 19 46  1  0  0  0  0
 20 21  1  0  0  0  0
 20 47  1  0  0  0  0
 20 48  1  0  0  0  0
 21 49  1  0  0  0  0
 22 26  1  0  0  0  0
 22 23  1  0  0  0  0
 22 50  1  0  0  0  0
 23 24  1  0  0  0  0
 23 51  1  0  0  0  0
 23 52  1  0  0  0  0
 24 25  1  0  0  0  0
 24 53  1  0  0  0  0
 24 54  1  0  0  0  0
 25 26  1  0  0  0  0
 26 55  1  0  0  0  0
 26 56  1  0  0  0  0
 27 28  1  0  0  0  0
 27 29  1  0  0  0  0
 27 62  1  0  0  0  0
 28 57  1  0  0  0  0
 28 58  1  0  0  0  0
 28 59  1  0  0  0  0
 29 60  1  0  0  0  0
 29 61  1  0  0  0  0
M  CHG  1  27   1
M  END
> <s_m_source_file>
AV-unprocessed.smi

> <i_m_source_file_index>
21

> <i_lp_mmshare_version>
43012

> <i_f3d_flags>
0

> <s_epik_input>
W0NIM11PW0NASF0xW0NIMl1bQ0BIXShOKFtDSDNdKVtDSDJdMSlbQ0gyXU4oW0NIM10pYyhuW2NIXW4yKWMoYzIzKW5bY0hdbjNbQ0gyXVtDQEhdKFtDSDJdW09IXSlbQ0BASF00W0NIMl1bQ0gyXU9bQ0gyXTQ=

> <s_epik_cmdline>
J2VwaWtfcHl0aG9uJywgJy1waCcsICc3LjAnLCAnLXRuJywgJzgnLCAnLW1hJywgJzIwMCcsICctbWV0YWxfYmluZGluZycsICctaW1hZScsICc8aW5maWxlLm1hZT4nLCAnLW9tYWUnLCAnPG91dGZpbGUubWFlPic=

> <r_lp_tautomer_probability>
1

> <r_epik_Ionization_Penalty>
0.0157465

> <r_epik_Ionization_Penalty_Charging>
0.015354

> <r_epik_Ionization_Penalty_Neutral>
0.000392529

> <r_epik_State_Penalty>
0.0120612

> <r_epik_Charging_Adjusted_Penalty>
0.0274152

> <i_epik_Tot_Q>
1

> <i_epik_Tot_abs_Q>
1

> <r_epik_Metal_State_Penalty>
0.0121253

> <b_epik_Metal_Only>
0

> <s_lp_Force_Field>
OPLS_2005

> <r_lp_Energy>
59.3761

> <b_lp_Chiralities_Consistent>
1

> <s_lp_Variant>
AV-unprocessed.smi:21-9

> <Gold.Version>
5.8.1

> <Gold.Id.Protein>
6NUR|6NUR_protein|mol2

> <Gold.PLP.Fitness>
45.8246

> <Gold.PLP.PLP>
-31.2521

> <Gold.PLP.part.hbond>
-3.9937

> <Gold.PLP.part.metal>
0.0000

> <Gold.PLP.part.buried>
-6.5226

> <Gold.PLP.part.nonpolar>
-23.2741

> <Gold.PLP.part.repulsive>
0.1831

> <Gold.PLP.ligand.clash>
0.0000

> <Gold.PLP.ligand.torsion>
2.0309

> <Gold.PLP.Chemscore.Hbond>
4.7825

> <Gold.PLP.Chemscore.CHOScore>
1.0000

> <Gold.PLP.Chemscore.Metal>
0.0000

> <Gold.Chemscore.Hbonds>
donor molecule, donor type, donor heavy atom, donor atom, acceptor molecule, acceptor atom, score
      L1  H    27    62       P1 10956  1.82
      P1  H  6896  6907       L1    12  0.85
      P1  H  6896  6908       L1    21  0.79
      P1  H  7997  8010       L1    25  0.68
      L1  C    16    43       P1  7948  1.00

> <Gold.PLP.Chemscore.Internal.Correction>
1.2868

> <Gold.Rescore>
     Score         DG    S(hbond)    S(metal)    S(lipo)     H(rot)  DE(clash)    DE(int)     intcor
     12.06     -15.26       2.66        0.00      80.89       3.35       0.20       2.99       ----

> <Gold.Chemscore.Fitness>
12.0594

> <Gold.Chemscore.DG>
-15.2562

> <Gold.Chemscore.ZeroCoef>
-5.4800

> <Gold.Chemscore.Hbond>
2.6574

> <Gold.Chemscore.Metal>
0.0000

> <Gold.Chemscore.Lipo>
80.8891

> <Gold.Chemscore.Internal_Hbond>
0.0000

> <Gold.Chemscore.DEClash>
0.2045

> <Gold.Chemscore.DEInternal>
2.9923

> <Gold.Chemscore.Rot>
3.3452

> <Gold.Chemscore.Internal.Correction>
   9.000000E+99

> <Gold.Chemscore.Hbonds>
donor molecule, donor type, donor heavy atom, donor atom, acceptor molecule, acceptor atom, score
      L1  H    27    62       P1 10956  0.48
      P1  H  6896  6907       L1    12  0.14
      P1  H  6896  6908       L1    21  0.17
      P1  H  7997  8010       L1    25  0.41

> <Gold.Chemscore.Hbond.Weighted>
-8.8759

> <Gold.Chemscore.Metal.Weighted>
-0.0000

> <Gold.Chemscore.Lipo.Weighted>
-9.4640

> <Gold.Chemscore.Internal_Hbond.Weighted>
0.0000

> <Gold.Chemscore.DEClash.Weighted>
0.2045

> <Gold.Chemscore.DEInternal.Weighted>
2.9923

> <Gold.Chemscore.Rot.Weighted>
8.5636

> <Gold.Chemscore.Internal.Correction.Weighted>
   9.000000E+99

> <Gold.Protein.RotatedTorsions>
[ 6907 6896 6895 6894 ] final -158.03 input  -60.11 | X-H torsion
[ 7974 7965 7964 7962 ] final  -14.30 input  175.53 | X-H torsion
[ 8008 7997 7996 7995 ] final   51.14 input   59.86 | X-H torsion
[ 10167 10162 10161 10158 ] final  134.82 input  -65.29 | X-H torsion
[ 10718 10713 10712 10709 ] final  128.26 input   66.30 | X-H torsion
[ 10763 10752 10751 10750 ] final  126.25 input  -60.55 | X-H torsion
[ 11005 11000 10999 10996 ] final  151.62 input  -57.11 | X-H torsion

> <Gold.Protein.ActiveResidues>
 VAL166  LYS551  ARG553  GLY616  TRP617  ASP618  TYR619  PRO620  LYS621  CYS622 
 ASP623  PHE694  ASN695  SER759  ASP760  ASP761  ALA762  ILE779  LEU786  VAL792 
 PHE793  MET794  SER795  GLU796  ALA797  LYS798  CYS799  TRP800  GLU811  SER814 

> <Gold.Protein.RotatedAtoms>
  151.3120  133.4076  159.2647 H   0  0  0  0  0  0  0  0  0  0  0  0  # atno 6907 bound_to 6896
  151.0107  134.9395  159.8015 H   0  0  0  0  0  0  0  0  0  0  0  0  # atno 6908 bound_to 6896
  152.5300  134.3084  159.9157 H   0  0  0  0  0  0  0  0  0  0  0  0  # atno 6909 bound_to 6896
  146.2080  140.3328  142.8400 H   0  0  0  0  0  0  0  0  0  0  0  0  # atno 7974 bound_to 7965
  155.4304  140.3450  155.4279 H   0  0  0  0  0  0  0  0  0  0  0  0  # atno 8008 bound_to 7997
  156.1340  140.1522  156.9053 H   0  0  0  0  0  0  0  0  0  0  0  0  # atno 8009 bound_to 7997
  154.4917  140.0839  156.7588 H   0  0  0  0  0  0  0  0  0  0  0  0  # atno 8010 bound_to 7997
  139.5241  144.6548  151.5195 H   0  0  0  0  0  0  0  0  0  0  0  0  # atno 10167 bound_to 10162
  157.5260  131.1098  150.9082 H   0  0  0  0  0  0  0  0  0  0  0  0  # atno 10718 bound_to 10713
  153.6903  135.3300  155.3200 H   0  0  0  0  0  0  0  0  0  0  0  0  # atno 10763 bound_to 10752
  154.8441  135.4430  154.1515 H   0  0  0  0  0  0  0  0  0  0  0  0  # atno 10764 bound_to 10752
  153.2555  135.6986  153.7711 H   0  0  0  0  0  0  0  0  0  0  0  0  # atno 10765 bound_to 10752
  140.1235  134.8848  157.2105 H   0  0  0  0  0  0  0  0  0  0  0  0  # atno 11005 bound_to 11000
  144.8840  140.7438  143.5968 LP  0  0  0  0  0  0  0  0  0  0  0  0  # atno 17320 bound_to 7965
  145.3249  139.1777  143.4568 LP  0  0  0  0  0  0  0  0  0  0  0  0  # atno 17321 bound_to 7965
  140.6369  143.8967  150.6655 LP  0  0  0  0  0  0  0  0  0  0  0  0  # atno 17342 bound_to 10162
  140.2289  143.3751  152.1582 LP  0  0  0  0  0  0  0  0  0  0  0  0  # atno 17343 bound_to 10162
  156.9678  130.5479  149.5289 LP  0  0  0  0  0  0  0  0  0  0  0  0  # atno 17370 bound_to 10713
  156.0387  130.5472  150.8718 LP  0  0  0  0  0  0  0  0  0  0  0  0  # atno 17371 bound_to 10713
  140.2934  134.3214  155.7309 LP  0  0  0  0  0  0  0  0  0  0  0  0  # atno 17394 bound_to 11000
  141.2156  133.7548  156.9536 LP  0  0  0  0  0  0  0  0  0  0  0  0  # atno 17395 bound_to 11000

$$$$
