AV-unprocessed.smi:39|AV-procd|sdf|356|dock3
  -GOLD-   2262016193D 1   1.00000     0.00000
 Structure written by MMmdl.
 32 33  0  0  0  0  0  0  0  0  3 V2000
  152.3863  142.1138  159.8219 C   0  0  0  0  0  0  0  0  0  0  0  0
  151.8205  141.8425  158.4375 C   0  0  0  0  0  0  0  0  0  0  0  0
  152.0610  140.6865  157.7671 C   0  0  0  0  0  0  0  0  0  0  0  0
  151.5534  140.4054  156.5033 N   0  0  0  0  0  0  0  0  0  0  0  0
  151.8583  139.1135  155.7679 C   0  0  2  0  0  0  0  0  0  0  0  0
  150.5822  138.4767  155.1919 C   0  0  0  0  0  0  0  0  0  0  0  0
  150.8054  137.0086  155.4884 C   0  0  2  0  0  0  0  0  0  0  0  0
  149.5631  136.2311  155.4814 N   0  0  0  0  0  0  0  0  0  0  0  0
  149.3863  135.4670  156.4395 N   0  3  0  0  0  0  0  0  0  0  0  0
  149.1851  134.8676  157.3857 N   0  5  0  0  0  0  0  0  0  0  0  0
  151.5322  137.0619  156.8409 C   0  0  2  0  0  0  0  0  0  0  0  0
  150.6275  137.3045  158.0711 C   0  0  0  0  0  0  0  0  0  0  0  0
  151.3172  136.9472  159.2494 O   0  0  0  0  0  0  0  0  0  0  0  0
  152.4068  138.1751  156.6537 O   0  0  0  0  0  0  0  0  0  0  0  0
  150.7887  141.3879  155.8396 C   0  0  0  0  0  0  0  0  0  0  0  0
  150.3520  141.2351  154.6995 O   0  0  0  0  0  0  0  0  0  0  0  0
  150.5369  142.5723  156.5291 N   0  0  0  0  0  0  0  0  0  0  0  0
  150.9959  142.8793  157.8116 C   0  0  0  0  0  0  0  0  0  0  0  0
  150.7005  143.9592  158.3205 O   0  0  0  0  0  0  0  0  0  0  0  0
  152.6012  139.3773  155.0126 H   0  0  0  0  0  0  0  0  0  0  0  0
  151.4981  136.6194  154.7388 H   0  0  0  0  0  0  0  0  0  0  0  0
  152.1130  136.1499  156.9858 H   0  0  0  0  0  0  0  0  0  0  0  0
  149.9809  143.2717  156.0588 H   0  0  0  0  0  0  0  0  0  0  0  0
  152.9769  141.2746  160.1908 H   0  0  0  0  0  0  0  0  0  0  0  0
  151.5806  142.2926  160.5347 H   0  0  0  0  0  0  0  0  0  0  0  0
  153.0303  142.9937  159.8041 H   0  0  0  0  0  0  0  0  0  0  0  0
  152.6857  139.9578  158.2604 H   0  0  0  0  0  0  0  0  0  0  0  0
  149.7041  138.8520  155.7206 H   0  0  0  0  0  0  0  0  0  0  0  0
  150.4775  138.6931  154.1284 H   0  0  0  0  0  0  0  0  0  0  0  0
  150.2787  138.3344  158.1339 H   0  0  0  0  0  0  0  0  0  0  0  0
  149.7404  136.6733  158.0292 H   0  0  0  0  0  0  0  0  0  0  0  0
  151.4129  137.7185  159.7871 H   0  0  0  0  0  0  0  0  0  0  0  0
  1  2  1  0  0  0  0
  1 24  1  0  0  0  0
  1 25  1  0  0  0  0
  1 26  1  0  0  0  0
  2 18  1  0  0  0  0
  2  3  2  0  0  0  0
  3  4  1  0  0  0  0
  3 27  1  0  0  0  0
  4  5  1  0  0  0  0
  4 15  1  0  0  0  0
  5 20  1  0  0  0  0
  5 14  1  0  0  0  0
  5  6  1  0  0  0  0
  6  7  1  0  0  0  0
  6 28  1  0  0  0  0
  6 29  1  0  0  0  0
  7 21  1  0  0  0  0
  7  8  1  0  0  0  0
  7 11  1  0  0  0  0
  8  9  2  0  0  0  0
  9 10  2  0  0  0  0
 11 22  1  0  0  0  0
 11 12  1  0  0  0  0
 11 14  1  0  0  0  0
 12 13  1  0  0  0  0
 12 30  1  0  0  0  0
 12 31  1  0  0  0  0
 13 32  1  0  0  0  0
 15 16  2  0  0  0  0
 15 17  1  0  0  0  0
 17 23  1  0  0  0  0
 17 18  1  0  0  0  0
 18 19  2  0  0  0  0
M  CHG  1   9   1
M  CHG  1  10  -1
M  END
> <s_m_source_file>
AV-unprocessed.smi

> <i_m_source_file_index>
39

> <i_lp_mmshare_version>
43012

> <i_f3d_flags>
0

> <s_epik_input>
Tz1jMVtuSF1jKD1PKW4oW2NIXWMxW0NIM10pW0NASF0yW0NIMl1bQ0BIXShOPVtOK109W04tXSlbQ0BIXShPMilbQ0gyXVtPSF0=

> <s_epik_cmdline>
J2VwaWtfcHl0aG9uJywgJy1waCcsICc3LjAnLCAnLXRuJywgJzgnLCAnLW1hJywgJzIwMCcsICctbWV0YWxfYmluZGluZycsICctaW1hZScsICc8aW5maWxlLm1hZT4nLCAnLW9tYWUnLCAnPG91dGZpbGUubWFlPic=

> <r_lp_tautomer_probability>
0.999537

> <r_epik_Ionization_Penalty>
0.00127512

> <r_epik_Ionization_Penalty_Charging>
0.00127507

> <r_epik_Ionization_Penalty_Neutral>
5.43433e-08

> <r_epik_State_Penalty>
0.000844892

> <r_epik_Charging_Adjusted_Penalty>
0.00211996

> <i_epik_Tot_Q>
0

> <i_epik_Tot_abs_Q>
2

> <r_epik_Metal_State_Penalty>
0.680636

> <b_epik_Metal_Only>
0

> <s_epik_Chemistry_Notes>
This compound contains an acetal/aminal-like group ( X-CH(R)-Y where X, Y are N, S, or O) that may be acid/base labile, releasing an aldehyde.

> <s_lp_Force_Field>
OPLS_2005

> <r_lp_Energy>
27.6629

> <b_lp_Chiralities_Consistent>
1

> <s_lp_Variant>
AV-unprocessed.smi:39-6

> <Gold.Version>
5.8.1

> <Gold.Id.Protein>
6NUR|6NUR_protein|mol2

> <Gold.PLP.Fitness>
37.0189

> <Gold.PLP.PLP>
-27.4065

> <Gold.PLP.part.hbond>
-4.0000

> <Gold.PLP.part.metal>
0.0000

> <Gold.PLP.part.buried>
-4.8031

> <Gold.PLP.part.nonpolar>
-18.7757

> <Gold.PLP.part.repulsive>
0.4262

> <Gold.PLP.ligand.clash>
0.0000

> <Gold.PLP.ligand.torsion>
0.6110

> <Gold.PLP.Chemscore.Hbond>
3.6000

> <Gold.PLP.Chemscore.CHOScore>
0.0000

> <Gold.PLP.Chemscore.Metal>
0.0000

> <Gold.Chemscore.Hbonds>
donor molecule, donor type, donor heavy atom, donor atom, acceptor molecule, acceptor atom, score
      L1  H    17    23       P1  8028  1.00
      P1  H  6896  6908       L1    13  0.76
      P1  H  7989  7998       L1    16  0.54

> <Gold.PLP.Chemscore.Internal.Correction>
0.0344

> <Gold.Rescore>
     Score         DG    S(hbond)    S(metal)    S(lipo)     H(rot)  DE(clash)    DE(int)     intcor
     11.52     -14.68       3.44        0.00      40.55       2.75       0.01       3.15       ----

> <Gold.Chemscore.Fitness>
11.5200

> <Gold.Chemscore.DG>
-14.6783

> <Gold.Chemscore.ZeroCoef>
-5.4800

> <Gold.Chemscore.Hbond>
3.4431

> <Gold.Chemscore.Metal>
0.0000

> <Gold.Chemscore.Lipo>
40.5507

> <Gold.Chemscore.Internal_Hbond>
0.0000

> <Gold.Chemscore.DEClash>
0.0126

> <Gold.Chemscore.DEInternal>
3.1457

> <Gold.Chemscore.Rot>
2.7524

> <Gold.Chemscore.Internal.Correction>
   9.000000E+99

> <Gold.Chemscore.Hbonds>
donor molecule, donor type, donor heavy atom, donor atom, acceptor molecule, acceptor atom, score
      L1  H    17    23       P1  8028  1.00
      P1  H  6896  6908       L1    13  0.69
      P1  H  7989  7998       L1    16  0.48

> <Gold.Chemscore.Hbond.Weighted>
-11.5000

> <Gold.Chemscore.Metal.Weighted>
-0.0000

> <Gold.Chemscore.Lipo.Weighted>
-4.7444

> <Gold.Chemscore.Internal_Hbond.Weighted>
0.0000

> <Gold.Chemscore.DEClash.Weighted>
0.0126

> <Gold.Chemscore.DEInternal.Weighted>
3.1457

> <Gold.Chemscore.Rot.Weighted>
7.0461

> <Gold.Chemscore.Internal.Correction.Weighted>
   9.000000E+99

> <Gold.Protein.RotatedTorsions>
[ 6907 6896 6895 6894 ] final -103.91 input  -60.11 | X-H torsion
[ 7974 7965 7964 7962 ] final  -60.46 input  175.53 | X-H torsion
[ 8008 7997 7996 7995 ] final  -98.80 input   59.86 | X-H torsion
[ 10167 10162 10161 10158 ] final -143.81 input  -65.29 | X-H torsion
[ 10718 10713 10712 10709 ] final -142.17 input   66.30 | X-H torsion
[ 10763 10752 10751 10750 ] final   84.63 input  -60.55 | X-H torsion
[ 11005 11000 10999 10996 ] final -158.22 input  -57.11 | X-H torsion

> <Gold.Protein.ActiveResidues>
 VAL166  LYS551  ARG553  GLY616  TRP617  ASP618  TYR619  PRO620  LYS621  CYS622 
 ASP623  PHE694  ASN695  SER759  ASP760  ASP761  ALA762  ILE779  LEU786  VAL792 
 PHE793  MET794  SER795  GLU796  ALA797  LYS798  CYS799  TRP800  GLU811  SER814 

> <Gold.Protein.RotatedAtoms>
  150.7262  134.0357  159.3748 H   0  0  0  0  0  0  0  0  0  0  0  0  # atno 6907 bound_to 6896
  151.8328  135.0614  160.0448 H   0  0  0  0  0  0  0  0  0  0  0  0  # atno 6908 bound_to 6896
  152.2921  133.5535  159.5600 H   0  0  0  0  0  0  0  0  0  0  0  0  # atno 6909 bound_to 6896
  145.8152  140.8574  143.0161 H   0  0  0  0  0  0  0  0  0  0  0  0  # atno 7974 bound_to 7965
  154.8062  140.0452  157.1309 H   0  0  0  0  0  0  0  0  0  0  0  0  # atno 8008 bound_to 7997
  154.9421  140.3054  155.5095 H   0  0  0  0  0  0  0  0  0  0  0  0  # atno 8009 bound_to 7997
  156.2967  140.2303  156.4491 H   0  0  0  0  0  0  0  0  0  0  0  0  # atno 8010 bound_to 7997
  139.7958  143.7903  152.2654 H   0  0  0  0  0  0  0  0  0  0  0  0  # atno 10167 bound_to 10162
  156.3427  130.7646  151.1785 H   0  0  0  0  0  0  0  0  0  0  0  0  # atno 10718 bound_to 10713
  153.1400  135.4647  154.9481 H   0  0  0  0  0  0  0  0  0  0  0  0  # atno 10763 bound_to 10752
  154.7739  135.3167  154.8136 H   0  0  0  0  0  0  0  0  0  0  0  0  # atno 10764 bound_to 10752
  153.8660  135.6908  153.4832 H   0  0  0  0  0  0  0  0  0  0  0  0  # atno 10765 bound_to 10752
  140.6560  134.4400  157.5235 H   0  0  0  0  0  0  0  0  0  0  0  0  # atno 11005 bound_to 11000
  144.6753  140.0453  143.7480 LP  0  0  0  0  0  0  0  0  0  0  0  0  # atno 17320 bound_to 7965
  145.9734  139.2887  143.1085 LP  0  0  0  0  0  0  0  0  0  0  0  0  # atno 17321 bound_to 7965
  139.8008  144.7375  150.9828 LP  0  0  0  0  0  0  0  0  0  0  0  0  # atno 17342 bound_to 10162
  140.7820  143.4347  151.0641 LP  0  0  0  0  0  0  0  0  0  0  0  0  # atno 17343 bound_to 10162
  157.7449  131.0450  150.4821 LP  0  0  0  0  0  0  0  0  0  0  0  0  # atno 17370 bound_to 10713
  156.5004  130.4116  149.6356 LP  0  0  0  0  0  0  0  0  0  0  0  0  # atno 17371 bound_to 10713
  139.9029  134.8514  156.1821 LP  0  0  0  0  0  0  0  0  0  0  0  0  # atno 17394 bound_to 11000
  141.0501  133.6893  156.1756 LP  0  0  0  0  0  0  0  0  0  0  0  0  # atno 17395 bound_to 11000

$$$$
