AV-unprocessed.smi:1033|AV-procd|sdf|4499|dock9
  -GOLD-   22720 2493D 1   1.00000     0.00000
 Structure written by MMmdl.
 57 59  0  0  0  0  0  0  0  0  3 V2000
  152.3028  144.3757  160.5247 C   0  0  0  0  0  0  0  0  0  0  0  0
  152.0779  143.3283  159.4474 C   0  0  0  0  0  0  0  0  0  0  0  0
  151.2206  143.6431  158.3694 C   0  0  0  0  0  0  0  0  0  0  0  0
  151.0250  142.6603  157.4069 C   0  0  0  0  0  0  0  0  0  0  0  0
  150.2442  142.6589  156.2497 N   0  3  0  0  0  0  0  0  0  0  0  0
  150.3606  141.4556  155.6238 C   0  0  0  0  0  0  0  0  0  0  0  0
  151.1979  140.6834  156.3692 N   0  0  0  0  0  0  0  0  0  0  0  0
  151.6423  139.3006  156.1364 C   0  0  0  0  0  0  0  0  0  0  0  0
  150.6969  138.5042  155.2093 C   0  0  1  0  0  0  0  0  0  0  0  0
  150.8325  139.0371  153.9093 O   0  0  0  0  0  0  0  0  0  0  0  0
  150.9802  136.9859  155.1239 C   0  0  0  0  0  0  0  0  0  0  0  0
  149.8104  136.1889  154.6783 N   0  3  0  0  0  0  0  0  0  0  0  0
  148.5446  136.6038  155.3317 C   0  0  0  0  0  0  0  0  0  0  0  0
  147.3618  135.8377  154.7082 C   0  0  0  0  0  0  0  0  0  0  0  0
  147.4908  134.3845  154.8227 N   0  0  0  0  0  0  0  0  0  0  0  0
  147.3029  133.9102  156.2030 C   0  0  0  0  0  0  0  0  0  0  0  0
  145.9512  133.2364  156.5310 C   0  0  2  0  0  0  0  0  0  0  0  0
  145.7992  132.6296  157.9323 C   0  0  0  0  0  0  0  0  0  0  0  0
  145.6578  132.2628  155.5513 O   0  0  0  0  0  0  0  0  0  0  0  0
  148.7619  133.9897  154.2029 C   0  0  0  0  0  0  0  0  0  0  0  0
  149.9924  134.7185  154.7841 C   0  0  0  0  0  0  0  0  0  0  0  0
  151.6526  141.4011  157.4835 C   0  0  0  0  0  0  0  0  0  0  0  0
  152.5104  141.0800  158.5336 C   0  0  0  0  0  0  0  0  0  0  0  0
  152.7147  142.0631  159.5279 C   0  0  0  0  0  0  0  0  0  0  0  0
  153.6298  141.7331  160.6947 C   0  0  0  0  0  0  0  0  0  0  0  0
  151.7252  145.2797  160.3296 H   0  0  0  0  0  0  0  0  0  0  0  0
  153.3552  144.6568  160.5720 H   0  0  0  0  0  0  0  0  0  0  0  0
  152.0017  143.9930  161.5002 H   0  0  0  0  0  0  0  0  0  0  0  0
  150.7340  144.6055  158.3012 H   0  0  0  0  0  0  0  0  0  0  0  0
  149.8715  141.1643  154.7048 H   0  0  0  0  0  0  0  0  0  0  0  0
  152.6303  139.3710  155.6784 H   0  0  0  0  0  0  0  0  0  0  0  0
  151.7898  138.7906  157.0878 H   0  0  0  0  0  0  0  0  0  0  0  0
  149.6631  138.6853  155.5011 H   0  0  0  0  0  0  0  0  0  0  0  0
  150.3528  138.4938  153.3025 H   0  0  0  0  0  0  0  0  0  0  0  0
  151.8127  136.7894  154.4463 H   0  0  0  0  0  0  0  0  0  0  0  0
  151.2999  136.6404  156.1083 H   0  0  0  0  0  0  0  0  0  0  0  0
  148.6025  136.4301  156.4074 H   0  0  0  0  0  0  0  0  0  0  0  0
  148.3908  137.6743  155.1907 H   0  0  0  0  0  0  0  0  0  0  0  0
  146.4258  136.1655  155.1621 H   0  0  0  0  0  0  0  0  0  0  0  0
  147.2840  136.1054  153.6538 H   0  0  0  0  0  0  0  0  0  0  0  0
  148.1173  133.2479  156.4936 H   0  0  0  0  0  0  0  0  0  0  0  0
  147.3841  134.7628  156.8792 H   0  0  0  0  0  0  0  0  0  0  0  0
  145.1852  134.0064  156.4331 H   0  0  0  0  0  0  0  0  0  0  0  0
  146.1048  133.3358  158.7046 H   0  0  0  0  0  0  0  0  0  0  0  0
  146.3827  131.7164  158.0457 H   0  0  0  0  0  0  0  0  0  0  0  0
  144.7589  132.3648  158.1236 H   0  0  0  0  0  0  0  0  0  0  0  0
  144.7200  132.1547  155.5060 H   0  0  0  0  0  0  0  0  0  0  0  0
  148.9171  132.9171  154.2730 H   0  0  0  0  0  0  0  0  0  0  0  0
  148.7088  134.2022  153.1343 H   0  0  0  0  0  0  0  0  0  0  0  0
  150.8742  134.4074  154.2260 H   0  0  0  0  0  0  0  0  0  0  0  0
  150.1671  134.4357  155.8225 H   0  0  0  0  0  0  0  0  0  0  0  0
  152.9955  140.1179  158.6038 H   0  0  0  0  0  0  0  0  0  0  0  0
  154.0618  140.7370  160.5951 H   0  0  0  0  0  0  0  0  0  0  0  0
  153.0774  141.7642  161.6341 H   0  0  0  0  0  0  0  0  0  0  0  0
  154.4519  142.4470  160.7520 H   0  0  0  0  0  0  0  0  0  0  0  0
  149.6927  136.3939  153.6967 H   0  0  0  0  0  0  0  0  0  0  0  0
  149.6766  143.4240  155.9068 H   0  0  0  0  0  0  0  0  0  0  0  0
  1  2  1  0  0  0  0
  1 26  1  0  0  0  0
  1 27  1  0  0  0  0
  1 28  1  0  0  0  0
  2 24  1  0  0  0  0
  2  3  2  0  0  0  0
  3  4  1  0  0  0  0
  3 29  1  0  0  0  0
  4 22  2  0  0  0  0
  4  5  1  0  0  0  0
  5  6  2  0  0  0  0
  5 57  1  0  0  0  0
  6  7  1  0  0  0  0
  6 30  1  0  0  0  0
  7  8  1  0  0  0  0
  7 22  1  0  0  0  0
  8  9  1  0  0  0  0
  8 31  1  0  0  0  0
  8 32  1  0  0  0  0
  9 10  1  0  0  0  0
  9 11  1  0  0  0  0
  9 33  1  0  0  0  0
 10 34  1  0  0  0  0
 11 12  1  0  0  0  0
 11 35  1  0  0  0  0
 11 36  1  0  0  0  0
 12 21  1  0  0  0  0
 12 13  1  0  0  0  0
 12 56  1  0  0  0  0
 13 14  1  0  0  0  0
 13 37  1  0  0  0  0
 13 38  1  0  0  0  0
 14 15  1  0  0  0  0
 14 39  1  0  0  0  0
 14 40  1  0  0  0  0
 15 16  1  0  0  0  0
 15 20  1  0  0  0  0
 16 17  1  0  0  0  0
 16 41  1  0  0  0  0
 16 42  1  0  0  0  0
 17 18  1  0  0  0  0
 17 19  1  0  0  0  0
 17 43  1  0  0  0  0
 18 44  1  0  0  0  0
 18 45  1  0  0  0  0
 18 46  1  0  0  0  0
 19 47  1  0  0  0  0
 20 21  1  0  0  0  0
 20 48  1  0  0  0  0
 20 49  1  0  0  0  0
 21 50  1  0  0  0  0
 21 51  1  0  0  0  0
 22 23  1  0  0  0  0
 23 24  2  0  0  0  0
 23 52  1  0  0  0  0
 24 25  1  0  0  0  0
 25 53  1  0  0  0  0
 25 54  1  0  0  0  0
 25 55  1  0  0  0  0
M  CHG  1   5   1
M  CHG  1  12   1
M  END
> <s_m_source_file>
AV-unprocessed.smi

> <i_m_source_file_index>
1033

> <i_lp_mmshare_version>
43012

> <i_f3d_flags>
0

> <s_epik_input>
W0NIM11jKFtjSF0xKWMoW0NIM10pW2NIXWMoYzEyKW4oW2NIXW4yKVtDSDJdW0NASF0oW09IXSlbQ0gyXU4zW0NIMl1bQ0gyXU4oW0NIMl1bQ0gyXTMpW0NIMl1bQ0BIXShbQ0gzXSlbT0hd

> <s_epik_cmdline>
J2VwaWtfcHl0aG9uJywgJy1waCcsICc3LjAnLCAnLXRuJywgJzgnLCAnLW1hJywgJzIwMCcsICctbWV0YWxfYmluZGluZycsICctaW1hZScsICc8aW5maWxlLm1hZT4nLCAnLW9tYWUnLCAnPG91dGZpbGUubWFlPic=

> <r_epik_Ionization_Penalty>
1.22049

> <r_epik_Ionization_Penalty_Charging>
1.17952

> <r_epik_Ionization_Penalty_Neutral>
0.0409743

> <r_epik_State_Penalty>
1.61468

> <r_epik_Charging_Adjusted_Penalty>
2.7942

> <i_epik_Tot_Q>
2

> <i_epik_Tot_abs_Q>
2

> <r_epik_Metal_State_Penalty>
5.63169

> <b_epik_Metal_Only>
0

> <s_lp_Force_Field>
OPLS_2005

> <r_lp_Energy>
50.4079

> <b_lp_Chiralities_Consistent>
1

> <s_lp_Variant>
AV-unprocessed.smi:1033-10

> <Gold.Version>
5.8.1

> <Gold.Id.Protein>
6NUR|6NUR_protein|mol2

> <Gold.PLP.Fitness>
58.8040

> <Gold.PLP.PLP>
-43.3302

> <Gold.PLP.part.hbond>
-4.5427

> <Gold.PLP.part.metal>
0.0000

> <Gold.PLP.part.buried>
-2.5253

> <Gold.PLP.part.nonpolar>
-36.0028

> <Gold.PLP.part.repulsive>
0.2168

> <Gold.PLP.ligand.clash>
0.0000

> <Gold.PLP.ligand.torsion>
1.3488

> <Gold.PLP.Chemscore.Hbond>
6.0000

> <Gold.PLP.Chemscore.CHOScore>
0.0000

> <Gold.PLP.Chemscore.Metal>
0.0000

> <Gold.Chemscore.Hbonds>
donor molecule, donor type, donor heavy atom, donor atom, acceptor molecule, acceptor atom, score
      L1  H     5    57       P1  8028  2.00
      L1  H    12    56       P1  7948  2.00
      L1  H    19    47       P1 10957  0.63
      P1  H  7989  7998       L1    10  1.00

> <Gold.PLP.Chemscore.Internal.Correction>
0.1714

> <Gold.Rescore>
     Score         DG    S(hbond)    S(metal)    S(lipo)     H(rot)  DE(clash)    DE(int)     intcor
     19.83     -21.90       3.58        0.00     106.97       3.15       0.65       1.41       ----

> <Gold.Chemscore.Fitness>
19.8343

> <Gold.Chemscore.DG>
-21.8966

> <Gold.Chemscore.ZeroCoef>
-5.4800

> <Gold.Chemscore.Hbond>
3.5811

> <Gold.Chemscore.Metal>
0.0000

> <Gold.Chemscore.Lipo>
106.9682

> <Gold.Chemscore.Internal_Hbond>
0.0000

> <Gold.Chemscore.DEClash>
0.6548

> <Gold.Chemscore.DEInternal>
1.4074

> <Gold.Chemscore.Rot>
3.1483

> <Gold.Chemscore.Internal.Correction>
   9.000000E+99

> <Gold.Chemscore.Hbonds>
donor molecule, donor type, donor heavy atom, donor atom, acceptor molecule, acceptor atom, score
      L1  H     5    57       P1  8028  0.93
      L1  H    12    56       P1  7948  0.44
      L1  H    19    47       P1 10957  0.49
      P1  H  7989  7998       L1    10  0.90

> <Gold.Chemscore.Hbond.Weighted>
-11.9610

> <Gold.Chemscore.Metal.Weighted>
-0.0000

> <Gold.Chemscore.Lipo.Weighted>
-12.5153

> <Gold.Chemscore.Internal_Hbond.Weighted>
0.0000

> <Gold.Chemscore.DEClash.Weighted>
0.6548

> <Gold.Chemscore.DEInternal.Weighted>
1.4074

> <Gold.Chemscore.Rot.Weighted>
8.0597

> <Gold.Chemscore.Internal.Correction.Weighted>
   9.000000E+99

> <Gold.Protein.RotatedTorsions>
[ 6907 6896 6895 6894 ] final -170.20 input  -60.11 | X-H torsion
[ 7974 7965 7964 7962 ] final -170.00 input  175.53 | X-H torsion
[ 8008 7997 7996 7995 ] final -178.22 input   59.86 | X-H torsion
[ 10167 10162 10161 10158 ] final   61.24 input  -65.29 | X-H torsion
[ 10718 10713 10712 10709 ] final  -49.44 input   66.30 | X-H torsion
[ 10763 10752 10751 10750 ] final -174.58 input  -60.55 | X-H torsion
[ 11005 11000 10999 10996 ] final -138.50 input  -57.11 | X-H torsion

> <Gold.Protein.ActiveResidues>
 VAL166  LYS551  ARG553  GLY616  TRP617  ASP618  TYR619  PRO620  LYS621  CYS622 
 ASP623  PHE694  ASN695  SER759  ASP760  ASP761  ALA762  ILE779  LEU786  VAL792 
 PHE793  MET794  SER795  GLU796  ALA797  LYS798  CYS799  TRP800  GLU811  SER814 

> <Gold.Protein.RotatedAtoms>
  151.5039  133.3498  159.2873 H   0  0  0  0  0  0  0  0  0  0  0  0  # atno 6907 bound_to 6896
  150.8755  134.8139  159.7197 H   0  0  0  0  0  0  0  0  0  0  0  0  # atno 6908 bound_to 6896
  152.4728  134.4929  159.9753 H   0  0  0  0  0  0  0  0  0  0  0  0  # atno 6909 bound_to 6896
  144.7176  140.2136  143.6324 H   0  0  0  0  0  0  0  0  0  0  0  0  # atno 7974 bound_to 7965
  156.0163  140.1251  157.0403 H   0  0  0  0  0  0  0  0  0  0  0  0  # atno 8008 bound_to 7997
  154.4294  140.1078  156.5969 H   0  0  0  0  0  0  0  0  0  0  0  0  # atno 8009 bound_to 7997
  155.6009  140.3470  155.4596 H   0  0  0  0  0  0  0  0  0  0  0  0  # atno 8010 bound_to 7997
  140.1569  144.4409  150.6730 H   0  0  0  0  0  0  0  0  0  0  0  0  # atno 10167 bound_to 10162
  156.1893  130.4152  149.9395 H   0  0  0  0  0  0  0  0  0  0  0  0  # atno 10718 bound_to 10713
  154.5945  135.2848  155.0600 H   0  0  0  0  0  0  0  0  0  0  0  0  # atno 10763 bound_to 10752
  154.1888  135.6444  153.5058 H   0  0  0  0  0  0  0  0  0  0  0  0  # atno 10764 bound_to 10752
  153.0133  135.5441  154.6643 H   0  0  0  0  0  0  0  0  0  0  0  0  # atno 10765 bound_to 10752
  140.8610  134.2169  157.4707 H   0  0  0  0  0  0  0  0  0  0  0  0  # atno 11005 bound_to 11000
  145.8567  139.2202  143.1740 LP  0  0  0  0  0  0  0  0  0  0  0  0  # atno 17320 bound_to 7965
  146.0211  140.8347  142.9923 LP  0  0  0  0  0  0  0  0  0  0  0  0  # atno 17321 bound_to 7965
  140.6668  143.2271  151.5724 LP  0  0  0  0  0  0  0  0  0  0  0  0  # atno 17342 bound_to 10162
  139.5399  144.2675  152.1330 LP  0  0  0  0  0  0  0  0  0  0  0  0  # atno 17343 bound_to 10162
  156.7140  130.8981  151.3612 LP  0  0  0  0  0  0  0  0  0  0  0  0  # atno 17370 bound_to 10713
  157.6919  130.9242  150.0536 LP  0  0  0  0  0  0  0  0  0  0  0  0  # atno 17371 bound_to 10713
  139.8707  134.9729  156.4791 LP  0  0  0  0  0  0  0  0  0  0  0  0  # atno 17394 bound_to 11000
  140.8683  133.8008  155.9337 LP  0  0  0  0  0  0  0  0  0  0  0  0  # atno 17395 bound_to 11000

$$$$
