AV-unprocessed.smi:2866|AV-procd|sdf|11020|dock6
  -GOLD-   2272015483D 1   1.00000     0.00000
 Structure written by MMmdl.
 41 43  0  0  0  0  0  0  0  0  1 V2000
  152.3145  143.7024  161.9370 C   0  0  0  0  0  0  0  0  0  0  0  0
  152.2277  142.9223  160.6371 C   0  0  0  0  0  0  0  0  0  0  0  0
  152.6155  141.5635  160.6242 C   0  0  0  0  0  0  0  0  0  0  0  0
  152.5439  140.8012  159.4377 C   0  0  0  0  0  0  0  0  0  0  0  0
  152.8613  139.4746  159.2010 N   0  0  0  0  0  0  0  0  0  0  0  0
  152.5760  139.3574  157.9074 C   0  0  0  0  0  0  0  0  0  0  0  0
  152.1113  140.4528  157.2767 N   0  0  0  0  0  0  0  0  0  0  0  0
  151.7336  140.5591  155.8787 C   0  0  0  0  0  0  0  0  0  0  0  0
  150.9185  139.3405  155.3954 C   0  0  1  0  0  0  0  0  0  0  0  0
  150.4094  139.5841  154.0990 O   0  0  0  0  0  0  0  0  0  0  0  0
  151.7331  138.0325  155.3520 C   0  0  0  0  0  0  0  0  0  0  0  0
  150.9001  136.8436  155.3840 N   0  0  0  0  0  0  0  0  0  0  0  0
  149.5455  136.7394  155.1538 C   0  0  0  0  0  0  0  0  0  0  0  0
  149.2078  135.4259  155.3103 C   0  0  0  0  0  0  0  0  0  0  0  0
  150.4372  134.7890  155.6483 C   0  0  0  0  0  0  0  0  0  0  0  0
  150.6862  133.3324  155.9395 C   0  0  0  0  0  0  0  0  0  0  0  0
  151.9366  133.1533  156.3652 F   0  0  0  0  0  0  0  0  0  0  0  0
  149.8468  132.9085  156.8843 F   0  0  0  0  0  0  0  0  0  0  0  0
  150.5005  132.6084  154.8357 F   0  0  0  0  0  0  0  0  0  0  0  0
  151.4463  135.6485  155.6940 N   0  0  0  0  0  0  0  0  0  0  0  0
  152.0732  141.4414  158.2542 C   0  0  0  0  0  0  0  0  0  0  0  0
  151.6872  142.7933  158.2537 C   0  0  0  0  0  0  0  0  0  0  0  0
  151.7617  143.5396  159.4485 C   0  0  0  0  0  0  0  0  0  0  0  0
  151.3365  144.9972  159.4388 C   0  0  0  0  0  0  0  0  0  0  0  0
  152.7021  143.0838  162.7469 H   0  0  0  0  0  0  0  0  0  0  0  0
  151.3287  144.0619  162.2326 H   0  0  0  0  0  0  0  0  0  0  0  0
  152.9776  144.5605  161.8251 H   0  0  0  0  0  0  0  0  0  0  0  0
  152.9699  141.0923  161.5291 H   0  0  0  0  0  0  0  0  0  0  0  0
  152.7097  138.4201  157.3871 H   0  0  0  0  0  0  0  0  0  0  0  0
  151.1662  141.4799  155.7385 H   0  0  0  0  0  0  0  0  0  0  0  0
  152.6474  140.6666  155.2932 H   0  0  0  0  0  0  0  0  0  0  0  0
  150.0634  139.2026  156.0584 H   0  0  0  0  0  0  0  0  0  0  0  0
  150.4837  138.7885  153.5938 H   0  0  0  0  0  0  0  0  0  0  0  0
  152.3443  137.9959  154.4489 H   0  0  0  0  0  0  0  0  0  0  0  0
  152.4220  137.9909  156.1969 H   0  0  0  0  0  0  0  0  0  0  0  0
  148.9416  137.5979  154.8990 H   0  0  0  0  0  0  0  0  0  0  0  0
  148.2279  134.9849  155.2019 H   0  0  0  0  0  0  0  0  0  0  0  0
  151.3323  143.2504  157.3418 H   0  0  0  0  0  0  0  0  0  0  0  0
  151.0058  145.3089  158.4476 H   0  0  0  0  0  0  0  0  0  0  0  0
  152.1668  145.6403  159.7317 H   0  0  0  0  0  0  0  0  0  0  0  0
  150.5113  145.1590  160.1327 H   0  0  0  0  0  0  0  0  0  0  0  0
  1  2  1  0  0  0  0
  1 25  1  0  0  0  0
  1 26  1  0  0  0  0
  1 27  1  0  0  0  0
  2 23  1  0  0  0  0
  2  3  2  0  0  0  0
  3  4  1  0  0  0  0
  3 28  1  0  0  0  0
  4 21  2  0  0  0  0
  4  5  1  0  0  0  0
  5  6  2  0  0  0  0
  6  7  1  0  0  0  0
  6 29  1  0  0  0  0
  7  8  1  0  0  0  0
  7 21  1  0  0  0  0
  8  9  1  0  0  0  0
  8 30  1  0  0  0  0
  8 31  1  0  0  0  0
  9 10  1  0  0  0  0
  9 11  1  0  0  0  0
  9 32  1  0  0  0  0
 10 33  1  0  0  0  0
 11 12  1  0  0  0  0
 11 34  1  0  0  0  0
 11 35  1  0  0  0  0
 12 20  1  0  0  0  0
 12 13  1  0  0  0  0
 13 14  2  0  0  0  0
 13 36  1  0  0  0  0
 14 15  1  0  0  0  0
 14 37  1  0  0  0  0
 15 16  1  0  0  0  0
 15 20  2  0  0  0  0
 16 17  1  0  0  0  0
 16 18  1  0  0  0  0
 16 19  1  0  0  0  0
 21 22  1  0  0  0  0
 22 23  2  0  0  0  0
 22 38  1  0  0  0  0
 23 24  1  0  0  0  0
 24 39  1  0  0  0  0
 24 40  1  0  0  0  0
 24 41  1  0  0  0  0
M  END
> <s_m_source_file>
AV-unprocessed.smi

> <i_m_source_file_index>
2866

> <i_lp_mmshare_version>
43012

> <i_f3d_flags>
0

> <s_epik_input>
W0NIM11jKFtjSF0xKWMoW0NIM10pW2NIXWMoYzEyKW4oW2NIXW4yKVtDSDJdW0NASF0oW09IXSlbQ0gyXW4zW2NIXVtjSF1jKG4zKUMoRikoRilG

> <s_epik_cmdline>
J2VwaWtfcHl0aG9uJywgJy1waCcsICc3LjAnLCAnLXRuJywgJzgnLCAnLW1hJywgJzIwMCcsICctbWV0YWxfYmluZGluZycsICctaW1hZScsICc8aW5maWxlLm1hZT4nLCAnLW9tYWUnLCAnPG91dGZpbGUubWFlPic=

> <r_lp_tautomer_probability>
1

> <r_epik_Ionization_Penalty>
0.1021

> <r_epik_Ionization_Penalty_Charging>
0

> <r_epik_Ionization_Penalty_Neutral>
0.1021

> <r_epik_State_Penalty>
0.0920694

> <r_epik_Charging_Adjusted_Penalty>
0.0920694

> <i_epik_Tot_Q>
0

> <i_epik_Tot_abs_Q>
0

> <r_epik_Metal_State_Penalty>
0.0784291

> <b_epik_Metal_Only>
0

> <s_lp_Force_Field>
OPLS_2005

> <r_lp_Energy>
10.7654

> <b_lp_Chiralities_Consistent>
1

> <s_lp_Variant>
AV-unprocessed.smi:2866-2

> <Gold.Version>
5.8.1

> <Gold.Id.Protein>
6NUR|6NUR_protein|mol2

> <Gold.PLP.Fitness>
51.7748

> <Gold.PLP.PLP>
-47.3745

> <Gold.PLP.part.hbond>
-2.8417

> <Gold.PLP.part.metal>
0.0000

> <Gold.PLP.part.buried>
-5.7820

> <Gold.PLP.part.nonpolar>
-37.7294

> <Gold.PLP.part.repulsive>
0.0582

> <Gold.PLP.ligand.clash>
0.0208

> <Gold.PLP.ligand.torsion>
0.8099

> <Gold.PLP.Chemscore.Hbond>
2.0000

> <Gold.PLP.Chemscore.CHOScore>
0.0000

> <Gold.PLP.Chemscore.Metal>
0.0000

> <Gold.Chemscore.Hbonds>
donor molecule, donor type, donor heavy atom, donor atom, acceptor molecule, acceptor atom, score
      P1  H  7989  7998       L1    10  1.00
      P1  H 10752 10764       L1    20  1.00

> <Gold.PLP.Chemscore.Internal.Correction>
0.0409

> <Gold.Rescore>
     Score         DG    S(hbond)    S(metal)    S(lipo)     H(rot)  DE(clash)    DE(int)     intcor
     15.70     -17.96       1.48        0.00     117.49       2.42       0.41       1.86       ----

> <Gold.Chemscore.Fitness>
15.6979

> <Gold.Chemscore.DG>
-17.9634

> <Gold.Chemscore.ZeroCoef>
-5.4800

> <Gold.Chemscore.Hbond>
1.4800

> <Gold.Chemscore.Metal>
0.0000

> <Gold.Chemscore.Lipo>
117.4926

> <Gold.Chemscore.Internal_Hbond>
0.0000

> <Gold.Chemscore.DEClash>
0.4090

> <Gold.Chemscore.DEInternal>
1.8565

> <Gold.Chemscore.Rot>
2.4243

> <Gold.Chemscore.Internal.Correction>
   9.000000E+99

> <Gold.Chemscore.Hbonds>
donor molecule, donor type, donor heavy atom, donor atom, acceptor molecule, acceptor atom, score
      P1  H  7989  7998       L1    10  0.22
      P1  H 10752 10764       L1    20  0.55

> <Gold.Chemscore.Hbond.Weighted>
-4.9431

> <Gold.Chemscore.Metal.Weighted>
-0.0000

> <Gold.Chemscore.Lipo.Weighted>
-13.7466

> <Gold.Chemscore.Internal_Hbond.Weighted>
0.0000

> <Gold.Chemscore.DEClash.Weighted>
0.4090

> <Gold.Chemscore.DEInternal.Weighted>
1.8565

> <Gold.Chemscore.Rot.Weighted>
6.2063

> <Gold.Chemscore.Internal.Correction.Weighted>
   9.000000E+99

> <Gold.Protein.RotatedTorsions>
[ 6907 6896 6895 6894 ] final   80.46 input  -60.11 | X-H torsion
[ 7974 7965 7964 7962 ] final  -45.44 input  175.53 | X-H torsion
[ 8008 7997 7996 7995 ] final  -31.75 input   59.86 | X-H torsion
[ 10167 10162 10161 10158 ] final  -23.15 input  -65.29 | X-H torsion
[ 10718 10713 10712 10709 ] final  125.09 input   66.30 | X-H torsion
[ 10763 10752 10751 10750 ] final  -51.58 input  -60.55 | X-H torsion
[ 11005 11000 10999 10996 ] final  -68.80 input  -57.11 | X-H torsion

> <Gold.Protein.ActiveResidues>
 VAL166  LYS551  ARG553  GLY616  TRP617  ASP618  TYR619  PRO620  LYS621  CYS622 
 ASP623  PHE694  ASN695  SER759  ASP760  ASP761  ALA762  ILE779  LEU786  VAL792 
 PHE793  MET794  SER795  GLU796  ALA797  LYS798  CYS799  TRP800  GLU811  SER814 

> <Gold.Protein.RotatedAtoms>
  152.5235  134.3354  159.9197 H   0  0  0  0  0  0  0  0  0  0  0  0  # atno 6907 bound_to 6896
  151.3303  133.3997  159.2670 H   0  0  0  0  0  0  0  0  0  0  0  0  # atno 6908 bound_to 6896
  150.9886  134.9243  159.7944 H   0  0  0  0  0  0  0  0  0  0  0  0  # atno 6909 bound_to 6896
  145.9821  140.7273  142.9358 H   0  0  0  0  0  0  0  0  0  0  0  0  # atno 7974 bound_to 7965
  154.4203  140.1756  156.1617 H   0  0  0  0  0  0  0  0  0  0  0  0  # atno 8008 bound_to 7997
  155.9833  140.3375  155.6659 H   0  0  0  0  0  0  0  0  0  0  0  0  # atno 8009 bound_to 7997
  155.6471  140.0686  157.2590 H   0  0  0  0  0  0  0  0  0  0  0  0  # atno 8010 bound_to 7997
  140.7287  143.4469  151.0573 H   0  0  0  0  0  0  0  0  0  0  0  0  # atno 10167 bound_to 10162
  157.5532  131.1093  150.8667 H   0  0  0  0  0  0  0  0  0  0  0  0  # atno 10718 bound_to 10713
  154.1289  135.6523  153.4918 H   0  0  0  0  0  0  0  0  0  0  0  0  # atno 10763 bound_to 10752
  153.0201  135.5288  154.7021 H   0  0  0  0  0  0  0  0  0  0  0  0  # atno 10764 bound_to 10752
  154.6250  135.2969  155.0253 H   0  0  0  0  0  0  0  0  0  0  0  0  # atno 10765 bound_to 10752
  141.1540  133.6749  156.6501 H   0  0  0  0  0  0  0  0  0  0  0  0  # atno 11005 bound_to 11000
  144.6864  140.2925  143.7276 LP  0  0  0  0  0  0  0  0  0  0  0  0  # atno 17320 bound_to 7965
  145.7755  139.1872  143.2188 LP  0  0  0  0  0  0  0  0  0  0  0  0  # atno 17321 bound_to 7965
  139.8142  143.7909  152.3173 LP  0  0  0  0  0  0  0  0  0  0  0  0  # atno 17342 bound_to 10162
  139.7969  144.7389  150.9878 LP  0  0  0  0  0  0  0  0  0  0  0  0  # atno 17343 bound_to 10162
  156.9186  130.5307  149.5279 LP  0  0  0  0  0  0  0  0  0  0  0  0  # atno 17370 bound_to 10713
  156.0595  130.5650  150.9162 LP  0  0  0  0  0  0  0  0  0  0  0  0  # atno 17371 bound_to 10713
  140.3327  134.7915  157.4338 LP  0  0  0  0  0  0  0  0  0  0  0  0  # atno 17394 bound_to 11000
  140.1003  134.5481  155.8359 LP  0  0  0  0  0  0  0  0  0  0  0  0  # atno 17395 bound_to 11000

$$$$
