AV-unprocessed.smi:2673|AV-procd|sdf|10356|dock9
  -GOLD-   2272014383D 1   1.00000     0.00000
 Structure written by MMmdl.
 32 33  0  0  0  0  0  0  0  0  1 V2000
  149.4588  136.5606  156.7721 O   0  0  0  0  0  0  0  0  0  0  0  0
  149.5095  137.6178  157.3990 C   0  0  0  0  0  0  0  0  0  0  0  0
  148.9914  137.8124  158.6245 N   0  0  0  0  0  0  0  0  0  0  0  0
  148.3165  136.8788  159.4551 C   0  0  0  0  0  0  0  0  0  0  0  0
  147.9272  137.1441  160.7120 N   0  0  0  0  0  0  0  0  0  0  0  0
  147.2863  136.0598  161.2973 N   0  0  0  0  0  0  0  0  0  0  0  0
  147.2178  135.0208  160.4602 C   0  0  0  0  0  0  0  0  0  0  0  0
  147.9307  135.2649  158.8751 S   0  0  0  0  0  0  0  0  0  0  0  0
  150.0911  138.7407  156.9451 N   0  0  0  0  0  0  0  0  0  0  0  0
  150.7974  138.9835  155.6749 C   0  0  0  0  0  0  0  0  0  0  0  0
  151.9657  137.9679  155.5151 C   0  0  0  0  0  0  0  0  0  0  0  0
  152.7162  138.2821  154.4582 F   0  0  0  0  0  0  0  0  0  0  0  0
  152.7455  137.9857  156.5978 F   0  0  0  0  0  0  0  0  0  0  0  0
  151.5238  136.7231  155.3390 F   0  0  0  0  0  0  0  0  0  0  0  0
  149.8399  138.9246  154.4493 C   0  0  0  0  0  0  0  0  0  0  0  0
  148.7360  139.9971  154.4931 C   0  0  0  0  0  0  0  0  0  0  0  0
  149.3386  141.4051  154.6001 C   0  0  0  0  0  0  0  0  0  0  0  0
  150.2854  141.5125  155.8038 C   0  0  0  0  0  0  0  0  0  0  0  0
  151.3746  140.4228  155.7589 C   0  0  0  0  0  0  0  0  0  0  0  0
  149.1024  138.7361  159.0157 H   0  0  0  0  0  0  0  0  0  0  0  0
  146.7438  134.1042  160.7784 H   0  0  0  0  0  0  0  0  0  0  0  0
  150.0578  139.5368  157.5644 H   0  0  0  0  0  0  0  0  0  0  0  0
  150.4197  139.0682  153.5369 H   0  0  0  0  0  0  0  0  0  0  0  0
  149.3884  137.9388  154.3448 H   0  0  0  0  0  0  0  0  0  0  0  0
  148.1196  139.9281  153.5964 H   0  0  0  0  0  0  0  0  0  0  0  0
  148.0691  139.8145  155.3364 H   0  0  0  0  0  0  0  0  0  0  0  0
  149.8852  141.6375  153.6853 H   0  0  0  0  0  0  0  0  0  0  0  0
  148.5435  142.1467  154.6822 H   0  0  0  0  0  0  0  0  0  0  0  0
  150.7516  142.4980  155.8171 H   0  0  0  0  0  0  0  0  0  0  0  0
  149.7134  141.4348  156.7290 H   0  0  0  0  0  0  0  0  0  0  0  0
  152.0195  140.5208  156.6330 H   0  0  0  0  0  0  0  0  0  0  0  0
  152.0133  140.6148  154.8960 H   0  0  0  0  0  0  0  0  0  0  0  0
  1  2  2  0  0  0  0
  2  3  1  0  0  0  0
  2  9  1  0  0  0  0
  3  4  1  0  0  0  0
  3 20  1  0  0  0  0
  4  8  1  0  0  0  0
  4  5  2  0  0  0  0
  5  6  1  0  0  0  0
  6  7  2  0  0  0  0
  7  8  1  0  0  0  0
  7 21  1  0  0  0  0
  9 10  1  0  0  0  0
  9 22  1  0  0  0  0
 10 19  1  0  0  0  0
 10 11  1  0  0  0  0
 10 15  1  0  0  0  0
 11 12  1  0  0  0  0
 11 13  1  0  0  0  0
 11 14  1  0  0  0  0
 15 16  1  0  0  0  0
 15 23  1  0  0  0  0
 15 24  1  0  0  0  0
 16 17  1  0  0  0  0
 16 25  1  0  0  0  0
 16 26  1  0  0  0  0
 17 18  1  0  0  0  0
 17 27  1  0  0  0  0
 17 28  1  0  0  0  0
 18 19  1  0  0  0  0
 18 29  1  0  0  0  0
 18 30  1  0  0  0  0
 19 31  1  0  0  0  0
 19 32  1  0  0  0  0
M  END
> <s_m_source_file>
AV-unprocessed.smi

> <i_m_source_file_index>
2673

> <i_lp_mmshare_version>
43012

> <i_f3d_flags>
0

> <s_epik_input>
czFbY0hdbm5jMVtOSF1DKD1PKVtOSF1DMihDKEYpKEYpRilbQ0gyXVtDSDJdW0NIMl1bQ0gyXVtDSDJdMg==

> <s_epik_cmdline>
J2VwaWtfcHl0aG9uJywgJy1waCcsICc3LjAnLCAnLXRuJywgJzgnLCAnLW1hJywgJzIwMCcsICctbWV0YWxfYmluZGluZycsICctaW1hZScsICc8aW5maWxlLm1hZT4nLCAnLW9tYWUnLCAnPG91dGZpbGUubWFlPic=

> <r_lp_tautomer_probability>
1

> <r_epik_Ionization_Penalty>
1.40881

> <r_epik_Ionization_Penalty_Charging>
0

> <r_epik_Ionization_Penalty_Neutral>
1.40881

> <r_epik_State_Penalty>
1.51827

> <r_epik_Charging_Adjusted_Penalty>
1.51827

> <i_epik_Tot_Q>
0

> <i_epik_Tot_abs_Q>
0

> <r_epik_Metal_State_Penalty>
1.5692

> <b_epik_Metal_Only>
0

> <s_lp_Force_Field>
OPLS_2005

> <r_lp_Energy>
12.8136

> <b_lp_Chiralities_Consistent>
1

> <s_lp_Variant>
AV-unprocessed.smi:2673-2

> <Gold.Version>
5.8.1

> <Gold.Id.Protein>
6NUR|6NUR_protein|mol2

> <Gold.PLP.Fitness>
33.1264

> <Gold.PLP.PLP>
-28.3523

> <Gold.PLP.part.hbond>
-2.0000

> <Gold.PLP.part.metal>
0.0000

> <Gold.PLP.part.buried>
-0.5970

> <Gold.PLP.part.nonpolar>
-25.4660

> <Gold.PLP.part.repulsive>
0.1892

> <Gold.PLP.ligand.clash>
0.0000

> <Gold.PLP.ligand.torsion>
0.1232

> <Gold.PLP.Chemscore.Hbond>
1.6640

> <Gold.PLP.Chemscore.CHOScore>
0.0000

> <Gold.PLP.Chemscore.Metal>
0.0000

> <Gold.Chemscore.Hbonds>
donor molecule, donor type, donor heavy atom, donor atom, acceptor molecule, acceptor atom, score
      P1  H  6931  6943       L1     5  0.85
      P1  H  6934  6947       L1     5  0.80

> <Gold.PLP.Chemscore.Internal.Correction>
0.0284

> <Gold.Rescore>
     Score         DG    S(hbond)    S(metal)    S(lipo)     H(rot)  DE(clash)    DE(int)     intcor
     10.42     -13.42       1.37        0.00      50.66       1.00       0.02       2.98       ----

> <Gold.Chemscore.Fitness>
10.4175

> <Gold.Chemscore.DG>
-13.4191

> <Gold.Chemscore.ZeroCoef>
-5.4800

> <Gold.Chemscore.Hbond>
1.3687

> <Gold.Chemscore.Metal>
0.0000

> <Gold.Chemscore.Lipo>
50.6647

> <Gold.Chemscore.Internal_Hbond>
0.0000

> <Gold.Chemscore.DEClash>
0.0184

> <Gold.Chemscore.DEInternal>
2.9833

> <Gold.Chemscore.Rot>
1.0000

> <Gold.Chemscore.Internal.Correction>
   9.000000E+99

> <Gold.Chemscore.Hbonds>
donor molecule, donor type, donor heavy atom, donor atom, acceptor molecule, acceptor atom, score
      P1  H  6931  6943       L1     5  0.76
      P1  H  6934  6947       L1     5  0.62

> <Gold.Chemscore.Hbond.Weighted>
-4.5713

> <Gold.Chemscore.Metal.Weighted>
-0.0000

> <Gold.Chemscore.Lipo.Weighted>
-5.9278

> <Gold.Chemscore.Internal_Hbond.Weighted>
0.0000

> <Gold.Chemscore.DEClash.Weighted>
0.0184

> <Gold.Chemscore.DEInternal.Weighted>
2.9833

> <Gold.Chemscore.Rot.Weighted>
2.5600

> <Gold.Chemscore.Internal.Correction.Weighted>
   9.000000E+99

> <Gold.Protein.RotatedTorsions>
[ 6907 6896 6895 6894 ] final   27.32 input  -60.11 | X-H torsion
[ 7974 7965 7964 7962 ] final  -25.95 input  175.53 | X-H torsion
[ 8008 7997 7996 7995 ] final   44.85 input   59.86 | X-H torsion
[ 10167 10162 10161 10158 ] final -175.60 input  -65.29 | X-H torsion
[ 10718 10713 10712 10709 ] final   59.59 input   66.30 | X-H torsion
[ 10763 10752 10751 10750 ] final  -23.08 input  -60.55 | X-H torsion
[ 11005 11000 10999 10996 ] final   36.93 input  -57.11 | X-H torsion

> <Gold.Protein.ActiveResidues>
 VAL166  LYS551  ARG553  GLY616  TRP617  ASP618  TYR619  PRO620  LYS621  CYS622 
 ASP623  PHE694  ASN695  SER759  ASP760  ASP761  ALA762  ILE779  LEU786  VAL792 
 PHE793  MET794  SER795  GLU796  ALA797  LYS798  CYS799  TRP800  GLU811  SER814 

> <Gold.Protein.RotatedAtoms>
  152.0006  134.9930  160.0564 H   0  0  0  0  0  0  0  0  0  0  0  0  # atno 6907 bound_to 6896
  152.1523  133.4525  159.4828 H   0  0  0  0  0  0  0  0  0  0  0  0  # atno 6908 bound_to 6896
  150.6877  134.2092  159.4395 H   0  0  0  0  0  0  0  0  0  0  0  0  # atno 6909 bound_to 6896
  146.1458  140.4954  142.8632 H   0  0  0  0  0  0  0  0  0  0  0  0  # atno 7974 bound_to 7965
  155.3262  140.3400  155.4240 H   0  0  0  0  0  0  0  0  0  0  0  0  # atno 8008 bound_to 7997
  156.1884  140.1689  156.8176 H   0  0  0  0  0  0  0  0  0  0  0  0  # atno 8009 bound_to 7997
  154.5414  140.0724  156.8499 H   0  0  0  0  0  0  0  0  0  0  0  0  # atno 8010 bound_to 7997
  139.5572  144.1959  152.1180 H   0  0  0  0  0  0  0  0  0  0  0  0  # atno 10167 bound_to 10162
  157.5688  130.8891  149.9231 H   0  0  0  0  0  0  0  0  0  0  0  0  # atno 10718 bound_to 10713
  153.6622  135.6976  153.5174 H   0  0  0  0  0  0  0  0  0  0  0  0  # atno 10763 bound_to 10752
  153.2623  135.4241  155.0905 H   0  0  0  0  0  0  0  0  0  0  0  0  # atno 10764 bound_to 10752
  154.8449  135.3558  154.6167 H   0  0  0  0  0  0  0  0  0  0  0  0  # atno 10765 bound_to 10752
  140.2276  134.3566  155.7977 H   0  0  0  0  0  0  0  0  0  0  0  0  # atno 11005 bound_to 11000
  144.7844  140.5907  143.6583 LP  0  0  0  0  0  0  0  0  0  0  0  0  # atno 17320 bound_to 7965
  145.4941  139.1487  143.3693 LP  0  0  0  0  0  0  0  0  0  0  0  0  # atno 17321 bound_to 7965
  140.1465  144.5154  150.6713 LP  0  0  0  0  0  0  0  0  0  0  0  0  # atno 17342 bound_to 10162
  140.6847  143.2344  151.5292 LP  0  0  0  0  0  0  0  0  0  0  0  0  # atno 17343 bound_to 10162
  156.0734  130.3682  150.0728 LP  0  0  0  0  0  0  0  0  0  0  0  0  # atno 17370 bound_to 10713
  156.8883  130.9580  151.3591 LP  0  0  0  0  0  0  0  0  0  0  0  0  # atno 17371 bound_to 10713
  141.2219  133.7228  156.8679 LP  0  0  0  0  0  0  0  0  0  0  0  0  # atno 17394 bound_to 11000
  140.1784  134.9051  157.2918 LP  0  0  0  0  0  0  0  0  0  0  0  0  # atno 17395 bound_to 11000

$$$$
