AV-unprocessed.smi:1254|AV-procd|sdf|5273|dock3
  -GOLD-   22720 4393D 1   1.00000     0.00000
 Structure written by MMmdl.
 45 46  0  0  0  0  0  0  0  0  1 V2000
  147.4169  133.7622  162.6322 C   0  0  0  0  0  0  0  0  0  0  0  0
  147.7591  134.8969  161.7289 C   0  0  0  0  0  0  0  0  0  0  0  0
  148.2210  134.9558  160.4444 C   0  0  0  0  0  0  0  0  0  0  0  0
  148.3280  136.3574  160.2073 C   0  0  0  0  0  0  0  0  0  0  0  0
  148.7606  136.9770  159.0064 N   0  0  0  0  0  0  0  0  0  0  0  0
  150.0146  137.1227  158.5470 C   0  0  0  0  0  0  0  0  0  0  0  0
  151.0342  136.7516  159.1284 O   0  0  0  0  0  0  0  0  0  0  0  0
  150.0247  137.7370  157.3551 N   0  0  0  0  0  0  0  0  0  0  0  0
  151.2222  138.0653  156.5883 C   0  0  0  0  0  0  0  0  0  0  0  0
  151.5286  139.5713  156.6366 C   0  0  2  0  0  0  0  0  0  0  0  0
  151.5650  140.1007  158.0838 C   0  0  0  0  0  0  0  0  0  0  0  0
  151.7998  141.5399  158.1409 N   0  0  0  0  0  0  0  0  0  0  0  0
  151.8417  142.0059  159.5279 C   0  0  0  0  0  0  0  0  0  0  0  0
  152.6468  143.3037  159.7734 C   0  0  0  0  0  0  0  0  0  0  0  0
  152.5299  143.7566  161.2373 C   0  0  0  0  0  0  0  0  0  0  0  0
  152.1981  144.4396  158.8378 C   0  0  0  0  0  0  0  0  0  0  0  0
  150.7808  142.2186  157.3446 C   0  0  0  0  0  0  0  0  0  0  0  0
  150.7264  141.6834  155.9040 C   0  0  0  0  0  0  0  0  0  0  0  0
  150.5139  140.2766  155.9257 O   0  0  0  0  0  0  0  0  0  0  0  0
  147.9635  137.0788  161.2515 N   0  0  0  0  0  0  0  0  0  0  0  0
  147.5982  136.1499  162.2328 O   0  0  0  0  0  0  0  0  0  0  0  0
  147.4217  132.8172  162.0888 H   0  0  0  0  0  0  0  0  0  0  0  0
  146.4257  133.8971  163.0653 H   0  0  0  0  0  0  0  0  0  0  0  0
  148.1364  133.6879  163.4477 H   0  0  0  0  0  0  0  0  0  0  0  0
  148.4393  134.1217  159.7950 H   0  0  0  0  0  0  0  0  0  0  0  0
  148.0245  137.3478  158.4241 H   0  0  0  0  0  0  0  0  0  0  0  0
  149.1400  138.0096  156.9526 H   0  0  0  0  0  0  0  0  0  0  0  0
  152.0816  137.4863  156.9310 H   0  0  0  0  0  0  0  0  0  0  0  0
  151.0419  137.7625  155.5566 H   0  0  0  0  0  0  0  0  0  0  0  0
  152.4938  139.7547  156.1604 H   0  0  0  0  0  0  0  0  0  0  0  0
  150.6225  139.8618  158.5794 H   0  0  0  0  0  0  0  0  0  0  0  0
  152.3472  139.5794  158.6366 H   0  0  0  0  0  0  0  0  0  0  0  0
  150.8281  142.1133  159.9176 H   0  0  0  0  0  0  0  0  0  0  0  0
  152.2918  141.2142  160.1284 H   0  0  0  0  0  0  0  0  0  0  0  0
  153.7037  143.1045  159.5898 H   0  0  0  0  0  0  0  0  0  0  0  0
  151.4949  143.9726  161.5044 H   0  0  0  0  0  0  0  0  0  0  0  0
  153.1156  144.6581  161.4191 H   0  0  0  0  0  0  0  0  0  0  0  0
  152.8968  142.9870  161.9172 H   0  0  0  0  0  0  0  0  0  0  0  0
  151.1540  144.7035  159.0095 H   0  0  0  0  0  0  0  0  0  0  0  0
  152.2979  144.1648  157.7886 H   0  0  0  0  0  0  0  0  0  0  0  0
  152.7961  145.3374  158.9968 H   0  0  0  0  0  0  0  0  0  0  0  0
  149.8026  142.0969  157.8124 H   0  0  0  0  0  0  0  0  0  0  0  0
  150.9827  143.2884  157.3077 H   0  0  0  0  0  0  0  0  0  0  0  0
  149.9145  142.1583  155.3532 H   0  0  0  0  0  0  0  0  0  0  0  0
  151.6513  141.9108  155.3717 H   0  0  0  0  0  0  0  0  0  0  0  0
  1  2  1  0  0  0  0
  1 22  1  0  0  0  0
  1 23  1  0  0  0  0
  1 24  1  0  0  0  0
  2 21  1  0  0  0  0
  2  3  2  0  0  0  0
  3  4  1  0  0  0  0
  3 25  1  0  0  0  0
  4  5  1  0  0  0  0
  4 20  2  0  0  0  0
  5  6  1  0  0  0  0
  5 26  1  0  0  0  0
  6  7  2  0  0  0  0
  6  8  1  0  0  0  0
  8  9  1  0  0  0  0
  8 27  1  0  0  0  0
  9 10  1  0  0  0  0
  9 28  1  0  0  0  0
  9 29  1  0  0  0  0
 10 19  1  0  0  0  0
 10 11  1  0  0  0  0
 10 30  1  0  0  0  0
 11 12  1  0  0  0  0
 11 31  1  0  0  0  0
 11 32  1  0  0  0  0
 12 13  1  0  0  0  0
 12 17  1  0  0  0  0
 13 14  1  0  0  0  0
 13 33  1  0  0  0  0
 13 34  1  0  0  0  0
 14 15  1  0  0  0  0
 14 16  1  0  0  0  0
 14 35  1  0  0  0  0
 15 36  1  0  0  0  0
 15 37  1  0  0  0  0
 15 38  1  0  0  0  0
 16 39  1  0  0  0  0
 16 40  1  0  0  0  0
 16 41  1  0  0  0  0
 17 18  1  0  0  0  0
 17 42  1  0  0  0  0
 17 43  1  0  0  0  0
 18 19  1  0  0  0  0
 18 44  1  0  0  0  0
 18 45  1  0  0  0  0
 20 21  1  0  0  0  0
M  END
> <s_m_source_file>
AV-unprocessed.smi

> <i_m_source_file_index>
1254

> <i_lp_mmshare_version>
43012

> <i_f3d_flags>
0

> <s_epik_input>
W0NIM11jMVtjSF1jKG5vMSlbTkhdQyg9TylbTkhdW0NIMl1bQ0BASF0yW0NIMl1OKFtDSDJdW0NIMl1PMilbQ0gyXVtDSF0oW0NIM10pW0NIM10=

> <s_epik_cmdline>
J2VwaWtfcHl0aG9uJywgJy1waCcsICc3LjAnLCAnLXRuJywgJzgnLCAnLW1hJywgJzIwMCcsICctbWV0YWxfYmluZGluZycsICctaW1hZScsICc8aW5maWxlLm1hZT4nLCAnLW9tYWUnLCAnPG91dGZpbGUubWFlPic=

> <r_epik_Ionization_Penalty>
1.11086

> <r_epik_Ionization_Penalty_Charging>
0

> <r_epik_Ionization_Penalty_Neutral>
1.11086

> <r_epik_State_Penalty>
1.16881

> <r_epik_Charging_Adjusted_Penalty>
1.16881

> <i_epik_Tot_Q>
0

> <i_epik_Tot_abs_Q>
0

> <r_epik_Metal_State_Penalty>
1.1835

> <b_epik_Metal_Only>
0

> <s_lp_Force_Field>
OPLS_2005

> <r_lp_Energy>
24.7903

> <b_lp_Chiralities_Consistent>
1

> <s_lp_Variant>
AV-unprocessed.smi:1254-5

> <Gold.Version>
5.8.1

> <Gold.Id.Protein>
6NUR|6NUR_protein|mol2

> <Gold.PLP.Fitness>
46.4888

> <Gold.PLP.PLP>
-40.1720

> <Gold.PLP.part.hbond>
-3.0000

> <Gold.PLP.part.metal>
0.0000

> <Gold.PLP.part.buried>
-6.0236

> <Gold.PLP.part.nonpolar>
-30.3029

> <Gold.PLP.part.repulsive>
0.1940

> <Gold.PLP.ligand.clash>
0.0000

> <Gold.PLP.ligand.torsion>
1.1044

> <Gold.PLP.Chemscore.Hbond>
2.8080

> <Gold.PLP.Chemscore.CHOScore>
0.0000

> <Gold.PLP.Chemscore.Metal>
0.0000

> <Gold.Chemscore.Hbonds>
donor molecule, donor type, donor heavy atom, donor atom, acceptor molecule, acceptor atom, score
      P1  H  6896  6907       L1     7  0.90
      P1  H  6931  6943       L1    20  1.00
      P1  H  6934  6947       L1    20  0.59

> <Gold.PLP.Chemscore.Internal.Correction>
0.1017

> <Gold.Rescore>
     Score         DG    S(hbond)    S(metal)    S(lipo)     H(rot)  DE(clash)    DE(int)     intcor
     19.86     -21.04       2.58        0.00      96.34       1.69       0.04       1.14       ----

> <Gold.Chemscore.Fitness>
19.8624

> <Gold.Chemscore.DG>
-21.0399

> <Gold.Chemscore.ZeroCoef>
-5.4800

> <Gold.Chemscore.Hbond>
2.5794

> <Gold.Chemscore.Metal>
0.0000

> <Gold.Chemscore.Lipo>
96.3362

> <Gold.Chemscore.Internal_Hbond>
0.0000

> <Gold.Chemscore.DEClash>
0.0416

> <Gold.Chemscore.DEInternal>
1.1359

> <Gold.Chemscore.Rot>
1.6900

> <Gold.Chemscore.Internal.Correction>
   9.000000E+99

> <Gold.Chemscore.Hbonds>
donor molecule, donor type, donor heavy atom, donor atom, acceptor molecule, acceptor atom, score
      P1  H  6896  6907       L1     7  0.80
      P1  H  6931  6943       L1    20  0.75
      P1  H  6934  6947       L1    20  0.56

> <Gold.Chemscore.Hbond.Weighted>
-8.6151

> <Gold.Chemscore.Metal.Weighted>
-0.0000

> <Gold.Chemscore.Lipo.Weighted>
-11.2713

> <Gold.Chemscore.Internal_Hbond.Weighted>
0.0000

> <Gold.Chemscore.DEClash.Weighted>
0.0416

> <Gold.Chemscore.DEInternal.Weighted>
1.1359

> <Gold.Chemscore.Rot.Weighted>
4.3265

> <Gold.Chemscore.Internal.Correction.Weighted>
   9.000000E+99

> <Gold.Protein.RotatedTorsions>
[ 6907 6896 6895 6894 ] final  -39.29 input  -60.11 | X-H torsion
[ 7974 7965 7964 7962 ] final  -97.09 input  175.53 | X-H torsion
[ 8008 7997 7996 7995 ] final  122.66 input   59.86 | X-H torsion
[ 10167 10162 10161 10158 ] final  -11.35 input  -65.29 | X-H torsion
[ 10718 10713 10712 10709 ] final -172.10 input   66.30 | X-H torsion
[ 10763 10752 10751 10750 ] final -149.00 input  -60.55 | X-H torsion
[ 11005 11000 10999 10996 ] final  113.27 input  -57.11 | X-H torsion

> <Gold.Protein.ActiveResidues>
 VAL166  LYS551  ARG553  GLY616  TRP617  ASP618  TYR619  PRO620  LYS621  CYS622 
 ASP623  PHE694  ASN695  SER759  ASP760  ASP761  ALA762  ILE779  LEU786  VAL792 
 PHE793  MET794  SER795  GLU796  ALA797  LYS798  CYS799  TRP800  GLU811  SER814 

> <Gold.Protein.RotatedAtoms>
  150.9921  134.9253  159.7905 H   0  0  0  0  0  0  0  0  0  0  0  0  # atno 6907 bound_to 6896
  152.5254  134.3268  159.9178 H   0  0  0  0  0  0  0  0  0  0  0  0  # atno 6908 bound_to 6896
  151.3273  133.3973  159.2694 H   0  0  0  0  0  0  0  0  0  0  0  0  # atno 6909 bound_to 6896
  145.3383  140.9455  143.2623 H   0  0  0  0  0  0  0  0  0  0  0  0  # atno 7974 bound_to 7965
  156.2736  140.2781  156.1503 H   0  0  0  0  0  0  0  0  0  0  0  0  # atno 8008 bound_to 7997
  155.0861  140.0388  157.2672 H   0  0  0  0  0  0  0  0  0  0  0  0  # atno 8009 bound_to 7997
  154.6926  140.2632  155.6803 H   0  0  0  0  0  0  0  0  0  0  0  0  # atno 8010 bound_to 7997
  140.7136  143.5649  150.9155 H   0  0  0  0  0  0  0  0  0  0  0  0  # atno 10167 bound_to 10162
  156.7505  130.9376  151.3114 H   0  0  0  0  0  0  0  0  0  0  0  0  # atno 10718 bound_to 10713
  154.8201  135.3320  154.7062 H   0  0  0  0  0  0  0  0  0  0  0  0  # atno 10763 bound_to 10752
  153.7696  135.6926  153.4913 H   0  0  0  0  0  0  0  0  0  0  0  0  # atno 10764 bound_to 10752
  153.2054  135.4501  155.0265 H   0  0  0  0  0  0  0  0  0  0  0  0  # atno 10765 bound_to 10752
  139.8948  134.9546  156.6713 H   0  0  0  0  0  0  0  0  0  0  0  0  # atno 11005 bound_to 11000
  144.8810  139.4904  143.6723 LP  0  0  0  0  0  0  0  0  0  0  0  0  # atno 17320 bound_to 7965
  146.3018  139.7450  142.9086 LP  0  0  0  0  0  0  0  0  0  0  0  0  # atno 17321 bound_to 7965
  139.9375  143.6421  152.3062 LP  0  0  0  0  0  0  0  0  0  0  0  0  # atno 17342 bound_to 10162
  139.6894  144.7648  151.1466 LP  0  0  0  0  0  0  0  0  0  0  0  0  # atno 17343 bound_to 10162
  157.6779  130.9112  150.0195 LP  0  0  0  0  0  0  0  0  0  0  0  0  # atno 17370 bound_to 10713
  156.1404  130.3642  149.9591 LP  0  0  0  0  0  0  0  0  0  0  0  0  # atno 17371 bound_to 10713
  140.7371  133.9009  155.8252 LP  0  0  0  0  0  0  0  0  0  0  0  0  # atno 17394 bound_to 11000
  141.0107  134.1024  157.4224 LP  0  0  0  0  0  0  0  0  0  0  0  0  # atno 17395 bound_to 11000

$$$$
