AV-unprocessed.smi:2526|AV-procd|sdf|9935|dock3
  -GOLD-   2272013583D 1   1.00000     0.00000
 Structure written by MMmdl.
 29 30  0  0  0  0  0  0  0  0  2 V2000
  146.6679  142.2774  154.7918 C   0  0  0  0  0  0  0  0  0  0  0  0
  147.9379  141.6736  155.1340 N   0  0  0  0  0  0  0  0  0  0  0  0
  148.8105  140.9848  154.3204 C   0  0  0  0  0  0  0  0  0  0  0  0
  149.8822  140.6087  155.0847 C   0  0  0  0  0  0  0  0  0  0  0  0
  151.1291  139.8416  154.6919 C   0  0  1  0  0  0  0  0  0  0  0  0
  152.1084  139.8467  155.7820 N   0  0  0  0  0  0  0  0  0  0  0  0
  152.3097  138.8681  156.6845 C   0  0  0  0  0  0  0  0  0  0  0  0
  153.0761  139.0203  157.6321 O   0  0  0  0  0  0  0  0  0  0  0  0
  151.6049  137.5140  156.4958 C   0  0  0  0  0  0  0  0  0  0  0  0
  150.4598  137.5301  155.4668 C   0  0  0  0  0  0  0  0  0  0  0  0
  150.8218  138.3904  154.2487 C   0  0  1  0  0  0  0  0  0  0  0  0
  149.7832  138.3244  153.2036 N   0  3  0  0  0  0  0  0  0  0  0  0
  149.5495  141.1144  156.3752 C   0  0  0  0  0  0  0  0  0  0  0  0
  148.3936  141.7554  156.3999 N   0  0  0  0  0  0  0  0  0  0  0  0
  146.4624  142.1407  153.7299 H   0  0  0  0  0  0  0  0  0  0  0  0
  146.6945  143.3450  155.0125 H   0  0  0  0  0  0  0  0  0  0  0  0
  145.8695  141.8110  155.3699 H   0  0  0  0  0  0  0  0  0  0  0  0
  148.6020  140.8259  153.2722 H   0  0  0  0  0  0  0  0  0  0  0  0
  151.6097  140.3489  153.8544 H   0  0  0  0  0  0  0  0  0  0  0  0
  152.6254  140.7046  155.9136 H   0  0  0  0  0  0  0  0  0  0  0  0
  152.3648  136.8019  156.1729 H   0  0  0  0  0  0  0  0  0  0  0  0
  151.2374  137.1564  157.4581 H   0  0  0  0  0  0  0  0  0  0  0  0
  150.2445  136.5083  155.1528 H   0  0  0  0  0  0  0  0  0  0  0  0
  149.5478  137.9016  155.9363 H   0  0  0  0  0  0  0  0  0  0  0  0
  151.7255  137.9715  153.8032 H   0  0  0  0  0  0  0  0  0  0  0  0
  148.8853  138.5472  153.6092 H   0  0  0  0  0  0  0  0  0  0  0  0
  149.7546  137.3928  152.8142 H   0  0  0  0  0  0  0  0  0  0  0  0
  150.1175  141.0398  157.2909 H   0  0  0  0  0  0  0  0  0  0  0  0
  149.9959  138.9880  152.4725 H   0  0  0  0  0  0  0  0  0  0  0  0
  1  2  1  0  0  0  0
  1 15  1  0  0  0  0
  1 16  1  0  0  0  0
  1 17  1  0  0  0  0
  2 14  1  0  0  0  0
  2  3  1  0  0  0  0
  3  4  2  0  0  0  0
  3 18  1  0  0  0  0
  4  5  1  0  0  0  0
  4 13  1  0  0  0  0
  5 11  1  0  0  0  0
  5  6  1  0  0  0  0
  5 19  1  0  0  0  0
  6  7  1  0  0  0  0
  6 20  1  0  0  0  0
  7  8  2  0  0  0  0
  7  9  1  0  0  0  0
  9 10  1  0  0  0  0
  9 21  1  0  0  0  0
  9 22  1  0  0  0  0
 10 11  1  0  0  0  0
 10 23  1  0  0  0  0
 10 24  1  0  0  0  0
 11 12  1  0  0  0  0
 11 25  1  0  0  0  0
 12 26  1  0  0  0  0
 12 27  1  0  0  0  0
 12 29  1  0  0  0  0
 13 14  2  0  0  0  0
 13 28  1  0  0  0  0
M  CHG  1  12   1
M  END
> <s_m_source_file>
AV-unprocessed.smi

> <i_m_source_file_index>
2526

> <i_lp_mmshare_version>
43012

> <i_f3d_flags>
0

> <s_epik_input>
W0NIM11uMVtjSF1jKFtjSF1uMSlbQ0BASF0yW05IXUMoPU8pW0NIMl1bQ0gyXVtDQEhdMltOSDJd

> <s_epik_cmdline>
J2VwaWtfcHl0aG9uJywgJy1waCcsICc3LjAnLCAnLXRuJywgJzgnLCAnLW1hJywgJzIwMCcsICctbWV0YWxfYmluZGluZycsICctaW1hZScsICc8aW5maWxlLm1hZT4nLCAnLW9tYWUnLCAnPG91dGZpbGUubWFlPic=

> <r_lp_tautomer_probability>
1

> <r_epik_Ionization_Penalty>
0.00878543

> <r_epik_Ionization_Penalty_Charging>
0.00874185

> <r_epik_Ionization_Penalty_Neutral>
4.35793e-05

> <r_epik_State_Penalty>
0.00660351

> <r_epik_Charging_Adjusted_Penalty>
0.0153454

> <i_epik_Tot_Q>
1

> <i_epik_Tot_abs_Q>
1

> <r_epik_Metal_State_Penalty>
0.00660727

> <b_epik_Metal_Only>
0

> <s_lp_Force_Field>
OPLS_2005

> <r_lp_Energy>
11.1602

> <b_lp_Chiralities_Consistent>
1

> <s_lp_Variant>
AV-unprocessed.smi:2526-2

> <Gold.Version>
5.8.1

> <Gold.Id.Protein>
6NUR|6NUR_protein|mol2

> <Gold.PLP.Fitness>
36.7467

> <Gold.PLP.PLP>
-21.9294

> <Gold.PLP.part.hbond>
-3.3814

> <Gold.PLP.part.metal>
0.0000

> <Gold.PLP.part.buried>
1.3369

> <Gold.PLP.part.nonpolar>
-19.6727

> <Gold.PLP.part.repulsive>
0.6878

> <Gold.PLP.ligand.clash>
0.0000

> <Gold.PLP.ligand.torsion>
0.1007

> <Gold.PLP.Chemscore.Hbond>
4.0000

> <Gold.PLP.Chemscore.CHOScore>
1.0000

> <Gold.PLP.Chemscore.Metal>
0.0000

> <Gold.Chemscore.Hbonds>
donor molecule, donor type, donor heavy atom, donor atom, acceptor molecule, acceptor atom, score
      L1  H    12    27       P1  7948  2.00
      L1  H    12    29       P1  7957  1.00
      P1  H  7997  8009       L1     8  1.00
      L1  C     3    18       P1  7957  1.00

> <Gold.PLP.Chemscore.Internal.Correction>
0.0187

> <Gold.Rescore>
     Score         DG    S(hbond)    S(metal)    S(lipo)     H(rot)  DE(clash)    DE(int)     intcor
     16.73     -17.90       2.91        0.00      44.96       1.00       0.85       0.32       ----

> <Gold.Chemscore.Fitness>
16.7320

> <Gold.Chemscore.DG>
-17.9024

> <Gold.Chemscore.ZeroCoef>
-5.4800

> <Gold.Chemscore.Hbond>
2.9107

> <Gold.Chemscore.Metal>
0.0000

> <Gold.Chemscore.Lipo>
44.9635

> <Gold.Chemscore.Internal_Hbond>
0.0000

> <Gold.Chemscore.DEClash>
0.8488

> <Gold.Chemscore.DEInternal>
0.3215

> <Gold.Chemscore.Rot>
1.0000

> <Gold.Chemscore.Internal.Correction>
   9.000000E+99

> <Gold.Chemscore.Hbonds>
donor molecule, donor type, donor heavy atom, donor atom, acceptor molecule, acceptor atom, score
      L1  H    12    27       P1  7948  0.33
      L1  H    12    29       P1  7957  0.49
      P1  H  7997  8009       L1     8  0.69

> <Gold.Chemscore.Hbond.Weighted>
-9.7217

> <Gold.Chemscore.Metal.Weighted>
-0.0000

> <Gold.Chemscore.Lipo.Weighted>
-5.2607

> <Gold.Chemscore.Internal_Hbond.Weighted>
0.0000

> <Gold.Chemscore.DEClash.Weighted>
0.8488

> <Gold.Chemscore.DEInternal.Weighted>
0.3215

> <Gold.Chemscore.Rot.Weighted>
2.5600

> <Gold.Chemscore.Internal.Correction.Weighted>
   9.000000E+99

> <Gold.Protein.RotatedTorsions>
[ 6907 6896 6895 6894 ] final  115.78 input  -60.11 | X-H torsion
[ 7974 7965 7964 7962 ] final -121.61 input  175.53 | X-H torsion
[ 8008 7997 7996 7995 ] final  152.17 input   59.86 | X-H torsion
[ 10167 10162 10161 10158 ] final   58.17 input  -65.29 | X-H torsion
[ 10718 10713 10712 10709 ] final  -74.59 input   66.30 | X-H torsion
[ 10763 10752 10751 10750 ] final  -62.88 input  -60.55 | X-H torsion
[ 11005 11000 10999 10996 ] final  -83.03 input  -57.11 | X-H torsion

> <Gold.Protein.ActiveResidues>
 VAL166  LYS551  ARG553  GLY616  TRP617  ASP618  TYR619  PRO620  LYS621  CYS622 
 ASP623  PHE694  ASN695  SER759  ASP760  ASP761  ALA762  ILE779  LEU786  VAL792 
 PHE793  MET794  SER795  GLU796  ALA797  LYS798  CYS799  TRP800  GLU811  SER814 

> <Gold.Protein.RotatedAtoms>
  152.4720  133.8050  159.6973 H   0  0  0  0  0  0  0  0  0  0  0  0  # atno 6907 bound_to 6896
  150.8714  133.7490  159.2966 H   0  0  0  0  0  0  0  0  0  0  0  0  # atno 6908 bound_to 6896
  151.5024  135.1065  159.9884 H   0  0  0  0  0  0  0  0  0  0  0  0  # atno 6909 bound_to 6896
  145.0385  140.8125  143.4281 H   0  0  0  0  0  0  0  0  0  0  0  0  # atno 7974 bound_to 7965
  156.2641  140.2028  156.6292 H   0  0  0  0  0  0  0  0  0  0  0  0  # atno 8008 bound_to 7997
  154.6696  140.0551  157.0176 H   0  0  0  0  0  0  0  0  0  0  0  0  # atno 8009 bound_to 7997
  155.1156  140.3219  155.4513 H   0  0  0  0  0  0  0  0  0  0  0  0  # atno 8010 bound_to 7997
  140.1901  144.4094  150.6575 H   0  0  0  0  0  0  0  0  0  0  0  0  # atno 10167 bound_to 10162
  156.0237  130.4420  150.2915 H   0  0  0  0  0  0  0  0  0  0  0  0  # atno 10718 bound_to 10713
  154.3066  135.6224  153.5447 H   0  0  0  0  0  0  0  0  0  0  0  0  # atno 10763 bound_to 10752
  152.9834  135.5691  154.5225 H   0  0  0  0  0  0  0  0  0  0  0  0  # atno 10764 bound_to 10752
  154.4866  135.2865  155.1506 H   0  0  0  0  0  0  0  0  0  0  0  0  # atno 10765 bound_to 10752
  141.1660  133.7274  156.8659 H   0  0  0  0  0  0  0  0  0  0  0  0  # atno 11005 bound_to 11000
  145.1679  139.2421  143.5357 LP  0  0  0  0  0  0  0  0  0  0  0  0  # atno 17320 bound_to 7965
  146.3507  140.1422  142.8594 LP  0  0  0  0  0  0  0  0  0  0  0  0  # atno 17321 bound_to 7965
  140.6461  143.2214  151.6181 LP  0  0  0  0  0  0  0  0  0  0  0  0  # atno 17342 bound_to 10162
  139.5259  144.3060  152.1034 LP  0  0  0  0  0  0  0  0  0  0  0  0  # atno 17343 bound_to 10162
  157.1018  131.0198  151.3082 LP  0  0  0  0  0  0  0  0  0  0  0  0  # atno 17370 bound_to 10713
  157.4774  130.7744  149.7381 LP  0  0  0  0  0  0  0  0  0  0  0  0  # atno 17371 bound_to 10713
  140.1815  134.9030  157.2954 LP  0  0  0  0  0  0  0  0  0  0  0  0  # atno 17394 bound_to 11000
  140.2389  134.3819  155.7489 LP  0  0  0  0  0  0  0  0  0  0  0  0  # atno 17395 bound_to 11000

$$$$
