AV-unprocessed.smi:588|AV-procd|sdf|3004|dock7
  -GOLD-   2262023513D 1   1.00000     0.00000
 Structure written by MMmdl.
 50 51  0  0  0  0  0  0  0  0  1 V2000
  150.0482  142.0220  157.4060 C   0  0  0  0  0  0  0  0  0  0  0  0
  150.2791  141.6997  155.9264 C   0  0  0  0  0  0  0  0  0  0  0  0
  149.7476  140.3090  155.5414 C   0  0  0  0  0  0  0  0  0  0  0  0
  149.9995  139.3129  156.5639 N   0  0  0  0  0  0  0  0  0  0  0  0
  149.0179  138.4529  157.0649 C   0  0  0  0  0  0  0  0  0  0  0  0
  147.7346  138.5556  156.5483 N   0  0  0  0  0  0  0  0  0  0  0  0
  149.2977  137.5345  158.0371 C   0  0  0  0  0  0  0  0  0  0  0  0
  148.3167  136.6487  158.5181 N   0  0  0  0  0  0  0  0  0  0  0  0
  147.7280  135.7234  157.5381 C   0  0  0  0  0  0  0  0  0  0  0  0
  148.7716  134.7413  156.9826 C   0  0  0  0  0  0  0  0  0  0  0  0
  149.2194  133.9045  158.0351 O   0  0  0  0  0  0  0  0  0  0  0  0
  148.1608  133.1821  158.6394 C   0  0  0  0  0  0  0  0  0  0  0  0
  147.9244  136.6244  159.8199 C   0  0  0  0  0  0  0  0  0  0  0  0
  148.3416  137.4480  160.6363 O   0  0  0  0  0  0  0  0  0  0  0  0
  146.9554  135.5254  160.3236 C   0  0  0  0  0  0  0  0  0  0  0  0
  145.7256  136.1375  161.0342 C   0  0  0  0  0  0  0  0  0  0  0  0
  145.6999  135.5679  162.4573 C   0  0  0  0  0  0  0  0  0  0  0  0
  147.1329  135.1253  162.7331 C   0  0  0  0  0  0  0  0  0  0  0  0
  147.6183  134.6141  161.3778 C   0  0  0  0  0  0  0  0  0  0  0  0
  150.6606  137.3986  158.5687 C   0  0  0  0  0  0  0  0  0  0  0  0
  151.0183  136.6000  159.4335 O   0  0  0  0  0  0  0  0  0  0  0  0
  151.5963  138.2632  158.0069 N   0  0  0  0  0  0  0  0  0  0  0  0
  151.3353  139.2092  157.0219 C   0  0  0  0  0  0  0  0  0  0  0  0
  152.2580  139.9024  156.5921 O   0  0  0  0  0  0  0  0  0  0  0  0
  152.5477  138.1915  158.3370 H   0  0  0  0  0  0  0  0  0  0  0  0
  150.4338  143.0113  157.6527 H   0  0  0  0  0  0  0  0  0  0  0  0
  150.5509  141.2988  158.0486 H   0  0  0  0  0  0  0  0  0  0  0  0
  148.9858  142.0075  157.6506 H   0  0  0  0  0  0  0  0  0  0  0  0
  149.7947  142.4605  155.3132 H   0  0  0  0  0  0  0  0  0  0  0  0
  151.3459  141.7625  155.7090 H   0  0  0  0  0  0  0  0  0  0  0  0
  148.6763  140.3218  155.3332 H   0  0  0  0  0  0  0  0  0  0  0  0
  150.2071  139.9452  154.6228 H   0  0  0  0  0  0  0  0  0  0  0  0
  147.5015  139.2274  155.8308 H   0  0  0  0  0  0  0  0  0  0  0  0
  146.9729  137.9924  156.8986 H   0  0  0  0  0  0  0  0  0  0  0  0
  146.8948  135.1765  157.9830 H   0  0  0  0  0  0  0  0  0  0  0  0
  147.2969  136.2852  156.7080 H   0  0  0  0  0  0  0  0  0  0  0  0
  148.3315  134.1341  156.1900 H   0  0  0  0  0  0  0  0  0  0  0  0
  149.6170  135.2806  156.5529 H   0  0  0  0  0  0  0  0  0  0  0  0
  148.5540  132.5571  159.4412 H   0  0  0  0  0  0  0  0  0  0  0  0
  147.6649  132.5317  157.9180 H   0  0  0  0  0  0  0  0  0  0  0  0
  147.4193  133.8559  159.0707 H   0  0  0  0  0  0  0  0  0  0  0  0
  146.6257  134.8798  159.5106 H   0  0  0  0  0  0  0  0  0  0  0  0
  145.7883  137.2263  161.0801 H   0  0  0  0  0  0  0  0  0  0  0  0
  144.8022  135.9023  160.5040 H   0  0  0  0  0  0  0  0  0  0  0  0
  145.3355  136.2881  163.1903 H   0  0  0  0  0  0  0  0  0  0  0  0
  145.0399  134.7000  162.4906 H   0  0  0  0  0  0  0  0  0  0  0  0
  147.7329  135.9809  163.0461 H   0  0  0  0  0  0  0  0  0  0  0  0
  147.1962  134.3682  163.5153 H   0  0  0  0  0  0  0  0  0  0  0  0
  147.2765  133.5882  161.2338 H   0  0  0  0  0  0  0  0  0  0  0  0
  148.7076  134.5933  161.3170 H   0  0  0  0  0  0  0  0  0  0  0  0
  1  2  1  0  0  0  0
  1 26  1  0  0  0  0
  1 27  1  0  0  0  0
  1 28  1  0  0  0  0
  2  3  1  0  0  0  0
  2 29  1  0  0  0  0
  2 30  1  0  0  0  0
  3  4  1  0  0  0  0
  3 31  1  0  0  0  0
  3 32  1  0  0  0  0
  4 23  1  0  0  0  0
  4  5  1  0  0  0  0
  5  6  1  0  0  0  0
  5  7  2  0  0  0  0
  6 33  1  0  0  0  0
  6 34  1  0  0  0  0
  7  8  1  0  0  0  0
  7 20  1  0  0  0  0
  8  9  1  0  0  0  0
  8 13  1  0  0  0  0
  9 10  1  0  0  0  0
  9 35  1  0  0  0  0
  9 36  1  0  0  0  0
 10 11  1  0  0  0  0
 10 37  1  0  0  0  0
 10 38  1  0  0  0  0
 11 12  1  0  0  0  0
 12 39  1  0  0  0  0
 12 40  1  0  0  0  0
 12 41  1  0  0  0  0
 13 14  2  0  0  0  0
 13 15  1  0  0  0  0
 15 19  1  0  0  0  0
 15 16  1  0  0  0  0
 15 42  1  0  0  0  0
 16 17  1  0  0  0  0
 16 43  1  0  0  0  0
 16 44  1  0  0  0  0
 17 18  1  0  0  0  0
 17 45  1  0  0  0  0
 17 46  1  0  0  0  0
 18 19  1  0  0  0  0
 18 47  1  0  0  0  0
 18 48  1  0  0  0  0
 19 49  1  0  0  0  0
 19 50  1  0  0  0  0
 20 21  2  0  0  0  0
 20 22  1  0  0  0  0
 22 25  1  0  0  0  0
 22 23  1  0  0  0  0
 23 24  2  0  0  0  0
M  END
> <s_m_source_file>
AV-unprocessed.smi

> <i_m_source_file_index>
588

> <i_lp_mmshare_version>
43012

> <i_f3d_flags>
0

> <s_epik_input>
W0NIM11bQ0gyXVtDSDJdbjFjKFtOSDJdKWMoYyg9TylbbkhdYzE9TylOKFtDSDJdW0NIMl1PW0NIM10pQyg9TylbQ0hdMltDSDJdW0NIMl1bQ0gyXVtDSDJdMg==

> <s_epik_cmdline>
J2VwaWtfcHl0aG9uJywgJy1waCcsICc3LjAnLCAnLXRuJywgJzgnLCAnLW1hJywgJzIwMCcsICctbWV0YWxfYmluZGluZycsICctaW1hZScsICc8aW5maWxlLm1hZT4nLCAnLW9tYWUnLCAnPG91dGZpbGUubWFlPic=

> <r_lp_tautomer_probability>
1

> <r_epik_Ionization_Penalty>
2.06963e-05

> <r_epik_Ionization_Penalty_Charging>
5.41733e-06

> <r_epik_Ionization_Penalty_Neutral>
1.52789e-05

> <r_epik_State_Penalty>
-0

> <r_epik_Charging_Adjusted_Penalty>
5.41733e-06

> <i_epik_Tot_Q>
0

> <i_epik_Tot_abs_Q>
0

> <r_epik_Metal_State_Penalty>
-0

> <b_epik_Metal_Only>
0

> <s_epik_Chemistry_Notes>
This compound has an imine and may undergo hydrolysis.

> <s_lp_Force_Field>
OPLS_2005

> <r_lp_Energy>
42.8074

> <b_lp_Chiralities_Consistent>
1

> <s_lp_Variant>
AV-unprocessed.smi:588-1

> <Gold.Version>
5.8.1

> <Gold.Id.Protein>
6NUR|6NUR_protein|mol2

> <Gold.PLP.Fitness>
39.9894

> <Gold.PLP.PLP>
-28.0922

> <Gold.PLP.part.hbond>
-4.6249

> <Gold.PLP.part.metal>
0.0000

> <Gold.PLP.part.buried>
-3.5792

> <Gold.PLP.part.nonpolar>
-21.1167

> <Gold.PLP.part.repulsive>
0.0751

> <Gold.PLP.ligand.clash>
0.0000

> <Gold.PLP.ligand.torsion>
1.4441

> <Gold.PLP.Chemscore.Hbond>
4.1680

> <Gold.PLP.Chemscore.CHOScore>
0.0000

> <Gold.PLP.Chemscore.Metal>
0.0000

> <Gold.Chemscore.Hbonds>
donor molecule, donor type, donor heavy atom, donor atom, acceptor molecule, acceptor atom, score
      P1  H  6896  6907       L1    11  0.99
      P1  H  6896  6908       L1    21  1.00
      P1  H  6931  6943       L1    14  0.67
      P1  H  6934  6947       L1    14  0.53
      P1  H  7997  8010       L1    24  0.83

> <Gold.PLP.Chemscore.Internal.Correction>
2.2813

> <Gold.Rescore>
     Score         DG    S(hbond)    S(metal)    S(lipo)     H(rot)  DE(clash)    DE(int)     intcor
     17.12     -20.28       4.19        0.00      52.14       2.07       0.07       3.09       ----

> <Gold.Chemscore.Fitness>
17.1179

> <Gold.Chemscore.DG>
-20.2774

> <Gold.Chemscore.ZeroCoef>
-5.4800

> <Gold.Chemscore.Hbond>
4.1877

> <Gold.Chemscore.Metal>
0.0000

> <Gold.Chemscore.Lipo>
52.1447

> <Gold.Chemscore.Internal_Hbond>
0.0000

> <Gold.Chemscore.DEClash>
0.0727

> <Gold.Chemscore.DEInternal>
3.0867

> <Gold.Chemscore.Rot>
2.0666

> <Gold.Chemscore.Internal.Correction>
   9.000000E+99

> <Gold.Chemscore.Hbonds>
donor molecule, donor type, donor heavy atom, donor atom, acceptor molecule, acceptor atom, score
      P1  H  6896  6907       L1    11  0.53
      P1  H  6896  6908       L1    21  0.97
      P1  H  6931  6943       L1    14  0.68
      P1  H  6934  6947       L1    14  0.47
      P1  H  7997  8010       L1    24  0.80

> <Gold.Chemscore.Hbond.Weighted>
-13.9869

> <Gold.Chemscore.Metal.Weighted>
-0.0000

> <Gold.Chemscore.Lipo.Weighted>
-6.1009

> <Gold.Chemscore.Internal_Hbond.Weighted>
0.0000

> <Gold.Chemscore.DEClash.Weighted>
0.0727

> <Gold.Chemscore.DEInternal.Weighted>
3.0867

> <Gold.Chemscore.Rot.Weighted>
5.2905

> <Gold.Chemscore.Internal.Correction.Weighted>
   9.000000E+99

> <Gold.Protein.RotatedTorsions>
[ 6907 6896 6895 6894 ] final -126.71 input  -60.11 | X-H torsion
[ 7974 7965 7964 7962 ] final  -35.72 input  175.53 | X-H torsion
[ 8008 7997 7996 7995 ] final   65.93 input   59.86 | X-H torsion
[ 10167 10162 10161 10158 ] final  -22.58 input  -65.29 | X-H torsion
[ 10718 10713 10712 10709 ] final  161.05 input   66.30 | X-H torsion
[ 10763 10752 10751 10750 ] final   67.51 input  -60.55 | X-H torsion
[ 11005 11000 10999 10996 ] final   68.30 input  -57.11 | X-H torsion

> <Gold.Protein.ActiveResidues>
 VAL166  LYS551  ARG553  GLY616  TRP617  ASP618  TYR619  PRO620  LYS621  CYS622 
 ASP623  PHE694  ASN695  SER759  ASP760  ASP761  ALA762  ILE779  LEU786  VAL792 
 PHE793  MET794  SER795  GLU796  ALA797  LYS798  CYS799  TRP800  GLU811  SER814 

> <Gold.Protein.RotatedAtoms>
  150.8998  133.7134  159.2881 H   0  0  0  0  0  0  0  0  0  0  0  0  # atno 6907 bound_to 6896
  151.4656  135.1040  159.9747 H   0  0  0  0  0  0  0  0  0  0  0  0  # atno 6908 bound_to 6896
  152.4870  133.8350  159.7178 H   0  0  0  0  0  0  0  0  0  0  0  0  # atno 6909 bound_to 6896
  146.0723  140.6192  142.8947 H   0  0  0  0  0  0  0  0  0  0  0  0  # atno 7974 bound_to 7965
  155.6694  140.3497  155.4812 H   0  0  0  0  0  0  0  0  0  0  0  0  # atno 8008 bound_to 7997
  155.9701  140.1154  157.0842 H   0  0  0  0  0  0  0  0  0  0  0  0  # atno 8009 bound_to 7997
  154.4164  140.1158  156.5281 H   0  0  0  0  0  0  0  0  0  0  0  0  # atno 8010 bound_to 7997
  140.7286  143.4521  151.0501 H   0  0  0  0  0  0  0  0  0  0  0  0  # atno 10167 bound_to 10162
  157.1419  131.0542  151.2322 H   0  0  0  0  0  0  0  0  0  0  0  0  # atno 10718 bound_to 10713
  153.0190  135.5281  154.6990 H   0  0  0  0  0  0  0  0  0  0  0  0  # atno 10763 bound_to 10752
  154.6104  135.2877  155.0440 H   0  0  0  0  0  0  0  0  0  0  0  0  # atno 10764 bound_to 10752
  154.1464  135.6570  153.5006 H   0  0  0  0  0  0  0  0  0  0  0  0  # atno 10765 bound_to 10752
  139.9719  134.6885  156.0429 H   0  0  0  0  0  0  0  0  0  0  0  0  # atno 11005 bound_to 11000
  144.7239  140.4463  143.6987 LP  0  0  0  0  0  0  0  0  0  0  0  0  # atno 17320 bound_to 7965
  145.6369  139.1544  143.2937 LP  0  0  0  0  0  0  0  0  0  0  0  0  # atno 17321 bound_to 7965
  139.8198  143.7835  152.3176 LP  0  0  0  0  0  0  0  0  0  0  0  0  # atno 17342 bound_to 10162
  139.7914  144.7409  150.9950 LP  0  0  0  0  0  0  0  0  0  0  0  0  # atno 17343 bound_to 10162
  157.4299  130.7484  149.6981 LP  0  0  0  0  0  0  0  0  0  0  0  0  # atno 17370 bound_to 10713
  155.9787  130.4048  150.3633 LP  0  0  0  0  0  0  0  0  0  0  0  0  # atno 17371 bound_to 10713
  141.1398  133.6567  156.3698 LP  0  0  0  0  0  0  0  0  0  0  0  0  # atno 17394 bound_to 11000
  140.5275  134.6245  157.5339 LP  0  0  0  0  0  0  0  0  0  0  0  0  # atno 17395 bound_to 11000

$$$$
