#       Name:                AV-unprocessed.smi:1634
#       Creating user name   scv26
#       Creation time:       Fri Mar 27 07:22:25 2020


#       File generated by GOLD software.
#

@<TRIPOS>MOLECULE
AV-unprocessed.smi:1634
    44    44     1
SMALL
NO_CHARGES


@<TRIPOS>ATOM
      1 ****        -3.6837  -1.0841   0.4243 C.3            1 S1                 0.0000
      2 ****        -3.1906  -0.3439   1.6779 C.3            1 S1                 0.0000
      3 ****        -3.8781   1.0230   1.8085 C.3            1 S1                 0.0000
      4 ****        -1.6611  -0.1919   1.6783 C.3            1 S1                 0.0000
      5 ****        -1.0606  -1.4820   1.7325 O.3            1 S1                 0.0000
      6 ****         0.3644  -1.4952   1.7670 C.3            1 S1                 0.0000
      7 ****         0.8062  -2.9209   2.1283 C.3            1 S1                 0.0000
      8 ****         0.9339  -1.0627   0.4063 C.2            1 S1                 0.0000
      9 ****         0.6978  -1.7435  -0.5920 O.2            1 S1                 0.0000
     10 ****         1.6672   0.0674   0.4198 N.am           1 S1                 0.0000
     11 ****         2.2436   0.7650  -0.6546 C.2            1 S1                 0.0000
     12 ****         1.8508   0.6446  -1.9528 C.2            1 S1                 0.0000
     13 ****         2.4669   1.4100  -3.0288 C.2            1 S1                 0.0000
     14 ****         1.9986   1.3556  -4.4724 C.3            1 S1                 0.0000
     15 ****         2.1786   2.5271  -5.0829 F              1 S1                 0.0000
     16 ****         2.6873   0.4296  -5.1379 F              1 S1                 0.0000
     17 ****         0.7052   1.0399  -4.5417 F              1 S1                 0.0000
     18 ****         3.4457   2.2687  -2.5665 C.2            1 S1                 0.0000
     19 ****         3.8974   2.4442  -1.3050 N.pl3          1 S1                -1.0000
     20 ****         3.3183   1.7175  -0.3076 C.2            1 S1                 0.0000
     21 ****         3.6705   1.8382   0.8662 O.2            1 S1                 0.0000
     22 ****        -3.4275  -0.5392  -0.4849 H              1 S1                 0.0000
     23 ****        -4.7666  -1.2103   0.4431 H              1 S1                 0.0000
     24 ****        -3.2411  -2.0778   0.3507 H              1 S1                 0.0000
     25 ****        -3.4688  -0.9369   2.5501 H              1 S1                 0.0000
     26 ****        -3.6387   1.6690   0.9632 H              1 S1                 0.0000
     27 ****        -3.5648   1.5357   2.7182 H              1 S1                 0.0000
     28 ****        -4.9624   0.9157   1.8491 H              1 S1                 0.0000
     29 ****        -1.3471   0.3594   0.7910 H              1 S1                 0.0000
     30 ****        -1.3440   0.3859   2.5478 H              1 S1                 0.0000
     31 ****         0.7117  -0.8183   2.5501 H              1 S1                 0.0000
     32 ****         1.8933  -3.0033   2.1544 H              1 S1                 0.0000
     33 ****         0.4312  -3.6522   1.4112 H              1 S1                 0.0000
     34 ****         0.4313  -3.2035   3.1122 H              1 S1                 0.0000
     35 ****         1.8569   0.4685   1.3270 H              1 S1                 0.0000
     36 ****         1.0446  -0.0166  -2.2260 H              1 S1                 0.0000
     37 ****         3.9355   2.9176  -3.3235 H              1 S1                 0.0000
     38 ****        -1.3539  -1.9924   0.9241 LP             1 S1                 0.0000
     39 ****        -1.3929  -1.9421   2.5559 LP             1 S1                 0.0000
     40 ****         0.1399  -2.5697  -0.5133 LP             1 S1                 0.0000
     41 ****         1.0638  -1.4703  -1.4816 LP             1 S1                 0.0000
     42 ****         4.6359   3.0892  -1.1087 LP             1 S1                 0.0000
     43 ****         3.2295   1.2929   1.5791 LP             1 S1                 0.0000
     44 ****         4.3974   2.4815   1.1065 LP             1 S1                 0.0000
@<TRIPOS>BOND
    1    1    2 1     
    2    1   22 1     
    3    1   23 1     
    4    1   24 1     
    5    2    3 1     
    6    2    4 1     
    7    2   25 1     
    8    3   26 1     
    9    3   27 1     
   10    3   28 1     
   11    4    5 1     
   12    4   29 1     
   13    4   30 1     
   14    5    6 1     
   15    6    7 1     
   16    6    8 1     
   17    6   31 1     
   18    7   32 1     
   19    7   33 1     
   20    7   34 1     
   21    8    9 2     
   22    8   10 am    
   23   10   11 1     
   24   10   35 1     
   25   11   20 1     
   26   11   12 2     
   27   12   13 1     
   28   12   36 1     
   29   13   14 1     
   30   13   18 2     
   31   14   15 1     
   32   14   16 1     
   33   14   17 1     
   34   18   19 1     
   35   18   37 1     
   36   19   20 1     
   37   20   21 2     
   38    5   38 1     
   39    5   39 1     
   40    9   40 1     
   41    9   41 1     
   42   19   42 1     
   43   21   43 1     
   44   21   44 1     
@<TRIPOS>SUBSTRUCTURE
      1 S1             1
@<TRIPOS>SET
LONE_PAIRS      STATIC     ATOMS    <user>   **** ""
7 38 39 40 41 42 43 44
DONOR_HYDROGENS      STATIC     ATOMS    <user>   **** ""
1 35
ATOM$BLUE        STATIC     ATOMS    COLORGROUP SYSTEM
7 38 39 40 41 42 43 44
ATOM$RED        STATIC     ATOMS    COLORGROUP SYSTEM
1 35
