AV-unprocessed.smi:3252|AV-procd|sdf|12442|dock9
  -GOLD-   2272018333D 1   1.00000     0.00000
 Structure written by MMmdl.
 37 38  0  0  0  0  0  0  0  0  2 V2000
  143.8114  136.0023  151.6913 C   0  0  0  0  0  0  0  0  0  0  0  0
  145.2901  135.8730  151.2988 C   0  0  0  0  0  0  0  0  0  0  0  0
  146.2040  136.4418  152.3206 N   0  3  2  0  0  0  0  0  0  0  0  0
  145.9351  135.9045  153.6754 C   0  0  0  0  0  0  0  0  0  0  0  0
  146.9289  136.4858  154.6935 C   0  0  0  0  0  0  0  0  0  0  0  0
  146.8547  137.9050  154.6696 O   0  0  0  0  0  0  0  0  0  0  0  0
  147.2147  138.4434  153.4012 C   0  0  2  0  0  0  0  0  0  0  0  0
  147.1871  139.9745  153.5064 C   0  0  0  0  0  0  0  0  0  0  0  0
  148.5259  140.5427  153.4291 N   0  0  0  0  0  0  0  0  0  0  0  0
  149.2831  140.7494  154.5899 C   0  0  0  0  0  0  0  0  0  0  0  0
  148.6828  141.4168  155.6784 C   0  0  0  0  0  0  0  0  0  0  0  0
  149.4382  141.6230  156.8496 C   0  0  0  0  0  0  0  0  0  0  0  0
  150.7662  141.1543  156.8910 C   0  0  0  0  0  0  0  0  0  0  0  0
  151.5850  141.3396  158.0767 C   0  0  0  0  0  0  0  0  0  0  0  0
  152.2374  141.4873  159.0208 N   0  0  0  0  0  0  0  0  0  0  0  0
  151.2796  140.4996  155.7530 C   0  0  0  0  0  0  0  0  0  0  0  0
  150.5599  140.2987  154.6277 N   0  0  0  0  0  0  0  0  0  0  0  0
  146.2166  137.9257  152.3466 C   0  0  0  0  0  0  0  0  0  0  0  0
  143.1696  135.6619  150.8785 H   0  0  0  0  0  0  0  0  0  0  0  0
  143.5489  137.0387  151.9052 H   0  0  0  0  0  0  0  0  0  0  0  0
  143.5657  135.4031  152.5677 H   0  0  0  0  0  0  0  0  0  0  0  0
  145.5473  134.8308  151.1045 H   0  0  0  0  0  0  0  0  0  0  0  0
  145.4334  136.4076  150.3587 H   0  0  0  0  0  0  0  0  0  0  0  0
  144.9133  136.1494  153.9696 H   0  0  0  0  0  0  0  0  0  0  0  0
  146.0152  134.8168  153.6673 H   0  0  0  0  0  0  0  0  0  0  0  0
  146.6862  136.1369  155.6973 H   0  0  0  0  0  0  0  0  0  0  0  0
  147.9468  136.1570  154.4794 H   0  0  0  0  0  0  0  0  0  0  0  0
  148.2233  138.1205  153.1349 H   0  0  0  0  0  0  0  0  0  0  0  0
  146.5913  140.3851  152.6901 H   0  0  0  0  0  0  0  0  0  0  0  0
  146.7101  140.2796  154.4389 H   0  0  0  0  0  0  0  0  0  0  0  0
  148.9534  140.6693  152.5231 H   0  0  0  0  0  0  0  0  0  0  0  0
  147.6619  141.7659  155.6220 H   0  0  0  0  0  0  0  0  0  0  0  0
  149.0008  142.1314  157.6969 H   0  0  0  0  0  0  0  0  0  0  0  0
  152.2927  140.1244  155.7396 H   0  0  0  0  0  0  0  0  0  0  0  0
  146.4956  138.3160  151.3683 H   0  0  0  0  0  0  0  0  0  0  0  0
  145.2129  138.2954  152.5637 H   0  0  0  0  0  0  0  0  0  0  0  0
  147.1367  136.1413  152.0751 H   0  0  0  0  0  0  0  0  0  0  0  0
  1  2  1  0  0  0  0
  1 19  1  0  0  0  0
  1 20  1  0  0  0  0
  1 21  1  0  0  0  0
  2  3  1  0  0  0  0
  2 22  1  0  0  0  0
  2 23  1  0  0  0  0
  3 18  1  0  0  0  0
  3  4  1  0  0  0  0
  3 37  1  0  0  0  0
  4  5  1  0  0  0  0
  4 24  1  0  0  0  0
  4 25  1  0  0  0  0
  5  6  1  0  0  0  0
  5 26  1  0  0  0  0
  5 27  1  0  0  0  0
  6  7  1  0  0  0  0
  7  8  1  0  0  0  0
  7 18  1  0  0  0  0
  7 28  1  0  0  0  0
  8  9  1  0  0  0  0
  8 29  1  0  0  0  0
  8 30  1  0  0  0  0
  9 10  1  0  0  0  0
  9 31  1  0  0  0  0
 10 17  1  0  0  0  0
 10 11  2  0  0  0  0
 11 12  1  0  0  0  0
 11 32  1  0  0  0  0
 12 13  2  0  0  0  0
 12 33  1  0  0  0  0
 13 14  1  0  0  0  0
 13 16  1  0  0  0  0
 14 15  3  0  0  0  0
 16 17  2  0  0  0  0
 16 34  1  0  0  0  0
 18 35  1  0  0  0  0
 18 36  1  0  0  0  0
M  CHG  1   3   1
M  END
> <s_m_source_file>
AV-unprocessed.smi

> <i_m_source_file_index>
3252

> <i_lp_mmshare_version>
43012

> <i_f3d_flags>
0

> <s_epik_input>
W0NIM11bQ0gyXU4xW0NIMl1bQ0gyXU9bQ0BIXShbQ0gyXTEpW0NIMl1bTkhdYzJbY0hdW2NIXWMoQyNOKVtjSF1uMg==

> <s_epik_cmdline>
J2VwaWtfcHl0aG9uJywgJy1waCcsICc3LjAnLCAnLXRuJywgJzgnLCAnLW1hJywgJzIwMCcsICctbWV0YWxfYmluZGluZycsICctaW1hZScsICc8aW5maWxlLm1hZT4nLCAnLW9tYWUnLCAnPG91dGZpbGUubWFlPic=

> <r_epik_Ionization_Penalty>
0.178512

> <r_epik_Ionization_Penalty_Charging>
0.178504

> <r_epik_Ionization_Penalty_Neutral>
8.15545e-06

> <r_epik_State_Penalty>
0.167974

> <r_epik_Charging_Adjusted_Penalty>
0.346478

> <i_epik_Tot_Q>
1

> <i_epik_Tot_abs_Q>
1

> <r_epik_Metal_State_Penalty>
0.167974

> <b_epik_Metal_Only>
0

> <s_lp_Force_Field>
OPLS_2005

> <r_lp_Energy>
17.709

> <b_lp_Chiralities_Consistent>
1

> <s_lp_Variant>
AV-unprocessed.smi:3252-4

> <Gold.Version>
5.8.1

> <Gold.Id.Protein>
6NUR|6NUR_protein|mol2

> <Gold.PLP.Fitness>
37.5834

> <Gold.PLP.PLP>
-28.3457

> <Gold.PLP.part.hbond>
-3.0000

> <Gold.PLP.part.metal>
0.0000

> <Gold.PLP.part.buried>
-3.5223

> <Gold.PLP.part.nonpolar>
-22.8177

> <Gold.PLP.part.repulsive>
0.3468

> <Gold.PLP.ligand.clash>
0.0000

> <Gold.PLP.ligand.torsion>
1.3868

> <Gold.PLP.Chemscore.Hbond>
4.0000

> <Gold.PLP.Chemscore.CHOScore>
0.0000

> <Gold.PLP.Chemscore.Metal>
0.0000

> <Gold.Chemscore.Hbonds>
donor molecule, donor type, donor heavy atom, donor atom, acceptor molecule, acceptor atom, score
      L1  H     3    37       P1  7948  2.00
      L1  H     9    31       P1  7957  1.00
      P1  H  7989  7998       L1    17  1.00

> <Gold.PLP.Chemscore.Internal.Correction>
0.0112

> <Gold.Rescore>
     Score         DG    S(hbond)    S(metal)    S(lipo)     H(rot)  DE(clash)    DE(int)     intcor
     15.95     -17.30       2.74        0.00      55.04       1.47       0.13       1.22       ----

> <Gold.Chemscore.Fitness>
15.9537

> <Gold.Chemscore.DG>
-17.2976

> <Gold.Chemscore.ZeroCoef>
-5.4800

> <Gold.Chemscore.Hbond>
2.7353

> <Gold.Chemscore.Metal>
0.0000

> <Gold.Chemscore.Lipo>
55.0437

> <Gold.Chemscore.Internal_Hbond>
0.0000

> <Gold.Chemscore.DEClash>
0.1259

> <Gold.Chemscore.DEInternal>
1.2180

> <Gold.Chemscore.Rot>
1.4681

> <Gold.Chemscore.Internal.Correction>
   9.000000E+99

> <Gold.Chemscore.Hbonds>
donor molecule, donor type, donor heavy atom, donor atom, acceptor molecule, acceptor atom, score
      L1  H     3    37       P1  7948  0.99
      L1  H     9    31       P1  7957  0.95
      P1  H  7989  7998       L1    17  0.24

> <Gold.Chemscore.Hbond.Weighted>
-9.1359

> <Gold.Chemscore.Metal.Weighted>
-0.0000

> <Gold.Chemscore.Lipo.Weighted>
-6.4401

> <Gold.Chemscore.Internal_Hbond.Weighted>
0.0000

> <Gold.Chemscore.DEClash.Weighted>
0.1259

> <Gold.Chemscore.DEInternal.Weighted>
1.2180

> <Gold.Chemscore.Rot.Weighted>
3.7584

> <Gold.Chemscore.Internal.Correction.Weighted>
   9.000000E+99

> <Gold.Protein.RotatedTorsions>
[ 6907 6896 6895 6894 ] final  160.20 input  -60.11 | X-H torsion
[ 7974 7965 7964 7962 ] final  140.21 input  175.53 | X-H torsion
[ 8008 7997 7996 7995 ] final  -35.63 input   59.86 | X-H torsion
[ 10167 10162 10161 10158 ] final -157.66 input  -65.29 | X-H torsion
[ 10718 10713 10712 10709 ] final -101.88 input   66.30 | X-H torsion
[ 10763 10752 10751 10750 ] final  -92.50 input  -60.55 | X-H torsion
[ 11005 11000 10999 10996 ] final   54.83 input  -57.11 | X-H torsion

> <Gold.Protein.ActiveResidues>
 VAL166  LYS551  ARG553  GLY616  TRP617  ASP618  TYR619  PRO620  LYS621  CYS622 
 ASP623  PHE694  ASN695  SER759  ASP760  ASP761  ALA762  ILE779  LEU786  VAL792 
 PHE793  MET794  SER795  GLU796  ALA797  LYS798  CYS799  TRP800  GLU811  SER814 

> <Gold.Protein.RotatedAtoms>
  151.9741  133.3735  159.4082 H   0  0  0  0  0  0  0  0  0  0  0  0  # atno 6907 bound_to 6896
  150.6944  134.4108  159.5170 H   0  0  0  0  0  0  0  0  0  0  0  0  # atno 6908 bound_to 6896
  152.1817  134.8748  160.0576 H   0  0  0  0  0  0  0  0  0  0  0  0  # atno 6909 bound_to 6896
  144.9208  139.5171  143.5664 H   0  0  0  0  0  0  0  0  0  0  0  0  # atno 7974 bound_to 7965
  154.4091  140.1652  156.2243 H   0  0  0  0  0  0  0  0  0  0  0  0  # atno 8008 bound_to 7997
  155.9337  140.3413  155.6247 H   0  0  0  0  0  0  0  0  0  0  0  0  # atno 8009 bound_to 7997
  155.7075  140.0752  157.2375 H   0  0  0  0  0  0  0  0  0  0  0  0  # atno 8010 bound_to 7997
  139.6753  143.9674  152.2307 H   0  0  0  0  0  0  0  0  0  0  0  0  # atno 10167 bound_to 10162
  156.0209  130.5394  150.7028 H   0  0  0  0  0  0  0  0  0  0  0  0  # atno 10718 bound_to 10713
  154.6867  135.5229  153.8336 H   0  0  0  0  0  0  0  0  0  0  0  0  # atno 10763 bound_to 10752
  153.0602  135.6565  154.0490 H   0  0  0  0  0  0  0  0  0  0  0  0  # atno 10764 bound_to 10752
  154.0370  135.2980  155.3340 H   0  0  0  0  0  0  0  0  0  0  0  0  # atno 10765 bound_to 10752
  140.0655  134.5542  155.9104 H   0  0  0  0  0  0  0  0  0  0  0  0  # atno 11005 bound_to 11000
  146.3203  139.8085  142.8950 LP  0  0  0  0  0  0  0  0  0  0  0  0  # atno 17320 bound_to 7965
  145.3300  141.0264  143.3452 LP  0  0  0  0  0  0  0  0  0  0  0  0  # atno 17321 bound_to 7965
  139.9449  144.6658  150.8229 LP  0  0  0  0  0  0  0  0  0  0  0  0  # atno 17342 bound_to 10162
  140.7633  143.3220  151.2601 LP  0  0  0  0  0  0  0  0  0  0  0  0  # atno 17343 bound_to 10162
  157.4684  131.0890  151.0669 LP  0  0  0  0  0  0  0  0  0  0  0  0  # atno 17370 bound_to 10713
  157.1137  130.6032  149.5488 LP  0  0  0  0  0  0  0  0  0  0  0  0  # atno 17371 bound_to 10713
  141.1991  133.6605  156.5826 LP  0  0  0  0  0  0  0  0  0  0  0  0  # atno 17394 bound_to 11000
  140.3705  134.7610  157.4595 LP  0  0  0  0  0  0  0  0  0  0  0  0  # atno 17395 bound_to 11000

$$$$
