AV-unprocessed.smi:1209|AV-procd|sdf|5069|dock7
  -GOLD-   22720 4113D 1   1.00000     0.00000
 Structure written by MMmdl.
 48 50  0  0  0  0  0  0  0  0  1 V2000
  144.8488  144.2344  154.6868 C   0  0  0  0  0  0  0  0  0  0  0  0
  145.5638  142.9277  154.6455 C   0  0  0  0  0  0  0  0  0  0  0  0
  146.6491  142.4823  153.9465 C   0  0  0  0  0  0  0  0  0  0  0  0
  146.7992  141.1358  154.3803 C   0  0  0  0  0  0  0  0  0  0  0  0
  147.8327  140.1249  153.9574 C   0  0  0  0  0  0  0  0  0  0  0  0
  148.9106  139.9479  154.9326 N   0  0  0  0  0  0  0  0  0  0  0  0
  150.0260  139.2009  154.3503 C   0  0  0  0  0  0  0  0  0  0  0  0
  149.3426  141.2471  155.4566 C   0  0  0  0  0  0  0  0  0  0  0  0
  150.0201  141.2220  156.8425 C   0  0  2  0  0  0  0  0  0  0  0  0
  149.7714  142.4572  157.4858 O   0  0  0  0  0  0  0  0  0  0  0  0
  151.5417  141.0126  156.7204 C   0  0  0  0  0  0  0  0  0  0  0  0
  152.1535  140.6167  157.9771 N   0  0  0  0  0  0  0  0  0  0  0  0
  152.6700  139.4109  158.2822 C   0  0  0  0  0  0  0  0  0  0  0  0
  153.1856  139.2594  159.4988 N   0  0  0  0  0  0  0  0  0  0  0  0
  152.9802  140.5138  160.0473 C   0  0  0  0  0  0  0  0  0  0  0  0
  153.3008  141.0195  161.3263 C   0  0  0  0  0  0  0  0  0  0  0  0
  152.9895  142.3527  161.6774 C   0  0  0  0  0  0  0  0  0  0  0  0
  153.3508  142.8551  163.0641 C   0  0  0  0  0  0  0  0  0  0  0  0
  152.3474  143.2026  160.7413 C   0  0  0  0  0  0  0  0  0  0  0  0
  152.0011  144.6376  161.0964 C   0  0  0  0  0  0  0  0  0  0  0  0
  152.0221  142.7140  159.4586 C   0  0  0  0  0  0  0  0  0  0  0  0
  152.3368  141.3860  159.1212 C   0  0  0  0  0  0  0  0  0  0  0  0
  145.8755  140.8007  155.2664 N   0  0  0  0  0  0  0  0  0  0  0  0
  145.0818  141.9395  155.4425 O   0  0  0  0  0  0  0  0  0  0  0  0
  145.4926  145.0408  154.3355 H   0  0  0  0  0  0  0  0  0  0  0  0
  144.5329  144.4737  155.7024 H   0  0  0  0  0  0  0  0  0  0  0  0
  143.9623  144.2085  154.0530 H   0  0  0  0  0  0  0  0  0  0  0  0
  147.2469  143.0328  153.2354 H   0  0  0  0  0  0  0  0  0  0  0  0
  147.3621  139.1622  153.7508 H   0  0  0  0  0  0  0  0  0  0  0  0
  148.2566  140.4565  153.0087 H   0  0  0  0  0  0  0  0  0  0  0  0
  150.7970  138.9901  155.0894 H   0  0  0  0  0  0  0  0  0  0  0  0
  150.4833  139.7529  153.5283 H   0  0  0  0  0  0  0  0  0  0  0  0
  149.6967  138.2359  153.9647 H   0  0  0  0  0  0  0  0  0  0  0  0
  150.0182  141.7104  154.7356 H   0  0  0  0  0  0  0  0  0  0  0  0
  148.4831  141.9163  155.5221 H   0  0  0  0  0  0  0  0  0  0  0  0
  149.6158  140.4230  157.4622 H   0  0  0  0  0  0  0  0  0  0  0  0
  149.7196  143.1330  156.8272 H   0  0  0  0  0  0  0  0  0  0  0  0
  151.7557  140.2401  155.9806 H   0  0  0  0  0  0  0  0  0  0  0  0
  152.0278  141.9229  156.3665 H   0  0  0  0  0  0  0  0  0  0  0  0
  152.6662  138.5979  157.5708 H   0  0  0  0  0  0  0  0  0  0  0  0
  153.7890  140.3715  162.0393 H   0  0  0  0  0  0  0  0  0  0  0  0
  154.0279  143.7070  162.9972 H   0  0  0  0  0  0  0  0  0  0  0  0
  153.8445  142.0810  163.6520 H   0  0  0  0  0  0  0  0  0  0  0  0
  152.4555  143.1647  163.6035 H   0  0  0  0  0  0  0  0  0  0  0  0
  151.4930  145.1394  160.2725 H   0  0  0  0  0  0  0  0  0  0  0  0
  152.9044  145.2028  161.3267 H   0  0  0  0  0  0  0  0  0  0  0  0
  151.3413  144.6689  161.9636 H   0  0  0  0  0  0  0  0  0  0  0  0
  151.5310  143.3500  158.7368 H   0  0  0  0  0  0  0  0  0  0  0  0
  1  2  1  0  0  0  0
  1 25  1  0  0  0  0
  1 26  1  0  0  0  0
  1 27  1  0  0  0  0
  2 24  1  0  0  0  0
  2  3  2  0  0  0  0
  3  4  1  0  0  0  0
  3 28  1  0  0  0  0
  4  5  1  0  0  0  0
  4 23  2  0  0  0  0
  5  6  1  0  0  0  0
  5 29  1  0  0  0  0
  5 30  1  0  0  0  0
  6  7  1  0  0  0  0
  6  8  1  0  0  0  0
  7 31  1  0  0  0  0
  7 32  1  0  0  0  0
  7 33  1  0  0  0  0
  8  9  1  0  0  0  0
  8 34  1  0  0  0  0
  8 35  1  0  0  0  0
  9 10  1  0  0  0  0
  9 11  1  0  0  0  0
  9 36  1  0  0  0  0
 10 37  1  0  0  0  0
 11 12  1  0  0  0  0
 11 38  1  0  0  0  0
 11 39  1  0  0  0  0
 12 22  1  0  0  0  0
 12 13  1  0  0  0  0
 13 14  2  0  0  0  0
 13 40  1  0  0  0  0
 14 15  1  0  0  0  0
 15 22  2  0  0  0  0
 15 16  1  0  0  0  0
 16 17  2  0  0  0  0
 16 41  1  0  0  0  0
 17 18  1  0  0  0  0
 17 19  1  0  0  0  0
 18 42  1  0  0  0  0
 18 43  1  0  0  0  0
 18 44  1  0  0  0  0
 19 20  1  0  0  0  0
 19 21  2  0  0  0  0
 20 45  1  0  0  0  0
 20 46  1  0  0  0  0
 20 47  1  0  0  0  0
 21 22  1  0  0  0  0
 21 48  1  0  0  0  0
 23 24  1  0  0  0  0
M  END
> <s_m_source_file>
AV-unprocessed.smi

> <i_m_source_file_index>
1209

> <i_lp_mmshare_version>
43012

> <i_f3d_flags>
0

> <s_epik_input>
W0NIM11jMVtjSF1jKG5vMSlbQ0gyXU4oW0NIM10pW0NIMl1bQ0BIXShbT0hdKVtDSDJdbihbY0hdbjIpYyhjMjMpW2NIXWMoW0NIM10pYyhbY0hdMylbQ0gzXQ==

> <s_epik_cmdline>
J2VwaWtfcHl0aG9uJywgJy1waCcsICc3LjAnLCAnLXRuJywgJzgnLCAnLW1hJywgJzIwMCcsICctbWV0YWxfYmluZGluZycsICctaW1hZScsICc8aW5maWxlLm1hZT4nLCAnLW9tYWUnLCAnPG91dGZpbGUubWFlPic=

> <r_epik_Ionization_Penalty>
0.103258

> <r_epik_Ionization_Penalty_Charging>
0

> <r_epik_Ionization_Penalty_Neutral>
0.103258

> <r_epik_State_Penalty>
0.0919675

> <r_epik_Charging_Adjusted_Penalty>
0.0919675

> <i_epik_Tot_Q>
0

> <i_epik_Tot_abs_Q>
0

> <r_epik_Metal_State_Penalty>
0.0812522

> <b_epik_Metal_Only>
0

> <s_lp_Force_Field>
OPLS_2005

> <r_lp_Energy>
18.8485

> <b_lp_Chiralities_Consistent>
1

> <s_lp_Variant>
AV-unprocessed.smi:1209-1

> <Gold.Version>
5.8.1

> <Gold.Id.Protein>
6NUR|6NUR_protein|mol2

> <Gold.PLP.Fitness>
50.8526

> <Gold.PLP.PLP>
-49.9670

> <Gold.PLP.part.hbond>
-1.0000

> <Gold.PLP.part.metal>
0.0000

> <Gold.PLP.part.buried>
-6.8944

> <Gold.PLP.part.nonpolar>
-41.8941

> <Gold.PLP.part.repulsive>
0.3152

> <Gold.PLP.ligand.clash>
0.0000

> <Gold.PLP.ligand.torsion>
1.1580

> <Gold.PLP.Chemscore.Hbond>
1.0000

> <Gold.PLP.Chemscore.CHOScore>
0.0000

> <Gold.PLP.Chemscore.Metal>
0.0000

> <Gold.Chemscore.Hbonds>
donor molecule, donor type, donor heavy atom, donor atom, acceptor molecule, acceptor atom, score
      L1  H    10    37       P1  8028  0.73

> <Gold.PLP.Chemscore.Internal.Correction>
0.2017

> <Gold.Rescore>
     Score         DG    S(hbond)    S(metal)    S(lipo)     H(rot)  DE(clash)    DE(int)     intcor
     17.29     -18.83       0.98        0.00     139.67       2.45       0.15       1.39       ----

> <Gold.Chemscore.Fitness>
17.2947

> <Gold.Chemscore.DG>
-18.8333

> <Gold.Chemscore.ZeroCoef>
-5.4800

> <Gold.Chemscore.Hbond>
0.9804

> <Gold.Chemscore.Metal>
0.0000

> <Gold.Chemscore.Lipo>
139.6655

> <Gold.Chemscore.Internal_Hbond>
0.0000

> <Gold.Chemscore.DEClash>
0.1505

> <Gold.Chemscore.DEInternal>
1.3881

> <Gold.Chemscore.Rot>
2.4462

> <Gold.Chemscore.Internal.Correction>
   9.000000E+99

> <Gold.Chemscore.Hbonds>
donor molecule, donor type, donor heavy atom, donor atom, acceptor molecule, acceptor atom, score
      L1  H    10    37       P1  8028  0.72

> <Gold.Chemscore.Hbond.Weighted>
-3.2747

> <Gold.Chemscore.Metal.Weighted>
-0.0000

> <Gold.Chemscore.Lipo.Weighted>
-16.3409

> <Gold.Chemscore.Internal_Hbond.Weighted>
0.0000

> <Gold.Chemscore.DEClash.Weighted>
0.1505

> <Gold.Chemscore.DEInternal.Weighted>
1.3881

> <Gold.Chemscore.Rot.Weighted>
6.2623

> <Gold.Chemscore.Internal.Correction.Weighted>
   9.000000E+99

> <Gold.Protein.RotatedTorsions>
[ 6907 6896 6895 6894 ] final  149.90 input  -60.11 | X-H torsion
[ 7974 7965 7964 7962 ] final   31.41 input  175.53 | X-H torsion
[ 8008 7997 7996 7995 ] final   66.24 input   59.86 | X-H torsion
[ 10167 10162 10161 10158 ] final  103.07 input  -65.29 | X-H torsion
[ 10718 10713 10712 10709 ] final   14.57 input   66.30 | X-H torsion
[ 10763 10752 10751 10750 ] final  104.10 input  -60.55 | X-H torsion
[ 11005 11000 10999 10996 ] final   33.47 input  -57.11 | X-H torsion

> <Gold.Protein.ActiveResidues>
 VAL166  LYS551  ARG553  GLY616  TRP617  ASP618  TYR619  PRO620  LYS621  CYS622 
 ASP623  PHE694  ASN695  SER759  ASP760  ASP761  ALA762  ILE779  LEU786  VAL792 
 PHE793  MET794  SER795  GLU796  ALA797  LYS798  CYS799  TRP800  GLU811  SER814 

> <Gold.Protein.RotatedAtoms>
  152.1218  133.4357  159.4678 H   0  0  0  0  0  0  0  0  0  0  0  0  # atno 6907 bound_to 6896
  150.6872  134.2526  159.4526 H   0  0  0  0  0  0  0  0  0  0  0  0  # atno 6908 bound_to 6896
  152.0403  134.9715  160.0624 H   0  0  0  0  0  0  0  0  0  0  0  0  # atno 6909 bound_to 6896
  146.1551  139.6660  142.9072 H   0  0  0  0  0  0  0  0  0  0  0  0  # atno 7974 bound_to 7965
  155.6743  140.3497  155.4830 H   0  0  0  0  0  0  0  0  0  0  0  0  # atno 8008 bound_to 7997
  155.9661  140.1147  157.0876 H   0  0  0  0  0  0  0  0  0  0  0  0  # atno 8009 bound_to 7997
  154.4155  140.1166  156.5231 H   0  0  0  0  0  0  0  0  0  0  0  0  # atno 8010 bound_to 7997
  139.7295  144.7039  151.0745 H   0  0  0  0  0  0  0  0  0  0  0  0  # atno 10167 bound_to 10162
  157.0410  130.6231  149.5751 H   0  0  0  0  0  0  0  0  0  0  0  0  # atno 10718 bound_to 10713
  153.3615  135.3954  155.1722 H   0  0  0  0  0  0  0  0  0  0  0  0  # atno 10763 bound_to 10752
  154.8680  135.3680  154.5093 H   0  0  0  0  0  0  0  0  0  0  0  0  # atno 10764 bound_to 10752
  153.5553  135.7082  153.5632 H   0  0  0  0  0  0  0  0  0  0  0  0  # atno 10765 bound_to 10752
  140.2628  134.3173  155.7852 H   0  0  0  0  0  0  0  0  0  0  0  0  # atno 11005 bound_to 11000
  145.4727  141.0436  143.2689 LP  0  0  0  0  0  0  0  0  0  0  0  0  # atno 17320 bound_to 7965
  144.7953  139.6246  143.7095 LP  0  0  0  0  0  0  0  0  0  0  0  0  # atno 17321 bound_to 7965
  140.7768  143.5062  150.9709 LP  0  0  0  0  0  0  0  0  0  0  0  0  # atno 17342 bound_to 10162
  139.8750  143.7144  152.3163 LP  0  0  0  0  0  0  0  0  0  0  0  0  # atno 17343 bound_to 10162
  156.0038  130.5121  150.7758 LP  0  0  0  0  0  0  0  0  0  0  0  0  # atno 17370 bound_to 10713
  157.5104  131.0925  151.0205 LP  0  0  0  0  0  0  0  0  0  0  0  0  # atno 17371 bound_to 10713
  141.2188  133.7419  156.9213 LP  0  0  0  0  0  0  0  0  0  0  0  0  # atno 17394 bound_to 11000
  140.1448  134.9269  157.2515 LP  0  0  0  0  0  0  0  0  0  0  0  0  # atno 17395 bound_to 11000

$$$$
