AV-unprocessed.smi:2546|AV-procd|sdf|10000|dock6
  -GOLD-   2272014 43D 1   1.00000     0.00000
 Structure written by MMmdl.
 16 16  0  0  0  0  0  0  0  0  3 V2000
  148.3100  138.8322  152.8733 N   0  3  0  0  0  0  0  0  0  0  0  0
  149.0526  139.3894  154.0151 C   0  0  0  0  0  0  0  0  0  0  0  0
  149.8491  138.3036  154.7479 C   0  0  0  0  0  0  0  0  0  0  0  0
  151.3344  138.5815  154.7047 C   0  0  0  0  0  0  0  0  0  0  0  0
  151.8926  139.7789  154.9640 N   0  0  0  0  0  0  0  0  0  0  0  0
  153.1960  139.5994  154.8687 N   0  5  0  0  0  0  0  0  0  0  0  0
  153.4131  138.3124  154.5652 C   0  0  0  0  0  0  0  0  0  0  0  0
  152.2700  137.6507  154.4647 N   0  0  0  0  0  0  0  0  0  0  0  0
  147.3221  138.9953  153.0054 H   0  0  0  0  0  0  0  0  0  0  0  0
  148.4828  137.8391  152.8129 H   0  0  0  0  0  0  0  0  0  0  0  0
  149.7223  140.1700  153.6524 H   0  0  0  0  0  0  0  0  0  0  0  0
  148.3445  139.8629  154.6960 H   0  0  0  0  0  0  0  0  0  0  0  0
  149.5349  138.2384  155.7905 H   0  0  0  0  0  0  0  0  0  0  0  0
  149.6616  137.3268  154.3000 H   0  0  0  0  0  0  0  0  0  0  0  0
  154.4179  137.9281  154.4395 H   0  0  0  0  0  0  0  0  0  0  0  0
  148.6160  139.2812  152.0219 H   0  0  0  0  0  0  0  0  0  0  0  0
  1  2  1  0  0  0  0
  1  9  1  0  0  0  0
  1 10  1  0  0  0  0
  1 16  1  0  0  0  0
  2  3  1  0  0  0  0
  2 11  1  0  0  0  0
  2 12  1  0  0  0  0
  3 13  1  0  0  0  0
  3 14  1  0  0  0  0
  3  4  1  0  0  0  0
  4  8  1  0  0  0  0
  4  5  2  0  0  0  0
  5  6  1  0  0  0  0
  6  7  1  0  0  0  0
  7  8  2  0  0  0  0
  7 15  1  0  0  0  0
M  CHG  1   1   1
M  CHG  1   6  -1
M  END
> <s_m_source_file>
AV-unprocessed.smi

> <i_m_source_file_index>
2546

> <i_lp_mmshare_version>
43012

> <i_f3d_flags>
0

> <s_epik_input>
W05IMl1bQ0gyXVtDSDJdYzFubltjSF1bbkhdMQ==

> <s_epik_cmdline>
J2VwaWtfcHl0aG9uJywgJy1waCcsICc3LjAnLCAnLXRuJywgJzgnLCAnLW1hJywgJzIwMCcsICctbWV0YWxfYmluZGluZycsICctaW1hZScsICc8aW5maWxlLm1hZT4nLCAnLW9tYWUnLCAnPG91dGZpbGUubWFlPic=

> <r_lp_tautomer_probability>
0.948284

> <r_epik_Ionization_Penalty>
6.40664

> <r_epik_Ionization_Penalty_Charging>
6.40664

> <r_epik_Ionization_Penalty_Neutral>
1.41162e-13

> <r_epik_State_Penalty>
2.81126

> <r_epik_Charging_Adjusted_Penalty>
9.2179

> <i_epik_Tot_Q>
0

> <i_epik_Tot_abs_Q>
2

> <r_epik_Metal_State_Penalty>
0.674554

> <b_epik_Metal_Only>
1

> <s_lp_Force_Field>
OPLS_2005

> <r_lp_Energy>
-3.27829

> <b_lp_Chiralities_Consistent>
1

> <s_lp_Variant>
AV-unprocessed.smi:2546-4

> <Gold.Version>
5.8.1

> <Gold.Id.Protein>
6NUR|6NUR_protein|mol2

> <Gold.PLP.Fitness>
34.9378

> <Gold.PLP.PLP>
-16.8595

> <Gold.PLP.part.hbond>
-5.8688

> <Gold.PLP.part.metal>
0.0000

> <Gold.PLP.part.buried>
-1.3543

> <Gold.PLP.part.nonpolar>
-10.0600

> <Gold.PLP.part.repulsive>
0.2489

> <Gold.PLP.ligand.clash>
0.0000

> <Gold.PLP.ligand.torsion>
0.5680

> <Gold.PLP.Chemscore.Hbond>
6.4029

> <Gold.PLP.Chemscore.CHOScore>
0.0000

> <Gold.PLP.Chemscore.Metal>
0.0000

> <Gold.Chemscore.Hbonds>
donor molecule, donor type, donor heavy atom, donor atom, acceptor molecule, acceptor atom, score
      L1  H     1    10       P1  7948  2.00
      L1  H     1    16       P1  7957  0.91
      P1  H  7989  7998       L1     5  0.86
      P1  H  7997  8008       L1     6  2.00
      P1  H 10752 10763       L1     8  0.56

> <Gold.PLP.Chemscore.Internal.Correction>
0.0056

> <Gold.Rescore>
     Score         DG    S(hbond)    S(metal)    S(lipo)     H(rot)  DE(clash)    DE(int)     intcor
     13.67     -14.31       3.47        0.00      12.77       1.66       0.03       0.61       ----

> <Gold.Chemscore.Fitness>
13.6727

> <Gold.Chemscore.DG>
-14.3141

> <Gold.Chemscore.ZeroCoef>
-5.4800

> <Gold.Chemscore.Hbond>
3.4697

> <Gold.Chemscore.Metal>
0.0000

> <Gold.Chemscore.Lipo>
12.7681

> <Gold.Chemscore.Internal_Hbond>
0.0000

> <Gold.Chemscore.DEClash>
0.0328

> <Gold.Chemscore.DEInternal>
0.6087

> <Gold.Chemscore.Rot>
1.6595

> <Gold.Chemscore.Internal.Correction>
   9.000000E+99

> <Gold.Chemscore.Hbonds>
donor molecule, donor type, donor heavy atom, donor atom, acceptor molecule, acceptor atom, score
      L1  H     1    10       P1  7948  0.96
      L1  H     1    16       P1  7957  0.87
      P1  H  7989  7998       L1     5  0.12
      P1  H  7997  8008       L1     6  0.74
      P1  H 10752 10763       L1     8  0.14

> <Gold.Chemscore.Hbond.Weighted>
-11.5886

> <Gold.Chemscore.Metal.Weighted>
-0.0000

> <Gold.Chemscore.Lipo.Weighted>
-1.4939

> <Gold.Chemscore.Internal_Hbond.Weighted>
0.0000

> <Gold.Chemscore.DEClash.Weighted>
0.0328

> <Gold.Chemscore.DEInternal.Weighted>
0.6087

> <Gold.Chemscore.Rot.Weighted>
4.2484

> <Gold.Chemscore.Internal.Correction.Weighted>
   9.000000E+99

> <Gold.Protein.RotatedTorsions>
[ 6907 6896 6895 6894 ] final   22.48 input  -60.11 | X-H torsion
[ 7974 7965 7964 7962 ] final   42.63 input  175.53 | X-H torsion
[ 8008 7997 7996 7995 ] final   -7.18 input   59.86 | X-H torsion
[ 10167 10162 10161 10158 ] final   -9.73 input  -65.29 | X-H torsion
[ 10718 10713 10712 10709 ] final   54.09 input   66.30 | X-H torsion
[ 10763 10752 10751 10750 ] final   32.64 input  -60.55 | X-H torsion
[ 11005 11000 10999 10996 ] final  -40.29 input  -57.11 | X-H torsion

> <Gold.Protein.ActiveResidues>
 VAL166  LYS551  ARG553  GLY616  TRP617  ASP618  TYR619  PRO620  LYS621  CYS622 
 ASP623  PHE694  ASN695  SER759  ASP760  ASP761  ALA762  ILE779  LEU786  VAL792 
 PHE793  MET794  SER795  GLU796  ALA797  LYS798  CYS799  TRP800  GLU811  SER814 

> <Gold.Protein.RotatedAtoms>
  151.9278  135.0270  160.0526 H   0  0  0  0  0  0  0  0  0  0  0  0  # atno 6907 bound_to 6896
  152.2145  133.4931  159.5136 H   0  0  0  0  0  0  0  0  0  0  0  0  # atno 6908 bound_to 6896
  150.6984  134.1341  159.4123 H   0  0  0  0  0  0  0  0  0  0  0  0  # atno 6909 bound_to 6896
  146.0724  139.5278  142.9589 H   0  0  0  0  0  0  0  0  0  0  0  0  # atno 7974 bound_to 7965
  154.5863  140.2413  155.7982 H   0  0  0  0  0  0  0  0  0  0  0  0  # atno 8008 bound_to 7997
  156.2216  140.2996  155.9921 H   0  0  0  0  0  0  0  0  0  0  0  0  # atno 8009 bound_to 7997
  155.2451  140.0408  157.2970 H   0  0  0  0  0  0  0  0  0  0  0  0  # atno 8010 bound_to 7997
  140.7095  143.5826  150.8976 H   0  0  0  0  0  0  0  0  0  0  0  0  # atno 10167 bound_to 10162
  157.5226  130.8575  149.8578 H   0  0  0  0  0  0  0  0  0  0  0  0  # atno 10718 bound_to 10713
  153.0252  135.6408  154.1387 H   0  0  0  0  0  0  0  0  0  0  0  0  # atno 10763 bound_to 10752
  154.1116  135.2852  155.3231 H   0  0  0  0  0  0  0  0  0  0  0  0  # atno 10764 bound_to 10752
  154.6327  135.5487  153.7761 H   0  0  0  0  0  0  0  0  0  0  0  0  # atno 10765 bound_to 10752
  141.0164  133.6883  156.2301 H   0  0  0  0  0  0  0  0  0  0  0  0  # atno 11005 bound_to 11000
  145.6368  141.0293  143.1833 LP  0  0  0  0  0  0  0  0  0  0  0  0  # atno 17320 bound_to 7965
  144.7240  139.7937  143.7372 LP  0  0  0  0  0  0  0  0  0  0  0  0  # atno 17321 bound_to 7965
  139.9552  143.6226  152.3018 LP  0  0  0  0  0  0  0  0  0  0  0  0  # atno 17342 bound_to 10162
  139.6759  144.7658  151.1696 LP  0  0  0  0  0  0  0  0  0  0  0  0  # atno 17343 bound_to 10162
  156.0364  130.3750  150.1549 LP  0  0  0  0  0  0  0  0  0  0  0  0  # atno 17370 bound_to 10713
  156.9737  130.9842  151.3453 LP  0  0  0  0  0  0  0  0  0  0  0  0  # atno 17371 bound_to 10713
  140.6648  134.4930  157.5585 LP  0  0  0  0  0  0  0  0  0  0  0  0  # atno 17394 bound_to 11000
  139.9119  134.8326  156.1497 LP  0  0  0  0  0  0  0  0  0  0  0  0  # atno 17395 bound_to 11000

$$$$
