#       Name:                AV-unprocessed.smi:2711
#       Creating user name   scv26
#       Creation time:       Fri Mar 27 14:51:19 2020


#       File generated by GOLD software.
#

@<TRIPOS>MOLECULE
AV-unprocessed.smi:2711
    39    40     1
SMALL
NO_CHARGES


@<TRIPOS>ATOM
      1 ****        -6.8832   2.6704   1.4634 C.3            1 S1                 0.0000
      2 ****        -5.5521   2.0184   1.2993 C.2            1 S1                 0.0000
      3 ****        -5.2933   0.7243   0.9170 C.2            1 S1                 0.0000
      4 ****        -3.9330   0.4132   0.8565 N.2            1 S1                 0.0000
      5 ****        -3.1651   1.4571   1.1865 C.2            1 S1                 0.0000
      6 ****        -1.7458   1.4315   1.2135 N.am           1 S1                 0.0000
      7 ****        -0.9271   0.4096   0.9084 C.2            1 S1                 0.0000
      8 ****        -1.2898  -0.7101   0.5462 O.2            1 S1                 0.0000
      9 ****         0.3605   0.7607   1.0449 N.am           1 S1                 0.0000
     10 ****         1.5025  -0.1087   0.7663 C.3            1 S1                 0.0000
     11 ****         1.9169  -0.1178  -0.7172 C.2            1 S1                 0.0000
     12 ****         1.3567   0.6342  -1.5171 O.2            1 S1                 0.0000
     13 ****         2.9071  -0.9525  -1.0958 N.am           1 S1                 0.0000
     14 ****         3.6388  -1.8662  -0.2181 C.3            1 S1                 0.0000
     15 ****         4.5148  -2.7161  -1.1399 C.3            1 S1                 0.0000
     16 ****         4.7001  -1.8547  -2.3811 C.3            1 S1                 0.0000
     17 ****         3.4099  -1.0393  -2.4656 C.3            1 S1                 0.0000
     18 ****        -4.0763   2.9016   1.5973 S.3            1 S1                 0.0000
     19 ****        -7.6828   1.9293   1.4854 H              1 S1                 0.0000
     20 ****        -7.0813   3.3561   0.6394 H              1 S1                 0.0000
     21 ****        -6.9260   3.2377   2.3933 H              1 S1                 0.0000
     22 ****        -6.0143  -0.0410   0.6703 H              1 S1                 0.0000
     23 ****        -1.3022   2.2944   1.4913 H              1 S1                 0.0000
     24 ****         0.5692   1.7025   1.3417 H              1 S1                 0.0000
     25 ****         2.3450   0.2396   1.3640 H              1 S1                 0.0000
     26 ****         1.2767  -1.1232   1.0983 H              1 S1                 0.0000
     27 ****         4.2574  -1.2855   0.4674 H              1 S1                 0.0000
     28 ****         2.9741  -2.4981   0.3720 H              1 S1                 0.0000
     29 ****         5.4605  -3.0028  -0.6790 H              1 S1                 0.0000
     30 ****         3.9834  -3.6304  -1.4073 H              1 S1                 0.0000
     31 ****         5.5473  -1.1831  -2.2350 H              1 S1                 0.0000
     32 ****         4.8900  -2.4414  -3.2805 H              1 S1                 0.0000
     33 ****         2.6701  -1.5531  -3.0812 H              1 S1                 0.0000
     34 ****         3.5914  -0.0562  -2.9032 H              1 S1                 0.0000
     35 ****        -3.5756  -0.4840   0.5971 LP             1 S1                 0.0000
     36 ****        -2.2645  -0.9162   0.4594 LP             1 S1                 0.0000
     37 ****        -0.6097  -1.4133   0.3388 LP             1 S1                 0.0000
     38 ****         0.6338   1.2495  -1.2028 LP             1 S1                 0.0000
     39 ****         1.6251   0.6290  -2.4805 LP             1 S1                 0.0000
@<TRIPOS>BOND
    1    1    2 1     
    2    1   19 1     
    3    1   20 1     
    4    1   21 1     
    5    2   18 1     
    6    2    3 2     
    7    3    4 1     
    8    3   22 1     
    9    4    5 2     
   10    5    6 1     
   11    5   18 1     
   12    6    7 am    
   13    6   23 1     
   14    7    8 2     
   15    7    9 am    
   16    9   10 1     
   17    9   24 1     
   18   10   11 1     
   19   10   25 1     
   20   10   26 1     
   21   11   12 2     
   22   11   13 am    
   23   13   17 1     
   24   13   14 1     
   25   14   15 1     
   26   14   27 1     
   27   14   28 1     
   28   15   16 1     
   29   15   29 1     
   30   15   30 1     
   31   16   17 1     
   32   16   31 1     
   33   16   32 1     
   34   17   33 1     
   35   17   34 1     
   36    4   35 1     
   37    8   36 1     
   38    8   37 1     
   39   12   38 1     
   40   12   39 1     
@<TRIPOS>SUBSTRUCTURE
      1 S1             1
@<TRIPOS>SET
LONE_PAIRS      STATIC     ATOMS    <user>   **** ""
5 35 36 37 38 39
DONOR_HYDROGENS      STATIC     ATOMS    <user>   **** ""
2 23 24
ATOM$BLUE        STATIC     ATOMS    COLORGROUP SYSTEM
5 35 36 37 38 39
ATOM$RED        STATIC     ATOMS    COLORGROUP SYSTEM
2 23 24
