AV-unprocessed.smi:152|AV-procd|sdf|1247|dock1
  -GOLD-   2262018473D 1   1.00000     0.00000
 Structure written by MMmdl.
 58 61  0  0  0  0  0  0  0  0  2 V2000
  147.1091  128.6674  152.2778 C   0  0  0  0  0  0  0  0  0  0  0  0
  147.0950  130.0027  153.0332 C   0  0  0  0  0  0  0  0  0  0  0  0
  146.9827  131.1591  152.1105 N   0  3  1  0  0  0  0  0  0  0  0  0
  145.6895  131.2881  151.3984 C   0  0  0  0  0  0  0  0  0  0  0  0
  145.4893  132.7848  151.1233 C   0  0  0  0  0  0  0  0  0  0  0  0
  146.7886  133.4434  151.5845 C   0  0  0  0  0  0  0  0  0  0  0  0
  147.3242  132.4929  152.6615 C   0  0  1  0  0  0  0  0  0  0  0  0
  146.7071  132.7396  154.0644 C   0  0  0  0  0  0  0  0  0  0  0  0
  146.9829  134.0818  154.5864 N   0  0  0  0  0  0  0  0  0  0  0  0
  146.2698  135.2028  153.9855 C   0  0  0  0  0  0  0  0  0  0  0  0
  147.7569  134.2708  155.6971 C   0  0  0  0  0  0  0  0  0  0  0  0
  148.8716  133.5050  155.8468 N   0  0  0  0  0  0  0  0  0  0  0  0
  149.6629  133.6358  156.9136 C   0  0  0  0  0  0  0  0  0  0  0  0
  149.5316  134.4630  157.9486 N   0  0  0  0  0  0  0  0  0  0  0  0
  148.4201  135.2403  157.8191 C   0  0  0  0  0  0  0  0  0  0  0  0
  147.4892  135.2165  156.7377 C   0  0  0  0  0  0  0  0  0  0  0  0
  146.4959  136.1636  156.9719 N   0  0  0  0  0  0  0  0  0  0  0  0
  146.8196  136.7094  158.1108 C   0  0  0  0  0  0  0  0  0  0  0  0
  147.9563  136.2050  158.6964 N   0  0  0  0  0  0  0  0  0  0  0  0
  148.5413  136.6195  159.9628 C   0  0  0  0  0  0  0  0  0  0  0  0
  147.6804  136.2676  161.2022 C   0  0  0  0  0  0  0  0  0  0  0  0
  148.2942  136.8522  162.3378 O   0  0  0  0  0  0  0  0  0  0  0  0
  146.2650  136.8611  161.0551 C   0  0  0  0  0  0  0  0  0  0  0  0
  145.3192  136.3953  162.1764 C   0  0  0  0  0  0  0  0  0  0  0  0
  145.2814  134.9742  162.2207 O   0  0  0  0  0  0  0  0  0  0  0  0
  146.5447  134.4010  162.5344 C   0  0  0  0  0  0  0  0  0  0  0  0
  147.5700  134.7451  161.4394 C   0  0  0  0  0  0  0  0  0  0  0  0
  147.2449  127.8355  152.9693 H   0  0  0  0  0  0  0  0  0  0  0  0
  147.9235  128.6323  151.5537 H   0  0  0  0  0  0  0  0  0  0  0  0
  146.1744  128.4987  151.7422 H   0  0  0  0  0  0  0  0  0  0  0  0
  146.2796  130.0128  153.7580 H   0  0  0  0  0  0  0  0  0  0  0  0
  148.0248  130.0929  153.5964 H   0  0  0  0  0  0  0  0  0  0  0  0
  145.7169  130.7083  150.4753 H   0  0  0  0  0  0  0  0  0  0  0  0
  144.8676  130.9084  152.0073 H   0  0  0  0  0  0  0  0  0  0  0  0
  145.2752  132.9920  150.0744 H   0  0  0  0  0  0  0  0  0  0  0  0
  144.6513  133.1604  151.7119 H   0  0  0  0  0  0  0  0  0  0  0  0
  147.4909  133.4714  150.7501 H   0  0  0  0  0  0  0  0  0  0  0  0
  146.6522  134.4716  151.9169 H   0  0  0  0  0  0  0  0  0  0  0  0
  148.4096  132.5762  152.7300 H   0  0  0  0  0  0  0  0  0  0  0  0
  145.6438  132.5023  154.0624 H   0  0  0  0  0  0  0  0  0  0  0  0
  147.1427  132.0437  154.7811 H   0  0  0  0  0  0  0  0  0  0  0  0
  145.5500  135.6236  154.6883 H   0  0  0  0  0  0  0  0  0  0  0  0
  145.7196  134.8880  153.0984 H   0  0  0  0  0  0  0  0  0  0  0  0
  146.9658  135.9837  153.6781 H   0  0  0  0  0  0  0  0  0  0  0  0
  150.5234  132.9839  156.9422 H   0  0  0  0  0  0  0  0  0  0  0  0
  146.2288  137.4933  158.5621 H   0  0  0  0  0  0  0  0  0  0  0  0
  149.5310  136.1679  160.0481 H   0  0  0  0  0  0  0  0  0  0  0  0
  148.7051  137.6972  159.9171 H   0  0  0  0  0  0  0  0  0  0  0  0
  148.0729  136.3368  163.0982 H   0  0  0  0  0  0  0  0  0  0  0  0
  146.3074  137.9509  161.0298 H   0  0  0  0  0  0  0  0  0  0  0  0
  145.8420  136.5509  160.0986 H   0  0  0  0  0  0  0  0  0  0  0  0
  145.6280  136.7935  163.1442 H   0  0  0  0  0  0  0  0  0  0  0  0
  144.3112  136.7663  161.9908 H   0  0  0  0  0  0  0  0  0  0  0  0
  146.8816  134.7485  163.5123 H   0  0  0  0  0  0  0  0  0  0  0  0
  146.4290  133.3195  162.6081 H   0  0  0  0  0  0  0  0  0  0  0  0
  147.2632  134.2586  160.5125 H   0  0  0  0  0  0  0  0  0  0  0  0
  148.5392  134.3202  161.7035 H   0  0  0  0  0  0  0  0  0  0  0  0
  147.6695  131.0055  151.3861 H   0  0  0  0  0  0  0  0  0  0  0  0
  1  2  1  0  0  0  0
  1 28  1  0  0  0  0
  1 29  1  0  0  0  0
  1 30  1  0  0  0  0
  2  3  1  0  0  0  0
  2 31  1  0  0  0  0
  2 32  1  0  0  0  0
  3  7  1  0  0  0  0
  3  4  1  0  0  0  0
  3 58  1  0  0  0  0
  4  5  1  0  0  0  0
  4 33  1  0  0  0  0
  4 34  1  0  0  0  0
  5  6  1  0  0  0  0
  5 35  1  0  0  0  0
  5 36  1  0  0  0  0
  6  7  1  0  0  0  0
  6 37  1  0  0  0  0
  6 38  1  0  0  0  0
  7  8  1  0  0  0  0
  7 39  1  0  0  0  0
  8  9  1  0  0  0  0
  8 40  1  0  0  0  0
  8 41  1  0  0  0  0
  9 10  1  0  0  0  0
  9 11  1  0  0  0  0
 10 42  1  0  0  0  0
 10 43  1  0  0  0  0
 10 44  1  0  0  0  0
 11 16  1  0  0  0  0
 11 12  2  0  0  0  0
 12 13  1  0  0  0  0
 13 14  2  0  0  0  0
 13 45  1  0  0  0  0
 14 15  1  0  0  0  0
 15 19  1  0  0  0  0
 15 16  2  0  0  0  0
 16 17  1  0  0  0  0
 17 18  2  0  0  0  0
 18 19  1  0  0  0  0
 18 46  1  0  0  0  0
 19 20  1  0  0  0  0
 20 21  1  0  0  0  0
 20 47  1  0  0  0  0
 20 48  1  0  0  0  0
 21 27  1  0  0  0  0
 21 22  1  0  0  0  0
 21 23  1  0  0  0  0
 22 49  1  0  0  0  0
 23 24  1  0  0  0  0
 23 50  1  0  0  0  0
 23 51  1  0  0  0  0
 24 25  1  0  0  0  0
 24 52  1  0  0  0  0
 24 53  1  0  0  0  0
 25 26  1  0  0  0  0
 26 27  1  0  0  0  0
 26 54  1  0  0  0  0
 26 55  1  0  0  0  0
 27 56  1  0  0  0  0
 27 57  1  0  0  0  0
M  CHG  1   3   1
M  END
> <s_m_source_file>
AV-unprocessed.smi

> <i_m_source_file_index>
152

> <i_lp_mmshare_version>
43012

> <i_f3d_flags>
0

> <s_epik_input>
W0NIM11bQ0gyXU4xW0NIMl1bQ0gyXVtDSDJdW0NASF0xW0NIMl1OKFtDSDNdKWMobltjSF1uMiljKGMyMyluW2NIXW4zW0NIMl1DNChbT0hdKVtDSDJdW0NIMl1PW0NIMl1bQ0gyXTQ=

> <s_epik_cmdline>
J2VwaWtfcHl0aG9uJywgJy1waCcsICc3LjAnLCAnLXRuJywgJzgnLCAnLW1hJywgJzIwMCcsICctbWV0YWxfYmluZGluZycsICctaW1hZScsICc8aW5maWxlLm1hZT4nLCAnLW9tYWUnLCAnPG91dGZpbGUubWFlPic=

> <r_lp_tautomer_probability>
1

> <r_epik_Ionization_Penalty>
0.00152183

> <r_epik_Ionization_Penalty_Charging>
0.00112577

> <r_epik_Ionization_Penalty_Neutral>
0.000396066

> <r_epik_State_Penalty>
-0

> <r_epik_Charging_Adjusted_Penalty>
0.00112577

> <i_epik_Tot_Q>
1

> <i_epik_Tot_abs_Q>
1

> <r_epik_Metal_State_Penalty>
-0

> <b_epik_Metal_Only>
0

> <s_lp_Force_Field>
OPLS_2005

> <r_lp_Energy>
46.3876

> <b_lp_Chiralities_Consistent>
1

> <s_lp_Variant>
AV-unprocessed.smi:152-2

> <Gold.Version>
5.8.1

> <Gold.Id.Protein>
6NUR|6NUR_protein|mol2

> <Gold.PLP.Fitness>
45.2133

> <Gold.PLP.PLP>
-37.1243

> <Gold.PLP.part.hbond>
-3.0000

> <Gold.PLP.part.metal>
0.0000

> <Gold.PLP.part.buried>
-6.5112

> <Gold.PLP.part.nonpolar>
-28.0087

> <Gold.PLP.part.repulsive>
0.0050

> <Gold.PLP.ligand.clash>
0.0004

> <Gold.PLP.ligand.torsion>
0.7886

> <Gold.PLP.Chemscore.Hbond>
3.0000

> <Gold.PLP.Chemscore.CHOScore>
0.0000

> <Gold.PLP.Chemscore.Metal>
0.0000

> <Gold.Chemscore.Hbonds>
donor molecule, donor type, donor heavy atom, donor atom, acceptor molecule, acceptor atom, score
      L1  H     3    58       P1 10747  1.00
      P1  H  6896  6907       L1    14  0.98
      P1  H  6931  6943       L1    22  1.00

> <Gold.PLP.Chemscore.Internal.Correction>
0.6666

> <Gold.Rescore>
     Score         DG    S(hbond)    S(metal)    S(lipo)     H(rot)  DE(clash)    DE(int)     intcor
     16.67     -19.39       2.92        0.00      89.34       2.46       0.01       2.71       ----

> <Gold.Chemscore.Fitness>
16.6741

> <Gold.Chemscore.DG>
-19.3913

> <Gold.Chemscore.ZeroCoef>
-5.4800

> <Gold.Chemscore.Hbond>
2.9220

> <Gold.Chemscore.Metal>
0.0000

> <Gold.Chemscore.Lipo>
89.3423

> <Gold.Chemscore.Internal_Hbond>
0.0000

> <Gold.Chemscore.DEClash>
0.0075

> <Gold.Chemscore.DEInternal>
2.7098

> <Gold.Chemscore.Rot>
2.4614

> <Gold.Chemscore.Internal.Correction>
   9.000000E+99

> <Gold.Chemscore.Hbonds>
donor molecule, donor type, donor heavy atom, donor atom, acceptor molecule, acceptor atom, score
      L1  H     3    58       P1 10747  1.00
      P1  H  6896  6907       L1    14  0.56
      P1  H  6931  6943       L1    22  0.78

> <Gold.Chemscore.Hbond.Weighted>
-9.7595

> <Gold.Chemscore.Metal.Weighted>
-0.0000

> <Gold.Chemscore.Lipo.Weighted>
-10.4530

> <Gold.Chemscore.Internal_Hbond.Weighted>
0.0000

> <Gold.Chemscore.DEClash.Weighted>
0.0075

> <Gold.Chemscore.DEInternal.Weighted>
2.7098

> <Gold.Chemscore.Rot.Weighted>
6.3012

> <Gold.Chemscore.Internal.Correction.Weighted>
   9.000000E+99

> <Gold.Protein.RotatedTorsions>
[ 6907 6896 6895 6894 ] final -115.11 input  -60.11 | X-H torsion
[ 7974 7965 7964 7962 ] final   88.39 input  175.53 | X-H torsion
[ 8008 7997 7996 7995 ] final  -79.51 input   59.86 | X-H torsion
[ 10167 10162 10161 10158 ] final  120.31 input  -65.29 | X-H torsion
[ 10718 10713 10712 10709 ] final  126.74 input   66.30 | X-H torsion
[ 10763 10752 10751 10750 ] final   61.40 input  -60.55 | X-H torsion
[ 11005 11000 10999 10996 ] final  -87.24 input  -57.11 | X-H torsion

> <Gold.Protein.ActiveResidues>
 VAL166  LYS551  ARG553  GLY616  TRP617  ASP618  TYR619  PRO620  LYS621  CYS622 
 ASP623  PHE694  ASN695  SER759  ASP760  ASP761  ALA762  ILE779  LEU786  VAL792 
 PHE793  MET794  SER795  GLU796  ALA797  LYS798  CYS799  TRP800  GLU811  SER814 

> <Gold.Protein.RotatedAtoms>
  150.7953  133.8705  159.3257 H   0  0  0  0  0  0  0  0  0  0  0  0  # atno 6907 bound_to 6896
  151.6532  135.0997  160.0174 H   0  0  0  0  0  0  0  0  0  0  0  0  # atno 6908 bound_to 6896
  152.4033  133.6812  159.6370 H   0  0  0  0  0  0  0  0  0  0  0  0  # atno 6909 bound_to 6896
  145.5463  139.2292  143.2537 H   0  0  0  0  0  0  0  0  0  0  0  0  # atno 7974 bound_to 7965
  154.5792  140.0677  156.9079 H   0  0  0  0  0  0  0  0  0  0  0  0  # atno 8008 bound_to 7997
  155.2493  140.3350  155.4265 H   0  0  0  0  0  0  0  0  0  0  0  0  # atno 8009 bound_to 7997
  156.2177  140.1785  156.7536 H   0  0  0  0  0  0  0  0  0  0  0  0  # atno 8010 bound_to 7997
  139.5990  144.7051  151.3107 H   0  0  0  0  0  0  0  0  0  0  0  0  # atno 10167 bound_to 10162
  157.5393  131.1097  150.8884 H   0  0  0  0  0  0  0  0  0  0  0  0  # atno 10718 bound_to 10713
  152.9949  135.5502  154.6027 H   0  0  0  0  0  0  0  0  0  0  0  0  # atno 10763 bound_to 10752
  154.5365  135.2817  155.1136 H   0  0  0  0  0  0  0  0  0  0  0  0  # atno 10764 bound_to 10752
  154.2430  135.6413  153.5266 H   0  0  0  0  0  0  0  0  0  0  0  0  # atno 10765 bound_to 10752
  141.1619  133.7500  156.9278 H   0  0  0  0  0  0  0  0  0  0  0  0  # atno 11005 bound_to 11000
  146.1947  140.6285  142.9129 LP  0  0  0  0  0  0  0  0  0  0  0  0  # atno 17320 bound_to 7965
  144.7551  140.5288  143.6774 LP  0  0  0  0  0  0  0  0  0  0  0  0  # atno 17321 bound_to 7965
  140.7235  143.7070  150.7800 LP  0  0  0  0  0  0  0  0  0  0  0  0  # atno 17342 bound_to 10162
  140.0642  143.5125  152.2612 LP  0  0  0  0  0  0  0  0  0  0  0  0  # atno 17343 bound_to 10162
  156.9441  130.5395  149.5281 LP  0  0  0  0  0  0  0  0  0  0  0  0  # atno 17370 bound_to 10713
  156.0484  130.5557  150.8934 LP  0  0  0  0  0  0  0  0  0  0  0  0  # atno 17371 bound_to 10713
  140.1407  134.9295  157.2463 LP  0  0  0  0  0  0  0  0  0  0  0  0  # atno 17394 bound_to 11000
  140.2840  134.3317  155.7334 LP  0  0  0  0  0  0  0  0  0  0  0  0  # atno 17395 bound_to 11000

$$$$
