AV-unprocessed.smi:678|AV-procd|sdf|3313|dock8
  -GOLD-   22720 0273D 1   1.00000     0.00000
 Structure written by MMmdl.
 51 52  0  0  0  0  0  0  0  0  2 V2000
  152.9695  143.1358  161.9335 C   0  0  0  0  0  0  0  0  0  0  0  0
  152.3593  143.4753  160.5848 C   0  0  0  0  0  0  0  0  0  0  0  0
  151.9654  144.7321  160.2851 C   0  0  0  0  0  0  0  0  0  0  0  0
  151.3846  145.0454  159.0020 C   0  0  0  0  0  0  0  0  0  0  0  0
  151.2476  144.0546  158.1094 C   0  0  0  0  0  0  0  0  0  0  0  0
  151.6527  142.7375  158.3951 N   0  0  0  0  0  0  0  0  0  0  0  0
  151.4508  141.7299  157.3398 C   0  0  0  0  0  0  0  0  0  0  0  0
  150.0233  141.1671  157.3228 C   0  0  0  0  0  0  0  0  0  0  0  0
  149.7693  140.0895  157.8623 O   0  0  0  0  0  0  0  0  0  0  0  0
  149.0999  141.9139  156.6990 N   0  0  0  0  0  0  0  0  0  0  0  0
  147.7059  141.5320  156.5021 C   0  0  0  0  0  0  0  0  0  0  0  0
  146.7556  142.7070  156.7973 C   0  0  2  0  0  0  0  0  0  0  0  0
  146.4819  142.8624  158.3060 C   0  0  0  0  0  0  0  0  0  0  0  0
  145.5234  143.9691  158.5514 N   0  3  2  0  0  0  0  0  0  0  0  0
  145.2477  144.2130  159.9908 C   0  0  0  0  0  0  0  0  0  0  0  0
  146.4981  144.0642  160.8846 C   0  0  0  0  0  0  0  0  0  0  0  0
  146.1118  143.5112  162.2645 C   0  0  0  0  0  0  0  0  0  0  0  0
  147.2598  145.3920  161.0333 C   0  0  0  0  0  0  0  0  0  0  0  0
  144.2833  143.7618  157.7667 C   0  0  0  0  0  0  0  0  0  0  0  0
  144.6142  143.5653  156.2786 C   0  0  0  0  0  0  0  0  0  0  0  0
  145.5143  142.4752  156.1382 O   0  0  0  0  0  0  0  0  0  0  0  0
  152.2052  142.3891  159.5993 C   0  0  0  0  0  0  0  0  0  0  0  0
  152.5490  141.2290  159.8375 O   0  0  0  0  0  0  0  0  0  0  0  0
  153.0289  144.0148  162.5761 H   0  0  0  0  0  0  0  0  0  0  0  0
  153.9786  142.7422  161.8074 H   0  0  0  0  0  0  0  0  0  0  0  0
  152.3684  142.3843  162.4461 H   0  0  0  0  0  0  0  0  0  0  0  0
  152.0821  145.5211  161.0135 H   0  0  0  0  0  0  0  0  0  0  0  0
  151.0653  146.0503  158.7685 H   0  0  0  0  0  0  0  0  0  0  0  0
  150.8165  144.2044  157.1303 H   0  0  0  0  0  0  0  0  0  0  0  0
  151.6609  142.1474  156.3544 H   0  0  0  0  0  0  0  0  0  0  0  0
  152.1692  140.9174  157.4661 H   0  0  0  0  0  0  0  0  0  0  0  0
  149.3942  142.7926  156.2973 H   0  0  0  0  0  0  0  0  0  0  0  0
  147.5446  141.1459  155.4941 H   0  0  0  0  0  0  0  0  0  0  0  0
  147.4946  140.7084  157.1846 H   0  0  0  0  0  0  0  0  0  0  0  0
  147.2042  143.6260  156.4146 H   0  0  0  0  0  0  0  0  0  0  0  0
  146.0788  141.9330  158.7118 H   0  0  0  0  0  0  0  0  0  0  0  0
  147.4218  143.0543  158.8220 H   0  0  0  0  0  0  0  0  0  0  0  0
  144.8569  145.2240  160.1169 H   0  0  0  0  0  0  0  0  0  0  0  0
  144.4557  143.5394  160.3217 H   0  0  0  0  0  0  0  0  0  0  0  0
  147.1746  143.3372  160.4367 H   0  0  0  0  0  0  0  0  0  0  0  0
  145.4496  144.1952  162.7965 H   0  0  0  0  0  0  0  0  0  0  0  0
  146.9941  143.3529  162.8857 H   0  0  0  0  0  0  0  0  0  0  0  0
  145.5991  142.5529  162.1760 H   0  0  0  0  0  0  0  0  0  0  0  0
  146.6290  146.1643  161.4748 H   0  0  0  0  0  0  0  0  0  0  0  0
  147.6132  145.7604  160.0700 H   0  0  0  0  0  0  0  0  0  0  0  0
  148.1340  145.2726  161.6740 H   0  0  0  0  0  0  0  0  0  0  0  0
  143.7499  142.8896  158.1486 H   0  0  0  0  0  0  0  0  0  0  0  0
  143.6212  144.6206  157.8835 H   0  0  0  0  0  0  0  0  0  0  0  0
  143.7060  143.3480  155.7164 H   0  0  0  0  0  0  0  0  0  0  0  0
  145.0467  144.4704  155.8488 H   0  0  0  0  0  0  0  0  0  0  0  0
  145.9459  144.8134  158.1919 H   0  0  0  0  0  0  0  0  0  0  0  0
  1  2  1  0  0  0  0
  1 24  1  0  0  0  0
  1 25  1  0  0  0  0
  1 26  1  0  0  0  0
  2 22  1  0  0  0  0
  2  3  2  0  0  0  0
  3  4  1  0  0  0  0
  3 27  1  0  0  0  0
  4  5  2  0  0  0  0
  4 28  1  0  0  0  0
  5  6  1  0  0  0  0
  5 29  1  0  0  0  0
  6  7  1  0  0  0  0
  6 22  1  0  0  0  0
  7  8  1  0  0  0  0
  7 30  1  0  0  0  0
  7 31  1  0  0  0  0
  8  9  2  0  0  0  0
  8 10  1  0  0  0  0
 10 11  1  0  0  0  0
 10 32  1  0  0  0  0
 11 12  1  0  0  0  0
 11 33  1  0  0  0  0
 11 34  1  0  0  0  0
 12 21  1  0  0  0  0
 12 13  1  0  0  0  0
 12 35  1  0  0  0  0
 13 14  1  0  0  0  0
 13 36  1  0  0  0  0
 13 37  1  0  0  0  0
 14 15  1  0  0  0  0
 14 19  1  0  0  0  0
 14 51  1  0  0  0  0
 15 16  1  0  0  0  0
 15 38  1  0  0  0  0
 15 39  1  0  0  0  0
 16 17  1  0  0  0  0
 16 18  1  0  0  0  0
 16 40  1  0  0  0  0
 17 41  1  0  0  0  0
 17 42  1  0  0  0  0
 17 43  1  0  0  0  0
 18 44  1  0  0  0  0
 18 45  1  0  0  0  0
 18 46  1  0  0  0  0
 19 20  1  0  0  0  0
 19 47  1  0  0  0  0
 19 48  1  0  0  0  0
 20 21  1  0  0  0  0
 20 49  1  0  0  0  0
 20 50  1  0  0  0  0
 22 23  2  0  0  0  0
M  CHG  1  14   1
M  END
> <s_m_source_file>
AV-unprocessed.smi

> <i_m_source_file_index>
678

> <i_lp_mmshare_version>
43012

> <i_f3d_flags>
0

> <s_epik_input>
W0NIM11jMVtjSF1bY0hdW2NIXW4oYzE9TylbQ0gyXUMoPU8pW05IXVtDSDJdW0NAQEhdMltDSDJdTihbQ0gyXVtDSDJdTzIpW0NIMl1bQ0hdKFtDSDNdKVtDSDNd

> <s_epik_cmdline>
J2VwaWtfcHl0aG9uJywgJy1waCcsICc3LjAnLCAnLXRuJywgJzgnLCAnLW1hJywgJzIwMCcsICctbWV0YWxfYmluZGluZycsICctaW1hZScsICc8aW5maWxlLm1hZT4nLCAnLW9tYWUnLCAnPG91dGZpbGUubWFlPic=

> <r_lp_tautomer_probability>
1

> <r_epik_Ionization_Penalty>
0.0975937

> <r_epik_Ionization_Penalty_Charging>
0.0975937

> <r_epik_Ionization_Penalty_Neutral>
6.27044e-08

> <r_epik_State_Penalty>
0.0877056

> <r_epik_Charging_Adjusted_Penalty>
0.185299

> <i_epik_Tot_Q>
1

> <i_epik_Tot_abs_Q>
1

> <r_epik_Metal_State_Penalty>
0.0877109

> <b_epik_Metal_Only>
0

> <s_lp_Force_Field>
OPLS_2005

> <r_lp_Energy>
27.0363

> <b_lp_Chiralities_Consistent>
1

> <s_lp_Variant>
AV-unprocessed.smi:678-1

> <Gold.Version>
5.8.1

> <Gold.Id.Protein>
6NUR|6NUR_protein|mol2

> <Gold.PLP.Fitness>
51.1389

> <Gold.PLP.PLP>
-42.8347

> <Gold.PLP.part.hbond>
-2.0000

> <Gold.PLP.part.metal>
0.0000

> <Gold.PLP.part.buried>
-4.5199

> <Gold.PLP.part.nonpolar>
-34.1160

> <Gold.PLP.part.repulsive>
0.1731

> <Gold.PLP.ligand.clash>
0.0000

> <Gold.PLP.ligand.torsion>
1.5203

> <Gold.PLP.Chemscore.Hbond>
2.7450

> <Gold.PLP.Chemscore.CHOScore>
1.0000

> <Gold.PLP.Chemscore.Metal>
0.0000

> <Gold.Chemscore.Hbonds>
donor molecule, donor type, donor heavy atom, donor atom, acceptor molecule, acceptor atom, score
      L1  H    10    32       P1  8028  0.81
      L1  H    14    51       P1  8029  0.23
      L1  C     5    29       P1  8028  1.00

> <Gold.PLP.Chemscore.Internal.Correction>
0.1097

> <Gold.Rescore>
     Score         DG    S(hbond)    S(metal)    S(lipo)     H(rot)  DE(clash)    DE(int)     intcor
     14.77     -17.35       1.53        0.00      99.13       1.89       1.15       1.43       ----

> <Gold.Chemscore.Fitness>
14.7694

> <Gold.Chemscore.DG>
-17.3468

> <Gold.Chemscore.ZeroCoef>
-5.4800

> <Gold.Chemscore.Hbond>
1.5268

> <Gold.Chemscore.Metal>
0.0000

> <Gold.Chemscore.Lipo>
99.1300

> <Gold.Chemscore.Internal_Hbond>
0.0000

> <Gold.Chemscore.DEClash>
1.1463

> <Gold.Chemscore.DEInternal>
1.4311

> <Gold.Chemscore.Rot>
1.8871

> <Gold.Chemscore.Internal.Correction>
   9.000000E+99

> <Gold.Chemscore.Hbonds>
donor molecule, donor type, donor heavy atom, donor atom, acceptor molecule, acceptor atom, score
      L1  H    10    32       P1  8028  0.76
      L1  H    14    51       P1  8029  0.11

> <Gold.Chemscore.Hbond.Weighted>
-5.0995

> <Gold.Chemscore.Metal.Weighted>
-0.0000

> <Gold.Chemscore.Lipo.Weighted>
-11.5982

> <Gold.Chemscore.Internal_Hbond.Weighted>
0.0000

> <Gold.Chemscore.DEClash.Weighted>
1.1463

> <Gold.Chemscore.DEInternal.Weighted>
1.4311

> <Gold.Chemscore.Rot.Weighted>
4.8309

> <Gold.Chemscore.Internal.Correction.Weighted>
   9.000000E+99

> <Gold.Protein.RotatedTorsions>
[ 6907 6896 6895 6894 ] final -174.07 input  -60.11 | X-H torsion
[ 7974 7965 7964 7962 ] final  -43.74 input  175.53 | X-H torsion
[ 8008 7997 7996 7995 ] final  170.52 input   59.86 | X-H torsion
[ 10167 10162 10161 10158 ] final  -63.90 input  -65.29 | X-H torsion
[ 10718 10713 10712 10709 ] final   -7.52 input   66.30 | X-H torsion
[ 10763 10752 10751 10750 ] final -140.74 input  -60.55 | X-H torsion
[ 11005 11000 10999 10996 ] final  -17.01 input  -57.11 | X-H torsion

> <Gold.Protein.ActiveResidues>
 VAL166  LYS551  ARG553  GLY616  TRP617  ASP618  TYR619  PRO620  LYS621  CYS622 
 ASP623  PHE694  ASN695  SER759  ASP760  ASP761  ALA762  ILE779  LEU786  VAL792 
 PHE793  MET794  SER795  GLU796  ALA797  LYS798  CYS799  TRP800  GLU811  SER814 

> <Gold.Protein.RotatedAtoms>
  151.5664  133.3396  159.2980 H   0  0  0  0  0  0  0  0  0  0  0  0  # atno 6907 bound_to 6896
  150.8392  134.7681  159.6930 H   0  0  0  0  0  0  0  0  0  0  0  0  # atno 6908 bound_to 6896
  152.4463  134.5494  159.9914 H   0  0  0  0  0  0  0  0  0  0  0  0  # atno 6909 bound_to 6896
  145.9990  140.7096  142.9280 H   0  0  0  0  0  0  0  0  0  0  0  0  # atno 7974 bound_to 7965
  156.1357  140.1536  156.8997 H   0  0  0  0  0  0  0  0  0  0  0  0  # atno 8008 bound_to 7997
  154.4946  140.0842  156.7707 H   0  0  0  0  0  0  0  0  0  0  0  0  # atno 8009 bound_to 7997
  155.4172  140.3421  155.4270 H   0  0  0  0  0  0  0  0  0  0  0  0  # atno 8010 bound_to 7997
  140.5838  143.2331  151.6286 H   0  0  0  0  0  0  0  0  0  0  0  0  # atno 10167 bound_to 10162
  156.7160  130.5136  149.5880 H   0  0  0  0  0  0  0  0  0  0  0  0  # atno 10718 bound_to 10713
  154.8568  135.3544  154.5756 H   0  0  0  0  0  0  0  0  0  0  0  0  # atno 10763 bound_to 10752
  153.6368  135.7000  153.5260 H   0  0  0  0  0  0  0  0  0  0  0  0  # atno 10764 bound_to 10752
  153.3004  135.4208  155.1206 H   0  0  0  0  0  0  0  0  0  0  0  0  # atno 10765 bound_to 10752
  140.8125  133.8129  155.9578 H   0  0  0  0  0  0  0  0  0  0  0  0  # atno 11005 bound_to 11000
  144.6913  140.3200  143.7234 LP  0  0  0  0  0  0  0  0  0  0  0  0  # atno 17320 bound_to 7965
  145.7517  139.1796  143.2318 LP  0  0  0  0  0  0  0  0  0  0  0  0  # atno 17321 bound_to 7965
  139.5185  144.3281  152.0851 LP  0  0  0  0  0  0  0  0  0  0  0  0  # atno 17342 bound_to 10162
  140.2435  144.4244  150.6250 LP  0  0  0  0  0  0  0  0  0  0  0  0  # atno 17343 bound_to 10162
  156.1627  130.6385  151.0740 LP  0  0  0  0  0  0  0  0  0  0  0  0  # atno 17370 bound_to 10713
  157.6917  131.0808  150.7088 LP  0  0  0  0  0  0  0  0  0  0  0  0  # atno 17371 bound_to 10713
  140.9183  134.2174  157.4943 LP  0  0  0  0  0  0  0  0  0  0  0  0  # atno 17394 bound_to 11000
  139.8713  134.9781  156.4983 LP  0  0  0  0  0  0  0  0  0  0  0  0  # atno 17395 bound_to 11000

$$$$
