AV-unprocessed.smi:486|AV-procd|sdf|2697|dock2
  -GOLD-   2262023133D 1   1.00000     0.00000
 Structure written by MMmdl.
 44 46  0  0  0  0  0  0  0  0  2 V2000
  149.4162  130.3960  154.4265 C   0  0  0  0  0  0  0  0  0  0  0  0
  149.7559  131.0531  155.6388 O   0  0  0  0  0  0  0  0  0  0  0  0
  150.0650  132.3954  155.5848 C   0  0  0  0  0  0  0  0  0  0  0  0
  149.4472  133.1562  154.5730 C   0  0  0  0  0  0  0  0  0  0  0  0
  149.7085  134.5335  154.4457 C   0  0  0  0  0  0  0  0  0  0  0  0
  150.5952  135.1838  155.3261 C   0  0  0  0  0  0  0  0  0  0  0  0
  150.7962  136.5334  155.1300 O   0  0  0  0  0  0  0  0  0  0  0  0
  151.6822  137.2171  156.0065 C   0  0  0  0  0  0  0  0  0  0  0  0
  151.4911  138.7307  155.8223 C   0  0  2  0  0  0  0  0  0  0  0  0
  152.6982  139.2773  155.3289 O   0  0  0  0  0  0  0  0  0  0  0  0
  151.1225  139.4270  157.1476 C   0  0  0  0  0  0  0  0  0  0  0  0
  151.0022  140.8880  157.0136 N   0  0  0  0  0  0  0  0  0  0  0  0
  150.2978  141.6268  156.1095 C   0  0  0  0  0  0  0  0  0  0  0  0
  149.4516  141.1034  154.9981 C   0  0  0  0  0  0  0  0  0  0  0  0
  150.5061  142.9397  156.4089 N   0  3  0  0  0  0  0  0  0  0  0  0
  151.3534  143.0431  157.5127 C   0  0  0  0  0  0  0  0  0  0  0  0
  151.8479  144.1605  158.1784 C   0  0  0  0  0  0  0  0  0  0  0  0
  152.7011  143.9177  159.2747 C   0  0  0  0  0  0  0  0  0  0  0  0
  153.0326  142.6056  159.6703 C   0  0  0  0  0  0  0  0  0  0  0  0
  152.5233  141.4805  158.9887 C   0  0  0  0  0  0  0  0  0  0  0  0
  151.6787  141.7286  157.9064 C   0  0  0  0  0  0  0  0  0  0  0  0
  151.2181  134.4233  156.3463 C   0  0  0  0  0  0  0  0  0  0  0  0
  150.9554  133.0453  156.4745 C   0  0  0  0  0  0  0  0  0  0  0  0
  149.1921  129.3501  154.6351 H   0  0  0  0  0  0  0  0  0  0  0  0
  150.2425  130.4206  153.7149 H   0  0  0  0  0  0  0  0  0  0  0  0
  148.5304  130.8372  153.9679 H   0  0  0  0  0  0  0  0  0  0  0  0
  148.7650  132.6788  153.8848 H   0  0  0  0  0  0  0  0  0  0  0  0
  149.2233  135.0964  153.6620 H   0  0  0  0  0  0  0  0  0  0  0  0
  151.4294  136.9443  157.0324 H   0  0  0  0  0  0  0  0  0  0  0  0
  152.7222  136.9340  155.8322 H   0  0  0  0  0  0  0  0  0  0  0  0
  150.6989  138.9122  155.0949 H   0  0  0  0  0  0  0  0  0  0  0  0
  152.7009  139.1917  154.3874 H   0  0  0  0  0  0  0  0  0  0  0  0
  150.1591  139.0595  157.5030 H   0  0  0  0  0  0  0  0  0  0  0  0
  151.8414  139.1922  157.9328 H   0  0  0  0  0  0  0  0  0  0  0  0
  149.0651  141.9224  154.3910 H   0  0  0  0  0  0  0  0  0  0  0  0
  148.6089  140.5416  155.4011 H   0  0  0  0  0  0  0  0  0  0  0  0
  150.0365  140.4438  154.3571 H   0  0  0  0  0  0  0  0  0  0  0  0
  151.5967  145.1664  157.8755 H   0  0  0  0  0  0  0  0  0  0  0  0
  153.1112  144.7544  159.8216 H   0  0  0  0  0  0  0  0  0  0  0  0
  153.6926  142.4581  160.5128 H   0  0  0  0  0  0  0  0  0  0  0  0
  152.7900  140.4806  159.2971 H   0  0  0  0  0  0  0  0  0  0  0  0
  151.9042  134.8735  157.0472 H   0  0  0  0  0  0  0  0  0  0  0  0
  151.4529  132.5073  157.2669 H   0  0  0  0  0  0  0  0  0  0  0  0
  150.0973  143.7084  155.8932 H   0  0  0  0  0  0  0  0  0  0  0  0
  1  2  1  0  0  0  0
  1 24  1  0  0  0  0
  1 25  1  0  0  0  0
  1 26  1  0  0  0  0
  2  3  1  0  0  0  0
  3 23  1  0  0  0  0
  3  4  2  0  0  0  0
  4  5  1  0  0  0  0
  4 27  1  0  0  0  0
  5  6  2  0  0  0  0
  5 28  1  0  0  0  0
  6  7  1  0  0  0  0
  6 22  1  0  0  0  0
  7  8  1  0  0  0  0
  8  9  1  0  0  0  0
  8 29  1  0  0  0  0
  8 30  1  0  0  0  0
  9 10  1  0  0  0  0
  9 11  1  0  0  0  0
  9 31  1  0  0  0  0
 10 32  1  0  0  0  0
 11 12  1  0  0  0  0
 11 33  1  0  0  0  0
 11 34  1  0  0  0  0
 12 21  1  0  0  0  0
 12 13  1  0  0  0  0
 13 14  1  0  0  0  0
 13 15  2  0  0  0  0
 14 35  1  0  0  0  0
 14 36  1  0  0  0  0
 14 37  1  0  0  0  0
 15 16  1  0  0  0  0
 15 44  1  0  0  0  0
 16 21  2  0  0  0  0
 16 17  1  0  0  0  0
 17 18  2  0  0  0  0
 17 38  1  0  0  0  0
 18 19  1  0  0  0  0
 18 39  1  0  0  0  0
 19 20  2  0  0  0  0
 19 40  1  0  0  0  0
 20 21  1  0  0  0  0
 20 41  1  0  0  0  0
 22 23  2  0  0  0  0
 22 42  1  0  0  0  0
 23 43  1  0  0  0  0
M  CHG  1  15   1
M  END
> <s_m_source_file>
AV-unprocessed.smi

> <i_m_source_file_index>
486

> <i_lp_mmshare_version>
43012

> <i_f3d_flags>
0

> <s_epik_input>
W0NIM11PYzFbY0hdW2NIXWMoW2NIXVtjSF0xKU9bQ0gyXVtDQEhdKFtPSF0pW0NIMl1uKGMobjIpW0NIM10pYyhjMjMpW2NIXVtjSF1bY0hdW2NIXTM=

> <s_epik_cmdline>
J2VwaWtfcHl0aG9uJywgJy1waCcsICc3LjAnLCAnLXRuJywgJzgnLCAnLW1hJywgJzIwMCcsICctbWV0YWxfYmluZGluZycsICctaW1hZScsICc8aW5maWxlLm1hZT4nLCAnLW9tYWUnLCAnPG91dGZpbGUubWFlPic=

> <r_lp_tautomer_probability>
1

> <r_epik_Ionization_Penalty>
1.03234

> <r_epik_Ionization_Penalty_Charging>
1.03234

> <r_epik_Ionization_Penalty_Neutral>
2.3993e-06

> <r_epik_State_Penalty>
1.0836

> <r_epik_Charging_Adjusted_Penalty>
2.11594

> <i_epik_Tot_Q>
1

> <i_epik_Tot_abs_Q>
1

> <r_epik_Metal_State_Penalty>
5.07275

> <b_epik_Metal_Only>
0

> <s_lp_Force_Field>
OPLS_2005

> <r_lp_Energy>
23.3843

> <b_lp_Chiralities_Consistent>
1

> <s_lp_Variant>
AV-unprocessed.smi:486-3

> <Gold.Version>
5.8.1

> <Gold.Id.Protein>
6NUR|6NUR_protein|mol2

> <Gold.PLP.Fitness>
54.2170

> <Gold.PLP.PLP>
-47.5691

> <Gold.PLP.part.hbond>
-1.9399

> <Gold.PLP.part.metal>
0.0000

> <Gold.PLP.part.buried>
-5.6567

> <Gold.PLP.part.nonpolar>
-40.8706

> <Gold.PLP.part.repulsive>
0.2276

> <Gold.PLP.ligand.clash>
0.0000

> <Gold.PLP.ligand.torsion>
1.2571

> <Gold.PLP.Chemscore.Hbond>
2.9840

> <Gold.PLP.Chemscore.CHOScore>
0.0000

> <Gold.PLP.Chemscore.Metal>
0.0000

> <Gold.Chemscore.Hbonds>
donor molecule, donor type, donor heavy atom, donor atom, acceptor molecule, acceptor atom, score
      L1  H    15    44       P1  8028  2.00
      P1  H  7997  8008       L1    10  0.93

> <Gold.PLP.Chemscore.Internal.Correction>
0.2103

> <Gold.Rescore>
     Score         DG    S(hbond)    S(metal)    S(lipo)     H(rot)  DE(clash)    DE(int)     intcor
     19.14     -20.60       1.94        0.00     126.24       2.40       0.11       1.35       ----

> <Gold.Chemscore.Fitness>
19.1429

> <Gold.Chemscore.DG>
-20.5993

> <Gold.Chemscore.ZeroCoef>
-5.4800

> <Gold.Chemscore.Hbond>
1.9405

> <Gold.Chemscore.Metal>
0.0000

> <Gold.Chemscore.Lipo>
126.2366

> <Gold.Chemscore.Internal_Hbond>
0.0000

> <Gold.Chemscore.DEClash>
0.1103

> <Gold.Chemscore.DEInternal>
1.3460

> <Gold.Chemscore.Rot>
2.3952

> <Gold.Chemscore.Internal.Correction>
   9.000000E+99

> <Gold.Chemscore.Hbonds>
donor molecule, donor type, donor heavy atom, donor atom, acceptor molecule, acceptor atom, score
      L1  H    15    44       P1  8028  0.93
      P1  H  7997  8008       L1    10  0.58

> <Gold.Chemscore.Hbond.Weighted>
-6.4812

> <Gold.Chemscore.Metal.Weighted>
-0.0000

> <Gold.Chemscore.Lipo.Weighted>
-14.7697

> <Gold.Chemscore.Internal_Hbond.Weighted>
0.0000

> <Gold.Chemscore.DEClash.Weighted>
0.1103

> <Gold.Chemscore.DEInternal.Weighted>
1.3460

> <Gold.Chemscore.Rot.Weighted>
6.1316

> <Gold.Chemscore.Internal.Correction.Weighted>
   9.000000E+99

> <Gold.Protein.RotatedTorsions>
[ 6907 6896 6895 6894 ] final   79.88 input  -60.11 | X-H torsion
[ 7974 7965 7964 7962 ] final  -13.69 input  175.53 | X-H torsion
[ 8008 7997 7996 7995 ] final  -15.30 input   59.86 | X-H torsion
[ 10167 10162 10161 10158 ] final   -6.46 input  -65.29 | X-H torsion
[ 10718 10713 10712 10709 ] final    8.11 input   66.30 | X-H torsion
[ 10763 10752 10751 10750 ] final   51.24 input  -60.55 | X-H torsion
[ 11005 11000 10999 10996 ] final  -81.57 input  -57.11 | X-H torsion

> <Gold.Protein.ActiveResidues>
 VAL166  LYS551  ARG553  GLY616  TRP617  ASP618  TYR619  PRO620  LYS621  CYS622 
 ASP623  PHE694  ASN695  SER759  ASP760  ASP761  ALA762  ILE779  LEU786  VAL792 
 PHE793  MET794  SER795  GLU796  ALA797  LYS798  CYS799  TRP800  GLU811  SER814 

> <Gold.Protein.RotatedAtoms>
  152.5215  134.3443  159.9227 H   0  0  0  0  0  0  0  0  0  0  0  0  # atno 6907 bound_to 6896
  151.3393  133.3962  159.2677 H   0  0  0  0  0  0  0  0  0  0  0  0  # atno 6908 bound_to 6896
  150.9817  134.9188  159.7906 H   0  0  0  0  0  0  0  0  0  0  0  0  # atno 6909 bound_to 6896
  146.2104  140.3240  142.8393 H   0  0  0  0  0  0  0  0  0  0  0  0  # atno 7974 bound_to 7965
  154.5141  140.2200  155.9099 H   0  0  0  0  0  0  0  0  0  0  0  0  # atno 8008 bound_to 7997
  156.1587  140.3146  155.8736 H   0  0  0  0  0  0  0  0  0  0  0  0  # atno 8009 bound_to 7997
  155.3795  140.0471  157.3034 H   0  0  0  0  0  0  0  0  0  0  0  0  # atno 8010 bound_to 7997
  140.6997  143.6192  150.8629 H   0  0  0  0  0  0  0  0  0  0  0  0  # atno 10167 bound_to 10162
  156.9468  130.5882  149.5655 H   0  0  0  0  0  0  0  0  0  0  0  0  # atno 10718 bound_to 10713
  152.9785  135.5852  154.4383 H   0  0  0  0  0  0  0  0  0  0  0  0  # atno 10763 bound_to 10752
  154.3988  135.2768  155.2111 H   0  0  0  0  0  0  0  0  0  0  0  0  # atno 10764 bound_to 10752
  154.3952  135.6116  153.5920 H   0  0  0  0  0  0  0  0  0  0  0  0  # atno 10765 bound_to 10752
  141.1666  133.7202  156.8442 H   0  0  0  0  0  0  0  0  0  0  0  0  # atno 11005 bound_to 11000
  144.8900  140.7511  143.5933 LP  0  0  0  0  0  0  0  0  0  0  0  0  # atno 17320 bound_to 7965
  145.3162  139.1803  143.4612 LP  0  0  0  0  0  0  0  0  0  0  0  0  # atno 17321 bound_to 7965
  139.9913  143.5844  152.2909 LP  0  0  0  0  0  0  0  0  0  0  0  0  # atno 17342 bound_to 10162
  139.6500  144.7660  151.2167 LP  0  0  0  0  0  0  0  0  0  0  0  0  # atno 17343 bound_to 10162
  156.0380  130.5465  150.8701 LP  0  0  0  0  0  0  0  0  0  0  0  0  # atno 17370 bound_to 10713
  157.5748  131.0946  150.9362 LP  0  0  0  0  0  0  0  0  0  0  0  0  # atno 17371 bound_to 10713
  140.1962  134.8930  157.3117 LP  0  0  0  0  0  0  0  0  0  0  0  0  # atno 17394 bound_to 11000
  140.2237  134.3993  155.7554 LP  0  0  0  0  0  0  0  0  0  0  0  0  # atno 17395 bound_to 11000

$$$$
