AV-unprocessed.smi:545|AV-procd|sdf|2881|dock7
  -GOLD-   2262023373D 1   1.00000     0.00000
 Structure written by MMmdl.
 36 37  0  0  0  0  0  0  0  0  1 V2000
  157.0582  140.1881  160.3874 C   0  0  0  0  0  0  0  0  0  0  0  0
  155.8268  140.6708  160.8932 O   0  0  0  0  0  0  0  0  0  0  0  0
  154.9135  141.0186  159.8655 C   0  0  0  0  0  0  0  0  0  0  0  0
  153.5154  141.2348  160.4614 C   0  0  0  0  0  0  0  0  0  0  0  0
  152.5561  141.6956  159.4570 N   0  0  0  0  0  0  0  0  0  0  0  0
  151.8255  142.8502  159.4029 C   0  0  0  0  0  0  0  0  0  0  0  0
  151.8609  143.8491  160.3861 N   0  0  0  0  0  0  0  0  0  0  0  0
  151.0696  145.0702  160.3002 C   0  0  0  0  0  0  0  0  0  0  0  0
  152.4984  143.8006  161.6961 C   0  0  0  0  0  0  0  0  0  0  0  0
  151.0871  142.9758  158.2949 N   0  0  0  0  0  0  0  0  0  0  0  0
  151.3522  141.8138  157.5918 C   0  0  0  0  0  0  0  0  0  0  0  0
  152.2396  141.0390  158.2636 C   0  0  0  0  0  0  0  0  0  0  0  0
  152.7349  139.7649  157.7192 C   0  0  0  0  0  0  0  0  0  0  0  0
  153.5583  139.0537  158.2907 O   0  0  0  0  0  0  0  0  0  0  0  0
  152.1990  139.4555  156.5138 N   0  0  0  0  0  0  0  0  0  0  0  0
  151.2971  140.1871  155.7919 C   0  0  0  0  0  0  0  0  0  0  0  0
  150.9033  139.7752  154.7007 O   0  0  0  0  0  0  0  0  0  0  0  0
  150.8663  141.3732  156.3277 N   0  0  0  0  0  0  0  0  0  0  0  0
  149.9057  142.2008  155.5956 C   0  0  0  0  0  0  0  0  0  0  0  0
  152.5054  138.5883  156.0975 H   0  0  0  0  0  0  0  0  0  0  0  0
  157.7192  139.9348  161.2160 H   0  0  0  0  0  0  0  0  0  0  0  0
  157.5569  140.9426  159.7774 H   0  0  0  0  0  0  0  0  0  0  0  0
  156.9126  139.2902  159.7855 H   0  0  0  0  0  0  0  0  0  0  0  0
  155.2474  141.9276  159.3625 H   0  0  0  0  0  0  0  0  0  0  0  0
  154.8767  140.2264  159.1166 H   0  0  0  0  0  0  0  0  0  0  0  0
  153.1521  140.3101  160.9062 H   0  0  0  0  0  0  0  0  0  0  0  0
  153.5627  141.9222  161.2976 H   0  0  0  0  0  0  0  0  0  0  0  0
  150.8164  145.2970  159.2641 H   0  0  0  0  0  0  0  0  0  0  0  0
  151.6176  145.9262  160.6963 H   0  0  0  0  0  0  0  0  0  0  0  0
  150.1407  144.9623  160.8610 H   0  0  0  0  0  0  0  0  0  0  0  0
  152.5132  142.7783  162.0741 H   0  0  0  0  0  0  0  0  0  0  0  0
  151.9659  144.4017  162.4348 H   0  0  0  0  0  0  0  0  0  0  0  0
  153.5212  144.1733  161.6368 H   0  0  0  0  0  0  0  0  0  0  0  0
  149.0146  141.6253  155.3411 H   0  0  0  0  0  0  0  0  0  0  0  0
  150.3504  142.5687  154.6700 H   0  0  0  0  0  0  0  0  0  0  0  0
  149.5757  143.0670  156.1688 H   0  0  0  0  0  0  0  0  0  0  0  0
  1  2  1  0  0  0  0
  1 21  1  0  0  0  0
  1 22  1  0  0  0  0
  1 23  1  0  0  0  0
  2  3  1  0  0  0  0
  3  4  1  0  0  0  0
  3 24  1  0  0  0  0
  3 25  1  0  0  0  0
  4  5  1  0  0  0  0
  4 26  1  0  0  0  0
  4 27  1  0  0  0  0
  5 12  1  0  0  0  0
  5  6  1  0  0  0  0
  6  7  1  0  0  0  0
  6 10  2  0  0  0  0
  7  8  1  0  0  0  0
  7  9  1  0  0  0  0
  8 28  1  0  0  0  0
  8 29  1  0  0  0  0
  8 30  1  0  0  0  0
  9 31  1  0  0  0  0
  9 32  1  0  0  0  0
  9 33  1  0  0  0  0
 10 11  1  0  0  0  0
 11 18  1  0  0  0  0
 11 12  2  0  0  0  0
 12 13  1  0  0  0  0
 13 14  2  0  0  0  0
 13 15  1  0  0  0  0
 15 20  1  0  0  0  0
 15 16  1  0  0  0  0
 16 17  2  0  0  0  0
 16 18  1  0  0  0  0
 18 19  1  0  0  0  0
 19 34  1  0  0  0  0
 19 35  1  0  0  0  0
 19 36  1  0  0  0  0
M  END
> <s_m_source_file>
AV-unprocessed.smi

> <i_m_source_file_index>
545

> <i_lp_mmshare_version>
43012

> <i_f3d_flags>
0

> <s_epik_input>
W0NIM11PW0NIMl1bQ0gyXW4oYyhuMSlOKFtDSDNdKVtDSDNdKWMoYzEyKWMoPU8pW25IXWMoPU8pbjJbQ0gzXQ==

> <s_epik_cmdline>
J2VwaWtfcHl0aG9uJywgJy1waCcsICc3LjAnLCAnLXRuJywgJzgnLCAnLW1hJywgJzIwMCcsICctbWV0YWxfYmluZGluZycsICctaW1hZScsICc8aW5maWxlLm1hZT4nLCAnLW9tYWUnLCAnPG91dGZpbGUubWFlPic=

> <r_lp_tautomer_probability>
1

> <r_epik_Ionization_Penalty>
6.48997e-05

> <r_epik_Ionization_Penalty_Charging>
1.66474e-05

> <r_epik_Ionization_Penalty_Neutral>
4.82523e-05

> <r_epik_State_Penalty>
-0

> <r_epik_Charging_Adjusted_Penalty>
1.66474e-05

> <i_epik_Tot_Q>
0

> <i_epik_Tot_abs_Q>
0

> <r_epik_Metal_State_Penalty>
0.0159702

> <b_epik_Metal_Only>
0

> <s_lp_Force_Field>
OPLS_2005

> <r_lp_Energy>
27.7728

> <b_lp_Chiralities_Consistent>
1

> <s_lp_Variant>
AV-unprocessed.smi:545-1

> <Gold.Version>
5.8.1

> <Gold.Id.Protein>
6NUR|6NUR_protein|mol2

> <Gold.PLP.Fitness>
41.6267

> <Gold.PLP.PLP>
-37.3699

> <Gold.PLP.part.hbond>
-3.0000

> <Gold.PLP.part.metal>
0.0000

> <Gold.PLP.part.buried>
-0.9058

> <Gold.PLP.part.nonpolar>
-32.9847

> <Gold.PLP.part.repulsive>
0.2927

> <Gold.PLP.ligand.clash>
0.0000

> <Gold.PLP.ligand.torsion>
0.0631

> <Gold.PLP.Chemscore.Hbond>
1.4480

> <Gold.PLP.Chemscore.CHOScore>
0.0000

> <Gold.PLP.Chemscore.Metal>
0.0000

> <Gold.Chemscore.Hbonds>
donor molecule, donor type, donor heavy atom, donor atom, acceptor molecule, acceptor atom, score
      P1  H  7989  7998       L1    17  1.00
      P1  H  7997  8010       L1    14  0.45

> <Gold.PLP.Chemscore.Internal.Correction>
0.0389

> <Gold.Rescore>
     Score         DG    S(hbond)    S(metal)    S(lipo)     H(rot)  DE(clash)    DE(int)     intcor
      8.22     -12.05       0.97        0.00      62.91       1.57       1.53       2.31       ----

> <Gold.Chemscore.Fitness>
8.2151

> <Gold.Chemscore.DG>
-12.0549

> <Gold.Chemscore.ZeroCoef>
-5.4800

> <Gold.Chemscore.Hbond>
0.9685

> <Gold.Chemscore.Metal>
0.0000

> <Gold.Chemscore.Lipo>
62.9112

> <Gold.Chemscore.Internal_Hbond>
0.0000

> <Gold.Chemscore.DEClash>
1.5300

> <Gold.Chemscore.DEInternal>
2.3097

> <Gold.Chemscore.Rot>
1.5705

> <Gold.Chemscore.Internal.Correction>
   9.000000E+99

> <Gold.Chemscore.Hbonds>
donor molecule, donor type, donor heavy atom, donor atom, acceptor molecule, acceptor atom, score
      P1  H  7989  7998       L1    17  0.50
      P1  H  7997  8010       L1    14  0.02

> <Gold.Chemscore.Hbond.Weighted>
-3.2348

> <Gold.Chemscore.Metal.Weighted>
-0.0000

> <Gold.Chemscore.Lipo.Weighted>
-7.3606

> <Gold.Chemscore.Internal_Hbond.Weighted>
0.0000

> <Gold.Chemscore.DEClash.Weighted>
1.5300

> <Gold.Chemscore.DEInternal.Weighted>
2.3097

> <Gold.Chemscore.Rot.Weighted>
4.0205

> <Gold.Chemscore.Internal.Correction.Weighted>
   9.000000E+99

> <Gold.Protein.RotatedTorsions>
[ 6907 6896 6895 6894 ] final   45.55 input  -60.11 | X-H torsion
[ 7974 7965 7964 7962 ] final  164.51 input  175.53 | X-H torsion
[ 8008 7997 7996 7995 ] final    2.21 input   59.86 | X-H torsion
[ 10167 10162 10161 10158 ] final  -87.29 input  -65.29 | X-H torsion
[ 10718 10713 10712 10709 ] final  125.35 input   66.30 | X-H torsion
[ 10763 10752 10751 10750 ] final  117.13 input  -60.55 | X-H torsion
[ 11005 11000 10999 10996 ] final  -17.54 input  -57.11 | X-H torsion

> <Gold.Protein.ActiveResidues>
 VAL166  LYS551  ARG553  GLY616  TRP617  ASP618  TYR619  PRO620  LYS621  CYS622 
 ASP623  PHE694  ASN695  SER759  ASP760  ASP761  ALA762  ILE779  LEU786  VAL792 
 PHE793  MET794  SER795  GLU796  ALA797  LYS798  CYS799  TRP800  GLU811  SER814 

> <Gold.Protein.RotatedAtoms>
  152.2459  134.8182  160.0453 H   0  0  0  0  0  0  0  0  0  0  0  0  # atno 6907 bound_to 6896
  151.8879  133.3504  159.3796 H   0  0  0  0  0  0  0  0  0  0  0  0  # atno 6908 bound_to 6896
  150.7068  134.4879  159.5546 H   0  0  0  0  0  0  0  0  0  0  0  0  # atno 6909 bound_to 6896
  144.7542  139.8336  143.6355 H   0  0  0  0  0  0  0  0  0  0  0  0  # atno 7974 bound_to 7965
  154.6889  140.2649  155.6833 H   0  0  0  0  0  0  0  0  0  0  0  0  # atno 8008 bound_to 7997
  156.2724  140.2795  156.1383 H   0  0  0  0  0  0  0  0  0  0  0  0  # atno 8009 bound_to 7997
  155.0925  140.0373  157.2663 H   0  0  0  0  0  0  0  0  0  0  0  0  # atno 8010 bound_to 7997
  140.3858  143.2727  151.9326 H   0  0  0  0  0  0  0  0  0  0  0  0  # atno 10167 bound_to 10162
  157.5510  131.1094  150.8701 H   0  0  0  0  0  0  0  0  0  0  0  0  # atno 10718 bound_to 10713
  153.5477  135.3546  155.2746 H   0  0  0  0  0  0  0  0  0  0  0  0  # atno 10763 bound_to 10752
  154.8710  135.4106  154.2972 H   0  0  0  0  0  0  0  0  0  0  0  0  # atno 10764 bound_to 10752
  153.3692  135.7063  153.6720 H   0  0  0  0  0  0  0  0  0  0  0  0  # atno 10765 bound_to 10752
  140.8178  133.8091  155.9628 H   0  0  0  0  0  0  0  0  0  0  0  0  # atno 11005 bound_to 11000
  146.1532  139.4621  143.0036 LP  0  0  0  0  0  0  0  0  0  0  0  0  # atno 17320 bound_to 7965
  145.6837  141.0184  143.1593 LP  0  0  0  0  0  0  0  0  0  0  0  0  # atno 17321 bound_to 7965
  139.4792  144.5775  151.7988 LP  0  0  0  0  0  0  0  0  0  0  0  0  # atno 17342 bound_to 10162
  140.4890  144.1338  150.5946 LP  0  0  0  0  0  0  0  0  0  0  0  0  # atno 17343 bound_to 10162
  156.9226  130.5320  149.5279 LP  0  0  0  0  0  0  0  0  0  0  0  0  # atno 17370 bound_to 10713
  156.0577  130.5635  150.9127 LP  0  0  0  0  0  0  0  0  0  0  0  0  # atno 17371 bound_to 10713
  140.9131  134.2236  157.4974 LP  0  0  0  0  0  0  0  0  0  0  0  0  # atno 17394 bound_to 11000
  139.8710  134.9759  156.4900 LP  0  0  0  0  0  0  0  0  0  0  0  0  # atno 17395 bound_to 11000

$$$$
