AV-unprocessed.smi:293|AV-procd|sdf|2251|dock2
  -GOLD-   2262022133D 1   1.00000     0.00000
 Structure written by MMmdl.
 32 33  0  0  0  0  0  0  0  0  1 V2000
  154.3764  138.5668  154.5224 N   0  0  0  0  0  0  0  0  0  0  0  0
  153.2326  138.7072  154.6304 C   0  0  0  0  0  0  0  0  0  0  0  0
  151.7967  138.8833  154.7659 C   0  0  0  0  0  0  0  0  0  0  0  0
  150.9277  137.8549  154.5426 N   0  0  0  0  0  0  0  0  0  0  0  0
  149.7885  138.4904  154.7888 C   0  0  0  0  0  0  0  0  0  0  0  0
  149.9452  139.7747  155.1274 N   0  0  0  0  0  0  0  0  0  0  0  0
  148.9623  140.7831  155.4804 C   0  0  0  0  0  0  0  0  0  0  0  0
  149.3223  141.4630  156.8021 C   0  0  0  0  0  0  0  0  0  0  0  0
  148.6337  141.2658  157.8029 O   0  0  0  0  0  0  0  0  0  0  0  0
  150.4054  142.2558  156.7905 N   0  0  0  0  0  0  0  0  0  0  0  0
  150.9433  142.9727  157.9420 C   0  0  0  0  0  0  0  0  0  0  0  0
  149.7849  143.5918  158.7474 C   0  0  0  0  0  0  0  0  0  0  0  0
  150.3012  144.4172  159.9370 C   0  0  0  0  0  0  0  0  0  0  0  0
  151.2884  145.5008  159.4763 C   0  0  0  0  0  0  0  0  0  0  0  0
  152.4504  144.8882  158.6788 C   0  0  0  0  0  0  0  0  0  0  0  0
  151.9370  144.0629  157.4878 C   0  0  0  0  0  0  0  0  0  0  0  0
  151.2716  140.0552  155.1172 N   0  0  0  0  0  0  0  0  0  0  0  0
  148.8223  138.0110  154.7268 H   0  0  0  0  0  0  0  0  0  0  0  0
  148.8967  141.5259  154.6840 H   0  0  0  0  0  0  0  0  0  0  0  0
  147.9844  140.3057  155.5581 H   0  0  0  0  0  0  0  0  0  0  0  0
  150.9063  142.3561  155.9192 H   0  0  0  0  0  0  0  0  0  0  0  0
  151.4657  142.2641  158.5879 H   0  0  0  0  0  0  0  0  0  0  0  0
  149.1854  144.2326  158.0989 H   0  0  0  0  0  0  0  0  0  0  0  0
  149.1183  142.8073  159.1077 H   0  0  0  0  0  0  0  0  0  0  0  0
  149.4633  144.8770  160.4616 H   0  0  0  0  0  0  0  0  0  0  0  0
  150.7908  143.7572  160.6542 H   0  0  0  0  0  0  0  0  0  0  0  0
  150.7663  146.2324  158.8582 H   0  0  0  0  0  0  0  0  0  0  0  0
  151.6747  146.0440  160.3392 H   0  0  0  0  0  0  0  0  0  0  0  0
  153.1152  145.6768  158.3254 H   0  0  0  0  0  0  0  0  0  0  0  0
  153.0470  144.2514  159.3334 H   0  0  0  0  0  0  0  0  0  0  0  0
  152.7829  143.6113  156.9682 H   0  0  0  0  0  0  0  0  0  0  0  0
  151.4537  144.7269  156.7694 H   0  0  0  0  0  0  0  0  0  0  0  0
  1  2  3  0  0  0  0
  2  3  1  0  0  0  0
  3 17  2  0  0  0  0
  3  4  1  0  0  0  0
  4  5  2  0  0  0  0
  5  6  1  0  0  0  0
  5 18  1  0  0  0  0
  6  7  1  0  0  0  0
  6 17  1  0  0  0  0
  7  8  1  0  0  0  0
  7 19  1  0  0  0  0
  7 20  1  0  0  0  0
  8  9  2  0  0  0  0
  8 10  1  0  0  0  0
 10 11  1  0  0  0  0
 10 21  1  0  0  0  0
 11 16  1  0  0  0  0
 11 12  1  0  0  0  0
 11 22  1  0  0  0  0
 12 13  1  0  0  0  0
 12 23  1  0  0  0  0
 12 24  1  0  0  0  0
 13 14  1  0  0  0  0
 13 25  1  0  0  0  0
 13 26  1  0  0  0  0
 14 15  1  0  0  0  0
 14 27  1  0  0  0  0
 14 28  1  0  0  0  0
 15 16  1  0  0  0  0
 15 29  1  0  0  0  0
 15 30  1  0  0  0  0
 16 31  1  0  0  0  0
 16 32  1  0  0  0  0
M  END
> <s_m_source_file>
AV-unprocessed.smi

> <i_m_source_file_index>
293

> <i_lp_mmshare_version>
43012

> <i_f3d_flags>
0

> <s_epik_input>
TiNDYzFuW2NIXW4objEpW0NIMl1DKD1PKVtOSF1bQ0hdMltDSDJdW0NIMl1bQ0gyXVtDSDJdW0NIMl0y

> <s_epik_cmdline>
J2VwaWtfcHl0aG9uJywgJy1waCcsICc3LjAnLCAnLXRuJywgJzgnLCAnLW1hJywgJzIwMCcsICctbWV0YWxfYmluZGluZycsICctaW1hZScsICc8aW5maWxlLm1hZT4nLCAnLW9tYWUnLCAnPG91dGZpbGUubWFlPic=

> <r_lp_tautomer_probability>
1

> <r_epik_Ionization_Penalty>
5.31112e-08

> <r_epik_Ionization_Penalty_Charging>
0

> <r_epik_Ionization_Penalty_Neutral>
5.31112e-08

> <r_epik_State_Penalty>
-0

> <r_epik_Charging_Adjusted_Penalty>
0

> <i_epik_Tot_Q>
0

> <i_epik_Tot_abs_Q>
0

> <r_epik_Metal_State_Penalty>
-0

> <b_epik_Metal_Only>
0

> <s_lp_Force_Field>
OPLS_2005

> <r_lp_Energy>
12.166

> <b_lp_Chiralities_Consistent>
1

> <s_lp_Variant>
AV-unprocessed.smi:293-1

> <Gold.Version>
5.8.1

> <Gold.Id.Protein>
6NUR|6NUR_protein|mol2

> <Gold.PLP.Fitness>
39.7757

> <Gold.PLP.PLP>
-36.2392

> <Gold.PLP.part.hbond>
-2.7447

> <Gold.PLP.part.metal>
0.0000

> <Gold.PLP.part.buried>
-6.5517

> <Gold.PLP.part.nonpolar>
-28.3704

> <Gold.PLP.part.repulsive>
0.3200

> <Gold.PLP.ligand.clash>
0.0000

> <Gold.PLP.ligand.torsion>
0.3709

> <Gold.PLP.Chemscore.Hbond>
1.4220

> <Gold.PLP.Chemscore.CHOScore>
0.0000

> <Gold.PLP.Chemscore.Metal>
0.0000

> <Gold.Chemscore.Hbonds>
donor molecule, donor type, donor heavy atom, donor atom, acceptor molecule, acceptor atom, score
      P1  H  7989  7998       L1    17  0.75
      P1  H  7997  8010       L1     1  0.67

> <Gold.PLP.Chemscore.Internal.Correction>
0.0123

> <Gold.Rescore>
     Score         DG    S(hbond)    S(metal)    S(lipo)     H(rot)  DE(clash)    DE(int)     intcor
      9.13     -11.44       0.92        0.00      67.50       1.96       0.08       2.23       ----

> <Gold.Chemscore.Fitness>
9.1311

> <Gold.Chemscore.DG>
-11.4414

> <Gold.Chemscore.ZeroCoef>
-5.4800

> <Gold.Chemscore.Hbond>
0.9237

> <Gold.Chemscore.Metal>
0.0000

> <Gold.Chemscore.Lipo>
67.5011

> <Gold.Chemscore.Internal_Hbond>
0.0000

> <Gold.Chemscore.DEClash>
0.0787

> <Gold.Chemscore.DEInternal>
2.2317

> <Gold.Chemscore.Rot>
1.9615

> <Gold.Chemscore.Internal.Correction>
   9.000000E+99

> <Gold.Chemscore.Hbonds>
donor molecule, donor type, donor heavy atom, donor atom, acceptor molecule, acceptor atom, score
      P1  H  7989  7998       L1    17  0.06
      P1  H  7997  8010       L1     1  0.16

> <Gold.Chemscore.Hbond.Weighted>
-3.0852

> <Gold.Chemscore.Metal.Weighted>
-0.0000

> <Gold.Chemscore.Lipo.Weighted>
-7.8976

> <Gold.Chemscore.Internal_Hbond.Weighted>
0.0000

> <Gold.Chemscore.DEClash.Weighted>
0.0787

> <Gold.Chemscore.DEInternal.Weighted>
2.2317

> <Gold.Chemscore.Rot.Weighted>
5.0214

> <Gold.Chemscore.Internal.Correction.Weighted>
   9.000000E+99

> <Gold.Protein.RotatedTorsions>
[ 6907 6896 6895 6894 ] final   19.53 input  -60.11 | X-H torsion
[ 7974 7965 7964 7962 ] final -177.59 input  175.53 | X-H torsion
[ 8008 7997 7996 7995 ] final  146.92 input   59.86 | X-H torsion
[ 10167 10162 10161 10158 ] final  166.17 input  -65.29 | X-H torsion
[ 10718 10713 10712 10709 ] final   44.37 input   66.30 | X-H torsion
[ 10763 10752 10751 10750 ] final  114.60 input  -60.55 | X-H torsion
[ 11005 11000 10999 10996 ] final -129.36 input  -57.11 | X-H torsion

> <Gold.Protein.ActiveResidues>
 VAL166  LYS551  ARG553  GLY616  TRP617  ASP618  TYR619  PRO620  LYS621  CYS622 
 ASP623  PHE694  ASN695  SER759  ASP760  ASP761  ALA762  ILE779  LEU786  VAL792 
 PHE793  MET794  SER795  GLU796  ALA797  LYS798  CYS799  TRP800  GLU811  SER814 

> <Gold.Protein.RotatedAtoms>
  151.8823  135.0449  160.0489 H   0  0  0  0  0  0  0  0  0  0  0  0  # atno 6907 bound_to 6896
  152.2503  133.5205  159.5329 H   0  0  0  0  0  0  0  0  0  0  0  0  # atno 6908 bound_to 6896
  150.7081  134.0886  159.3966 H   0  0  0  0  0  0  0  0  0  0  0  0  # atno 6909 bound_to 6896
  144.7128  140.0996  143.6417 H   0  0  0  0  0  0  0  0  0  0  0  0  # atno 7974 bound_to 7965
  156.2841  140.2169  156.5454 H   0  0  0  0  0  0  0  0  0  0  0  0  # atno 8008 bound_to 7997
  154.7335  140.0493  157.0770 H   0  0  0  0  0  0  0  0  0  0  0  0  # atno 8009 bound_to 7997
  155.0323  140.3136  155.4757 H   0  0  0  0  0  0  0  0  0  0  0  0  # atno 8010 bound_to 7997
  139.4919  144.4055  151.9360 H   0  0  0  0  0  0  0  0  0  0  0  0  # atno 10167 bound_to 10162
  157.4261  130.7997  149.7560 H   0  0  0  0  0  0  0  0  0  0  0  0  # atno 10718 bound_to 10713
  153.5097  135.3620  155.2581 H   0  0  0  0  0  0  0  0  0  0  0  0  # atno 10763 bound_to 10752
  154.8743  135.4020  154.3382 H   0  0  0  0  0  0  0  0  0  0  0  0  # atno 10764 bound_to 10752
  153.4033  135.7075  153.6477 H   0  0  0  0  0  0  0  0  0  0  0  0  # atno 10765 bound_to 10752
  140.9438  134.1158  157.4126 H   0  0  0  0  0  0  0  0  0  0  0  0  # atno 11005 bound_to 11000
  145.9549  139.2759  143.1190 LP  0  0  0  0  0  0  0  0  0  0  0  0  # atno 17320 bound_to 7965
  145.9283  140.9066  143.0369 LP  0  0  0  0  0  0  0  0  0  0  0  0  # atno 17321 bound_to 7965
  140.3495  144.3106  150.5952 LP  0  0  0  0  0  0  0  0  0  0  0  0  # atno 17342 bound_to 10162
  140.5497  143.2208  151.7948 LP  0  0  0  0  0  0  0  0  0  0  0  0  # atno 17343 bound_to 10162
  155.9897  130.3950  150.3061 LP  0  0  0  0  0  0  0  0  0  0  0  0  # atno 17370 bound_to 10713
  157.1214  131.0247  151.3008 LP  0  0  0  0  0  0  0  0  0  0  0  0  # atno 17371 bound_to 10713
  139.8827  135.0045  156.6252 LP  0  0  0  0  0  0  0  0  0  0  0  0  # atno 17394 bound_to 11000
  140.7698  133.8748  155.8483 LP  0  0  0  0  0  0  0  0  0  0  0  0  # atno 17395 bound_to 11000

$$$$
