AV-unprocessed.smi:81|AV-procd|sdf|786|dock7
  -GOLD-   2262017153D 1   1.00000     0.00000
 Structure written by MMmdl.
 64 67  0  0  0  0  0  0  0  0  2 V2000
  149.3152  141.5049  153.5722 C   0  0  0  0  0  0  0  0  0  0  0  0
  149.2169  141.0783  155.0462 C   0  0  0  0  0  0  0  0  0  0  0  0
  148.7664  139.6149  155.1535 C   0  0  0  0  0  0  0  0  0  0  0  0
  148.2646  141.9943  155.8488 C   0  0  0  0  0  0  0  0  0  0  0  0
  148.4768  141.9552  157.2990 N   0  0  0  0  0  0  0  0  0  0  0  0
  147.3404  141.8804  158.0353 C   0  0  0  0  0  0  0  0  0  0  0  0
  147.1863  140.8862  158.9495 N   0  0  0  0  0  0  0  0  0  0  0  0
  146.0750  140.8245  159.6890 C   0  0  0  0  0  0  0  0  0  0  0  0
  145.0200  141.6421  159.6797 N   0  0  0  0  0  0  0  0  0  0  0  0
  145.1787  142.6473  158.7715 C   0  0  0  0  0  0  0  0  0  0  0  0
  146.2961  142.8350  157.9119 C   0  0  0  0  0  0  0  0  0  0  0  0
  146.1062  143.9600  157.1201 N   0  0  0  0  0  0  0  0  0  0  0  0
  144.9427  144.4170  157.4954 C   0  0  0  0  0  0  0  0  0  0  0  0
  144.3216  143.6970  158.4916 N   0  0  0  0  0  0  0  0  0  0  0  0
  143.0371  143.9907  159.1087 C   0  0  0  0  0  0  0  0  0  0  0  0
  142.7584  145.5108  159.2486 C   0  0  1  0  0  0  0  0  0  0  0  0
  143.9182  146.1204  159.7907 O   0  0  0  0  0  0  0  0  0  0  0  0
  142.4490  146.2002  157.9229 C   0  0  0  0  0  0  0  0  0  0  0  0
  141.5801  147.3746  158.3453 C   0  0  0  0  0  0  0  0  0  0  0  0
  140.7670  146.8066  159.3568 O   0  0  0  0  0  0  0  0  0  0  0  0
  141.5534  145.9149  160.1441 C   0  0  1  0  0  0  0  0  0  0  0  0
  140.6300  144.7798  160.6130 C   0  0  0  0  0  0  0  0  0  0  0  0
  149.5376  142.8244  157.8285 C   0  0  2  0  0  0  0  0  0  0  0  0
  150.9278  142.5574  157.2137 C   0  0  0  0  0  0  0  0  0  0  0  0
  151.9655  143.5576  157.7487 C   0  0  0  0  0  0  0  0  0  0  0  0
  152.0338  143.5124  159.2305 N   0  3  1  0  0  0  0  0  0  0  0  0
  153.1076  144.3741  159.7699 C   0  0  0  0  0  0  0  0  0  0  0  0
  150.7178  143.7914  159.8576 C   0  0  0  0  0  0  0  0  0  0  0  0
  149.6493  142.8000  159.3685 C   0  0  0  0  0  0  0  0  0  0  0  0
  148.3412  141.4687  153.0835 H   0  0  0  0  0  0  0  0  0  0  0  0
  149.9894  140.8505  153.0188 H   0  0  0  0  0  0  0  0  0  0  0  0
  149.6979  142.5207  153.4749 H   0  0  0  0  0  0  0  0  0  0  0  0
  150.2165  141.1316  155.4791 H   0  0  0  0  0  0  0  0  0  0  0  0
  147.7687  139.4749  154.7361 H   0  0  0  0  0  0  0  0  0  0  0  0
  148.7413  139.2873  156.1931 H   0  0  0  0  0  0  0  0  0  0  0  0
  149.4475  138.9529  154.6181 H   0  0  0  0  0  0  0  0  0  0  0  0
  148.3839  143.0216  155.5027 H   0  0  0  0  0  0  0  0  0  0  0  0
  147.2302  141.7240  155.6323 H   0  0  0  0  0  0  0  0  0  0  0  0
  146.0253  140.0059  160.3920 H   0  0  0  0  0  0  0  0  0  0  0  0
  144.5070  145.3043  157.0598 H   0  0  0  0  0  0  0  0  0  0  0  0
  142.2665  143.5144  158.5023 H   0  0  0  0  0  0  0  0  0  0  0  0
  143.0074  143.5058  160.0853 H   0  0  0  0  0  0  0  0  0  0  0  0
  144.4868  146.3710  159.0788 H   0  0  0  0  0  0  0  0  0  0  0  0
  143.3357  146.5001  157.3625 H   0  0  0  0  0  0  0  0  0  0  0  0
  141.8604  145.5397  157.2849 H   0  0  0  0  0  0  0  0  0  0  0  0
  142.1835  148.1814  158.7643 H   0  0  0  0  0  0  0  0  0  0  0  0
  140.9833  147.7761  157.5262 H   0  0  0  0  0  0  0  0  0  0  0  0
  141.8985  146.4620  161.0235 H   0  0  0  0  0  0  0  0  0  0  0  0
  141.1650  144.0609  161.2334 H   0  0  0  0  0  0  0  0  0  0  0  0
  140.1919  144.2456  159.7699 H   0  0  0  0  0  0  0  0  0  0  0  0
  139.8084  145.1764  161.2099 H   0  0  0  0  0  0  0  0  0  0  0  0
  149.2575  143.8382  157.5394 H   0  0  0  0  0  0  0  0  0  0  0  0
  151.2639  141.5454  157.4427 H   0  0  0  0  0  0  0  0  0  0  0  0
  150.8766  142.6332  156.1270 H   0  0  0  0  0  0  0  0  0  0  0  0
  152.9450  143.3235  157.3301 H   0  0  0  0  0  0  0  0  0  0  0  0
  151.7149  144.5689  157.4242 H   0  0  0  0  0  0  0  0  0  0  0  0
  152.9192  145.4239  159.5414 H   0  0  0  0  0  0  0  0  0  0  0  0
  154.0731  144.0992  159.3442 H   0  0  0  0  0  0  0  0  0  0  0  0
  153.1800  144.2672  160.8527 H   0  0  0  0  0  0  0  0  0  0  0  0
  150.8084  143.7210  160.9423 H   0  0  0  0  0  0  0  0  0  0  0  0
  150.4128  144.8143  159.6306 H   0  0  0  0  0  0  0  0  0  0  0  0
  148.6918  143.0488  159.8266 H   0  0  0  0  0  0  0  0  0  0  0  0
  149.9098  141.8001  159.7164 H   0  0  0  0  0  0  0  0  0  0  0  0
  152.2759  142.5636  159.4788 H   0  0  0  0  0  0  0  0  0  0  0  0
  1  2  1  0  0  0  0
  1 30  1  0  0  0  0
  1 31  1  0  0  0  0
  1 32  1  0  0  0  0
  2  3  1  0  0  0  0
  2  4  1  0  0  0  0
  2 33  1  0  0  0  0
  3 34  1  0  0  0  0
  3 35  1  0  0  0  0
  3 36  1  0  0  0  0
  4  5  1  0  0  0  0
  4 37  1  0  0  0  0
  4 38  1  0  0  0  0
  5  6  1  0  0  0  0
  5 23  1  0  0  0  0
  6 11  1  0  0  0  0
  6  7  2  0  0  0  0
  7  8  1  0  0  0  0
  8  9  2  0  0  0  0
  8 39  1  0  0  0  0
  9 10  1  0  0  0  0
 10 14  1  0  0  0  0
 10 11  2  0  0  0  0
 11 12  1  0  0  0  0
 12 13  2  0  0  0  0
 13 14  1  0  0  0  0
 13 40  1  0  0  0  0
 14 15  1  0  0  0  0
 15 16  1  0  0  0  0
 15 41  1  0  0  0  0
 15 42  1  0  0  0  0
 16 21  1  0  0  0  0
 16 17  1  0  0  0  0
 16 18  1  0  0  0  0
 17 43  1  0  0  0  0
 18 19  1  0  0  0  0
 18 44  1  0  0  0  0
 18 45  1  0  0  0  0
 19 20  1  0  0  0  0
 19 46  1  0  0  0  0
 19 47  1  0  0  0  0
 20 21  1  0  0  0  0
 21 22  1  0  0  0  0
 21 48  1  0  0  0  0
 22 49  1  0  0  0  0
 22 50  1  0  0  0  0
 22 51  1  0  0  0  0
 23 29  1  0  0  0  0
 23 24  1  0  0  0  0
 23 52  1  0  0  0  0
 24 25  1  0  0  0  0
 24 53  1  0  0  0  0
 24 54  1  0  0  0  0
 25 26  1  0  0  0  0
 25 55  1  0  0  0  0
 25 56  1  0  0  0  0
 26 27  1  0  0  0  0
 26 28  1  0  0  0  0
 26 64  1  0  0  0  0
 27 57  1  0  0  0  0
 27 58  1  0  0  0  0
 27 59  1  0  0  0  0
 28 29  1  0  0  0  0
 28 60  1  0  0  0  0
 28 61  1  0  0  0  0
 29 62  1  0  0  0  0
 29 63  1  0  0  0  0
M  CHG  1  26   1
M  END
> <s_m_source_file>
AV-unprocessed.smi

> <i_m_source_file_index>
81

> <i_lp_mmshare_version>
43012

> <i_f3d_flags>
0

> <s_epik_input>
W0NIMl0xW0NIMl1OKFtDSDNdKVtDSDJdW0NIMl1bQ0hdMU4oW0NIMl1bQ0hdKFtDSDNdKVtDSDNdKWMobltjSF1uMiljKGMyMyluW2NIXW4zW0NIMl1bQ0BAXTQoW09IXSlbQ0gyXVtDSDJdT1tDQEhdNFtDSDNd

> <s_epik_cmdline>
J2VwaWtfcHl0aG9uJywgJy1waCcsICc3LjAnLCAnLXRuJywgJzgnLCAnLW1hJywgJzIwMCcsICctbWV0YWxfYmluZGluZycsICctaW1hZScsICc8aW5maWxlLm1hZT4nLCAnLW9tYWUnLCAnPG91dGZpbGUubWFlPic=

> <r_lp_tautomer_probability>
1

> <r_epik_Ionization_Penalty>
0.00272708

> <r_epik_Ionization_Penalty_Charging>
0.00158983

> <r_epik_Ionization_Penalty_Neutral>
0.00113725

> <r_epik_State_Penalty>
-0

> <r_epik_Charging_Adjusted_Penalty>
0.00158983

> <i_epik_Tot_Q>
1

> <i_epik_Tot_abs_Q>
1

> <r_epik_Metal_State_Penalty>
-0

> <b_epik_Metal_Only>
0

> <s_lp_Force_Field>
OPLS_2005

> <r_lp_Energy>
44.8479

> <b_lp_Chiralities_Consistent>
1

> <s_lp_Variant>
AV-unprocessed.smi:81-1

> <Gold.Version>
5.8.1

> <Gold.Id.Protein>
6NUR|6NUR_protein|mol2

> <Gold.PLP.Fitness>
42.3619

> <Gold.PLP.PLP>
-42.6160

> <Gold.PLP.part.hbond>
-3.7121

> <Gold.PLP.part.metal>
0.0000

> <Gold.PLP.part.buried>
-0.2353

> <Gold.PLP.part.nonpolar>
-38.9168

> <Gold.PLP.part.repulsive>
0.0714

> <Gold.PLP.ligand.clash>
0.0000

> <Gold.PLP.ligand.torsion>
1.6531

> <Gold.PLP.Chemscore.Hbond>
0.7040

> <Gold.PLP.Chemscore.CHOScore>
0.0000

> <Gold.PLP.Chemscore.Metal>
0.0000

> <Gold.PLP.Chemscore.Internal.Correction>
0.9401

> <Gold.Rescore>
     Score         DG    S(hbond)    S(metal)    S(lipo)     H(rot)  DE(clash)    DE(int)     intcor
     10.59     -14.65       0.81        0.00     111.77       2.58       1.39       2.67       ----

> <Gold.Chemscore.Fitness>
10.5912

> <Gold.Chemscore.DG>
-14.6482

> <Gold.Chemscore.ZeroCoef>
-5.4800

> <Gold.Chemscore.Hbond>
0.8051

> <Gold.Chemscore.Metal>
0.0000

> <Gold.Chemscore.Lipo>
111.7735

> <Gold.Chemscore.Internal_Hbond>
0.0000

> <Gold.Chemscore.DEClash>
1.3899

> <Gold.Chemscore.DEInternal>
2.6671

> <Gold.Chemscore.Rot>
2.5774

> <Gold.Chemscore.Internal.Correction>
   9.000000E+99

> <Gold.Chemscore.Hbond.Weighted>
-2.6890

> <Gold.Chemscore.Metal.Weighted>
-0.0000

> <Gold.Chemscore.Lipo.Weighted>
-13.0775

> <Gold.Chemscore.Internal_Hbond.Weighted>
0.0000

> <Gold.Chemscore.DEClash.Weighted>
1.3899

> <Gold.Chemscore.DEInternal.Weighted>
2.6671

> <Gold.Chemscore.Rot.Weighted>
6.5982

> <Gold.Chemscore.Internal.Correction.Weighted>
   9.000000E+99

> <Gold.Protein.RotatedTorsions>
[ 6907 6896 6895 6894 ] final   52.14 input  -60.11 | X-H torsion
[ 7974 7965 7964 7962 ] final -137.38 input  175.53 | X-H torsion
[ 8008 7997 7996 7995 ] final -152.65 input   59.86 | X-H torsion
[ 10167 10162 10161 10158 ] final  -95.74 input  -65.29 | X-H torsion
[ 10718 10713 10712 10709 ] final  -22.60 input   66.30 | X-H torsion
[ 10763 10752 10751 10750 ] final  -67.04 input  -60.55 | X-H torsion
[ 11005 11000 10999 10996 ] final   71.96 input  -57.11 | X-H torsion

> <Gold.Protein.ActiveResidues>
 VAL166  LYS551  ARG553  GLY616  TRP617  ASP618  TYR619  PRO620  LYS621  CYS622 
 ASP623  PHE694  ASN695  SER759  ASP760  ASP761  ALA762  ILE779  LEU786  VAL792 
 PHE793  MET794  SER795  GLU796  ALA797  LYS798  CYS799  TRP800  GLU811  SER814 

> <Gold.Protein.RotatedAtoms>
  152.3201  134.7391  160.0315 H   0  0  0  0  0  0  0  0  0  0  0  0  # atno 6907 bound_to 6896
  151.7842  133.3347  159.3488 H   0  0  0  0  0  0  0  0  0  0  0  0  # atno 6908 bound_to 6896
  150.7365  134.5833  159.5994 H   0  0  0  0  0  0  0  0  0  0  0  0  # atno 6909 bound_to 6896
  144.8846  140.6557  143.5184 H   0  0  0  0  0  0  0  0  0  0  0  0  # atno 7974 bound_to 7965
  155.6585  140.0720  157.2562 H   0  0  0  0  0  0  0  0  0  0  0  0  # atno 8008 bound_to 7997
  154.4147  140.1720  156.1801 H   0  0  0  0  0  0  0  0  0  0  0  0  # atno 8009 bound_to 7997
  155.9717  140.3361  155.6585 H   0  0  0  0  0  0  0  0  0  0  0  0  # atno 8010 bound_to 7997
  140.3011  143.3162  152.0248 H   0  0  0  0  0  0  0  0  0  0  0  0  # atno 10167 bound_to 10162
  156.5023  130.4591  149.6694 H   0  0  0  0  0  0  0  0  0  0  0  0  # atno 10718 bound_to 10713
  154.3687  135.6100  153.5728 H   0  0  0  0  0  0  0  0  0  0  0  0  # atno 10763 bound_to 10752
  152.9791  135.5833  154.4547 H   0  0  0  0  0  0  0  0  0  0  0  0  # atno 10764 bound_to 10752
  154.4297  135.2847  155.1898 H   0  0  0  0  0  0  0  0  0  0  0  0  # atno 10765 bound_to 10752
  139.9516  134.7217  156.0850 H   0  0  0  0  0  0  0  0  0  0  0  0  # atno 11005 bound_to 11000
  145.3892  139.1620  143.4238 LP  0  0  0  0  0  0  0  0  0  0  0  0  # atno 17320 bound_to 7965
  146.3016  140.3979  142.8702 LP  0  0  0  0  0  0  0  0  0  0  0  0  # atno 17321 bound_to 7965
  139.4915  144.6455  151.6787 LP  0  0  0  0  0  0  0  0  0  0  0  0  # atno 17342 bound_to 10162
  140.5650  144.0204  150.6188 LP  0  0  0  0  0  0  0  0  0  0  0  0  # atno 17343 bound_to 10162
  156.3321  130.7337  151.2268 LP  0  0  0  0  0  0  0  0  0  0  0  0  # atno 17370 bound_to 10713
  157.7461  131.0427  150.4707 LP  0  0  0  0  0  0  0  0  0  0  0  0  # atno 17371 bound_to 10713
  141.1179  133.6622  156.3141 LP  0  0  0  0  0  0  0  0  0  0  0  0  # atno 17394 bound_to 11000
  140.5706  134.5843  157.5456 LP  0  0  0  0  0  0  0  0  0  0  0  0  # atno 17395 bound_to 11000

$$$$
