AV-unprocessed.smi:244|AV-procd|sdf|1869|dock3
  -GOLD-   2262020503D 1   1.00000     0.00000
 Structure written by MMmdl.
 57 61  0  0  0  0  0  0  0  0  2 V2000
  149.8430  136.6383  155.1608 C   0  0  0  0  0  0  0  0  0  0  0  0
  149.3728  138.0309  155.3442 N   0  3  2  0  0  0  0  0  0  0  0  0
  150.4077  139.0556  155.0578 C   0  0  0  0  0  0  0  0  0  0  0  0
  151.4158  139.1888  156.2103 C   0  0  0  0  0  0  0  0  0  0  0  0
  150.6918  139.4987  157.5356 C   0  0  2  0  0  0  0  0  0  0  0  0
  151.5966  139.6455  158.6306 O   0  0  0  0  0  0  0  0  0  0  0  0
  152.2011  138.4317  159.0671 C   0  0  0  0  0  0  0  0  0  0  0  0
  151.1149  137.4224  159.4595 C   0  0  0  0  0  0  0  0  0  0  0  0
  150.1845  137.2127  158.3565 N   0  0  0  0  0  0  0  0  0  0  0  0
  149.3466  136.1877  158.6405 C   0  0  0  0  0  0  0  0  0  0  0  0
  149.1102  135.2152  157.7206 N   0  0  0  0  0  0  0  0  0  0  0  0
  148.2754  134.2118  158.0087 C   0  0  0  0  0  0  0  0  0  0  0  0
  147.5885  133.9940  159.1324 N   0  0  0  0  0  0  0  0  0  0  0  0
  147.8191  134.9741  160.0527 C   0  0  0  0  0  0  0  0  0  0  0  0
  148.6698  136.1014  159.8852 C   0  0  0  0  0  0  0  0  0  0  0  0
  148.6518  136.8894  161.0285 N   0  0  0  0  0  0  0  0  0  0  0  0
  147.8360  136.2609  161.8307 C   0  0  0  0  0  0  0  0  0  0  0  0
  147.3025  135.0938  161.3306 N   0  0  0  0  0  0  0  0  0  0  0  0
  146.3850  134.1936  162.0114 C   0  0  0  0  0  0  0  0  0  0  0  0
  144.8909  134.5503  161.8098 C   0  0  0  0  0  0  0  0  0  0  0  0
  144.5530  134.2648  160.4634 O   0  0  0  0  0  0  0  0  0  0  0  0
  143.9547  133.7314  162.7260 C   0  0  0  0  0  0  0  0  0  0  0  0
  142.5028  134.2398  162.6740 C   0  0  0  0  0  0  0  0  0  0  0  0
  142.4577  135.6260  162.9883 O   0  0  0  0  0  0  0  0  0  0  0  0
  143.1660  136.4241  162.0478 C   0  0  0  0  0  0  0  0  0  0  0  0
  144.6597  136.0535  162.0641 C   0  0  0  0  0  0  0  0  0  0  0  0
  149.5909  138.4586  157.8545 C   0  0  2  0  0  0  0  0  0  0  0  0
  148.6552  138.2750  156.6245 C   0  0  0  0  0  0  0  0  0  0  0  0
  150.6723  136.3955  155.8234 H   0  0  0  0  0  0  0  0  0  0  0  0
  150.1812  136.4856  154.1357 H   0  0  0  0  0  0  0  0  0  0  0  0
  149.0363  135.9295  155.3510 H   0  0  0  0  0  0  0  0  0  0  0  0
  150.9216  138.8171  154.1258 H   0  0  0  0  0  0  0  0  0  0  0  0
  149.9101  140.0127  154.8968 H   0  0  0  0  0  0  0  0  0  0  0  0
  151.9971  138.2709  156.2828 H   0  0  0  0  0  0  0  0  0  0  0  0
  152.1279  139.9834  155.9859 H   0  0  0  0  0  0  0  0  0  0  0  0
  150.2076  140.4690  157.4177 H   0  0  0  0  0  0  0  0  0  0  0  0
  152.8581  138.0215  158.3008 H   0  0  0  0  0  0  0  0  0  0  0  0
  152.8331  138.6487  159.9284 H   0  0  0  0  0  0  0  0  0  0  0  0
  151.5805  136.4791  159.7495 H   0  0  0  0  0  0  0  0  0  0  0  0
  150.5663  137.7892  160.3286 H   0  0  0  0  0  0  0  0  0  0  0  0
  148.1395  133.4777  157.2282 H   0  0  0  0  0  0  0  0  0  0  0  0
  147.6080  136.6267  162.8214 H   0  0  0  0  0  0  0  0  0  0  0  0
  146.5789  133.1828  161.6495 H   0  0  0  0  0  0  0  0  0  0  0  0
  146.6352  134.1873  163.0733 H   0  0  0  0  0  0  0  0  0  0  0  0
  144.1445  133.4131  160.4294 H   0  0  0  0  0  0  0  0  0  0  0  0
  143.9781  132.6736  162.4615 H   0  0  0  0  0  0  0  0  0  0  0  0
  144.3096  133.7997  163.7552 H   0  0  0  0  0  0  0  0  0  0  0  0
  142.0596  134.0627  161.6929 H   0  0  0  0  0  0  0  0  0  0  0  0
  141.8929  133.6971  163.3964 H   0  0  0  0  0  0  0  0  0  0  0  0
  142.7390  136.2998  161.0515 H   0  0  0  0  0  0  0  0  0  0  0  0
  143.0407  137.4735  162.3155 H   0  0  0  0  0  0  0  0  0  0  0  0
  145.0676  136.3199  163.0401 H   0  0  0  0  0  0  0  0  0  0  0  0
  145.2023  136.6546  161.3334 H   0  0  0  0  0  0  0  0  0  0  0  0
  148.9897  138.8651  158.6696 H   0  0  0  0  0  0  0  0  0  0  0  0
  148.0892  139.1981  156.4939 H   0  0  0  0  0  0  0  0  0  0  0  0
  147.9030  137.5027  156.7833 H   0  0  0  0  0  0  0  0  0  0  0  0
  148.6726  138.1512  154.6260 H   0  0  0  0  0  0  0  0  0  0  0  0
  1  2  1  0  0  0  0
  1 29  1  0  0  0  0
  1 30  1  0  0  0  0
  1 31  1  0  0  0  0
  2 28  1  0  0  0  0
  2  3  1  0  0  0  0
  2 57  1  0  0  0  0
  3  4  1  0  0  0  0
  3 32  1  0  0  0  0
  3 33  1  0  0  0  0
  4  5  1  0  0  0  0
  4 34  1  0  0  0  0
  4 35  1  0  0  0  0
  5 27  1  0  0  0  0
  5  6  1  0  0  0  0
  5 36  1  0  0  0  0
  6  7  1  0  0  0  0
  7  8  1  0  0  0  0
  7 37  1  0  0  0  0
  7 38  1  0  0  0  0
  8  9  1  0  0  0  0
  8 39  1  0  0  0  0
  8 40  1  0  0  0  0
  9 10  1  0  0  0  0
  9 27  1  0  0  0  0
 10 15  1  0  0  0  0
 10 11  2  0  0  0  0
 11 12  1  0  0  0  0
 12 13  2  0  0  0  0
 12 41  1  0  0  0  0
 13 14  1  0  0  0  0
 14 18  1  0  0  0  0
 14 15  2  0  0  0  0
 15 16  1  0  0  0  0
 16 17  2  0  0  0  0
 17 18  1  0  0  0  0
 17 42  1  0  0  0  0
 18 19  1  0  0  0  0
 19 20  1  0  0  0  0
 19 43  1  0  0  0  0
 19 44  1  0  0  0  0
 20 26  1  0  0  0  0
 20 21  1  0  0  0  0
 20 22  1  0  0  0  0
 21 45  1  0  0  0  0
 22 23  1  0  0  0  0
 22 46  1  0  0  0  0
 22 47  1  0  0  0  0
 23 24  1  0  0  0  0
 23 48  1  0  0  0  0
 23 49  1  0  0  0  0
 24 25  1  0  0  0  0
 25 26  1  0  0  0  0
 25 50  1  0  0  0  0
 25 51  1  0  0  0  0
 26 52  1  0  0  0  0
 26 53  1  0  0  0  0
 27 28  1  0  0  0  0
 27 54  1  0  0  0  0
 28 55  1  0  0  0  0
 28 56  1  0  0  0  0
M  CHG  1   2   1
M  END
> <s_m_source_file>
AV-unprocessed.smi

> <i_m_source_file_index>
244

> <i_lp_mmshare_version>
43012

> <i_f3d_flags>
0

> <s_epik_input>
W0NIMl0xW0NIMl1OKFtDSDNdKVtDSDJdW0NAQEhdKFtDQEhdMTIpTihbQ0gyXVtDSDJdTzIpYyhuW2NIXW4zKWMoYzM0KW5bY0hdbjRbQ0gyXUM1KFtPSF0pW0NIMl1bQ0gyXU9bQ0gyXVtDSDJdNQ==

> <s_epik_cmdline>
J2VwaWtfcHl0aG9uJywgJy1waCcsICc3LjAnLCAnLXRuJywgJzgnLCAnLW1hJywgJzIwMCcsICctbWV0YWxfYmluZGluZycsICctaW1hZScsICc8aW5maWxlLm1hZT4nLCAnLW9tYWUnLCAnPG91dGZpbGUubWFlPic=

> <r_lp_tautomer_probability>
1

> <r_epik_Ionization_Penalty>
0.0136215

> <r_epik_Ionization_Penalty_Charging>
0.0131385

> <r_epik_Ionization_Penalty_Neutral>
0.000483022

> <r_epik_State_Penalty>
0.0104001

> <r_epik_Charging_Adjusted_Penalty>
0.0235387

> <i_epik_Tot_Q>
1

> <i_epik_Tot_abs_Q>
1

> <r_epik_Metal_State_Penalty>
0.0104469

> <b_epik_Metal_Only>
0

> <s_lp_Force_Field>
OPLS_2005

> <r_lp_Energy>
50.9375

> <b_lp_Chiralities_Consistent>
1

> <s_lp_Variant>
AV-unprocessed.smi:244-6

> <Gold.Version>
5.8.1

> <Gold.Id.Protein>
6NUR|6NUR_protein|mol2

> <Gold.PLP.Fitness>
37.9030

> <Gold.PLP.PLP>
-36.6170

> <Gold.PLP.part.hbond>
-1.3263

> <Gold.PLP.part.metal>
0.0000

> <Gold.PLP.part.buried>
-6.2288

> <Gold.PLP.part.nonpolar>
-30.4484

> <Gold.PLP.part.repulsive>
0.0966

> <Gold.PLP.ligand.clash>
0.0000

> <Gold.PLP.ligand.torsion>
0.9299

> <Gold.PLP.Chemscore.Hbond>
1.0000

> <Gold.PLP.Chemscore.CHOScore>
0.0000

> <Gold.PLP.Chemscore.Metal>
0.0000

> <Gold.Chemscore.Hbonds>
donor molecule, donor type, donor heavy atom, donor atom, acceptor molecule, acceptor atom, score
      P1  H  6931  6943       L1    16  1.00

> <Gold.PLP.Chemscore.Internal.Correction>
0.1458

> <Gold.Rescore>
     Score         DG    S(hbond)    S(metal)    S(lipo)     H(rot)  DE(clash)    DE(int)     intcor
     10.87     -11.43       0.95        0.00      69.51       2.09       0.01       0.55       ----

> <Gold.Chemscore.Fitness>
10.8713

> <Gold.Chemscore.DG>
-11.4299

> <Gold.Chemscore.ZeroCoef>
-5.4800

> <Gold.Chemscore.Hbond>
0.9493

> <Gold.Chemscore.Metal>
0.0000

> <Gold.Chemscore.Lipo>
69.5065

> <Gold.Chemscore.Internal_Hbond>
0.0000

> <Gold.Chemscore.DEClash>
0.0135

> <Gold.Chemscore.DEInternal>
0.5451

> <Gold.Chemscore.Rot>
2.0911

> <Gold.Chemscore.Internal.Correction>
   9.000000E+99

> <Gold.Chemscore.Hbonds>
donor molecule, donor type, donor heavy atom, donor atom, acceptor molecule, acceptor atom, score
      P1  H  6931  6943       L1    16  0.39

> <Gold.Chemscore.Hbond.Weighted>
-3.1707

> <Gold.Chemscore.Metal.Weighted>
-0.0000

> <Gold.Chemscore.Lipo.Weighted>
-8.1323

> <Gold.Chemscore.Internal_Hbond.Weighted>
0.0000

> <Gold.Chemscore.DEClash.Weighted>
0.0135

> <Gold.Chemscore.DEInternal.Weighted>
0.5451

> <Gold.Chemscore.Rot.Weighted>
5.3531

> <Gold.Chemscore.Internal.Correction.Weighted>
   9.000000E+99

> <Gold.Protein.RotatedTorsions>
[ 6907 6896 6895 6894 ] final   14.70 input  -60.11 | X-H torsion
[ 7974 7965 7964 7962 ] final -162.66 input  175.53 | X-H torsion
[ 8008 7997 7996 7995 ] final   66.52 input   59.86 | X-H torsion
[ 10167 10162 10161 10158 ] final   32.99 input  -65.29 | X-H torsion
[ 10718 10713 10712 10709 ] final  -35.79 input   66.30 | X-H torsion
[ 10763 10752 10751 10750 ] final  -12.73 input  -60.55 | X-H torsion
[ 11005 11000 10999 10996 ] final   75.87 input  -57.11 | X-H torsion

> <Gold.Protein.ActiveResidues>
 VAL166  LYS551  ARG553  GLY616  TRP617  ASP618  TYR619  PRO620  LYS621  CYS622 
 ASP623  PHE694  ASN695  SER759  ASP760  ASP761  ALA762  ILE779  LEU786  VAL792 
 PHE793  MET794  SER795  GLU796  ALA797  LYS798  CYS799  TRP800  GLU811  SER814 

> <Gold.Protein.RotatedAtoms>
  151.8064  135.0693  160.0406 H   0  0  0  0  0  0  0  0  0  0  0  0  # atno 6907 bound_to 6896
  152.3052  133.5691  159.5652 H   0  0  0  0  0  0  0  0  0  0  0  0  # atno 6908 bound_to 6896
  150.7292  134.0150  159.3724 H   0  0  0  0  0  0  0  0  0  0  0  0  # atno 6909 bound_to 6896
  144.7350  140.3221  143.6169 H   0  0  0  0  0  0  0  0  0  0  0  0  # atno 7974 bound_to 7965
  155.6786  140.3496  155.4846 H   0  0  0  0  0  0  0  0  0  0  0  0  # atno 8008 bound_to 7997
  155.9626  140.1140  157.0905 H   0  0  0  0  0  0  0  0  0  0  0  0  # atno 8009 bound_to 7997
  154.4147  140.1172  156.5185 H   0  0  0  0  0  0  0  0  0  0  0  0  # atno 8010 bound_to 7997
  140.4448  144.1135  150.6180 H   0  0  0  0  0  0  0  0  0  0  0  0  # atno 10167 bound_to 10162
  156.3344  130.4284  149.7843 H   0  0  0  0  0  0  0  0  0  0  0  0  # atno 10718 bound_to 10713
  153.5028  135.7017  153.5823 H   0  0  0  0  0  0  0  0  0  0  0  0  # atno 10763 bound_to 10752
  153.3947  135.3887  155.1947 H   0  0  0  0  0  0  0  0  0  0  0  0  # atno 10764 bound_to 10752
  154.8709  135.3867  154.4500 H   0  0  0  0  0  0  0  0  0  0  0  0  # atno 10765 bound_to 10752
  139.9324  134.7554  156.1325 H   0  0  0  0  0  0  0  0  0  0  0  0  # atno 11005 bound_to 11000
  145.7558  139.1808  143.2295 LP  0  0  0  0  0  0  0  0  0  0  0  0  # atno 17320 bound_to 7965
  146.1025  140.7527  142.9542 LP  0  0  0  0  0  0  0  0  0  0  0  0  # atno 17321 bound_to 7965
  140.4276  143.2583  151.9636 LP  0  0  0  0  0  0  0  0  0  0  0  0  # atno 17342 bound_to 10162
  139.4792  144.5773  151.7990 LP  0  0  0  0  0  0  0  0  0  0  0  0  # atno 17343 bound_to 10162
  156.5103  130.8169  151.3166 LP  0  0  0  0  0  0  0  0  0  0  0  0  # atno 17370 bound_to 10713
  157.7436  130.9916  150.2606 LP  0  0  0  0  0  0  0  0  0  0  0  0  # atno 17371 bound_to 10713
  141.0919  133.6711  156.2560 LP  0  0  0  0  0  0  0  0  0  0  0  0  # atno 17394 bound_to 11000
  140.6167  134.5403  157.5541 LP  0  0  0  0  0  0  0  0  0  0  0  0  # atno 17395 bound_to 11000

$$$$
