AV-unprocessed.smi:155|AV-procd|sdf|1272|dock5
  -GOLD-   2262018533D 1   1.00000     0.00000
 Structure written by MMmdl.
 63 66  0  0  0  0  0  0  0  0  2 V2000
  145.5703  131.3916  151.0898 C   0  0  0  0  0  0  0  0  0  0  0  0
  145.7021  132.5955  150.2799 N   0  0  0  0  0  0  0  0  0  0  0  0
  144.4018  133.2555  150.2282 C   0  0  0  0  0  0  0  0  0  0  0  0
  146.7240  133.4599  150.8714 C   0  0  0  0  0  0  0  0  0  0  0  0
  146.2960  134.0144  152.2462 C   0  0  0  0  0  0  0  0  0  0  0  0
  146.3177  135.4985  152.2704 N   0  3  1  0  0  0  0  0  0  0  0  0
  145.8255  136.0891  150.9989 C   0  0  0  0  0  0  0  0  0  0  0  0
  145.6705  137.6229  151.0155 C   0  0  0  0  0  0  0  0  0  0  0  0
  146.7831  138.3757  151.7613 C   0  0  0  0  0  0  0  0  0  0  0  0
  146.5098  138.4534  153.1952 N   0  0  0  0  0  0  0  0  0  0  0  0
  147.0929  139.5099  153.7993 C   0  0  0  0  0  0  0  0  0  0  0  0
  146.3425  140.6261  153.9668 N   0  0  0  0  0  0  0  0  0  0  0  0
  146.8713  141.7004  154.5618 C   0  0  0  0  0  0  0  0  0  0  0  0
  148.1016  141.8615  155.0560 N   0  0  0  0  0  0  0  0  0  0  0  0
  148.8525  140.7342  154.8954 C   0  0  0  0  0  0  0  0  0  0  0  0
  148.4308  139.5215  154.2829 C   0  0  0  0  0  0  0  0  0  0  0  0
  149.4634  138.5915  154.3064 N   0  0  0  0  0  0  0  0  0  0  0  0
  150.4430  139.2212  154.8968 C   0  0  0  0  0  0  0  0  0  0  0  0
  150.1626  140.5136  155.2795 N   0  0  0  0  0  0  0  0  0  0  0  0
  151.0587  141.4396  155.9492 C   0  0  0  0  0  0  0  0  0  0  0  0
  150.5987  141.7714  157.3821 C   0  0  2  0  0  0  0  0  0  0  0  0
  149.3736  142.4772  157.3244 O   0  0  0  0  0  0  0  0  0  0  0  0
  151.6311  142.6246  158.1415 C   0  0  1  0  0  0  0  0  0  0  0  0
  151.7532  144.0664  157.6452 C   0  0  0  0  0  0  0  0  0  0  0  0
  152.2782  144.8194  158.8576 C   0  0  0  0  0  0  0  0  0  0  0  0
  152.0187  143.8675  160.0285 C   0  0  0  0  0  0  0  0  0  0  0  0
  151.2269  142.8189  159.4880 O   0  0  0  0  0  0  0  0  0  0  0  0
  146.5996  137.2445  154.0096 C   0  0  0  0  0  0  0  0  0  0  0  0
  145.7231  136.0911  153.4952 C   0  0  0  0  0  0  0  0  0  0  0  0
  146.5137  130.8451  151.1231 H   0  0  0  0  0  0  0  0  0  0  0  0
  144.8196  130.7230  150.6670 H   0  0  0  0  0  0  0  0  0  0  0  0
  145.2776  131.6300  152.1135 H   0  0  0  0  0  0  0  0  0  0  0  0
  144.4206  134.1311  149.5807 H   0  0  0  0  0  0  0  0  0  0  0  0
  144.0753  133.5707  151.2204 H   0  0  0  0  0  0  0  0  0  0  0  0
  143.6484  132.5780  149.8248 H   0  0  0  0  0  0  0  0  0  0  0  0
  147.6606  132.9080  150.9640 H   0  0  0  0  0  0  0  0  0  0  0  0
  146.9297  134.2910  150.1964 H   0  0  0  0  0  0  0  0  0  0  0  0
  145.3042  133.6449  152.5061 H   0  0  0  0  0  0  0  0  0  0  0  0
  146.9592  133.6361  153.0255 H   0  0  0  0  0  0  0  0  0  0  0  0
  146.5295  135.8123  150.2129 H   0  0  0  0  0  0  0  0  0  0  0  0
  144.8686  135.6383  150.7311 H   0  0  0  0  0  0  0  0  0  0  0  0
  145.6474  137.9653  149.9804 H   0  0  0  0  0  0  0  0  0  0  0  0
  144.7001  137.9015  151.4294 H   0  0  0  0  0  0  0  0  0  0  0  0
  147.7524  137.9101  151.5785 H   0  0  0  0  0  0  0  0  0  0  0  0
  146.8437  139.3893  151.3611 H   0  0  0  0  0  0  0  0  0  0  0  0
  146.2151  142.5533  154.6557 H   0  0  0  0  0  0  0  0  0  0  0  0
  151.4048  138.7590  155.0677 H   0  0  0  0  0  0  0  0  0  0  0  0
  152.0545  140.9952  155.9635 H   0  0  0  0  0  0  0  0  0  0  0  0
  151.1321  142.3490  155.3511 H   0  0  0  0  0  0  0  0  0  0  0  0
  150.4262  140.8442  157.9303 H   0  0  0  0  0  0  0  0  0  0  0  0
  149.5176  143.2867  156.8586 H   0  0  0  0  0  0  0  0  0  0  0  0
  152.6105  142.1416  158.1322 H   0  0  0  0  0  0  0  0  0  0  0  0
  152.4037  144.1586  156.7750 H   0  0  0  0  0  0  0  0  0  0  0  0
  150.7712  144.4552  157.3728 H   0  0  0  0  0  0  0  0  0  0  0  0
  153.3440  145.0298  158.7645 H   0  0  0  0  0  0  0  0  0  0  0  0
  151.7585  145.7696  158.9835 H   0  0  0  0  0  0  0  0  0  0  0  0
  152.9565  143.4532  160.4013 H   0  0  0  0  0  0  0  0  0  0  0  0
  151.5078  144.3546  160.8593 H   0  0  0  0  0  0  0  0  0  0  0  0
  147.6396  136.9215  154.0789 H   0  0  0  0  0  0  0  0  0  0  0  0
  146.2852  137.4903  155.0255 H   0  0  0  0  0  0  0  0  0  0  0  0
  144.6908  136.4033  153.3302 H   0  0  0  0  0  0  0  0  0  0  0  0
  145.6760  135.3415  154.2851 H   0  0  0  0  0  0  0  0  0  0  0  0
  147.2985  135.7384  152.3103 H   0  0  0  0  0  0  0  0  0  0  0  0
  1  2  1  0  0  0  0
  1 30  1  0  0  0  0
  1 31  1  0  0  0  0
  1 32  1  0  0  0  0
  2  3  1  0  0  0  0
  2  4  1  0  0  0  0
  3 33  1  0  0  0  0
  3 34  1  0  0  0  0
  3 35  1  0  0  0  0
  4  5  1  0  0  0  0
  4 36  1  0  0  0  0
  4 37  1  0  0  0  0
  5  6  1  0  0  0  0
  5 38  1  0  0  0  0
  5 39  1  0  0  0  0
  6 29  1  0  0  0  0
  6  7  1  0  0  0  0
  6 63  1  0  0  0  0
  7  8  1  0  0  0  0
  7 40  1  0  0  0  0
  7 41  1  0  0  0  0
  8  9  1  0  0  0  0
  8 42  1  0  0  0  0
  8 43  1  0  0  0  0
  9 10  1  0  0  0  0
  9 44  1  0  0  0  0
  9 45  1  0  0  0  0
 10 11  1  0  0  0  0
 10 28  1  0  0  0  0
 11 16  1  0  0  0  0
 11 12  2  0  0  0  0
 12 13  1  0  0  0  0
 13 14  2  0  0  0  0
 13 46  1  0  0  0  0
 14 15  1  0  0  0  0
 15 19  1  0  0  0  0
 15 16  2  0  0  0  0
 16 17  1  0  0  0  0
 17 18  2  0  0  0  0
 18 19  1  0  0  0  0
 18 47  1  0  0  0  0
 19 20  1  0  0  0  0
 20 21  1  0  0  0  0
 20 48  1  0  0  0  0
 20 49  1  0  0  0  0
 21 22  1  0  0  0  0
 21 23  1  0  0  0  0
 21 50  1  0  0  0  0
 22 51  1  0  0  0  0
 23 27  1  0  0  0  0
 23 24  1  0  0  0  0
 23 52  1  0  0  0  0
 24 25  1  0  0  0  0
 24 53  1  0  0  0  0
 24 54  1  0  0  0  0
 25 26  1  0  0  0  0
 25 55  1  0  0  0  0
 25 56  1  0  0  0  0
 26 27  1  0  0  0  0
 26 57  1  0  0  0  0
 26 58  1  0  0  0  0
 28 29  1  0  0  0  0
 28 59  1  0  0  0  0
 28 60  1  0  0  0  0
 29 61  1  0  0  0  0
 29 62  1  0  0  0  0
M  CHG  1   6   1
M  END
> <s_m_source_file>
AV-unprocessed.smi

> <i_m_source_file_index>
155

> <i_lp_mmshare_version>
43012

> <i_f3d_flags>
0

> <s_epik_input>
W0NIM11OKFtDSDNdKVtDSDJdW0NIMl1OMVtDSDJdW0NIMl1bQ0gyXU4oW0NIMl1bQ0gyXTEpYyhuW2NIXW4yKWMoYzIzKW5bY0hdbjNbQ0gyXVtDQEhdKFtPSF0pW0NAQEhdNFtDSDJdW0NIMl1bQ0gyXU80

> <s_epik_cmdline>
J2VwaWtfcHl0aG9uJywgJy1waCcsICc3LjAnLCAnLXRuJywgJzgnLCAnLW1hJywgJzIwMCcsICctbWV0YWxfYmluZGluZycsICctaW1hZScsICc8aW5maWxlLm1hZT4nLCAnLW9tYWUnLCAnPG91dGZpbGUubWFlPic=

> <r_epik_Ionization_Penalty>
0.0619615

> <r_epik_Ionization_Penalty_Charging>
0.0161638

> <r_epik_Ionization_Penalty_Neutral>
0.0457976

> <r_epik_State_Penalty>
0.403408

> <r_epik_Charging_Adjusted_Penalty>
0.419572

> <i_epik_Tot_Q>
1

> <i_epik_Tot_abs_Q>
1

> <r_epik_Metal_State_Penalty>
0.404222

> <b_epik_Metal_Only>
0

> <s_lp_Force_Field>
OPLS_2005

> <r_lp_Energy>
54.952

> <b_lp_Chiralities_Consistent>
1

> <s_lp_Variant>
AV-unprocessed.smi:155-6

> <Gold.Version>
5.8.1

> <Gold.Id.Protein>
6NUR|6NUR_protein|mol2

> <Gold.PLP.Fitness>
58.0926

> <Gold.PLP.PLP>
-50.6223

> <Gold.PLP.part.hbond>
-2.0000

> <Gold.PLP.part.metal>
0.0000

> <Gold.PLP.part.buried>
-1.5397

> <Gold.PLP.part.nonpolar>
-49.9533

> <Gold.PLP.part.repulsive>
2.6963

> <Gold.PLP.ligand.clash>
0.0000

> <Gold.PLP.ligand.torsion>
1.0126

> <Gold.PLP.Chemscore.Hbond>
3.0000

> <Gold.PLP.Chemscore.CHOScore>
0.0000

> <Gold.PLP.Chemscore.Metal>
0.0000

> <Gold.Chemscore.Hbonds>
donor molecule, donor type, donor heavy atom, donor atom, acceptor molecule, acceptor atom, score
      L1  H     6    63       P1  7948  2.00
      L1  H    22    51       P1  8028  1.00

> <Gold.PLP.Chemscore.Internal.Correction>
0.4956

> <Gold.Rescore>
     Score         DG    S(hbond)    S(metal)    S(lipo)     H(rot)  DE(clash)    DE(int)     intcor
     15.14     -19.67       1.98        0.00     128.42       2.91       2.80       1.74       ----

> <Gold.Chemscore.Fitness>
15.1382

> <Gold.Chemscore.DG>
-19.6715

> <Gold.Chemscore.ZeroCoef>
-5.4800

> <Gold.Chemscore.Hbond>
1.9801

> <Gold.Chemscore.Metal>
0.0000

> <Gold.Chemscore.Lipo>
128.4174

> <Gold.Chemscore.Internal_Hbond>
0.0000

> <Gold.Chemscore.DEClash>
2.7972

> <Gold.Chemscore.DEInternal>
1.7361

> <Gold.Chemscore.Rot>
2.9090

> <Gold.Chemscore.Internal.Correction>
   9.000000E+99

> <Gold.Chemscore.Hbonds>
donor molecule, donor type, donor heavy atom, donor atom, acceptor molecule, acceptor atom, score
      L1  H     6    63       P1  7948  1.00
      L1  H    22    51       P1  8028  0.93

> <Gold.Chemscore.Hbond.Weighted>
-6.6137

> <Gold.Chemscore.Metal.Weighted>
-0.0000

> <Gold.Chemscore.Lipo.Weighted>
-15.0248

> <Gold.Chemscore.Internal_Hbond.Weighted>
0.0000

> <Gold.Chemscore.DEClash.Weighted>
2.7972

> <Gold.Chemscore.DEInternal.Weighted>
1.7361

> <Gold.Chemscore.Rot.Weighted>
7.4470

> <Gold.Chemscore.Internal.Correction.Weighted>
   9.000000E+99

> <Gold.Protein.RotatedTorsions>
[ 6907 6896 6895 6894 ] final  -39.32 input  -60.11 | X-H torsion
[ 7974 7965 7964 7962 ] final  -83.12 input  175.53 | X-H torsion
[ 8008 7997 7996 7995 ] final -151.84 input   59.86 | X-H torsion
[ 10167 10162 10161 10158 ] final   81.35 input  -65.29 | X-H torsion
[ 10718 10713 10712 10709 ] final -119.00 input   66.30 | X-H torsion
[ 10763 10752 10751 10750 ] final   77.68 input  -60.55 | X-H torsion
[ 11005 11000 10999 10996 ] final  -13.17 input  -57.11 | X-H torsion

> <Gold.Protein.ActiveResidues>
 VAL166  LYS551  ARG553  GLY616  TRP617  ASP618  TYR619  PRO620  LYS621  CYS622 
 ASP623  PHE694  ASN695  SER759  ASP760  ASP761  ALA762  ILE779  LEU786  VAL792 
 PHE793  MET794  SER795  GLU796  ALA797  LYS798  CYS799  TRP800  GLU811  SER814 

> <Gold.Protein.RotatedAtoms>
  150.9918  134.9251  159.7903 H   0  0  0  0  0  0  0  0  0  0  0  0  # atno 6907 bound_to 6896
  152.5253  134.3272  159.9179 H   0  0  0  0  0  0  0  0  0  0  0  0  # atno 6908 bound_to 6896
  151.3277  133.3972  159.2694 H   0  0  0  0  0  0  0  0  0  0  0  0  # atno 6909 bound_to 6896
  145.5242  140.9528  143.1638 H   0  0  0  0  0  0  0  0  0  0  0  0  # atno 7974 bound_to 7965
  155.6457  140.0706  157.2603 H   0  0  0  0  0  0  0  0  0  0  0  0  # atno 8008 bound_to 7997
  154.4173  140.1742  156.1671 H   0  0  0  0  0  0  0  0  0  0  0  0  # atno 8009 bound_to 7997
  155.9818  140.3353  155.6674 H   0  0  0  0  0  0  0  0  0  0  0  0  # atno 8010 bound_to 7997
  139.9402  144.6095  150.8259 H   0  0  0  0  0  0  0  0  0  0  0  0  # atno 10167 bound_to 10162
  156.1148  130.6277  150.9362 H   0  0  0  0  0  0  0  0  0  0  0  0  # atno 10718 bound_to 10713
  153.0817  135.4905  154.8516 H   0  0  0  0  0  0  0  0  0  0  0  0  # atno 10763 bound_to 10752
  154.7159  135.3029  154.9127 H   0  0  0  0  0  0  0  0  0  0  0  0  # atno 10764 bound_to 10752
  153.9806  135.6790  153.4803 H   0  0  0  0  0  0  0  0  0  0  0  0  # atno 10765 bound_to 10752
  140.7734  133.8420  155.9227 H   0  0  0  0  0  0  0  0  0  0  0  0  # atno 11005 bound_to 11000
  144.7660  139.6845  143.7215 LP  0  0  0  0  0  0  0  0  0  0  0  0  # atno 17320 bound_to 7965
  146.2086  139.5427  142.9696 LP  0  0  0  0  0  0  0  0  0  0  0  0  # atno 17321 bound_to 7965
  140.7613  143.3171  151.2708 LP  0  0  0  0  0  0  0  0  0  0  0  0  # atno 17342 bound_to 10162
  139.6711  144.0019  152.2753 LP  0  0  0  0  0  0  0  0  0  0  0  0  # atno 17343 bound_to 10162
  157.6331  131.0919  150.8402 LP  0  0  0  0  0  0  0  0  0  0  0  0  # atno 17370 bound_to 10713
  156.8507  130.5079  149.5312 LP  0  0  0  0  0  0  0  0  0  0  0  0  # atno 17371 bound_to 10713
  140.9552  134.1727  157.4697 LP  0  0  0  0  0  0  0  0  0  0  0  0  # atno 17394 bound_to 11000
  139.8752  134.9924  156.5596 LP  0  0  0  0  0  0  0  0  0  0  0  0  # atno 17395 bound_to 11000

$$$$
