#       Name:                AV-unprocessed.smi:2355
#       Creating user name   scv26
#       Creation time:       Fri Mar 27 13:02:15 2020


#       File generated by GOLD software.
#

@<TRIPOS>MOLECULE
AV-unprocessed.smi:2355
    54    55     1
SMALL
NO_CHARGES


@<TRIPOS>ATOM
      1 ****        -5.9901   0.6919  -1.8145 C.3            1 S1                 0.0000
      2 ****        -4.6172   1.1481  -1.3681 C.ar           1 S1                 0.0000
      3 ****        -4.4470   2.3764  -0.7012 C.ar           1 S1                 0.0000
      4 ****        -3.1459   2.7437  -0.3062 C.ar           1 S1                 0.0000
      5 ****        -2.8904   4.0503   0.4150 C.3            1 S1                 0.0000
      6 ****        -2.0615   1.9724  -0.5350 N.ar           1 S1                 0.0000
      7 ****        -2.2132   0.7882  -1.1784 C.ar           1 S1                 0.0000
      8 ****        -1.1378  -0.0945  -1.4644 N.am           1 S1                 0.0000
      9 ****         0.1624   0.0614  -1.1606 C.2            1 S1                 0.0000
     10 ****         0.6503   1.0462  -0.6049 O.2            1 S1                 0.0000
     11 ****         0.8827  -1.0110  -1.5238 N.am           1 S1                 0.0000
     12 ****         2.3236  -1.1828  -1.3233 C.3            1 S1                 0.0000
     13 ****         2.9075  -1.9861  -2.4974 C.3            1 S1                 0.0000
     14 ****         2.6500  -1.7956   0.0729 C.3            1 S1                 0.0000
     15 ****         2.0157  -3.1991   0.2398 C.3            1 S1                 0.0000
     16 ****         2.2838  -0.8314   1.1627 N.4            1 S1                 1.0000
     17 ****         1.8705  -1.4113   2.4685 C.3            1 S1                 0.0000
     18 ****         1.4278  -0.2994   3.4356 C.3            1 S1                 0.0000
     19 ****         2.4773   0.6437   3.6025 O.3            1 S1                 0.0000
     20 ****         2.8190   1.2717   2.3747 C.3            1 S1                 0.0000
     21 ****         3.3205   0.2106   1.3823 C.3            1 S1                 0.0000
     22 ****        -3.4839   0.3451  -1.6084 C.ar           1 S1                 0.0000
     23 ****        -6.6962   1.5227  -1.8264 H              1 S1                 0.0000
     24 ****        -6.3708  -0.0723  -1.1367 H              1 S1                 0.0000
     25 ****        -5.9456   0.2703  -2.8192 H              1 S1                 0.0000
     26 ****        -5.2912   3.0193  -0.4978 H              1 S1                 0.0000
     27 ****        -3.7848   4.6738   0.4313 H              1 S1                 0.0000
     28 ****        -2.0962   4.6101  -0.0797 H              1 S1                 0.0000
     29 ****        -2.5873   3.8601   1.4450 H              1 S1                 0.0000
     30 ****        -1.3926  -0.9503  -1.9349 H              1 S1                 0.0000
     31 ****         0.3976  -1.7728  -1.9755 H              1 S1                 0.0000
     32 ****         2.7936  -0.2018  -1.3938 H              1 S1                 0.0000
     33 ****         3.9767  -2.1543  -2.3658 H              1 S1                 0.0000
     34 ****         2.7761  -1.4479  -3.4369 H              1 S1                 0.0000
     35 ****         2.4260  -2.9567  -2.6139 H              1 S1                 0.0000
     36 ****         3.7292  -1.9468   0.1309 H              1 S1                 0.0000
     37 ****         2.3208  -3.8742  -0.5584 H              1 S1                 0.0000
     38 ****         0.9262  -3.1581   0.2336 H              1 S1                 0.0000
     39 ****         2.3317  -3.6793   1.1658 H              1 S1                 0.0000
     40 ****         1.0292  -2.0923   2.3436 H              1 S1                 0.0000
     41 ****         2.6963  -1.9793   2.8994 H              1 S1                 0.0000
     42 ****         0.5301   0.2002   3.0669 H              1 S1                 0.0000
     43 ****         1.1775  -0.7250   4.4076 H              1 S1                 0.0000
     44 ****         1.9598   1.8103   1.9713 H              1 S1                 0.0000
     45 ****         3.5992   2.0099   2.5612 H              1 S1                 0.0000
     46 ****         4.2310  -0.2540   1.7640 H              1 S1                 0.0000
     47 ****         3.5845   0.6996   0.4458 H              1 S1                 0.0000
     48 ****        -3.5919  -0.6023  -2.1171 H              1 S1                 0.0000
     49 ****         1.4662  -0.3451   0.8210 H              1 S1                 0.0000
     50 ****        -1.1561   2.2711  -0.2332 LP             1 S1                 0.0000
     51 ****         0.0650   1.8133  -0.3424 LP             1 S1                 0.0000
     52 ****         1.6318   1.0787  -0.4162 LP             1 S1                 0.0000
     53 ****         3.2831   0.1720   3.9606 LP             1 S1                 0.0000
     54 ****         2.1838   1.3434   4.2538 LP             1 S1                 0.0000
@<TRIPOS>BOND
    1    1    2 1     
    2    1   23 1     
    3    1   24 1     
    4    1   25 1     
    5    2   22 ar    
    6    2    3 ar    
    7    3    4 ar    
    8    3   26 1     
    9    4    5 1     
   10    4    6 ar    
   11    5   27 1     
   12    5   28 1     
   13    5   29 1     
   14    6    7 ar    
   15    7    8 1     
   16    7   22 ar    
   17    8    9 am    
   18    8   30 1     
   19    9   10 2     
   20    9   11 am    
   21   11   12 1     
   22   11   31 1     
   23   12   13 1     
   24   12   14 1     
   25   12   32 1     
   26   13   33 1     
   27   13   34 1     
   28   13   35 1     
   29   14   15 1     
   30   14   16 1     
   31   14   36 1     
   32   15   37 1     
   33   15   38 1     
   34   15   39 1     
   35   16   21 1     
   36   16   17 1     
   37   16   49 1     
   38   17   18 1     
   39   17   40 1     
   40   17   41 1     
   41   18   19 1     
   42   18   42 1     
   43   18   43 1     
   44   19   20 1     
   45   20   21 1     
   46   20   44 1     
   47   20   45 1     
   48   21   46 1     
   49   21   47 1     
   50   22   48 1     
   51    6   50 1     
   52   10   51 1     
   53   10   52 1     
   54   19   53 1     
   55   19   54 1     
@<TRIPOS>SUBSTRUCTURE
      1 S1             1
@<TRIPOS>SET
LONE_PAIRS      STATIC     ATOMS    <user>   **** ""
5 50 51 52 53 54
DONOR_HYDROGENS      STATIC     ATOMS    <user>   **** ""
3 30 31 49
ATOM$BLUE        STATIC     ATOMS    COLORGROUP SYSTEM
5 50 51 52 53 54
ATOM$RED        STATIC     ATOMS    COLORGROUP SYSTEM
3 30 31 49
