AV-unprocessed.smi:431|AV-procd|sdf|2548|dock7
  -GOLD-   2262022513D 1   1.00000     0.00000
 Structure written by MMmdl.
 43 44  0  0  0  0  0  0  0  0  1 V2000
  148.5474  132.7205  154.3431 C   0  0  0  0  0  0  0  0  0  0  0  0
  149.4822  133.9289  154.1780 C   0  0  0  0  0  0  0  0  0  0  0  0
  149.6522  134.7787  155.4567 C   0  0  1  0  0  0  0  0  0  0  0  0
  149.9497  133.8874  156.6747 C   0  0  0  0  0  0  0  0  0  0  0  0
  150.7547  135.8373  155.3024 C   0  0  0  0  0  0  0  0  0  0  0  0
  151.6952  135.8724  156.0965 O   0  0  0  0  0  0  0  0  0  0  0  0
  150.6203  136.6964  154.2799 N   0  0  0  0  0  0  0  0  0  0  0  0
  151.5234  137.8007  153.9714 C   0  0  0  0  0  0  0  0  0  0  0  0
  151.6547  138.7916  155.1159 C   0  0  0  0  0  0  0  0  0  0  0  0
  150.8182  139.9222  155.1909 C   0  0  0  0  0  0  0  0  0  0  0  0
  150.9666  140.8124  156.2716 C   0  0  0  0  0  0  0  0  0  0  0  0
  151.9560  140.5532  157.2506 C   0  0  0  0  0  0  0  0  0  0  0  0
  152.1222  141.4292  158.3459 N   0  0  0  0  0  0  0  0  0  0  0  0
  151.2458  142.5966  158.4310 C   0  0  0  0  0  0  0  0  0  0  0  0
  151.7618  143.5785  159.4963 C   0  0  0  0  0  0  0  0  0  0  0  0
  151.9014  142.9044  160.7423 O   0  0  0  0  0  0  0  0  0  0  0  0
  152.8441  141.8404  160.6652 C   0  0  0  0  0  0  0  0  0  0  0  0
  152.3702  140.7964  159.6394 C   0  0  0  0  0  0  0  0  0  0  0  0
  152.7592  139.4632  157.1729 N   0  0  0  0  0  0  0  0  0  0  0  0
  152.6127  138.6129  156.1353 C   0  0  0  0  0  0  0  0  0  0  0  0
  148.5165  132.1296  153.4277 H   0  0  0  0  0  0  0  0  0  0  0  0
  147.5259  133.0273  154.5686 H   0  0  0  0  0  0  0  0  0  0  0  0
  148.8880  132.0677  155.1471 H   0  0  0  0  0  0  0  0  0  0  0  0
  150.4605  133.5621  153.8652 H   0  0  0  0  0  0  0  0  0  0  0  0
  149.1242  134.5527  153.3576 H   0  0  0  0  0  0  0  0  0  0  0  0
  148.7075  135.2903  155.6495 H   0  0  0  0  0  0  0  0  0  0  0  0
  150.0751  134.4816  157.5811 H   0  0  0  0  0  0  0  0  0  0  0  0
  150.8590  133.3022  156.5316 H   0  0  0  0  0  0  0  0  0  0  0  0
  149.1329  133.1882  156.8554 H   0  0  0  0  0  0  0  0  0  0  0  0
  149.8170  136.5877  153.6778 H   0  0  0  0  0  0  0  0  0  0  0  0
  152.5160  137.4360  153.7020 H   0  0  0  0  0  0  0  0  0  0  0  0
  151.1390  138.3105  153.0874 H   0  0  0  0  0  0  0  0  0  0  0  0
  150.0656  140.1046  154.4379 H   0  0  0  0  0  0  0  0  0  0  0  0
  150.3123  141.6679  156.3438 H   0  0  0  0  0  0  0  0  0  0  0  0
  151.1965  143.1053  157.4673 H   0  0  0  0  0  0  0  0  0  0  0  0
  150.2352  142.2709  158.6810 H   0  0  0  0  0  0  0  0  0  0  0  0
  152.7171  144.0118  159.1954 H   0  0  0  0  0  0  0  0  0  0  0  0
  151.0612  144.4050  159.6161 H   0  0  0  0  0  0  0  0  0  0  0  0
  153.8276  142.2298  160.3969 H   0  0  0  0  0  0  0  0  0  0  0  0
  152.9418  141.3816  161.6491 H   0  0  0  0  0  0  0  0  0  0  0  0
  151.4470  140.3285  159.9837 H   0  0  0  0  0  0  0  0  0  0  0  0
  153.1175  140.0076  159.5695 H   0  0  0  0  0  0  0  0  0  0  0  0
  153.2817  137.7655  156.1227 H   0  0  0  0  0  0  0  0  0  0  0  0
  1  2  1  0  0  0  0
  1 21  1  0  0  0  0
  1 22  1  0  0  0  0
  1 23  1  0  0  0  0
  2  3  1  0  0  0  0
  2 24  1  0  0  0  0
  2 25  1  0  0  0  0
  3  4  1  0  0  0  0
  3  5  1  0  0  0  0
  3 26  1  0  0  0  0
  4 27  1  0  0  0  0
  4 28  1  0  0  0  0
  4 29  1  0  0  0  0
  5  6  2  0  0  0  0
  5  7  1  0  0  0  0
  7  8  1  0  0  0  0
  7 30  1  0  0  0  0
  8  9  1  0  0  0  0
  8 31  1  0  0  0  0
  8 32  1  0  0  0  0
  9 20  1  0  0  0  0
  9 10  2  0  0  0  0
 10 11  1  0  0  0  0
 10 33  1  0  0  0  0
 11 12  2  0  0  0  0
 11 34  1  0  0  0  0
 12 13  1  0  0  0  0
 12 19  1  0  0  0  0
 13 18  1  0  0  0  0
 13 14  1  0  0  0  0
 14 15  1  0  0  0  0
 14 35  1  0  0  0  0
 14 36  1  0  0  0  0
 15 16  1  0  0  0  0
 15 37  1  0  0  0  0
 15 38  1  0  0  0  0
 16 17  1  0  0  0  0
 17 18  1  0  0  0  0
 17 39  1  0  0  0  0
 17 40  1  0  0  0  0
 18 41  1  0  0  0  0
 18 42  1  0  0  0  0
 19 20  2  0  0  0  0
 20 43  1  0  0  0  0
M  END
> <s_m_source_file>
AV-unprocessed.smi

> <i_m_source_file_index>
431

> <i_lp_mmshare_version>
43012

> <i_f3d_flags>
0

> <s_epik_input>
W0NIM11bQ0gyXVtDQEhdKFtDSDNdKUMoPU8pW05IXVtDSDJdYzFbY0hdW2NIXWMobltjSF0xKU4yW0NIMl1bQ0gyXU9bQ0gyXVtDSDJdMg==

> <s_epik_cmdline>
J2VwaWtfcHl0aG9uJywgJy1waCcsICc3LjAnLCAnLXRuJywgJzgnLCAnLW1hJywgJzIwMCcsICctbWV0YWxfYmluZGluZycsICctaW1hZScsICc8aW5maWxlLm1hZT4nLCAnLW9tYWUnLCAnPG91dGZpbGUubWFlPic=

> <r_lp_tautomer_probability>
1

> <r_epik_Ionization_Penalty>
0.00513882

> <r_epik_Ionization_Penalty_Charging>
0

> <r_epik_Ionization_Penalty_Neutral>
0.00513882

> <r_epik_State_Penalty>
0.00374265

> <r_epik_Charging_Adjusted_Penalty>
0.00374265

> <i_epik_Tot_Q>
0

> <i_epik_Tot_abs_Q>
0

> <r_epik_Metal_State_Penalty>
-0

> <b_epik_Metal_Only>
0

> <s_lp_Force_Field>
OPLS_2005

> <r_lp_Energy>
17.352

> <b_lp_Chiralities_Consistent>
1

> <s_lp_Variant>
AV-unprocessed.smi:431-2

> <Gold.Version>
5.8.1

> <Gold.Id.Protein>
6NUR|6NUR_protein|mol2

> <Gold.PLP.Fitness>
46.7588

> <Gold.PLP.PLP>
-38.8170

> <Gold.PLP.part.hbond>
-4.3438

> <Gold.PLP.part.metal>
0.0000

> <Gold.PLP.part.buried>
-2.6780

> <Gold.PLP.part.nonpolar>
-32.7405

> <Gold.PLP.part.repulsive>
0.1593

> <Gold.PLP.ligand.clash>
0.0000

> <Gold.PLP.ligand.torsion>
0.7132

> <Gold.PLP.Chemscore.Hbond>
2.9920

> <Gold.PLP.Chemscore.CHOScore>
0.0000

> <Gold.PLP.Chemscore.Metal>
0.0000

> <Gold.Chemscore.Hbonds>
donor molecule, donor type, donor heavy atom, donor atom, acceptor molecule, acceptor atom, score
      L1  H     7    30       P1  7948  1.00
      P1  H  7997  8010       L1    19  1.00
      P1  H 10752 10764       L1     6  1.00

> <Gold.PLP.Chemscore.Internal.Correction>
0.3922

> <Gold.Rescore>
     Score         DG    S(hbond)    S(metal)    S(lipo)     H(rot)  DE(clash)    DE(int)     intcor
     17.45     -19.13       2.03        0.00      94.56       1.64       0.05       1.63       ----

> <Gold.Chemscore.Fitness>
17.4507

> <Gold.Chemscore.DG>
-19.1301

> <Gold.Chemscore.ZeroCoef>
-5.4800

> <Gold.Chemscore.Hbond>
2.0318

> <Gold.Chemscore.Metal>
0.0000

> <Gold.Chemscore.Lipo>
94.5642

> <Gold.Chemscore.Internal_Hbond>
0.0000

> <Gold.Chemscore.DEClash>
0.0472

> <Gold.Chemscore.DEInternal>
1.6322

> <Gold.Chemscore.Rot>
1.6407

> <Gold.Chemscore.Internal.Correction>
   9.000000E+99

> <Gold.Chemscore.Hbonds>
donor molecule, donor type, donor heavy atom, donor atom, acceptor molecule, acceptor atom, score
      L1  H     7    30       P1  7948  0.36
      P1  H  7997  8010       L1    19  0.23
      P1  H 10752 10764       L1     6  0.60

> <Gold.Chemscore.Hbond.Weighted>
-6.7862

> <Gold.Chemscore.Metal.Weighted>
-0.0000

> <Gold.Chemscore.Lipo.Weighted>
-11.0640

> <Gold.Chemscore.Internal_Hbond.Weighted>
0.0000

> <Gold.Chemscore.DEClash.Weighted>
0.0472

> <Gold.Chemscore.DEInternal.Weighted>
1.6322

> <Gold.Chemscore.Rot.Weighted>
4.2001

> <Gold.Chemscore.Internal.Correction.Weighted>
   9.000000E+99

> <Gold.Protein.RotatedTorsions>
[ 6907 6896 6895 6894 ] final   64.97 input  -60.11 | X-H torsion
[ 7974 7965 7964 7962 ] final  145.13 input  175.53 | X-H torsion
[ 8008 7997 7996 7995 ] final   37.13 input   59.86 | X-H torsion
[ 10167 10162 10161 10158 ] final   -9.20 input  -65.29 | X-H torsion
[ 10718 10713 10712 10709 ] final -126.80 input   66.30 | X-H torsion
[ 10763 10752 10751 10750 ] final  -20.98 input  -60.55 | X-H torsion
[ 11005 11000 10999 10996 ] final -145.32 input  -57.11 | X-H torsion

> <Gold.Protein.ActiveResidues>
 VAL166  LYS551  ARG553  GLY616  TRP617  ASP618  TYR619  PRO620  LYS621  CYS622 
 ASP623  PHE694  ASN695  SER759  ASP760  ASP761  ALA762  ILE779  LEU786  VAL792 
 PHE793  MET794  SER795  GLU796  ALA797  LYS798  CYS799  TRP800  GLU811  SER814 

> <Gold.Protein.RotatedAtoms>
  152.4372  134.5663  159.9908 H   0  0  0  0  0  0  0  0  0  0  0  0  # atno 6907 bound_to 6896
  151.5770  133.3377  159.3009 H   0  0  0  0  0  0  0  0  0  0  0  0  # atno 6908 bound_to 6896
  150.8272  134.7543  159.6887 H   0  0  0  0  0  0  0  0  0  0  0  0  # atno 6909 bound_to 6896
  144.8778  139.5746  143.5857 H   0  0  0  0  0  0  0  0  0  0  0  0  # atno 7974 bound_to 7965
  155.1987  140.3314  155.4346 H   0  0  0  0  0  0  0  0  0  0  0  0  # atno 8008 bound_to 7997
  156.2415  140.1897  156.7025 H   0  0  0  0  0  0  0  0  0  0  0  0  # atno 8009 bound_to 7997
  154.6156  140.0602  156.9535 H   0  0  0  0  0  0  0  0  0  0  0  0  # atno 8010 bound_to 7997
  140.7081  143.5884  150.8919 H   0  0  0  0  0  0  0  0  0  0  0  0  # atno 10167 bound_to 10162
  156.1798  130.6724  151.0290 H   0  0  0  0  0  0  0  0  0  0  0  0  # atno 10718 bound_to 10713
  153.6289  135.6990  153.5283 H   0  0  0  0  0  0  0  0  0  0  0  0  # atno 10763 bound_to 10752
  153.2876  135.4167  155.1136 H   0  0  0  0  0  0  0  0  0  0  0  0  # atno 10764 bound_to 10752
  154.8526  135.3617  154.5831 H   0  0  0  0  0  0  0  0  0  0  0  0  # atno 10765 bound_to 10752
  140.7935  134.2941  157.5005 H   0  0  0  0  0  0  0  0  0  0  0  0  # atno 11005 bound_to 11000
  146.2974  139.7320  142.9116 LP  0  0  0  0  0  0  0  0  0  0  0  0  # atno 17320 bound_to 7965
  145.4010  141.0385  143.3070 LP  0  0  0  0  0  0  0  0  0  0  0  0  # atno 17321 bound_to 7965
  139.9610  143.6164  152.3002 LP  0  0  0  0  0  0  0  0  0  0  0  0  # atno 17342 bound_to 10162
  139.6717  144.7660  151.1771 LP  0  0  0  0  0  0  0  0  0  0  0  0  # atno 17343 bound_to 10162
  157.6860  131.0824  150.7240 LP  0  0  0  0  0  0  0  0  0  0  0  0  # atno 17370 bound_to 10713
  156.7297  130.4706  149.5502 LP  0  0  0  0  0  0  0  0  0  0  0  0  # atno 17371 bound_to 10713
  139.8729  134.9388  156.3725 LP  0  0  0  0  0  0  0  0  0  0  0  0  # atno 17394 bound_to 11000
  140.9366  133.7543  156.0093 LP  0  0  0  0  0  0  0  0  0  0  0  0  # atno 17395 bound_to 11000

$$$$
