#       Name:                AV-unprocessed.smi:1742
#       Creating user name   scv26
#       Creation time:       Fri Mar 27 08:23:54 2020


#       File generated by GOLD software.
#

@<TRIPOS>MOLECULE
AV-unprocessed.smi:1742
    37    38     1
SMALL
NO_CHARGES


@<TRIPOS>ATOM
      1 ****        -5.4731   1.3925  -1.7845 C.3            1 S1                 0.0000
      2 ****        -5.0489   0.0093  -1.2763 C.3            1 S1                 0.0000
      3 ****        -3.6064  -0.1244  -1.2169 N.pl3          1 S1                 0.0000
      4 ****        -2.7891  -0.0669  -0.1054 C.2            1 S1                 0.0000
      5 ****        -1.5181  -0.2500  -0.5720 C.2            1 S1                 0.0000
      6 ****        -0.2935  -0.2847   0.1409 N.am           1 S1                 0.0000
      7 ****        -0.1086  -0.1157   1.4640 C.2            1 S1                 0.0000
      8 ****        -1.0106   0.1039   2.2699 O.2            1 S1                 0.0000
      9 ****         1.1748  -0.1953   1.8596 N.am           1 S1                 0.0000
     10 ****         1.7166  -0.0598   3.2129 C.3            1 S1                 0.0000
     11 ****         3.2261   0.2431   3.1737 C.3            1 S1                 0.0000
     12 ****         3.8103   0.0283   4.5758 C.3            1 S1                 0.0000
     13 ****         2.7905  -1.2788   5.3582 S.o2           1 S1                 0.0000
     14 ****         3.5342  -2.5475   5.3696 O.2            1 S1                 0.0000
     15 ****         2.1913  -0.7406   6.5887 O.2            1 S1                 0.0000
     16 ****         1.5197  -1.3403   4.0408 C.3            1 S1                 0.0000
     17 ****        -1.6405  -0.4125  -1.9763 C.2            1 S1                 0.0000
     18 ****        -2.9060  -0.3358  -2.3589 N.2            1 S1                 0.0000
     19 ****        -6.5593   1.4803  -1.8063 H              1 S1                 0.0000
     20 ****        -5.1052   1.5726  -2.7950 H              1 S1                 0.0000
     21 ****        -5.0878   2.1836  -1.1407 H              1 S1                 0.0000
     22 ****        -5.4564  -0.1656  -0.2800 H              1 S1                 0.0000
     23 ****        -5.4480  -0.7726  -1.9237 H              1 S1                 0.0000
     24 ****        -3.1818   0.0947   0.8876 H              1 S1                 0.0000
     25 ****         0.5327  -0.4513  -0.4147 H              1 S1                 0.0000
     26 ****         1.8567  -0.3440   1.1295 H              1 S1                 0.0000
     27 ****         1.2309   0.7720   3.7266 H              1 S1                 0.0000
     28 ****         3.7133  -0.4493   2.4855 H              1 S1                 0.0000
     29 ****         3.4287   1.2501   2.8073 H              1 S1                 0.0000
     30 ****         4.8586  -0.2705   4.5582 H              1 S1                 0.0000
     31 ****         3.7162   0.9326   5.1775 H              1 S1                 0.0000
     32 ****         0.5266  -1.4219   4.4829 H              1 S1                 0.0000
     33 ****         1.7072  -2.2310   3.4399 H              1 S1                 0.0000
     34 ****        -0.8706  -0.5802  -2.7151 H              1 S1                 0.0000
     35 ****        -1.9576   0.1675   1.9553 LP             1 S1                 0.0000
     36 ****        -0.7972   0.2189   3.2401 LP             1 S1                 0.0000
     37 ****        -3.2668  -0.4163  -3.2881 LP             1 S1                 0.0000
@<TRIPOS>BOND
    1    1    2 1     
    2    1   19 1     
    3    1   20 1     
    4    1   21 1     
    5    2    3 1     
    6    2   22 1     
    7    2   23 1     
    8    3   18 1     
    9    3    4 1     
   10    4    5 2     
   11    4   24 1     
   12    5    6 1     
   13    5   17 1     
   14    6    7 am    
   15    6   25 1     
   16    7    8 2     
   17    7    9 am    
   18    9   10 1     
   19    9   26 1     
   20   10   16 1     
   21   10   11 1     
   22   10   27 1     
   23   11   12 1     
   24   11   28 1     
   25   11   29 1     
   26   12   13 1     
   27   12   30 1     
   28   12   31 1     
   29   13   14 2     
   30   13   15 2     
   31   13   16 1     
   32   16   32 1     
   33   16   33 1     
   34   17   18 2     
   35   17   34 1     
   36    8   35 1     
   37    8   36 1     
   38   18   37 1     
@<TRIPOS>SUBSTRUCTURE
      1 S1             1
@<TRIPOS>SET
LONE_PAIRS      STATIC     ATOMS    <user>   **** ""
5 35 36 14 15 37
DONOR_HYDROGENS      STATIC     ATOMS    <user>   **** ""
2 25 26
ATOM$BLUE        STATIC     ATOMS    COLORGROUP SYSTEM
5 35 36 14 15 37
ATOM$RED        STATIC     ATOMS    COLORGROUP SYSTEM
2 25 26
