AV-unprocessed.smi:2027|AV-procd|sdf|8210|dock5
  -GOLD-   2272010473D 1   1.00000     0.00000
 Structure written by MMmdl.
 49 51  0  0  0  0  0  0  0  0  1 V2000
  152.3733  140.5015  159.4255 C   0  0  0  0  0  0  0  0  0  0  0  0
  151.5336  140.5267  158.1606 C   0  0  0  0  0  0  0  0  0  0  0  0
  151.7536  139.5426  157.1694 C   0  0  0  0  0  0  0  0  0  0  0  0
  150.9955  139.5324  155.9777 C   0  0  0  0  0  0  0  0  0  0  0  0
  151.0379  138.6798  154.8870 N   0  0  0  0  0  0  0  0  0  0  0  0
  150.0900  139.1926  154.1064 C   0  0  0  0  0  0  0  0  0  0  0  0
  149.4413  140.2803  154.5636 N   0  0  0  0  0  0  0  0  0  0  0  0
  148.3803  141.0244  153.9144 C   0  0  0  0  0  0  0  0  0  0  0  0
  147.0311  140.2816  153.9905 C   0  0  1  0  0  0  0  0  0  0  0  0
  145.9876  141.2049  153.7579 O   0  0  0  0  0  0  0  0  0  0  0  0
  146.9206  139.1382  152.9605 C   0  0  0  0  0  0  0  0  0  0  0  0
  145.8168  138.2022  153.1924 N   0  0  0  0  0  0  0  0  0  0  0  0
  146.1060  137.3487  154.3405 C   0  0  0  0  0  0  0  0  0  0  0  0
  145.4965  137.3959  152.0104 C   0  0  0  0  0  0  0  0  0  0  0  0
  144.1738  136.6864  152.1294 C   0  0  0  0  0  0  0  0  0  0  0  0
  143.9238  135.2855  152.0759 C   0  0  0  0  0  0  0  0  0  0  0  0
  142.6393  134.9871  152.1871 N   0  0  0  0  0  0  0  0  0  0  0  0
  142.0264  136.1822  152.3124 N   0  0  0  0  0  0  0  0  0  0  0  0
  140.5867  136.2378  152.4481 C   0  0  0  0  0  0  0  0  0  0  0  0
  142.9262  137.2246  152.2795 C   0  0  0  0  0  0  0  0  0  0  0  0
  150.0058  140.5422  155.8054 C   0  0  0  0  0  0  0  0  0  0  0  0
  149.7765  141.5255  156.7832 C   0  0  0  0  0  0  0  0  0  0  0  0
  150.5399  141.5204  157.9682 C   0  0  0  0  0  0  0  0  0  0  0  0
  150.2812  142.5878  159.0171 C   0  0  0  0  0  0  0  0  0  0  0  0
  153.1396  139.7270  159.3793 H   0  0  0  0  0  0  0  0  0  0  0  0
  151.7458  140.3015  160.2944 H   0  0  0  0  0  0  0  0  0  0  0  0
  152.8751  141.4581  159.5722 H   0  0  0  0  0  0  0  0  0  0  0  0
  152.5093  138.7852  157.3167 H   0  0  0  0  0  0  0  0  0  0  0  0
  149.8557  138.7549  153.1469 H   0  0  0  0  0  0  0  0  0  0  0  0
  148.3092  142.0194  154.3560 H   0  0  0  0  0  0  0  0  0  0  0  0
  148.6800  141.1698  152.8761 H   0  0  0  0  0  0  0  0  0  0  0  0
  146.8772  139.8967  154.9974 H   0  0  0  0  0  0  0  0  0  0  0  0
  145.4484  140.8753  153.0553 H   0  0  0  0  0  0  0  0  0  0  0  0
  146.8346  139.5558  151.9560 H   0  0  0  0  0  0  0  0  0  0  0  0
  147.8637  138.5898  152.9758 H   0  0  0  0  0  0  0  0  0  0  0  0
  145.2665  136.6907  154.5659 H   0  0  0  0  0  0  0  0  0  0  0  0
  146.2947  137.9489  155.2313 H   0  0  0  0  0  0  0  0  0  0  0  0
  146.9847  136.7285  154.1580 H   0  0  0  0  0  0  0  0  0  0  0  0
  145.4594  138.0238  151.1232 H   0  0  0  0  0  0  0  0  0  0  0  0
  146.3050  136.6880  151.8220 H   0  0  0  0  0  0  0  0  0  0  0  0
  144.6347  134.4811  151.9565 H   0  0  0  0  0  0  0  0  0  0  0  0
  140.2823  137.2291  152.7852 H   0  0  0  0  0  0  0  0  0  0  0  0
  140.2513  135.4987  153.1769 H   0  0  0  0  0  0  0  0  0  0  0  0
  140.1194  136.0313  151.4851 H   0  0  0  0  0  0  0  0  0  0  0  0
  142.6098  138.2544  152.3597 H   0  0  0  0  0  0  0  0  0  0  0  0
  149.0196  142.2779  156.6202 H   0  0  0  0  0  0  0  0  0  0  0  0
  149.4264  143.2097  158.7486 H   0  0  0  0  0  0  0  0  0  0  0  0
  151.1505  143.2375  159.1209 H   0  0  0  0  0  0  0  0  0  0  0  0
  150.0702  142.1328  159.9850 H   0  0  0  0  0  0  0  0  0  0  0  0
  1  2  1  0  0  0  0
  1 25  1  0  0  0  0
  1 26  1  0  0  0  0
  1 27  1  0  0  0  0
  2 23  1  0  0  0  0
  2  3  2  0  0  0  0
  3  4  1  0  0  0  0
  3 28  1  0  0  0  0
  4 21  2  0  0  0  0
  4  5  1  0  0  0  0
  5  6  2  0  0  0  0
  6  7  1  0  0  0  0
  6 29  1  0  0  0  0
  7  8  1  0  0  0  0
  7 21  1  0  0  0  0
  8  9  1  0  0  0  0
  8 30  1  0  0  0  0
  8 31  1  0  0  0  0
  9 10  1  0  0  0  0
  9 11  1  0  0  0  0
  9 32  1  0  0  0  0
 10 33  1  0  0  0  0
 11 12  1  0  0  0  0
 11 34  1  0  0  0  0
 11 35  1  0  0  0  0
 12 13  1  0  0  0  0
 12 14  1  0  0  0  0
 13 36  1  0  0  0  0
 13 37  1  0  0  0  0
 13 38  1  0  0  0  0
 14 15  1  0  0  0  0
 14 39  1  0  0  0  0
 14 40  1  0  0  0  0
 15 20  2  0  0  0  0
 15 16  1  0  0  0  0
 16 17  2  0  0  0  0
 16 41  1  0  0  0  0
 17 18  1  0  0  0  0
 18 19  1  0  0  0  0
 18 20  1  0  0  0  0
 19 42  1  0  0  0  0
 19 43  1  0  0  0  0
 19 44  1  0  0  0  0
 20 45  1  0  0  0  0
 21 22  1  0  0  0  0
 22 23  2  0  0  0  0
 22 46  1  0  0  0  0
 23 24  1  0  0  0  0
 24 47  1  0  0  0  0
 24 48  1  0  0  0  0
 24 49  1  0  0  0  0
M  END
> <s_m_source_file>
AV-unprocessed.smi

> <i_m_source_file_index>
2027

> <i_lp_mmshare_version>
43012

> <i_f3d_flags>
0

> <s_epik_input>
W0NIM11jKFtjSF0xKWMoW0NIM10pW2NIXWMoYzEyKW4oW2NIXW4yKVtDSDJdW0NASF0oW09IXSlbQ0gyXU4oW0NIM10pW0NIMl1jM1tjSF1ubihbQ0gzXSlbY0hdMw==

> <s_epik_cmdline>
J2VwaWtfcHl0aG9uJywgJy1waCcsICc3LjAnLCAnLXRuJywgJzgnLCAnLW1hJywgJzIwMCcsICctbWV0YWxfYmluZGluZycsICctaW1hZScsICc8aW5maWxlLm1hZT4nLCAnLW9tYWUnLCAnPG91dGZpbGUubWFlPic=

> <r_lp_tautomer_probability>
1

> <r_epik_Ionization_Penalty>
0.374241

> <r_epik_Ionization_Penalty_Charging>
0

> <r_epik_Ionization_Penalty_Neutral>
0.374241

> <r_epik_State_Penalty>
0.350767

> <r_epik_Charging_Adjusted_Penalty>
0.350767

> <i_epik_Tot_Q>
0

> <i_epik_Tot_abs_Q>
0

> <r_epik_Metal_State_Penalty>
0.343203

> <b_epik_Metal_Only>
0

> <s_lp_Force_Field>
OPLS_2005

> <r_lp_Energy>
13.5697

> <b_lp_Chiralities_Consistent>
1

> <s_lp_Variant>
AV-unprocessed.smi:2027-2

> <Gold.Version>
5.8.1

> <Gold.Id.Protein>
6NUR|6NUR_protein|mol2

> <Gold.PLP.Fitness>
48.9172

> <Gold.PLP.PLP>
-40.0493

> <Gold.PLP.part.hbond>
-1.0000

> <Gold.PLP.part.metal>
0.0000

> <Gold.PLP.part.buried>
-2.6600

> <Gold.PLP.part.nonpolar>
-36.5100

> <Gold.PLP.part.repulsive>
0.4624

> <Gold.PLP.ligand.clash>
0.0000

> <Gold.PLP.ligand.torsion>
0.6476

> <Gold.PLP.Chemscore.Hbond>
1.0000

> <Gold.PLP.Chemscore.CHOScore>
2.3219

> <Gold.PLP.Chemscore.Metal>
0.0000

> <Gold.Chemscore.Hbonds>
donor molecule, donor type, donor heavy atom, donor atom, acceptor molecule, acceptor atom, score
      L1  H    10    33       P1 10175  0.93
      L1  C     6    29       P1  7948  0.01
      L1  C     6    29       P1  7957  0.88
      L1  C    20    45       P1 10171  0.03
      L1  C    20    45       P1 10175  1.00

> <Gold.PLP.Chemscore.Internal.Correction>
0.1976

> <Gold.Rescore>
     Score         DG    S(hbond)    S(metal)    S(lipo)     H(rot)  DE(clash)    DE(int)     intcor
     11.59     -13.85       0.88        0.00      99.34       2.42       1.32       0.94       ----

> <Gold.Chemscore.Fitness>
11.5926

> <Gold.Chemscore.DG>
-13.8531

> <Gold.Chemscore.ZeroCoef>
-5.4800

> <Gold.Chemscore.Hbond>
0.8818

> <Gold.Chemscore.Metal>
0.0000

> <Gold.Chemscore.Lipo>
99.3392

> <Gold.Chemscore.Internal_Hbond>
0.0000

> <Gold.Chemscore.DEClash>
1.3222

> <Gold.Chemscore.DEInternal>
0.9383

> <Gold.Chemscore.Rot>
2.4198

> <Gold.Chemscore.Internal.Correction>
   9.000000E+99

> <Gold.Chemscore.Hbonds>
donor molecule, donor type, donor heavy atom, donor atom, acceptor molecule, acceptor atom, score
      L1  H    10    33       P1 10175  0.45

> <Gold.Chemscore.Hbond.Weighted>
-2.9452

> <Gold.Chemscore.Metal.Weighted>
-0.0000

> <Gold.Chemscore.Lipo.Weighted>
-11.6227

> <Gold.Chemscore.Internal_Hbond.Weighted>
0.0000

> <Gold.Chemscore.DEClash.Weighted>
1.3222

> <Gold.Chemscore.DEInternal.Weighted>
0.9383

> <Gold.Chemscore.Rot.Weighted>
6.1948

> <Gold.Chemscore.Internal.Correction.Weighted>
   9.000000E+99

> <Gold.Protein.RotatedTorsions>
[ 6907 6896 6895 6894 ] final   34.75 input  -60.11 | X-H torsion
[ 7974 7965 7964 7962 ] final   -5.44 input  175.53 | X-H torsion
[ 8008 7997 7996 7995 ] final   88.35 input   59.86 | X-H torsion
[ 10167 10162 10161 10158 ] final  128.84 input  -65.29 | X-H torsion
[ 10718 10713 10712 10709 ] final -107.71 input   66.30 | X-H torsion
[ 10763 10752 10751 10750 ] final -105.80 input  -60.55 | X-H torsion
[ 11005 11000 10999 10996 ] final  169.82 input  -57.11 | X-H torsion

> <Gold.Protein.ActiveResidues>
 VAL166  LYS551  ARG553  GLY616  TRP617  ASP618  TYR619  PRO620  LYS621  CYS622 
 ASP623  PHE694  ASN695  SER759  ASP760  ASP761  ALA762  ILE779  LEU786  VAL792 
 PHE793  MET794  SER795  GLU796  ALA797  LYS798  CYS799  TRP800  GLU811  SER814 

> <Gold.Protein.RotatedAtoms>
  152.1067  134.9303  160.0567 H   0  0  0  0  0  0  0  0  0  0  0  0  # atno 6907 bound_to 6896
  152.0497  133.4008  159.4380 H   0  0  0  0  0  0  0  0  0  0  0  0  # atno 6908 bound_to 6896
  150.6841  134.3242  159.4843 H   0  0  0  0  0  0  0  0  0  0  0  0  # atno 6909 bound_to 6896
  146.2352  140.2022  142.8334 H   0  0  0  0  0  0  0  0  0  0  0  0  # atno 7974 bound_to 7965
  155.9867  140.3372  155.6714 H   0  0  0  0  0  0  0  0  0  0  0  0  # atno 8008 bound_to 7997
  155.6475  140.0702  157.2616 H   0  0  0  0  0  0  0  0  0  0  0  0  # atno 8009 bound_to 7997
  154.4207  140.1731  156.1627 H   0  0  0  0  0  0  0  0  0  0  0  0  # atno 8010 bound_to 7997
  139.5507  144.6811  151.4332 H   0  0  0  0  0  0  0  0  0  0  0  0  # atno 10167 bound_to 10162
  156.0450  130.5676  150.7859 H   0  0  0  0  0  0  0  0  0  0  0  0  # atno 10718 bound_to 10713
  154.7970  135.4735  154.0185 H   0  0  0  0  0  0  0  0  0  0  0  0  # atno 10763 bound_to 10752
  153.1720  135.6826  153.8602 H   0  0  0  0  0  0  0  0  0  0  0  0  # atno 10764 bound_to 10752
  153.8181  135.3208  155.3385 H   0  0  0  0  0  0  0  0  0  0  0  0  # atno 10765 bound_to 10752
  140.3018  134.7589  157.3922 H   0  0  0  0  0  0  0  0  0  0  0  0  # atno 11005 bound_to 11000
  144.9773  140.8426  143.5419 LP  0  0  0  0  0  0  0  0  0  0  0  0  # atno 17320 bound_to 7965
  145.2011  139.2252  143.5192 LP  0  0  0  0  0  0  0  0  0  0  0  0  # atno 17321 bound_to 7965
  140.6769  143.8170  150.7070 LP  0  0  0  0  0  0  0  0  0  0  0  0  # atno 17342 bound_to 10162
  140.1611  143.4274  152.2066 LP  0  0  0  0  0  0  0  0  0  0  0  0  # atno 17343 bound_to 10162
  157.5314  131.0937  150.9950 LP  0  0  0  0  0  0  0  0  0  0  0  0  # atno 17370 bound_to 10713
  157.0256  130.5691  149.5336 LP  0  0  0  0  0  0  0  0  0  0  0  0  # atno 17371 bound_to 10713
  140.1103  134.5355  155.8272 LP  0  0  0  0  0  0  0  0  0  0  0  0  # atno 17394 bound_to 11000
  141.2126  133.6722  156.6676 LP  0  0  0  0  0  0  0  0  0  0  0  0  # atno 17395 bound_to 11000

$$$$
