AV-unprocessed.smi:116|AV-procd|sdf|1127|dock2
  -GOLD-   2262018253D 1   1.00000     0.00000
 Structure written by MMmdl.
 38 41  0  0  0  0  0  0  0  0  1 V2000
  151.3997  137.1831  159.7784 O   0  0  0  0  0  0  0  0  0  0  0  0
  151.0791  137.5568  158.6489 C   0  0  0  0  0  0  0  0  0  0  0  0
  149.8231  137.1793  158.0095 C   0  0  0  0  0  0  0  0  0  0  0  0
  148.9636  136.3747  158.6573 F   0  0  0  0  0  0  0  0  0  0  0  0
  149.5020  137.6324  156.7786 C   0  0  0  0  0  0  0  0  0  0  0  0
  150.3256  138.4677  156.0421 N   0  0  0  0  0  0  0  0  0  0  0  0
  149.9191  138.9821  154.6778 C   0  0  2  0  0  0  0  0  0  0  0  0
  149.7701  140.5072  154.7111 C   0  0  0  0  0  0  0  0  0  0  0  0
  148.3049  140.6650  155.0529 C   0  0  0  0  0  0  0  0  0  0  0  0
  147.6871  139.4862  154.3083 C   0  0  0  0  0  0  0  0  0  0  0  0
  148.6698  138.4523  154.3372 O   0  0  0  0  0  0  0  0  0  0  0  0
  151.5628  138.8820  156.5808 C   0  0  0  0  0  0  0  0  0  0  0  0
  152.3028  139.6417  155.9510 O   0  0  0  0  0  0  0  0  0  0  0  0
  151.9034  138.4067  157.8693 N   0  0  0  0  0  0  0  0  0  0  0  0
  153.1475  138.8852  158.4523 C   0  0  0  0  0  0  0  0  0  0  0  0
  152.9239  140.1598  159.2095 C   0  0  0  0  0  0  0  0  0  0  0  0
  152.3029  141.2170  158.6687 N   0  0  0  0  0  0  0  0  0  0  0  0
  152.2617  142.2676  159.5806 C   0  0  0  0  0  0  0  0  0  0  0  0
  151.7039  143.5510  159.3743 C   0  0  0  0  0  0  0  0  0  0  0  0
  151.7333  144.5297  160.3878 C   0  0  0  0  0  0  0  0  0  0  0  0
  152.3223  144.2423  161.6336 C   0  0  0  0  0  0  0  0  0  0  0  0
  152.8836  142.9737  161.8673 C   0  0  0  0  0  0  0  0  0  0  0  0
  152.8531  142.0010  160.8507 C   0  0  0  0  0  0  0  0  0  0  0  0
  153.4795  140.3564  160.8772 S   0  0  0  0  0  0  0  0  0  0  0  0
  148.5528  137.3242  156.3669 H   0  0  0  0  0  0  0  0  0  0  0  0
  150.6787  138.6216  153.9821 H   0  0  0  0  0  0  0  0  0  0  0  0
  150.4476  140.9800  155.4233 H   0  0  0  0  0  0  0  0  0  0  0  0
  149.9751  140.8987  153.7140 H   0  0  0  0  0  0  0  0  0  0  0  0
  148.1545  140.5560  156.1277 H   0  0  0  0  0  0  0  0  0  0  0  0
  147.8933  141.6269  154.7463 H   0  0  0  0  0  0  0  0  0  0  0  0
  146.7473  139.1571  154.7520 H   0  0  0  0  0  0  0  0  0  0  0  0
  147.4960  139.7541  153.2686 H   0  0  0  0  0  0  0  0  0  0  0  0
  153.5682  138.1157  159.1002 H   0  0  0  0  0  0  0  0  0  0  0  0
  153.8634  139.0270  157.6406 H   0  0  0  0  0  0  0  0  0  0  0  0
  151.2491  143.7848  158.4231 H   0  0  0  0  0  0  0  0  0  0  0  0
  151.3026  145.5038  160.2080 H   0  0  0  0  0  0  0  0  0  0  0  0
  152.3434  144.9947  162.4086 H   0  0  0  0  0  0  0  0  0  0  0  0
  153.3369  142.7473  162.8212 H   0  0  0  0  0  0  0  0  0  0  0  0
  1  2  2  0  0  0  0
  2 14  1  0  0  0  0
  2  3  1  0  0  0  0
  3  4  1  0  0  0  0
  3  5  2  0  0  0  0
  5  6  1  0  0  0  0
  5 25  1  0  0  0  0
  6  7  1  0  0  0  0
  6 12  1  0  0  0  0
  7 11  1  0  0  0  0
  7  8  1  0  0  0  0
  7 26  1  0  0  0  0
  8  9  1  0  0  0  0
  8 27  1  0  0  0  0
  8 28  1  0  0  0  0
  9 10  1  0  0  0  0
  9 29  1  0  0  0  0
  9 30  1  0  0  0  0
 10 11  1  0  0  0  0
 10 31  1  0  0  0  0
 10 32  1  0  0  0  0
 12 13  2  0  0  0  0
 12 14  1  0  0  0  0
 14 15  1  0  0  0  0
 15 16  1  0  0  0  0
 15 33  1  0  0  0  0
 15 34  1  0  0  0  0
 16 24  1  0  0  0  0
 16 17  2  0  0  0  0
 17 18  1  0  0  0  0
 18 23  2  0  0  0  0
 18 19  1  0  0  0  0
 19 20  2  0  0  0  0
 19 35  1  0  0  0  0
 20 21  1  0  0  0  0
 20 36  1  0  0  0  0
 21 22  2  0  0  0  0
 21 37  1  0  0  0  0
 22 23  1  0  0  0  0
 22 38  1  0  0  0  0
 23 24  1  0  0  0  0
M  END
> <s_m_source_file>
AV-unprocessed.smi

> <i_m_source_file_index>
116

> <i_lp_mmshare_version>
43012

> <i_f3d_flags>
0

> <s_epik_input>
TzFbQ0gyXVtDSDJdW0NIMl1bQ0BIXTFuKFtjSF1jKEYpYzI9TyljKD1PKW4yW0NIMl1jKG4zKXNjKGMzNClbY0hdW2NIXVtjSF1bY0hdNA==

> <s_epik_cmdline>
J2VwaWtfcHl0aG9uJywgJy1waCcsICc3LjAnLCAnLXRuJywgJzgnLCAnLW1hJywgJzIwMCcsICctbWV0YWxfYmluZGluZycsICctaW1hZScsICc8aW5maWxlLm1hZT4nLCAnLW9tYWUnLCAnPG91dGZpbGUubWFlPic=

> <r_lp_tautomer_probability>
1

> <r_epik_Ionization_Penalty>
4.2492e-05

> <r_epik_Ionization_Penalty_Charging>
2.84664e-09

> <r_epik_Ionization_Penalty_Neutral>
4.24891e-05

> <r_epik_State_Penalty>
-0

> <r_epik_Charging_Adjusted_Penalty>
2.84664e-09

> <i_epik_Tot_Q>
0

> <i_epik_Tot_abs_Q>
0

> <r_epik_Metal_State_Penalty>
-0

> <b_epik_Metal_Only>
0

> <s_epik_Chemistry_Notes>
This compound contains an acetal/aminal-like group ( X-CH(R)-Y where X, Y are N, S, or O) that may be acid/base labile, releasing an aldehyde.

> <s_lp_Force_Field>
OPLS_2005

> <r_lp_Energy>
31.0424

> <b_lp_Chiralities_Consistent>
1

> <s_lp_Variant>
AV-unprocessed.smi:116-1

> <Gold.Version>
5.8.1

> <Gold.Id.Protein>
6NUR|6NUR_protein|mol2

> <Gold.PLP.Fitness>
47.1321

> <Gold.PLP.PLP>
-42.0231

> <Gold.PLP.part.hbond>
-1.9971

> <Gold.PLP.part.metal>
0.0000

> <Gold.PLP.part.buried>
-2.8895

> <Gold.PLP.part.nonpolar>
-37.8537

> <Gold.PLP.part.repulsive>
0.2574

> <Gold.PLP.ligand.clash>
0.0000

> <Gold.PLP.ligand.torsion>
0.4529

> <Gold.PLP.Chemscore.Hbond>
2.0000

> <Gold.PLP.Chemscore.CHOScore>
0.0000

> <Gold.PLP.Chemscore.Metal>
0.0000

> <Gold.Chemscore.Hbonds>
donor molecule, donor type, donor heavy atom, donor atom, acceptor molecule, acceptor atom, score
      P1  H  6896  6909       L1     1  1.00
      P1  H  7997  8008       L1    13  0.60

> <Gold.PLP.Chemscore.Internal.Correction>
0.0148

> <Gold.Rescore>
     Score         DG    S(hbond)    S(metal)    S(lipo)     H(rot)  DE(clash)    DE(int)     intcor
     18.55     -21.51       1.98        0.00     113.61       1.52       1.47       1.50       ----

> <Gold.Chemscore.Fitness>
18.5473

> <Gold.Chemscore.DG>
-21.5139

> <Gold.Chemscore.ZeroCoef>
-5.4800

> <Gold.Chemscore.Hbond>
1.9837

> <Gold.Chemscore.Metal>
0.0000

> <Gold.Chemscore.Lipo>
113.6112

> <Gold.Chemscore.Internal_Hbond>
0.0000

> <Gold.Chemscore.DEClash>
1.4659

> <Gold.Chemscore.DEInternal>
1.5007

> <Gold.Chemscore.Rot>
1.5172

> <Gold.Chemscore.Internal.Correction>
   9.000000E+99

> <Gold.Chemscore.Hbonds>
donor molecule, donor type, donor heavy atom, donor atom, acceptor molecule, acceptor atom, score
      P1  H  6896  6909       L1     1  0.81
      P1  H  7997  8008       L1    13  0.58

> <Gold.Chemscore.Hbond.Weighted>
-6.6255

> <Gold.Chemscore.Metal.Weighted>
-0.0000

> <Gold.Chemscore.Lipo.Weighted>
-13.2925

> <Gold.Chemscore.Internal_Hbond.Weighted>
0.0000

> <Gold.Chemscore.DEClash.Weighted>
1.4659

> <Gold.Chemscore.DEInternal.Weighted>
1.5007

> <Gold.Chemscore.Rot.Weighted>
3.8841

> <Gold.Chemscore.Internal.Correction.Weighted>
   9.000000E+99

> <Gold.Protein.RotatedTorsions>
[ 6907 6896 6895 6894 ] final  113.56 input  -60.11 | X-H torsion
[ 7974 7965 7964 7962 ] final   87.50 input  175.53 | X-H torsion
[ 8008 7997 7996 7995 ] final  -56.44 input   59.86 | X-H torsion
[ 10167 10162 10161 10158 ] final  101.74 input  -65.29 | X-H torsion
[ 10718 10713 10712 10709 ] final   34.22 input   66.30 | X-H torsion
[ 10763 10752 10751 10750 ] final   19.09 input  -60.55 | X-H torsion
[ 11005 11000 10999 10996 ] final  -32.17 input  -57.11 | X-H torsion

> <Gold.Protein.ActiveResidues>
 VAL166  LYS551  ARG553  GLY616  TRP617  ASP618  TYR619  PRO620  LYS621  CYS622 
 ASP623  PHE694  ASN695  SER759  ASP760  ASP761  ALA762  ILE779  LEU786  VAL792 
 PHE793  MET794  SER795  GLU796  ALA797  LYS798  CYS799  TRP800  GLU811  SER814 

> <Gold.Protein.RotatedAtoms>
  152.4854  133.8359  159.7126 H   0  0  0  0  0  0  0  0  0  0  0  0  # atno 6907 bound_to 6896
  150.8936  133.7201  159.2904 H   0  0  0  0  0  0  0  0  0  0  0  0  # atno 6908 bound_to 6896
  151.4666  135.1046  159.9792 H   0  0  0  0  0  0  0  0  0  0  0  0  # atno 6909 bound_to 6896
  145.5581  139.2301  143.2475 H   0  0  0  0  0  0  0  0  0  0  0  0  # atno 7974 bound_to 7965
  154.4230  140.1129  156.5638 H   0  0  0  0  0  0  0  0  0  0  0  0  # atno 8008 bound_to 7997
  155.6284  140.3495  155.4655 H   0  0  0  0  0  0  0  0  0  0  0  0  # atno 8009 bound_to 7997
  155.9968  140.1191  157.0575 H   0  0  0  0  0  0  0  0  0  0  0  0  # atno 8010 bound_to 7997
  139.7411  144.7011  151.0574 H   0  0  0  0  0  0  0  0  0  0  0  0  # atno 10167 bound_to 10162
  157.3076  130.7382  149.6705 H   0  0  0  0  0  0  0  0  0  0  0  0  # atno 10718 bound_to 10713
  153.1192  135.6715  153.9364 H   0  0  0  0  0  0  0  0  0  0  0  0  # atno 10763 bound_to 10752
  153.8885  135.3050  155.3448 H   0  0  0  0  0  0  0  0  0  0  0  0  # atno 10764 bound_to 10752
  154.7606  135.4990  153.9535 H   0  0  0  0  0  0  0  0  0  0  0  0  # atno 10765 bound_to 10752
  140.9530  133.7209  156.1249 H   0  0  0  0  0  0  0  0  0  0  0  0  # atno 11005 bound_to 11000
  146.1870  140.6405  142.9163 LP  0  0  0  0  0  0  0  0  0  0  0  0  # atno 17320 bound_to 7965
  144.7496  140.5157  143.6811 LP  0  0  0  0  0  0  0  0  0  0  0  0  # atno 17321 bound_to 7965
  140.7786  143.4923  150.9877 LP  0  0  0  0  0  0  0  0  0  0  0  0  # atno 17342 bound_to 10162
  139.8612  143.7313  152.3173 LP  0  0  0  0  0  0  0  0  0  0  0  0  # atno 17343 bound_to 10162
  155.9675  130.4261  150.4684 LP  0  0  0  0  0  0  0  0  0  0  0  0  # atno 17370 bound_to 10713
  157.2676  131.0580  151.2280 LP  0  0  0  0  0  0  0  0  0  0  0  0  # atno 17371 bound_to 10713
  140.7576  134.3976  157.5531 LP  0  0  0  0  0  0  0  0  0  0  0  0  # atno 17394 bound_to 11000
  139.8853  134.8940  156.2649 LP  0  0  0  0  0  0  0  0  0  0  0  0  # atno 17395 bound_to 11000

$$$$
