AV-unprocessed.smi:810|AV-procd|sdf|3809|dock9
  -GOLD-   22720 1253D 1   1.00000     0.00000
 Structure written by MMmdl.
 34 35  0  0  0  0  0  0  0  0  1 V2000
  150.3915  140.8857  157.4930 O   0  0  0  0  0  0  0  0  0  0  0  0
  150.1497  141.9862  156.9983 C   0  0  0  0  0  0  0  0  0  0  0  0
  150.4897  143.1708  157.5341 N   0  0  0  0  0  0  0  0  0  0  0  0
  151.1932  143.4257  158.7423 C   0  0  0  0  0  0  0  0  0  0  0  0
  151.2946  144.6993  159.3529 C   0  0  0  0  0  0  0  0  0  0  0  0
  152.0079  144.8184  160.5612 C   0  0  0  0  0  0  0  0  0  0  0  0
  152.5867  143.6617  161.1181 C   0  0  0  0  0  0  0  0  0  0  0  0
  152.4859  142.4394  160.5548 N   0  0  0  0  0  0  0  0  0  0  0  0
  151.8000  142.3326  159.3970 C   0  0  0  0  0  0  0  0  0  0  0  0
  149.4837  142.1506  155.8463 N   0  0  0  0  0  0  0  0  0  0  0  0
  148.9426  141.0746  155.0194 C   0  0  2  0  0  0  0  0  0  0  0  0
  150.0820  140.1317  154.5863 C   0  0  0  0  0  0  0  0  0  0  0  0
  149.6720  138.6507  154.5290 C   0  0  0  0  0  0  0  0  0  0  0  0
  148.9923  138.3911  153.3199 O   0  0  0  0  0  0  0  0  0  0  0  0
  148.1787  141.5880  153.8102 C   0  0  0  0  0  0  0  0  0  0  0  0
  146.7248  141.9850  153.9092 C   0  0  0  0  0  0  0  0  0  0  0  0
  147.1193  140.7433  153.1426 C   0  0  0  0  0  0  0  0  0  0  0  0
  150.1497  143.9897  157.0515 H   0  0  0  0  0  0  0  0  0  0  0  0
  150.8330  145.5784  158.9310 H   0  0  0  0  0  0  0  0  0  0  0  0
  152.1060  145.7753  161.0520 H   0  0  0  0  0  0  0  0  0  0  0  0
  153.1401  143.7188  162.0438 H   0  0  0  0  0  0  0  0  0  0  0  0
  151.7381  141.3395  158.9763 H   0  0  0  0  0  0  0  0  0  0  0  0
  149.3270  143.0931  155.5205 H   0  0  0  0  0  0  0  0  0  0  0  0
  148.2482  140.4847  155.6215 H   0  0  0  0  0  0  0  0  0  0  0  0
  150.4350  140.4332  153.5990 H   0  0  0  0  0  0  0  0  0  0  0  0
  150.9320  140.2507  155.2599 H   0  0  0  0  0  0  0  0  0  0  0  0
  150.5422  137.9966  154.5882 H   0  0  0  0  0  0  0  0  0  0  0  0
  149.0174  138.4012  155.3645 H   0  0  0  0  0  0  0  0  0  0  0  0
  149.2053  139.0735  152.7018 H   0  0  0  0  0  0  0  0  0  0  0  0
  148.7875  142.1899  153.1379 H   0  0  0  0  0  0  0  0  0  0  0  0
  146.2224  141.8452  154.8644 H   0  0  0  0  0  0  0  0  0  0  0  0
  146.4021  142.8513  153.3353 H   0  0  0  0  0  0  0  0  0  0  0  0
  147.0573  140.7805  152.0571 H   0  0  0  0  0  0  0  0  0  0  0  0
  146.8793  139.7811  153.5910 H   0  0  0  0  0  0  0  0  0  0  0  0
  1  2  2  0  0  0  0
  2  3  1  0  0  0  0
  2 10  1  0  0  0  0
  3  4  1  0  0  0  0
  3 18  1  0  0  0  0
  4  9  1  0  0  0  0
  4  5  2  0  0  0  0
  5  6  1  0  0  0  0
  5 19  1  0  0  0  0
  6  7  2  0  0  0  0
  6 20  1  0  0  0  0
  7  8  1  0  0  0  0
  7 21  1  0  0  0  0
  8  9  2  0  0  0  0
  9 22  1  0  0  0  0
 10 11  1  0  0  0  0
 10 23  1  0  0  0  0
 11 12  1  0  0  0  0
 11 15  1  0  0  0  0
 11 24  1  0  0  0  0
 12 13  1  0  0  0  0
 12 25  1  0  0  0  0
 12 26  1  0  0  0  0
 13 14  1  0  0  0  0
 13 27  1  0  0  0  0
 13 28  1  0  0  0  0
 14 29  1  0  0  0  0
 15 17  1  0  0  0  0
 15 16  1  0  0  0  0
 15 30  1  0  0  0  0
 16 17  1  0  0  0  0
 16 31  1  0  0  0  0
 16 32  1  0  0  0  0
 17 33  1  0  0  0  0
 17 34  1  0  0  0  0
M  END
> <s_m_source_file>
AV-unprocessed.smi

> <i_m_source_file_index>
810

> <i_lp_mmshare_version>
43012

> <i_f3d_flags>
0

> <s_epik_input>
W09IXVtDSDJdW0NIMl1bQ0BIXShbQ0hdMVtDSDJdW0NIMl0xKVtOSF1DKD1PKVtOSF1jMltjSF1bY0hdW2NIXW5bY0hdMg==

> <s_epik_cmdline>
J2VwaWtfcHl0aG9uJywgJy1waCcsICc3LjAnLCAnLXRuJywgJzgnLCAnLW1hJywgJzIwMCcsICctbWV0YWxfYmluZGluZycsICctaW1hZScsICc8aW5maWxlLm1hZT4nLCAnLW9tYWUnLCAnPG91dGZpbGUubWFlPic=

> <r_epik_Ionization_Penalty>
0.00486911

> <r_epik_Ionization_Penalty_Charging>
0

> <r_epik_Ionization_Penalty_Neutral>
0.00486911

> <r_epik_State_Penalty>
0.00350304

> <r_epik_Charging_Adjusted_Penalty>
0.00350304

> <i_epik_Tot_Q>
0

> <i_epik_Tot_abs_Q>
0

> <r_epik_Metal_State_Penalty>
-0

> <b_epik_Metal_Only>
0

> <s_lp_Force_Field>
OPLS_2005

> <r_lp_Energy>
17.5915

> <b_lp_Chiralities_Consistent>
1

> <s_lp_Variant>
AV-unprocessed.smi:810-1

> <Gold.Version>
5.8.1

> <Gold.Id.Protein>
6NUR|6NUR_protein|mol2

> <Gold.PLP.Fitness>
46.8279

> <Gold.PLP.PLP>
-38.9820

> <Gold.PLP.part.hbond>
-4.0000

> <Gold.PLP.part.metal>
0.0000

> <Gold.PLP.part.buried>
-3.8958

> <Gold.PLP.part.nonpolar>
-31.0241

> <Gold.PLP.part.repulsive>
0.1831

> <Gold.PLP.ligand.clash>
0.0000

> <Gold.PLP.ligand.torsion>
1.1109

> <Gold.PLP.Chemscore.Hbond>
2.9920

> <Gold.PLP.Chemscore.CHOScore>
0.0000

> <Gold.PLP.Chemscore.Metal>
0.0000

> <Gold.Chemscore.Hbonds>
donor molecule, donor type, donor heavy atom, donor atom, acceptor molecule, acceptor atom, score
      L1  H     3    18       P1  8028  0.96
      L1  H    10    23       P1  8028  1.00
      L1  H    14    29       P1  7957  1.00

> <Gold.PLP.Chemscore.Internal.Correction>
1.0917

> <Gold.Rescore>
     Score         DG    S(hbond)    S(metal)    S(lipo)     H(rot)  DE(clash)    DE(int)     intcor
     17.73     -20.22       2.87        0.00      94.72       2.31       0.00       2.49       ----

> <Gold.Chemscore.Fitness>
17.7305

> <Gold.Chemscore.DG>
-20.2226

> <Gold.Chemscore.ZeroCoef>
-5.4800

> <Gold.Chemscore.Hbond>
2.8662

> <Gold.Chemscore.Metal>
0.0000

> <Gold.Chemscore.Lipo>
94.7180

> <Gold.Chemscore.Internal_Hbond>
0.0000

> <Gold.Chemscore.DEClash>
0.0019

> <Gold.Chemscore.DEInternal>
2.4901

> <Gold.Chemscore.Rot>
2.3097

> <Gold.Chemscore.Internal.Correction>
   9.000000E+99

> <Gold.Chemscore.Hbonds>
donor molecule, donor type, donor heavy atom, donor atom, acceptor molecule, acceptor atom, score
      L1  H     3    18       P1  8028  0.84
      L1  H    10    23       P1  8028  0.98
      L1  H    14    29       P1  7957  0.99

> <Gold.Chemscore.Hbond.Weighted>
-9.5733

> <Gold.Chemscore.Metal.Weighted>
-0.0000

> <Gold.Chemscore.Lipo.Weighted>
-11.0820

> <Gold.Chemscore.Internal_Hbond.Weighted>
0.0000

> <Gold.Chemscore.DEClash.Weighted>
0.0019

> <Gold.Chemscore.DEInternal.Weighted>
2.4901

> <Gold.Chemscore.Rot.Weighted>
5.9127

> <Gold.Chemscore.Internal.Correction.Weighted>
   9.000000E+99

> <Gold.Protein.RotatedTorsions>
[ 6907 6896 6895 6894 ] final  128.50 input  -60.11 | X-H torsion
[ 7974 7965 7964 7962 ] final   93.59 input  175.53 | X-H torsion
[ 8008 7997 7996 7995 ] final  -39.14 input   59.86 | X-H torsion
[ 10167 10162 10161 10158 ] final  136.67 input  -65.29 | X-H torsion
[ 10718 10713 10712 10709 ] final -116.06 input   66.30 | X-H torsion
[ 10763 10752 10751 10750 ] final  101.00 input  -60.55 | X-H torsion
[ 11005 11000 10999 10996 ] final -170.82 input  -57.11 | X-H torsion

> <Gold.Protein.ActiveResidues>
 VAL166  LYS551  ARG553  GLY616  TRP617  ASP618  TYR619  PRO620  LYS621  CYS622 
 ASP623  PHE694  ASN695  SER759  ASP760  ASP761  ALA762  ILE779  LEU786  VAL792 
 PHE793  MET794  SER795  GLU796  ALA797  LYS798  CYS799  TRP800  GLU811  SER814 

> <Gold.Protein.RotatedAtoms>
  152.3714  133.6423  159.6089 H   0  0  0  0  0  0  0  0  0  0  0  0  # atno 6907 bound_to 6896
  150.7671  133.9265  159.3422 H   0  0  0  0  0  0  0  0  0  0  0  0  # atno 6908 bound_to 6896
  151.7087  135.0918  160.0315 H   0  0  0  0  0  0  0  0  0  0  0  0  # atno 6909 bound_to 6896
  145.4768  139.2280  143.2904 H   0  0  0  0  0  0  0  0  0  0  0  0  # atno 7974 bound_to 7965
  154.4027  140.1559  156.2814 H   0  0  0  0  0  0  0  0  0  0  0  0  # atno 8008 bound_to 7997
  155.8866  140.3441  155.5904 H   0  0  0  0  0  0  0  0  0  0  0  0  # atno 8009 bound_to 7997
  155.7606  140.0817  157.2147 H   0  0  0  0  0  0  0  0  0  0  0  0  # atno 8010 bound_to 7997
  139.5171  144.6452  151.5460 H   0  0  0  0  0  0  0  0  0  0  0  0  # atno 10167 bound_to 10162
  156.0937  130.6114  150.8986 H   0  0  0  0  0  0  0  0  0  0  0  0  # atno 10718 bound_to 10713
  153.3211  135.4059  155.1418 H   0  0  0  0  0  0  0  0  0  0  0  0  # atno 10763 bound_to 10752
  154.8601  135.3588  154.5595 H   0  0  0  0  0  0  0  0  0  0  0  0  # atno 10764 bound_to 10752
  153.6028  135.7070  153.5436 H   0  0  0  0  0  0  0  0  0  0  0  0  # atno 10765 bound_to 10752
  140.5152  134.5763  157.5031 H   0  0  0  0  0  0  0  0  0  0  0  0  # atno 11005 bound_to 11000
  146.2364  140.5551  142.8953 LP  0  0  0  0  0  0  0  0  0  0  0  0  # atno 17320 bound_to 7965
  144.7912  140.6035  143.6540 LP  0  0  0  0  0  0  0  0  0  0  0  0  # atno 17321 bound_to 7965
  140.6234  143.9215  150.6544 LP  0  0  0  0  0  0  0  0  0  0  0  0  # atno 17342 bound_to 10162
  140.2496  143.3603  152.1417 LP  0  0  0  0  0  0  0  0  0  0  0  0  # atno 17343 bound_to 10162
  157.6093  131.0937  150.8823 LP  0  0  0  0  0  0  0  0  0  0  0  0  # atno 17370 bound_to 10713
  156.8966  130.5231  149.5284 LP  0  0  0  0  0  0  0  0  0  0  0  0  # atno 17371 bound_to 10713
  139.9637  134.7410  156.0184 LP  0  0  0  0  0  0  0  0  0  0  0  0  # atno 17394 bound_to 11000
  141.1364  133.6574  156.3606 LP  0  0  0  0  0  0  0  0  0  0  0  0  # atno 17395 bound_to 11000

$$$$
