AV-unprocessed.smi:1995|AV-procd|sdf|8076|dock1
  -GOLD-   2272010283D 1   1.00000     0.00000
 Structure written by MMmdl.
 42 43  0  0  0  0  0  0  0  0  1 V2000
  147.1280  140.9260  153.2283 C   0  0  0  0  0  0  0  0  0  0  0  0
  147.2118  139.4102  153.4862 C   0  0  0  0  0  0  0  0  0  0  0  0
  147.5740  138.9938  154.9474 C   0  0  1  0  0  0  0  0  0  0  0  0
  146.7518  139.9213  155.8822 C   0  0  0  0  0  0  0  0  0  0  0  0
  147.1047  137.5189  155.1691 C   0  0  0  0  0  0  0  0  0  0  0  0
  147.1537  136.6909  153.9632 N   0  0  0  0  0  0  0  0  0  0  0  0
  146.1807  135.8751  153.5312 C   0  0  0  0  0  0  0  0  0  0  0  0
  145.1089  135.7238  154.1173 O   0  0  0  0  0  0  0  0  0  0  0  0
  146.5321  135.2644  152.3879 N   0  0  0  0  0  0  0  0  0  0  0  0
  145.7651  134.3539  151.6192 C   0  0  0  0  0  0  0  0  0  0  0  0
  144.4361  134.3687  151.7385 N   0  0  0  0  0  0  0  0  0  0  0  0
  143.8251  133.4126  150.9218 C   0  0  0  0  0  0  0  0  0  0  0  0
  144.7119  132.6728  150.1796 C   0  0  0  0  0  0  0  0  0  0  0  0
  146.3624  133.1479  150.4765 S   0  0  0  0  0  0  0  0  0  0  0  0
  149.0332  139.1605  155.2046 N   0  0  0  0  0  0  0  0  0  0  0  0
  149.4991  140.5499  155.2951 C   0  0  0  0  0  0  0  0  0  0  0  0
  150.9773  140.6355  155.7121 C   0  0  0  0  0  0  0  0  0  0  0  0
  151.7772  139.9001  154.7940 O   0  0  0  0  0  0  0  0  0  0  0  0
  151.3943  138.5323  154.7140 C   0  0  0  0  0  0  0  0  0  0  0  0
  149.9191  138.4299  154.2898 C   0  0  0  0  0  0  0  0  0  0  0  0
  146.8848  141.1222  152.1839 H   0  0  0  0  0  0  0  0  0  0  0  0
  148.0724  141.4269  153.4403 H   0  0  0  0  0  0  0  0  0  0  0  0
  146.3547  141.3977  153.8339 H   0  0  0  0  0  0  0  0  0  0  0  0
  146.2500  138.9806  153.2038 H   0  0  0  0  0  0  0  0  0  0  0  0
  147.9197  138.9735  152.7823 H   0  0  0  0  0  0  0  0  0  0  0  0
  145.7127  140.0082  155.5635 H   0  0  0  0  0  0  0  0  0  0  0  0
  147.1624  140.9307  155.9124 H   0  0  0  0  0  0  0  0  0  0  0  0
  146.7278  139.5500  156.9070 H   0  0  0  0  0  0  0  0  0  0  0  0
  147.7453  137.0223  155.8970 H   0  0  0  0  0  0  0  0  0  0  0  0
  146.1006  137.4872  155.5926 H   0  0  0  0  0  0  0  0  0  0  0  0
  147.9979  136.7501  153.4128 H   0  0  0  0  0  0  0  0  0  0  0  0
  147.4464  135.4816  152.0196 H   0  0  0  0  0  0  0  0  0  0  0  0
  142.7487  133.3259  150.9310 H   0  0  0  0  0  0  0  0  0  0  0  0
  144.4949  131.8804  149.4786 H   0  0  0  0  0  0  0  0  0  0  0  0
  149.3796  141.0522  154.3354 H   0  0  0  0  0  0  0  0  0  0  0  0
  148.9156  141.1127  156.0209 H   0  0  0  0  0  0  0  0  0  0  0  0
  151.3093  141.6737  155.7199 H   0  0  0  0  0  0  0  0  0  0  0  0
  151.1172  140.2472  156.7221 H   0  0  0  0  0  0  0  0  0  0  0  0
  152.0328  138.0260  153.9900 H   0  0  0  0  0  0  0  0  0  0  0  0
  151.5538  138.0446  155.6770 H   0  0  0  0  0  0  0  0  0  0  0  0
  149.6581  137.3736  154.2531 H   0  0  0  0  0  0  0  0  0  0  0  0
  149.8198  138.8164  153.2757 H   0  0  0  0  0  0  0  0  0  0  0  0
  1  2  1  0  0  0  0
  1 21  1  0  0  0  0
  1 22  1  0  0  0  0
  1 23  1  0  0  0  0
  2  3  1  0  0  0  0
  2 24  1  0  0  0  0
  2 25  1  0  0  0  0
  3  4  1  0  0  0  0
  3  5  1  0  0  0  0
  3 15  1  0  0  0  0
  4 26  1  0  0  0  0
  4 27  1  0  0  0  0
  4 28  1  0  0  0  0
  5  6  1  0  0  0  0
  5 29  1  0  0  0  0
  5 30  1  0  0  0  0
  6  7  1  0  0  0  0
  6 31  1  0  0  0  0
  7  8  2  0  0  0  0
  7  9  1  0  0  0  0
  9 10  1  0  0  0  0
  9 32  1  0  0  0  0
 10 14  1  0  0  0  0
 10 11  2  0  0  0  0
 11 12  1  0  0  0  0
 12 13  2  0  0  0  0
 12 33  1  0  0  0  0
 13 14  1  0  0  0  0
 13 34  1  0  0  0  0
 15 20  1  0  0  0  0
 15 16  1  0  0  0  0
 16 17  1  0  0  0  0
 16 35  1  0  0  0  0
 16 36  1  0  0  0  0
 17 18  1  0  0  0  0
 17 37  1  0  0  0  0
 17 38  1  0  0  0  0
 18 19  1  0  0  0  0
 19 20  1  0  0  0  0
 19 39  1  0  0  0  0
 19 40  1  0  0  0  0
 20 41  1  0  0  0  0
 20 42  1  0  0  0  0
M  END
> <s_m_source_file>
AV-unprocessed.smi

> <i_m_source_file_index>
1995

> <i_lp_mmshare_version>
43012

> <i_f3d_flags>
0

> <s_epik_input>
W0NIMl0xW0NIMl1PW0NIMl1bQ0gyXU4xW0NAQF0oW0NIM10pKFtDSDJdW0NIM10pW0NIMl1bTkhdQyg9TylbTkhdYzJuW2NIXVtjSF1zMg==

> <s_epik_cmdline>
J2VwaWtfcHl0aG9uJywgJy1waCcsICc3LjAnLCAnLXRuJywgJzgnLCAnLW1hJywgJzIwMCcsICctbWV0YWxfYmluZGluZycsICctaW1hZScsICc8aW5maWxlLm1hZT4nLCAnLW9tYWUnLCAnPG91dGZpbGUubWFlPic=

> <r_lp_tautomer_probability>
0.999

> <r_epik_Ionization_Penalty>
0.295852

> <r_epik_Ionization_Penalty_Charging>
0

> <r_epik_Ionization_Penalty_Neutral>
0.295852

> <r_epik_State_Penalty>
0.288723

> <r_epik_Charging_Adjusted_Penalty>
0.288723

> <i_epik_Tot_Q>
0

> <i_epik_Tot_abs_Q>
0

> <r_epik_Metal_State_Penalty>
0.29791

> <b_epik_Metal_Only>
0

> <s_lp_Force_Field>
OPLS_2005

> <r_lp_Energy>
39.4988

> <b_lp_Chiralities_Consistent>
1

> <s_lp_Variant>
AV-unprocessed.smi:1995-1

> <Gold.Version>
5.8.1

> <Gold.Id.Protein>
6NUR|6NUR_protein|mol2

> <Gold.PLP.Fitness>
40.0106

> <Gold.PLP.PLP>
-30.1232

> <Gold.PLP.part.hbond>
-3.0000

> <Gold.PLP.part.metal>
0.0000

> <Gold.PLP.part.buried>
-5.1397

> <Gold.PLP.part.nonpolar>
-23.0257

> <Gold.PLP.part.repulsive>
0.3024

> <Gold.PLP.ligand.clash>
0.0000

> <Gold.PLP.ligand.torsion>
1.1612

> <Gold.PLP.Chemscore.Hbond>
2.9600

> <Gold.PLP.Chemscore.CHOScore>
1.0000

> <Gold.PLP.Chemscore.Metal>
0.0000

> <Gold.Chemscore.Hbonds>
donor molecule, donor type, donor heavy atom, donor atom, acceptor molecule, acceptor atom, score
      L1  H     6    31       P1  7948  0.98
      L1  H     9    32       P1  7948  1.00
      P1  H  7989  7998       L1    18  1.00
      L1  C    12    33       P1 10186  1.00

> <Gold.PLP.Chemscore.Internal.Correction>
0.3297

> <Gold.Rescore>
     Score         DG    S(hbond)    S(metal)    S(lipo)     H(rot)  DE(clash)    DE(int)     intcor
     15.98     -18.58       2.80        0.00      70.04       1.74       0.01       2.60       ----

> <Gold.Chemscore.Fitness>
15.9762

> <Gold.Chemscore.DG>
-18.5821

> <Gold.Chemscore.ZeroCoef>
-5.4800

> <Gold.Chemscore.Hbond>
2.8036

> <Gold.Chemscore.Metal>
0.0000

> <Gold.Chemscore.Lipo>
70.0402

> <Gold.Chemscore.Internal_Hbond>
0.0000

> <Gold.Chemscore.DEClash>
0.0051

> <Gold.Chemscore.DEInternal>
2.6008

> <Gold.Chemscore.Rot>
1.7408

> <Gold.Chemscore.Internal.Correction>
   9.000000E+99

> <Gold.Chemscore.Hbonds>
donor molecule, donor type, donor heavy atom, donor atom, acceptor molecule, acceptor atom, score
      L1  H     6    31       P1  7948  0.93
      L1  H     9    32       P1  7948  1.00
      P1  H  7989  7998       L1    18  0.24

> <Gold.Chemscore.Hbond.Weighted>
-9.3640

> <Gold.Chemscore.Metal.Weighted>
-0.0000

> <Gold.Chemscore.Lipo.Weighted>
-8.1947

> <Gold.Chemscore.Internal_Hbond.Weighted>
0.0000

> <Gold.Chemscore.DEClash.Weighted>
0.0051

> <Gold.Chemscore.DEInternal.Weighted>
2.6008

> <Gold.Chemscore.Rot.Weighted>
4.4565

> <Gold.Chemscore.Internal.Correction.Weighted>
   9.000000E+99

> <Gold.Protein.RotatedTorsions>
[ 6907 6896 6895 6894 ] final -179.57 input  -60.11 | X-H torsion
[ 7974 7965 7964 7962 ] final  -97.57 input  175.53 | X-H torsion
[ 8008 7997 7996 7995 ] final    7.04 input   59.86 | X-H torsion
[ 10167 10162 10161 10158 ] final  114.51 input  -65.29 | X-H torsion
[ 10718 10713 10712 10709 ] final   78.16 input   66.30 | X-H torsion
[ 10763 10752 10751 10750 ] final  124.40 input  -60.55 | X-H torsion
[ 11005 11000 10999 10996 ] final  109.88 input  -57.11 | X-H torsion

> <Gold.Protein.ActiveResidues>
 VAL166  LYS551  ARG553  GLY616  TRP617  ASP618  TYR619  PRO620  LYS621  CYS622 
 ASP623  PHE694  ASN695  SER759  ASP760  ASP761  ALA762  ILE779  LEU786  VAL792 
 PHE793  MET794  SER795  GLU796  ALA797  LYS798  CYS799  TRP800  GLU811  SER814 

> <Gold.Protein.RotatedAtoms>
  151.6556  133.3319  159.3161 H   0  0  0  0  0  0  0  0  0  0  0  0  # atno 6907 bound_to 6896
  150.7938  134.6987  159.6547 H   0  0  0  0  0  0  0  0  0  0  0  0  # atno 6908 bound_to 6896
  152.4022  134.6270  160.0117 H   0  0  0  0  0  0  0  0  0  0  0  0  # atno 6909 bound_to 6896
  145.3320  140.9443  143.2656 H   0  0  0  0  0  0  0  0  0  0  0  0  # atno 7974 bound_to 7965
  154.7488  140.2763  155.6310 H   0  0  0  0  0  0  0  0  0  0  0  0  # atno 8008 bound_to 7997
  156.2891  140.2682  156.2162 H   0  0  0  0  0  0  0  0  0  0  0  0  # atno 8009 bound_to 7997
  155.0164  140.0372  157.2409 H   0  0  0  0  0  0  0  0  0  0  0  0  # atno 8010 bound_to 7997
  139.6383  144.7122  151.2289 H   0  0  0  0  0  0  0  0  0  0  0  0  # atno 10167 bound_to 10162
  157.6735  130.9855  150.1746 H   0  0  0  0  0  0  0  0  0  0  0  0  # atno 10718 bound_to 10713
  153.6609  135.3346  155.3127 H   0  0  0  0  0  0  0  0  0  0  0  0  # atno 10763 bound_to 10752
  154.8515  135.4363  154.1806 H   0  0  0  0  0  0  0  0  0  0  0  0  # atno 10764 bound_to 10752
  153.2772  135.7005  153.7497 H   0  0  0  0  0  0  0  0  0  0  0  0  # atno 10765 bound_to 10752
  139.8871  134.9470  156.6194 H   0  0  0  0  0  0  0  0  0  0  0  0  # atno 11005 bound_to 11000
  144.8856  139.4843  143.6702 LP  0  0  0  0  0  0  0  0  0  0  0  0  # atno 17320 bound_to 7965
  146.3041  139.7523  142.9069 LP  0  0  0  0  0  0  0  0  0  0  0  0  # atno 17321 bound_to 7965
  140.7477  143.6356  150.8382 LP  0  0  0  0  0  0  0  0  0  0  0  0  # atno 17342 bound_to 10162
  139.9991  143.5764  152.2882 LP  0  0  0  0  0  0  0  0  0  0  0  0  # atno 17343 bound_to 10162
  156.2492  130.3699  149.8251 LP  0  0  0  0  0  0  0  0  0  0  0  0  # atno 17370 bound_to 10713
  156.6028  130.8554  151.3436 LP  0  0  0  0  0  0  0  0  0  0  0  0  # atno 17371 bound_to 10713
  140.7751  133.8706  155.8522 LP  0  0  0  0  0  0  0  0  0  0  0  0  # atno 17394 bound_to 11000
  140.9809  134.1407  157.4495 LP  0  0  0  0  0  0  0  0  0  0  0  0  # atno 17395 bound_to 11000

$$$$
