AV-unprocessed.smi:1978|AV-procd|sdf|8005|dock5
  -GOLD-   2272010193D 1   1.00000     0.00000
 Structure written by MMmdl.
 44 45  0  0  0  0  0  0  0  0  3 V2000
  153.6546  141.7236  160.0065 C   0  0  0  0  0  0  0  0  0  0  0  0
  152.7517  141.3447  158.8827 C   0  0  0  0  0  0  0  0  0  0  0  0
  151.6505  141.9407  158.3364 C   0  0  0  0  0  0  0  0  0  0  0  0
  151.2747  141.0416  157.3012 C   0  0  0  0  0  0  0  0  0  0  0  0
  150.2420  141.1953  156.4584 N   0  5  0  0  0  0  0  0  0  0  0  0
  150.1081  140.3783  155.3890 C   0  0  0  0  0  0  0  0  0  0  0  0
  151.0046  139.7348  154.8389 O   0  0  0  0  0  0  0  0  0  0  0  0
  148.8540  140.3008  154.9270 N   0  0  0  0  0  0  0  0  0  0  0  0
  148.4270  139.4996  153.7877 C   0  0  0  0  0  0  0  0  0  0  0  0
  147.1600  140.0917  153.1285 C   0  0  1  0  0  0  0  0  0  0  0  0
  146.6135  139.2042  151.9907 C   0  0  0  0  0  0  0  0  0  0  0  0
  146.0905  140.4353  154.1209 N   0  3  1  0  0  0  0  0  0  0  0  0
  145.8229  139.3571  155.1181 C   0  0  0  0  0  0  0  0  0  0  0  0
  144.5464  139.6419  155.9229 C   0  0  0  0  0  0  0  0  0  0  0  0
  144.6465  140.9946  156.6313 C   0  0  0  0  0  0  0  0  0  0  0  0
  144.9524  142.0907  155.6056 C   0  0  0  0  0  0  0  0  0  0  0  0
  146.2235  141.7741  154.7874 C   0  0  2  0  0  0  0  0  0  0  0  0
  146.4897  142.9330  153.8051 C   0  0  0  0  0  0  0  0  0  0  0  0
  152.0868  140.0014  157.2151 N   0  0  0  0  0  0  0  0  0  0  0  0
  153.0331  140.1846  158.2305 O   0  0  0  0  0  0  0  0  0  0  0  0
  154.2324  142.6122  159.7528 H   0  0  0  0  0  0  0  0  0  0  0  0
  154.3543  140.9200  160.2377 H   0  0  0  0  0  0  0  0  0  0  0  0
  153.0793  141.9390  160.9070 H   0  0  0  0  0  0  0  0  0  0  0  0
  151.1853  142.8691  158.6316 H   0  0  0  0  0  0  0  0  0  0  0  0
  148.1482  140.8436  155.4031 H   0  0  0  0  0  0  0  0  0  0  0  0
  149.2483  139.4528  153.0717 H   0  0  0  0  0  0  0  0  0  0  0  0
  148.2434  138.4826  154.1349 H   0  0  0  0  0  0  0  0  0  0  0  0
  147.4493  141.0104  152.6222 H   0  0  0  0  0  0  0  0  0  0  0  0
  147.3083  139.1702  151.1512 H   0  0  0  0  0  0  0  0  0  0  0  0
  145.6690  139.5912  151.6072 H   0  0  0  0  0  0  0  0  0  0  0  0
  146.4540  138.1745  152.3094 H   0  0  0  0  0  0  0  0  0  0  0  0
  145.7023  138.3918  154.6299 H   0  0  0  0  0  0  0  0  0  0  0  0
  146.6691  139.2616  155.7997 H   0  0  0  0  0  0  0  0  0  0  0  0
  143.6813  139.6351  155.2581 H   0  0  0  0  0  0  0  0  0  0  0  0
  144.3819  138.8503  156.6546 H   0  0  0  0  0  0  0  0  0  0  0  0
  143.7171  141.2164  157.1569 H   0  0  0  0  0  0  0  0  0  0  0  0
  145.4339  140.9617  157.3854 H   0  0  0  0  0  0  0  0  0  0  0  0
  144.1010  142.2062  154.9331 H   0  0  0  0  0  0  0  0  0  0  0  0
  145.0661  143.0439  156.1232 H   0  0  0  0  0  0  0  0  0  0  0  0
  147.0626  141.7281  155.4829 H   0  0  0  0  0  0  0  0  0  0  0  0
  146.4420  143.8948  154.3165 H   0  0  0  0  0  0  0  0  0  0  0  0
  145.7533  142.9523  153.0010 H   0  0  0  0  0  0  0  0  0  0  0  0
  147.4835  142.8762  153.3613 H   0  0  0  0  0  0  0  0  0  0  0  0
  145.2483  140.5034  153.5681 H   0  0  0  0  0  0  0  0  0  0  0  0
  1  2  1  0  0  0  0
  1 21  1  0  0  0  0
  1 22  1  0  0  0  0
  1 23  1  0  0  0  0
  2 20  1  0  0  0  0
  2  3  2  0  0  0  0
  3  4  1  0  0  0  0
  3 24  1  0  0  0  0
  4  5  1  0  0  0  0
  4 19  2  0  0  0  0
  5  6  1  0  0  0  0
  6  7  2  0  0  0  0
  6  8  1  0  0  0  0
  8  9  1  0  0  0  0
  8 25  1  0  0  0  0
  9 10  1  0  0  0  0
  9 26  1  0  0  0  0
  9 27  1  0  0  0  0
 10 11  1  0  0  0  0
 10 12  1  0  0  0  0
 10 28  1  0  0  0  0
 11 29  1  0  0  0  0
 11 30  1  0  0  0  0
 11 31  1  0  0  0  0
 12 17  1  0  0  0  0
 12 13  1  0  0  0  0
 12 44  1  0  0  0  0
 13 14  1  0  0  0  0
 13 32  1  0  0  0  0
 13 33  1  0  0  0  0
 14 15  1  0  0  0  0
 14 34  1  0  0  0  0
 14 35  1  0  0  0  0
 15 16  1  0  0  0  0
 15 36  1  0  0  0  0
 15 37  1  0  0  0  0
 16 17  1  0  0  0  0
 16 38  1  0  0  0  0
 16 39  1  0  0  0  0
 17 18  1  0  0  0  0
 17 40  1  0  0  0  0
 18 41  1  0  0  0  0
 18 42  1  0  0  0  0
 18 43  1  0  0  0  0
 19 20  1  0  0  0  0
M  CHG  1   5  -1
M  CHG  1  12   1
M  END
> <s_m_source_file>
AV-unprocessed.smi

> <i_m_source_file_index>
1978

> <i_lp_mmshare_version>
43012

> <i_f3d_flags>
0

> <s_epik_input>
W0NIM11jMVtjSF1jKG5vMSlbTkhdQyg9TylbTkhdW0NIMl1bQ0BIXShbQ0gzXSlOMltDSDJdW0NIMl1bQ0gyXVtDSDJdW0NASF0yW0NIM10=

> <s_epik_cmdline>
J2VwaWtfcHl0aG9uJywgJy1waCcsICc3LjAnLCAnLXRuJywgJzgnLCAnLW1hJywgJzIwMCcsICctbWV0YWxfYmluZGluZycsICctaW1hZScsICc8aW5maWxlLm1hZT4nLCAnLW9tYWUnLCAnPG91dGZpbGUubWFlPic=

> <r_epik_Ionization_Penalty>
6.22372

> <r_epik_Ionization_Penalty_Charging>
6.22362

> <r_epik_Ionization_Penalty_Neutral>
9.65074e-05

> <r_epik_State_Penalty>
6.22363

> <r_epik_Charging_Adjusted_Penalty>
12.4472

> <i_epik_Tot_Q>
0

> <i_epik_Tot_abs_Q>
2

> <r_epik_Metal_State_Penalty>
2.16675

> <b_epik_Metal_Only>
1

> <s_lp_Force_Field>
OPLS_2005

> <r_lp_Energy>
11.9993

> <b_lp_Chiralities_Consistent>
1

> <s_lp_Variant>
AV-unprocessed.smi:1978-14

> <Gold.Version>
5.8.1

> <Gold.Id.Protein>
6NUR|6NUR_protein|mol2

> <Gold.PLP.Fitness>
40.4243

> <Gold.PLP.PLP>
-30.3042

> <Gold.PLP.part.hbond>
-3.0718

> <Gold.PLP.part.metal>
0.0000

> <Gold.PLP.part.buried>
-1.0512

> <Gold.PLP.part.nonpolar>
-25.6987

> <Gold.PLP.part.repulsive>
0.2011

> <Gold.PLP.ligand.clash>
0.0000

> <Gold.PLP.ligand.torsion>
0.8293

> <Gold.PLP.Chemscore.Hbond>
3.8800

> <Gold.PLP.Chemscore.CHOScore>
0.0000

> <Gold.PLP.Chemscore.Metal>
0.0000

> <Gold.Chemscore.Hbonds>
donor molecule, donor type, donor heavy atom, donor atom, acceptor molecule, acceptor atom, score
      L1  H    12    44       P1 10175  2.00
      P1  H  7989  7998       L1     7  1.00
      P1  H  7997  8010       L1    20  0.82

> <Gold.PLP.Chemscore.Internal.Correction>
0.1386

> <Gold.Rescore>
     Score         DG    S(hbond)    S(metal)    S(lipo)     H(rot)  DE(clash)    DE(int)     intcor
     13.10     -17.09       2.21        0.00      69.45       1.52       0.61       3.38       ----

> <Gold.Chemscore.Fitness>
13.0980

> <Gold.Chemscore.DG>
-17.0887

> <Gold.Chemscore.ZeroCoef>
-5.4800

> <Gold.Chemscore.Hbond>
2.2072

> <Gold.Chemscore.Metal>
0.0000

> <Gold.Chemscore.Lipo>
69.4462

> <Gold.Chemscore.Internal_Hbond>
0.0000

> <Gold.Chemscore.DEClash>
0.6064

> <Gold.Chemscore.DEInternal>
3.3844

> <Gold.Chemscore.Rot>
1.5190

> <Gold.Chemscore.Internal.Correction>
   9.000000E+99

> <Gold.Chemscore.Hbonds>
donor molecule, donor type, donor heavy atom, donor atom, acceptor molecule, acceptor atom, score
      L1  H    12    44       P1 10175  0.99
      P1  H  7989  7998       L1     7  0.50
      P1  H  7997  8010       L1    20  0.17

> <Gold.Chemscore.Hbond.Weighted>
-7.3721

> <Gold.Chemscore.Metal.Weighted>
-0.0000

> <Gold.Chemscore.Lipo.Weighted>
-8.1252

> <Gold.Chemscore.Internal_Hbond.Weighted>
0.0000

> <Gold.Chemscore.DEClash.Weighted>
0.6064

> <Gold.Chemscore.DEInternal.Weighted>
3.3844

> <Gold.Chemscore.Rot.Weighted>
3.8886

> <Gold.Chemscore.Internal.Correction.Weighted>
   9.000000E+99

> <Gold.Protein.RotatedTorsions>
[ 6907 6896 6895 6894 ] final  176.60 input  -60.11 | X-H torsion
[ 7974 7965 7964 7962 ] final  -98.01 input  175.53 | X-H torsion
[ 8008 7997 7996 7995 ] final   24.07 input   59.86 | X-H torsion
[ 10167 10162 10161 10158 ] final  156.31 input  -65.29 | X-H torsion
[ 10718 10713 10712 10709 ] final -121.34 input   66.30 | X-H torsion
[ 10763 10752 10751 10750 ] final  -35.06 input  -60.55 | X-H torsion
[ 11005 11000 10999 10996 ] final   32.27 input  -57.11 | X-H torsion

> <Gold.Protein.ActiveResidues>
 VAL166  LYS551  ARG553  GLY616  TRP617  ASP618  TYR619  PRO620  LYS621  CYS622 
 ASP623  PHE694  ASN695  SER759  ASP760  ASP761  ALA762  ILE779  LEU786  VAL792 
 PHE793  MET794  SER795  GLU796  ALA797  LYS798  CYS799  TRP800  GLU811  SER814 

> <Gold.Protein.RotatedAtoms>
  151.7176  133.3313  159.3306 H   0  0  0  0  0  0  0  0  0  0  0  0  # atno 6907 bound_to 6896
  150.7667  134.6477  159.6280 H   0  0  0  0  0  0  0  0  0  0  0  0  # atno 6908 bound_to 6896
  152.3672  134.6789  160.0239 H   0  0  0  0  0  0  0  0  0  0  0  0  # atno 6909 bound_to 6896
  145.3262  140.9432  143.2687 H   0  0  0  0  0  0  0  0  0  0  0  0  # atno 7974 bound_to 7965
  154.9906  140.3113  155.4908 H   0  0  0  0  0  0  0  0  0  0  0  0  # atno 8008 bound_to 7997
  156.2940  140.2250  156.4950 H   0  0  0  0  0  0  0  0  0  0  0  0  # atno 8009 bound_to 7997
  154.7707  140.0452  157.1037 H   0  0  0  0  0  0  0  0  0  0  0  0  # atno 8010 bound_to 7997
  139.4821  144.5020  151.8154 H   0  0  0  0  0  0  0  0  0  0  0  0  # atno 10167 bound_to 10162
  156.1329  130.6409  150.9650 H   0  0  0  0  0  0  0  0  0  0  0  0  # atno 10718 bound_to 10713
  153.8569  135.6843  153.4786 H   0  0  0  0  0  0  0  0  0  0  0  0  # atno 10763 bound_to 10752
  153.1364  135.4676  154.9427 H   0  0  0  0  0  0  0  0  0  0  0  0  # atno 10764 bound_to 10752
  154.7776  135.3258  154.8007 H   0  0  0  0  0  0  0  0  0  0  0  0  # atno 10765 bound_to 10752
  140.2752  134.3036  155.7816 H   0  0  0  0  0  0  0  0  0  0  0  0  # atno 11005 bound_to 11000
  144.8900  139.4787  143.6682 LP  0  0  0  0  0  0  0  0  0  0  0  0  # atno 17320 bound_to 7965
  146.3063  139.7592  142.9053 LP  0  0  0  0  0  0  0  0  0  0  0  0  # atno 17321 bound_to 7965
  140.4515  144.1849  150.5898 LP  0  0  0  0  0  0  0  0  0  0  0  0  # atno 17342 bound_to 10162
  140.4580  143.2460  151.9258 LP  0  0  0  0  0  0  0  0  0  0  0  0  # atno 17343 bound_to 10162
  157.6505  131.0897  150.8061 LP  0  0  0  0  0  0  0  0  0  0  0  0  # atno 17370 bound_to 10713
  156.8144  130.4963  149.5351 LP  0  0  0  0  0  0  0  0  0  0  0  0  # atno 17371 bound_to 10713
  141.2171  133.7491  156.9397 LP  0  0  0  0  0  0  0  0  0  0  0  0  # atno 17394 bound_to 11000
  140.1335  134.9340  157.2369 LP  0  0  0  0  0  0  0  0  0  0  0  0  # atno 17395 bound_to 11000

$$$$
