AV-unprocessed.smi:2356|AV-procd|sdf|9393|dock6
  -GOLD-   2272013 23D 1   1.00000     0.00000
 Structure written by MMmdl.
 53 56  0  0  0  0  0  0  0  0  1 V2000
  149.6131  140.0811  154.2746 C   0  0  0  0  0  0  0  0  0  0  0  0
  150.3125  139.8446  155.6026 C   0  0  0  0  0  0  0  0  0  0  0  0
  150.7814  140.9537  156.2135 N   0  0  0  0  0  0  0  0  0  0  0  0
  151.4263  140.8347  157.3972 C   0  0  0  0  0  0  0  0  0  0  0  0
  151.8989  142.0202  157.9948 N   0  0  0  0  0  0  0  0  0  0  0  0
  151.4085  143.3319  157.6035 C   0  0  0  0  0  0  0  0  0  0  0  0
  152.0506  144.3002  158.5965 C   0  0  0  0  0  0  0  0  0  0  0  0
  152.1686  143.4642  159.8703 C   0  0  0  0  0  0  0  0  0  0  0  0
  152.4149  142.0408  159.3581 C   0  0  0  0  0  0  0  0  0  0  0  0
  151.6132  139.5765  158.0151 C   0  0  0  0  0  0  0  0  0  0  0  0
  151.1263  138.4192  157.3787 C   0  0  0  0  0  0  0  0  0  0  0  0
  150.4536  138.5435  156.1401 C   0  0  0  0  0  0  0  0  0  0  0  0
  149.9386  137.4464  155.3938 N   0  0  0  0  0  0  0  0  0  0  0  0
  149.5993  136.2048  155.7914 C   0  0  0  0  0  0  0  0  0  0  0  0
  149.6189  135.8047  156.9528 O   0  0  0  0  0  0  0  0  0  0  0  0
  149.2003  135.4027  154.7870 N   0  0  0  0  0  0  0  0  0  0  0  0
  148.7652  134.0051  154.8608 C   0  0  2  0  0  0  0  0  0  0  0  0
  149.7584  133.1673  155.6826 C   0  0  0  0  0  0  0  0  0  0  0  0
  149.3773  131.6801  155.6446 C   0  0  0  0  0  0  0  0  0  0  0  0
  149.3012  131.2200  154.2971 O   0  0  0  0  0  0  0  0  0  0  0  0
  148.3556  131.9040  153.4738 C   0  0  1  0  0  0  0  0  0  0  0  0
  146.9218  131.5775  153.8717 C   0  0  0  0  0  0  0  0  0  0  0  0
  146.2550  130.3194  153.3686 C   0  0  0  0  0  0  0  0  0  0  0  0
  145.7969  131.6686  152.8674 C   0  0  0  0  0  0  0  0  0  0  0  0
  148.6585  133.4159  153.4460 C   0  0  0  0  0  0  0  0  0  0  0  0
  148.5873  139.7133  154.3143 H   0  0  0  0  0  0  0  0  0  0  0  0
  150.1359  139.5595  153.4723 H   0  0  0  0  0  0  0  0  0  0  0  0
  149.5802  141.1417  154.0218 H   0  0  0  0  0  0  0  0  0  0  0  0
  151.6805  143.5744  156.5758 H   0  0  0  0  0  0  0  0  0  0  0  0
  150.3215  143.3545  157.6917 H   0  0  0  0  0  0  0  0  0  0  0  0
  153.0455  144.5812  158.2485 H   0  0  0  0  0  0  0  0  0  0  0  0
  151.4707  145.2129  158.7361 H   0  0  0  0  0  0  0  0  0  0  0  0
  152.9547  143.8150  160.5395 H   0  0  0  0  0  0  0  0  0  0  0  0
  151.2243  143.4982  160.4152 H   0  0  0  0  0  0  0  0  0  0  0  0
  151.9282  141.3062  160.0009 H   0  0  0  0  0  0  0  0  0  0  0  0
  153.4821  141.8185  159.3314 H   0  0  0  0  0  0  0  0  0  0  0  0
  152.1246  139.4786  158.9609 H   0  0  0  0  0  0  0  0  0  0  0  0
  151.2931  137.4669  157.8551 H   0  0  0  0  0  0  0  0  0  0  0  0
  149.8080  137.6307  154.4101 H   0  0  0  0  0  0  0  0  0  0  0  0
  149.1932  135.8134  153.8643 H   0  0  0  0  0  0  0  0  0  0  0  0
  147.7782  133.9505  155.3217 H   0  0  0  0  0  0  0  0  0  0  0  0
  150.7658  133.2891  155.2819 H   0  0  0  0  0  0  0  0  0  0  0  0
  149.7906  133.5137  156.7160 H   0  0  0  0  0  0  0  0  0  0  0  0
  150.1308  131.0914  156.1680 H   0  0  0  0  0  0  0  0  0  0  0  0
  148.4351  131.5074  156.1648 H   0  0  0  0  0  0  0  0  0  0  0  0
  148.5029  131.5194  152.4638 H   0  0  0  0  0  0  0  0  0  0  0  0
  146.6609  131.8626  154.8886 H   0  0  0  0  0  0  0  0  0  0  0  0
  146.8141  129.6907  152.6785 H   0  0  0  0  0  0  0  0  0  0  0  0
  145.6017  129.7889  154.0583 H   0  0  0  0  0  0  0  0  0  0  0  0
  144.8365  132.0371  153.2218 H   0  0  0  0  0  0  0  0  0  0  0  0
  146.0499  131.9359  151.8433 H   0  0  0  0  0  0  0  0  0  0  0  0
  147.8962  133.9422  152.8700 H   0  0  0  0  0  0  0  0  0  0  0  0
  149.6014  133.5718  152.9193 H   0  0  0  0  0  0  0  0  0  0  0  0
  1  2  1  0  0  0  0
  1 26  1  0  0  0  0
  1 27  1  0  0  0  0
  1 28  1  0  0  0  0
  2 12  1  0  0  0  0
  2  3  2  0  0  0  0
  3  4  1  0  0  0  0
  4  5  1  0  0  0  0
  4 10  2  0  0  0  0
  5  9  1  0  0  0  0
  5  6  1  0  0  0  0
  6  7  1  0  0  0  0
  6 29  1  0  0  0  0
  6 30  1  0  0  0  0
  7  8  1  0  0  0  0
  7 31  1  0  0  0  0
  7 32  1  0  0  0  0
  8  9  1  0  0  0  0
  8 33  1  0  0  0  0
  8 34  1  0  0  0  0
  9 35  1  0  0  0  0
  9 36  1  0  0  0  0
 10 11  1  0  0  0  0
 10 37  1  0  0  0  0
 11 12  2  0  0  0  0
 11 38  1  0  0  0  0
 12 13  1  0  0  0  0
 13 14  1  0  0  0  0
 13 39  1  0  0  0  0
 14 15  2  0  0  0  0
 14 16  1  0  0  0  0
 16 17  1  0  0  0  0
 16 40  1  0  0  0  0
 17 25  1  0  0  0  0
 17 18  1  0  0  0  0
 17 41  1  0  0  0  0
 18 19  1  0  0  0  0
 18 42  1  0  0  0  0
 18 43  1  0  0  0  0
 19 20  1  0  0  0  0
 19 44  1  0  0  0  0
 19 45  1  0  0  0  0
 20 21  1  0  0  0  0
 21 22  1  0  0  0  0
 21 25  1  0  0  0  0
 21 46  1  0  0  0  0
 22 24  1  0  0  0  0
 22 23  1  0  0  0  0
 22 47  1  0  0  0  0
 23 24  1  0  0  0  0
 23 48  1  0  0  0  0
 23 49  1  0  0  0  0
 24 50  1  0  0  0  0
 24 51  1  0  0  0  0
 25 52  1  0  0  0  0
 25 53  1  0  0  0  0
M  END
> <s_m_source_file>
AV-unprocessed.smi

> <i_m_source_file_index>
2356

> <i_lp_mmshare_version>
43012

> <i_f3d_flags>
0

> <s_epik_input>
W0NIMl0xW0NIMl1bQ0gyXVtDSDJdTjFjKG5jMltDSDNdKVtjSF1bY0hdYzJbTkhdQyg9TylbTkhdW0NAQEhdM1tDSDJdW0NIMl1PW0NASF0oW0NIMl0zKVtDSF00W0NIMl1bQ0gyXTQ=

> <s_epik_cmdline>
J2VwaWtfcHl0aG9uJywgJy1waCcsICc3LjAnLCAnLXRuJywgJzgnLCAnLW1hJywgJzIwMCcsICctbWV0YWxfYmluZGluZycsICctaW1hZScsICc8aW5maWxlLm1hZT4nLCAnLW9tYWUnLCAnPG91dGZpbGUubWFlPic=

> <r_lp_tautomer_probability>
1

> <r_epik_Ionization_Penalty>
0.308781

> <r_epik_Ionization_Penalty_Charging>
0

> <r_epik_Ionization_Penalty_Neutral>
0.308781

> <r_epik_State_Penalty>
0.302092

> <r_epik_Charging_Adjusted_Penalty>
0.302092

> <i_epik_Tot_Q>
0

> <i_epik_Tot_abs_Q>
0

> <r_epik_Metal_State_Penalty>
0.197467

> <b_epik_Metal_Only>
0

> <s_lp_Force_Field>
OPLS_2005

> <r_lp_Energy>
55.4092

> <b_lp_Chiralities_Consistent>
1

> <s_lp_Variant>
AV-unprocessed.smi:2356-1

> <Gold.Version>
5.8.1

> <Gold.Id.Protein>
6NUR|6NUR_protein|mol2

> <Gold.PLP.Fitness>
44.3608

> <Gold.PLP.PLP>
-41.8192

> <Gold.PLP.part.hbond>
-1.0000

> <Gold.PLP.part.metal>
0.0000

> <Gold.PLP.part.buried>
-3.5301

> <Gold.PLP.part.nonpolar>
-37.0045

> <Gold.PLP.part.repulsive>
0.1610

> <Gold.PLP.ligand.clash>
0.0000

> <Gold.PLP.ligand.torsion>
0.8396

> <Gold.PLP.Chemscore.Hbond>
0.9913

> <Gold.PLP.Chemscore.CHOScore>
0.0000

> <Gold.PLP.Chemscore.Metal>
0.0000

> <Gold.Chemscore.Hbonds>
donor molecule, donor type, donor heavy atom, donor atom, acceptor molecule, acceptor atom, score
      L1  H    16    40       P1  7948  0.99

> <Gold.PLP.Chemscore.Internal.Correction>
1.2471

> <Gold.Rescore>
     Score         DG    S(hbond)    S(metal)    S(lipo)     H(rot)  DE(clash)    DE(int)     intcor
     16.44     -18.64       0.90        0.00     111.77       1.14       0.07       2.14       ----

> <Gold.Chemscore.Fitness>
16.4400

> <Gold.Chemscore.DG>
-18.6434

> <Gold.Chemscore.ZeroCoef>
-5.4800

> <Gold.Chemscore.Hbond>
0.8992

> <Gold.Chemscore.Metal>
0.0000

> <Gold.Chemscore.Lipo>
111.7695

> <Gold.Chemscore.Internal_Hbond>
0.0000

> <Gold.Chemscore.DEClash>
0.0683

> <Gold.Chemscore.DEInternal>
2.1351

> <Gold.Chemscore.Rot>
1.1395

> <Gold.Chemscore.Internal.Correction>
   9.000000E+99

> <Gold.Chemscore.Hbonds>
donor molecule, donor type, donor heavy atom, donor atom, acceptor molecule, acceptor atom, score
      L1  H    16    40       P1  7948  0.72

> <Gold.Chemscore.Hbond.Weighted>
-3.0035

> <Gold.Chemscore.Metal.Weighted>
-0.0000

> <Gold.Chemscore.Lipo.Weighted>
-13.0770

> <Gold.Chemscore.Internal_Hbond.Weighted>
0.0000

> <Gold.Chemscore.DEClash.Weighted>
0.0683

> <Gold.Chemscore.DEInternal.Weighted>
2.1351

> <Gold.Chemscore.Rot.Weighted>
2.9171

> <Gold.Chemscore.Internal.Correction.Weighted>
   9.000000E+99

> <Gold.Protein.RotatedTorsions>
[ 6907 6896 6895 6894 ] final -120.13 input  -60.11 | X-H torsion
[ 7974 7965 7964 7962 ] final  -67.82 input  175.53 | X-H torsion
[ 8008 7997 7996 7995 ] final   71.46 input   59.86 | X-H torsion
[ 10167 10162 10161 10158 ] final   57.21 input  -65.29 | X-H torsion
[ 10718 10713 10712 10709 ] final  -17.86 input   66.30 | X-H torsion
[ 10763 10752 10751 10750 ] final  -44.83 input  -60.55 | X-H torsion
[ 11005 11000 10999 10996 ] final   31.58 input  -57.11 | X-H torsion

> <Gold.Protein.ActiveResidues>
 VAL166  LYS551  ARG553  GLY616  TRP617  ASP618  TYR619  PRO620  LYS621  CYS622 
 ASP623  PHE694  ASN695  SER759  ASP760  ASP761  ALA762  ILE779  LEU786  VAL792 
 PHE793  MET794  SER795  GLU796  ALA797  LYS798  CYS799  TRP800  GLU811  SER814 

> <Gold.Protein.RotatedAtoms>
  150.8366  133.8004  159.3077 H   0  0  0  0  0  0  0  0  0  0  0  0  # atno 6907 bound_to 6896
  151.5718  135.1060  160.0006 H   0  0  0  0  0  0  0  0  0  0  0  0  # atno 6908 bound_to 6896
  152.4437  133.7454  159.6720 H   0  0  0  0  0  0  0  0  0  0  0  0  # atno 6909 bound_to 6896
  145.7243  140.9025  143.0613 H   0  0  0  0  0  0  0  0  0  0  0  0  # atno 7974 bound_to 7965
  155.7541  140.3488  155.5165 H   0  0  0  0  0  0  0  0  0  0  0  0  # atno 8008 bound_to 7997
  155.8976  140.1028  157.1394 H   0  0  0  0  0  0  0  0  0  0  0  0  # atno 8009 bound_to 7997
  154.4040  140.1292  156.4382 H   0  0  0  0  0  0  0  0  0  0  0  0  # atno 8010 bound_to 7997
  140.2004  144.3993  150.6531 H   0  0  0  0  0  0  0  0  0  0  0  0  # atno 10167 bound_to 10162
  156.5676  130.4741  149.6377 H   0  0  0  0  0  0  0  0  0  0  0  0  # atno 10718 bound_to 10713
  154.0186  135.6672  153.4770 H   0  0  0  0  0  0  0  0  0  0  0  0  # atno 10763 bound_to 10752
  153.0590  135.5039  154.8045 H   0  0  0  0  0  0  0  0  0  0  0  0  # atno 10764 bound_to 10752
  154.6951  135.3068  154.9387 H   0  0  0  0  0  0  0  0  0  0  0  0  # atno 10765 bound_to 10752
  140.2824  134.2957  155.7797 H   0  0  0  0  0  0  0  0  0  0  0  0  # atno 11005 bound_to 11000
  144.6908  139.9245  143.7469 LP  0  0  0  0  0  0  0  0  0  0  0  0  # atno 17320 bound_to 7965
  146.0596  139.3591  143.0589 LP  0  0  0  0  0  0  0  0  0  0  0  0  # atno 17321 bound_to 7965
  140.6394  143.2200  151.6324 LP  0  0  0  0  0  0  0  0  0  0  0  0  # atno 17342 bound_to 10162
  139.5219  144.3178  152.0937 LP  0  0  0  0  0  0  0  0  0  0  0  0  # atno 17343 bound_to 10162
  156.2743  130.7034  151.1841 LP  0  0  0  0  0  0  0  0  0  0  0  0  # atno 17370 bound_to 10713
  157.7355  131.0571  150.5466 LP  0  0  0  0  0  0  0  0  0  0  0  0  # atno 17371 bound_to 10713
  141.2160  133.7534  156.9501 LP  0  0  0  0  0  0  0  0  0  0  0  0  # atno 17394 bound_to 11000
  140.1271  134.9380  157.2285 LP  0  0  0  0  0  0  0  0  0  0  0  0  # atno 17395 bound_to 11000

$$$$
