#       Name:                AV-unprocessed.smi:2525
#       Creating user name   scv26
#       Creation time:       Fri Mar 27 13:56:48 2020


#       File generated by GOLD software.
#

@<TRIPOS>MOLECULE
AV-unprocessed.smi:2525
    50    51     1
SMALL
NO_CHARGES


@<TRIPOS>ATOM
      1 ****        -2.3377  -0.1010  -2.4011 C.3            1 S1                 0.0000
      2 ****        -1.3815   0.7273  -1.5312 C.3            1 S1                 0.0000
      3 ****        -0.8093   0.0046  -0.2913 C.3            1 S1                 0.0000
      4 ****         0.1778  -1.0970  -0.7909 C.3            1 S1                 0.0000
      5 ****        -0.4042  -2.5132  -0.9416 C.3            1 S1                 0.0000
      6 ****        -0.2742   0.9718   0.8056 C.3            1 S1                 0.0000
      7 ****         1.1735   1.1390   0.8332 N.am           1 S1                 0.0000
      8 ****         1.8581   1.9657   0.0293 C.2            1 S1                 0.0000
      9 ****         1.3230   2.7572  -0.7464 O.2            1 S1                 0.0000
     10 ****         3.3819   1.8616   0.0897 C.3            1 S1                 0.0000
     11 ****         3.8292   0.5823  -0.4335 N.pl3          1 S1                 0.0000
     12 ****         3.9996   0.2039  -1.7496 C.2            1 S1                 0.0000
     13 ****         4.4014  -1.0979  -1.6564 C.2            1 S1                 0.0000
     14 ****         4.4584  -1.4525  -0.3098 N.2            1 S1                 0.0000
     15 ****         4.1147  -0.4348   0.4150 N.2            1 S1                 0.0000
     16 ****        -0.7868  -0.0072   1.8675 C.3            1 S1                 0.0000
     17 ****        -1.2162   0.5135   3.2331 C.3            1 S1                 0.0000
     18 ****        -1.8300  -0.4156   0.8087 C.3            1 S1                 0.0000
     19 ****        -2.9777   0.4288   0.8161 O.3            1 S1                 0.0000
     20 ****        -4.0818  -0.1340   1.5042 C.3            1 S1                 0.0000
     21 ****        -2.8192   0.5326  -3.1460 H              1 S1                 0.0000
     22 ****        -3.1243  -0.5641  -1.8053 H              1 S1                 0.0000
     23 ****        -1.8094  -0.8829  -2.9447 H              1 S1                 0.0000
     24 ****        -0.5729   1.1070  -2.1568 H              1 S1                 0.0000
     25 ****        -1.9211   1.6205  -1.2150 H              1 S1                 0.0000
     26 ****         0.6211  -0.8043  -1.7433 H              1 S1                 0.0000
     27 ****         1.0306  -1.1974  -0.1207 H              1 S1                 0.0000
     28 ****         0.3059  -3.1618  -1.4551 H              1 S1                 0.0000
     29 ****        -1.3328  -2.5303  -1.5086 H              1 S1                 0.0000
     30 ****        -0.5994  -2.9669   0.0299 H              1 S1                 0.0000
     31 ****        -0.8182   1.9191   0.8418 H              1 S1                 0.0000
     32 ****         1.6945   0.5280   1.4455 H              1 S1                 0.0000
     33 ****         3.8372   2.6596  -0.4984 H              1 S1                 0.0000
     34 ****         3.7245   1.9806   1.1188 H              1 S1                 0.0000
     35 ****         3.8222   0.8586  -2.5900 H              1 S1                 0.0000
     36 ****         4.6491  -1.8022  -2.4368 H              1 S1                 0.0000
     37 ****        -0.0778  -0.8289   1.9915 H              1 S1                 0.0000
     38 ****        -1.9171   1.3438   3.1443 H              1 S1                 0.0000
     39 ****        -0.3584   0.8699   3.8033 H              1 S1                 0.0000
     40 ****        -1.6991  -0.2680   3.8197 H              1 S1                 0.0000
     41 ****        -2.0867  -1.4745   0.8136 H              1 S1                 0.0000
     42 ****        -4.9069   0.5779   1.5142 H              1 S1                 0.0000
     43 ****        -3.8321  -0.3753   2.5374 H              1 S1                 0.0000
     44 ****        -4.4280  -1.0416   1.0081 H              1 S1                 0.0000
     45 ****         0.3257   2.8074  -0.8004 LP             1 S1                 0.0000
     46 ****         1.8855   3.3501  -1.3226 LP             1 S1                 0.0000
     47 ****         4.7228  -2.3506   0.0417 LP             1 S1                 0.0000
     48 ****         4.0688  -0.4056   1.4136 LP             1 S1                 0.0000
     49 ****        -3.2491   0.6042  -0.1302 LP             1 S1                 0.0000
     50 ****        -2.7342   1.2919   1.2585 LP             1 S1                 0.0000
@<TRIPOS>BOND
    1    1    2 1     
    2    1   21 1     
    3    1   22 1     
    4    1   23 1     
    5    2    3 1     
    6    2   24 1     
    7    2   25 1     
    8    3   18 1     
    9    3    4 1     
   10    3    6 1     
   11    4    5 1     
   12    4   26 1     
   13    4   27 1     
   14    5   28 1     
   15    5   29 1     
   16    5   30 1     
   17    6    7 1     
   18    6   16 1     
   19    6   31 1     
   20    7    8 am    
   21    7   32 1     
   22    8    9 2     
   23    8   10 1     
   24   10   11 1     
   25   10   33 1     
   26   10   34 1     
   27   11   15 1     
   28   11   12 1     
   29   12   13 2     
   30   12   35 1     
   31   13   14 1     
   32   13   36 1     
   33   14   15 2     
   34   16   17 1     
   35   16   18 1     
   36   16   37 1     
   37   17   38 1     
   38   17   39 1     
   39   17   40 1     
   40   18   19 1     
   41   18   41 1     
   42   19   20 1     
   43   20   42 1     
   44   20   43 1     
   45   20   44 1     
   46    9   45 1     
   47    9   46 1     
   48   14   47 1     
   49   15   48 1     
   50   19   49 1     
   51   19   50 1     
@<TRIPOS>SUBSTRUCTURE
      1 S1             1
@<TRIPOS>SET
LONE_PAIRS      STATIC     ATOMS    <user>   **** ""
6 45 46 47 48 49 50
DONOR_HYDROGENS      STATIC     ATOMS    <user>   **** ""
1 32
ATOM$BLUE        STATIC     ATOMS    COLORGROUP SYSTEM
6 45 46 47 48 49 50
ATOM$RED        STATIC     ATOMS    COLORGROUP SYSTEM
1 32
