#       Name:                AV-unprocessed.smi:1962
#       Creating user name   scv26
#       Creation time:       Fri Mar 27 10:09:25 2020


#       File generated by GOLD software.
#

@<TRIPOS>MOLECULE
AV-unprocessed.smi:1962
    42    43     1
SMALL
NO_CHARGES


@<TRIPOS>ATOM
      1 ****        -2.9770  -1.3710  -1.9623 C.3            1 S1                 0.0000
      2 ****        -2.4565  -0.4756  -0.8295 C.3            1 S1                 0.0000
      3 ****        -2.8960  -1.0141   0.5580 C.3            1 S1                 0.0000
      4 ****        -2.5517  -0.1464   1.6823 N.pl3          1 S1                 0.0000
      5 ****        -3.1284   1.0514   2.0624 C.2            1 S1                 0.0000
      6 ****        -2.4772   1.4844   3.1815 C.2            1 S1                 0.0000
      7 ****        -1.5130   0.4675   3.4251 C.2            1 S1                 0.0000
      8 ****        -1.5679  -0.5114   2.5377 N.2            1 S1                 0.0000
      9 ****        -0.9923  -0.4180  -0.9122 N.pl3          1 S1                -1.0000
     10 ****        -0.2297   0.6992  -0.7057 C.2            1 S1                 0.0000
     11 ****        -0.6540   1.8412  -0.4902 O.2            1 S1                 0.0000
     12 ****         1.2575   0.5683  -0.7326 C.2            1 S1                 0.0000
     13 ****         1.7952  -0.5791  -1.0084 N.2            1 S1                 0.0000
     14 ****         3.1616  -0.7597  -1.0633 N.am           1 S1                 0.0000
     15 ****         3.5869  -2.0320  -1.6427 C.3            1 S1                 0.0000
     16 ****         4.0760   0.1309  -0.6062 C.2            1 S1                 0.0000
     17 ****         5.2934  -0.0353  -0.6860 O.2            1 S1                 0.0000
     18 ****         3.5240   1.3882   0.0701 C.3            1 S1                 0.0000
     19 ****         2.1350   1.7802  -0.4707 C.3            1 S1                 0.0000
     20 ****        -4.0656  -1.4251  -1.9481 H              1 S1                 0.0000
     21 ****        -2.5935  -2.3885  -1.8761 H              1 S1                 0.0000
     22 ****        -2.6817  -0.9840  -2.9383 H              1 S1                 0.0000
     23 ****        -2.9111   0.5067  -0.9685 H              1 S1                 0.0000
     24 ****        -3.9785  -1.1452   0.5704 H              1 S1                 0.0000
     25 ****        -2.4700  -2.0041   0.7308 H              1 S1                 0.0000
     26 ****        -3.9402   1.4936   1.5037 H              1 S1                 0.0000
     27 ****        -2.6622   2.3894   3.7405 H              1 S1                 0.0000
     28 ****        -0.7830   0.4086   4.2186 H              1 S1                 0.0000
     29 ****         4.1597  -1.8637  -2.5554 H              1 S1                 0.0000
     30 ****         2.7382  -2.6690  -1.8972 H              1 S1                 0.0000
     31 ****         4.2133  -2.5858  -0.9420 H              1 S1                 0.0000
     32 ****         3.4551   1.1812   1.1387 H              1 S1                 0.0000
     33 ****         4.2238   2.2166  -0.0456 H              1 S1                 0.0000
     34 ****         2.2414   2.3518  -1.3933 H              1 S1                 0.0000
     35 ****         1.6689   2.4485   0.2539 H              1 S1                 0.0000
     36 ****        -1.0067  -1.3385   2.5056 LP             1 S1                 0.0000
     37 ****        -0.5121  -1.2655  -1.1382 LP             1 S1                 0.0000
     38 ****        -1.6390   2.0103  -0.4549 LP             1 S1                 0.0000
     39 ****        -0.0120   2.5952  -0.3513 LP             1 S1                 0.0000
     40 ****         1.1979  -1.3608  -1.1877 LP             1 S1                 0.0000
     41 ****         5.6581  -0.8656  -1.1073 LP             1 S1                 0.0000
     42 ****         5.9174   0.6601  -0.3295 LP             1 S1                 0.0000
@<TRIPOS>BOND
    1    1    2 1     
    2    1   20 1     
    3    1   21 1     
    4    1   22 1     
    5    2    3 1     
    6    2    9 1     
    7    2   23 1     
    8    3    4 1     
    9    3   24 1     
   10    3   25 1     
   11    4    8 1     
   12    4    5 1     
   13    5    6 2     
   14    5   26 1     
   15    6    7 1     
   16    6   27 1     
   17    7    8 2     
   18    7   28 1     
   19    9   10 1     
   20   10   11 2     
   21   10   12 1     
   22   12   19 1     
   23   12   13 2     
   24   13   14 1     
   25   14   15 1     
   26   14   16 am    
   27   15   29 1     
   28   15   30 1     
   29   15   31 1     
   30   16   17 2     
   31   16   18 1     
   32   18   19 1     
   33   18   32 1     
   34   18   33 1     
   35   19   34 1     
   36   19   35 1     
   37    8   36 1     
   38    9   37 1     
   39   11   38 1     
   40   11   39 1     
   41   13   40 1     
   42   17   41 1     
   43   17   42 1     
@<TRIPOS>SUBSTRUCTURE
      1 S1             1
@<TRIPOS>SET
LONE_PAIRS      STATIC     ATOMS    <user>   **** ""
7 36 37 38 39 40 41 42
ATOM$BLUE        STATIC     ATOMS    COLORGROUP SYSTEM
7 36 37 38 39 40 41 42
