#       Name:                AV-unprocessed.smi:197
#       Creating user name   scv26
#       Creation time:       Thu Mar 26 19:40:46 2020


#       File generated by GOLD software.
#

@<TRIPOS>MOLECULE
AV-unprocessed.smi:197
    66    69     1
SMALL
NO_CHARGES


@<TRIPOS>ATOM
      1 ****        -1.3995  -2.1522   1.9252 C.3            1 S1                 0.0000
      2 ****        -2.6872  -2.3531   1.3638 O.3            1 S1                 0.0000
      3 ****        -2.6776  -2.9105   0.0556 C.3            1 S1                 0.0000
      4 ****        -2.2265  -1.9011  -1.0177 C.3            1 S1                 0.0000
      5 ****        -3.0419  -0.5807  -1.0418 C.3            1 S1                 0.0000
      6 ****        -4.5223  -0.8391  -1.4098 C.3            1 S1                 0.0000
      7 ****        -5.2477   0.3847  -1.4560 O.3            1 S1                 0.0000
      8 ****        -4.7353   1.2697  -2.4429 C.3            1 S1                 0.0000
      9 ****        -3.2828   1.6187  -2.0929 C.3            1 S1                 0.0000
     10 ****        -2.4850   0.4034  -1.9796 N.3            1 S1                 0.0000
     11 ****        -1.1741   0.7038  -1.8405 C.ar           1 S1                 0.0000
     12 ****        -0.3977   0.5906  -2.9457 N.ar           1 S1                 0.0000
     13 ****         0.9094   0.8586  -2.8739 C.ar           1 S1                 0.0000
     14 ****         1.6256   1.2462  -1.8164 N.ar           1 S1                 0.0000
     15 ****         0.8449   1.3679  -0.7046 C.ar           1 S1                 0.0000
     16 ****        -0.5557   1.1273  -0.6294 C.ar           1 S1                 0.0000
     17 ****        -1.0090   1.3706   0.6612 N.2            1 S1                 0.0000
     18 ****         0.0650   1.7170   1.3160 C.2            1 S1                 0.0000
     19 ****         1.2256   1.7313   0.5755 N.pl3          1 S1                 0.0000
     20 ****         2.5577   2.0671   1.0545 C.3            1 S1                 0.0000
     21 ****         3.2810   0.8875   1.7503 C.3            1 S1                 0.0000
     22 ****         2.5497   0.5406   2.9148 O.3            1 S1                 0.0000
     23 ****         4.7072   1.2562   2.1744 C.3            1 S1                 0.0000
     24 ****         5.5959   0.3979   1.2815 C.3            1 S1                 0.0000
     25 ****         4.8178  -0.7692   1.0891 O.3            1 S1                 0.0000
     26 ****         3.4903  -0.3403   0.8259 C.3            1 S1                 0.0000
     27 ****         2.5028  -1.5097   0.9714 C.3            1 S1                 0.0000
     28 ****        -1.5029  -1.7982   2.9507 H              1 S1                 0.0000
     29 ****        -0.8332  -1.4016   1.3764 H              1 S1                 0.0000
     30 ****        -0.8256  -3.0791   1.9475 H              1 S1                 0.0000
     31 ****        -2.0432  -3.7978   0.0312 H              1 S1                 0.0000
     32 ****        -3.6843  -3.2630  -0.1662 H              1 S1                 0.0000
     33 ****        -1.1679  -1.6986  -0.8596 H              1 S1                 0.0000
     34 ****        -2.2831  -2.3763  -1.9975 H              1 S1                 0.0000
     35 ****        -3.0241  -0.1417  -0.0446 H              1 S1                 0.0000
     36 ****        -4.6036  -1.3547  -2.3681 H              1 S1                 0.0000
     37 ****        -5.0003  -1.4745  -0.6654 H              1 S1                 0.0000
     38 ****        -4.8020   0.8142  -3.4321 H              1 S1                 0.0000
     39 ****        -5.3457   2.1724  -2.4636 H              1 S1                 0.0000
     40 ****        -2.8657   2.2715  -2.8614 H              1 S1                 0.0000
     41 ****        -3.2505   2.1679  -1.1507 H              1 S1                 0.0000
     42 ****         1.4613   0.7426  -3.7948 H              1 S1                 0.0000
     43 ****         0.0420   1.9657   2.3670 H              1 S1                 0.0000
     44 ****         3.1476   2.4223   0.2083 H              1 S1                 0.0000
     45 ****         2.4691   2.9127   1.7381 H              1 S1                 0.0000
     46 ****         2.9890  -0.1816   3.3374 H              1 S1                 0.0000
     47 ****         4.9304   2.3186   2.0703 H              1 S1                 0.0000
     48 ****         4.8902   0.9893   3.2167 H              1 S1                 0.0000
     49 ****         5.7737   0.8846   0.3212 H              1 S1                 0.0000
     50 ****         6.5597   0.1708   1.7378 H              1 S1                 0.0000
     51 ****         3.4836  -0.0118  -0.2140 H              1 S1                 0.0000
     52 ****         1.4813  -1.1873   0.7737 H              1 S1                 0.0000
     53 ****         2.5343  -1.9451   1.9702 H              1 S1                 0.0000
     54 ****         2.7396  -2.3024   0.2617 H              1 S1                 0.0000
     55 ****        -3.1522  -1.4688   1.3235 LP             1 S1                 0.0000
     56 ****        -3.1967  -2.9706   1.9631 LP             1 S1                 0.0000
     57 ****        -5.1889   0.8289  -0.5620 LP             1 S1                 0.0000
     58 ****        -6.2047   0.1851  -1.6667 LP             1 S1                 0.0000
     59 ****        -2.5414  -0.0984  -2.8427 LP             1 S1                 0.0000
     60 ****        -0.8030   0.3065  -3.8146 LP             1 S1                 0.0000
     61 ****         2.6093   1.4245  -1.8366 LP             1 S1                 0.0000
     62 ****        -1.9439   1.2970   1.0085 LP             1 S1                 0.0000
     63 ****         1.6206   0.2701   2.6625 LP             1 S1                 0.0000
     64 ****         2.5119   1.3234   3.5360 LP             1 S1                 0.0000
     65 ****         4.8392  -1.3365   1.9124 LP             1 S1                 0.0000
     66 ****         5.1700  -1.2935   0.3138 LP             1 S1                 0.0000
@<TRIPOS>BOND
    1    1    2 1     
    2    1   28 1     
    3    1   29 1     
    4    1   30 1     
    5    2    3 1     
    6    3    4 1     
    7    3   31 1     
    8    3   32 1     
    9    4    5 1     
   10    4   33 1     
   11    4   34 1     
   12    5   10 1     
   13    5    6 1     
   14    5   35 1     
   15    6    7 1     
   16    6   36 1     
   17    6   37 1     
   18    7    8 1     
   19    8    9 1     
   20    8   38 1     
   21    8   39 1     
   22    9   10 1     
   23    9   40 1     
   24    9   41 1     
   25   10   11 1     
   26   11   16 ar    
   27   11   12 ar    
   28   12   13 ar    
   29   13   14 ar    
   30   13   42 1     
   31   14   15 ar    
   32   15   19 1     
   33   15   16 ar    
   34   16   17 1     
   35   17   18 2     
   36   18   19 1     
   37   18   43 1     
   38   19   20 1     
   39   20   21 1     
   40   20   44 1     
   41   20   45 1     
   42   21   26 1     
   43   21   22 1     
   44   21   23 1     
   45   22   46 1     
   46   23   24 1     
   47   23   47 1     
   48   23   48 1     
   49   24   25 1     
   50   24   49 1     
   51   24   50 1     
   52   25   26 1     
   53   26   27 1     
   54   26   51 1     
   55   27   52 1     
   56   27   53 1     
   57   27   54 1     
   58    2   55 1     
   59    2   56 1     
   60    7   57 1     
   61    7   58 1     
   62   10   59 1     
   63   12   60 1     
   64   14   61 1     
   65   17   62 1     
   66   22   63 1     
   67   22   64 1     
   68   25   65 1     
   69   25   66 1     
@<TRIPOS>SUBSTRUCTURE
      1 S1             1
@<TRIPOS>SET
LONE_PAIRS      STATIC     ATOMS    <user>   **** ""
12 55 56 57 58 59 60 61 62 63 64 65 66
DONOR_HYDROGENS      STATIC     ATOMS    <user>   **** ""
1 46
ATOM$BLUE        STATIC     ATOMS    COLORGROUP SYSTEM
12 55 56 57 58 59 60 61 62 63 64 65 66
ATOM$RED        STATIC     ATOMS    COLORGROUP SYSTEM
1 46
