AV-unprocessed.smi:2535|AV-procd|sdf|9976|dock1
  -GOLD-   2272014 23D 1   1.00000     0.00000
 Structure written by MMmdl.
 26 27  0  0  0  0  0  0  0  0  2 V2000
  149.1743  141.0647  155.0923 C   0  0  0  0  0  0  0  0  0  0  0  0
  150.4954  140.5889  155.4536 N   0  0  0  0  0  0  0  0  0  0  0  0
  151.2390  139.8717  154.5766 N   0  0  0  0  0  0  0  0  0  0  0  0
  152.3606  139.5934  155.1759 N   0  0  0  0  0  0  0  0  0  0  0  0
  152.3890  140.1142  156.4556 N   0  0  0  0  0  0  0  0  0  0  0  0
  151.2132  140.7163  156.5784 C   0  0  0  0  0  0  0  0  0  0  0  0
  150.7444  141.4349  157.8055 C   0  0  0  0  0  0  0  0  0  0  0  0
  151.2815  142.8736  157.8991 C   0  0  2  0  0  0  0  0  0  0  0  0
  152.3134  143.1054  159.0068 C   0  0  0  0  0  0  0  0  0  0  0  0
  152.2243  144.6086  159.2387 C   0  0  0  0  0  0  0  0  0  0  0  0
  150.7361  144.9096  159.0442 C   0  0  0  0  0  0  0  0  0  0  0  0
  150.2059  143.8509  158.1607 N   0  3  0  0  0  0  0  0  0  0  0  0
  149.1168  142.1430  155.2428 H   0  0  0  0  0  0  0  0  0  0  0  0
  148.4236  140.5747  155.7118 H   0  0  0  0  0  0  0  0  0  0  0  0
  148.9629  140.8463  154.0447 H   0  0  0  0  0  0  0  0  0  0  0  0
  149.6540  141.4496  157.7913 H   0  0  0  0  0  0  0  0  0  0  0  0
  151.0284  140.8685  158.6926 H   0  0  0  0  0  0  0  0  0  0  0  0
  151.7333  143.1532  156.9457 H   0  0  0  0  0  0  0  0  0  0  0  0
  152.0233  142.5783  159.9165 H   0  0  0  0  0  0  0  0  0  0  0  0
  153.3158  142.7771  158.7294 H   0  0  0  0  0  0  0  0  0  0  0  0
  152.5930  144.9105  160.2195 H   0  0  0  0  0  0  0  0  0  0  0  0
  152.8115  145.1327  158.4833 H   0  0  0  0  0  0  0  0  0  0  0  0
  150.2097  144.8571  159.9978 H   0  0  0  0  0  0  0  0  0  0  0  0
  150.5690  145.9007  158.6217 H   0  0  0  0  0  0  0  0  0  0  0  0
  149.8767  144.2428  157.2898 H   0  0  0  0  0  0  0  0  0  0  0  0
  149.4420  143.3911  158.6351 H   0  0  0  0  0  0  0  0  0  0  0  0
  1  2  1  0  0  0  0
  1 13  1  0  0  0  0
  1 14  1  0  0  0  0
  1 15  1  0  0  0  0
  2  6  1  0  0  0  0
  2  3  1  0  0  0  0
  3  4  2  0  0  0  0
  4  5  1  0  0  0  0
  5  6  2  0  0  0  0
  6  7  1  0  0  0  0
  7  8  1  0  0  0  0
  7 16  1  0  0  0  0
  7 17  1  0  0  0  0
  8 12  1  0  0  0  0
  8  9  1  0  0  0  0
  8 18  1  0  0  0  0
  9 10  1  0  0  0  0
  9 19  1  0  0  0  0
  9 20  1  0  0  0  0
 10 11  1  0  0  0  0
 10 21  1  0  0  0  0
 10 22  1  0  0  0  0
 11 12  1  0  0  0  0
 11 23  1  0  0  0  0
 11 24  1  0  0  0  0
 12 25  1  0  0  0  0
 12 26  1  0  0  0  0
M  CHG  1  12   1
M  END
> <s_m_source_file>
AV-unprocessed.smi

> <i_m_source_file_index>
2535

> <i_lp_mmshare_version>
43012

> <i_f3d_flags>
0

> <s_epik_input>
W0NIM11uMW5ubmMxW0NIMl1bQ0BASF0yW0NIMl1bQ0gyXVtDSDJdW05IXTI=

> <s_epik_cmdline>
J2VwaWtfcHl0aG9uJywgJy1waCcsICc3LjAnLCAnLXRuJywgJzgnLCAnLW1hJywgJzIwMCcsICctbWV0YWxfYmluZGluZycsICctaW1hZScsICc8aW5maWxlLm1hZT4nLCAnLW9tYWUnLCAnPG91dGZpbGUubWFlPic=

> <r_lp_tautomer_probability>
1

> <r_epik_Ionization_Penalty>
0.000863359

> <r_epik_Ionization_Penalty_Charging>
0.000863359

> <r_epik_Ionization_Penalty_Neutral>
1.80841e-10

> <r_epik_State_Penalty>
0.000557253

> <r_epik_Charging_Adjusted_Penalty>
0.00142061

> <i_epik_Tot_Q>
1

> <i_epik_Tot_abs_Q>
1

> <r_epik_Metal_State_Penalty>
-0

> <b_epik_Metal_Only>
0

> <s_lp_Force_Field>
OPLS_2005

> <r_lp_Energy>
24.3513

> <b_lp_Chiralities_Consistent>
1

> <s_lp_Variant>
AV-unprocessed.smi:2535-1

> <Gold.Version>
5.8.1

> <Gold.Id.Protein>
6NUR|6NUR_protein|mol2

> <Gold.PLP.Fitness>
36.9371

> <Gold.PLP.PLP>
-27.6356

> <Gold.PLP.part.hbond>
-4.3144

> <Gold.PLP.part.metal>
0.0000

> <Gold.PLP.part.buried>
-3.3170

> <Gold.PLP.part.nonpolar>
-21.5367

> <Gold.PLP.part.repulsive>
0.1360

> <Gold.PLP.ligand.clash>
0.0000

> <Gold.PLP.ligand.torsion>
1.0193

> <Gold.PLP.Chemscore.Hbond>
3.7796

> <Gold.PLP.Chemscore.CHOScore>
0.0000

> <Gold.PLP.Chemscore.Metal>
0.0000

> <Gold.Chemscore.Hbonds>
donor molecule, donor type, donor heavy atom, donor atom, acceptor molecule, acceptor atom, score
      L1  H    12    25       P1  8028  2.00
      P1  H  7989  7998       L1     3  0.98
      P1  H  7997  8010       L1     5  0.79

> <Gold.PLP.Chemscore.Internal.Correction>
0.0015

> <Gold.Rescore>
     Score         DG    S(hbond)    S(metal)    S(lipo)     H(rot)  DE(clash)    DE(int)     intcor
     14.09     -15.21       1.88        0.00      58.96       1.34       0.20       0.92       ----

> <Gold.Chemscore.Fitness>
14.0937

> <Gold.Chemscore.DG>
-15.2111

> <Gold.Chemscore.ZeroCoef>
-5.4800

> <Gold.Chemscore.Hbond>
1.8757

> <Gold.Chemscore.Metal>
0.0000

> <Gold.Chemscore.Lipo>
58.9619

> <Gold.Chemscore.Internal_Hbond>
0.0000

> <Gold.Chemscore.DEClash>
0.1959

> <Gold.Chemscore.DEInternal>
0.9215

> <Gold.Chemscore.Rot>
1.3407

> <Gold.Chemscore.Internal.Correction>
   9.000000E+99

> <Gold.Chemscore.Hbonds>
donor molecule, donor type, donor heavy atom, donor atom, acceptor molecule, acceptor atom, score
      L1  H    12    25       P1  8028  0.50
      P1  H  7989  7998       L1     3  0.20
      P1  H  7997  8010       L1     5  0.13

> <Gold.Chemscore.Hbond.Weighted>
-6.2649

> <Gold.Chemscore.Metal.Weighted>
-0.0000

> <Gold.Chemscore.Lipo.Weighted>
-6.8985

> <Gold.Chemscore.Internal_Hbond.Weighted>
0.0000

> <Gold.Chemscore.DEClash.Weighted>
0.1959

> <Gold.Chemscore.DEInternal.Weighted>
0.9215

> <Gold.Chemscore.Rot.Weighted>
3.4323

> <Gold.Chemscore.Internal.Correction.Weighted>
   9.000000E+99

> <Gold.Protein.RotatedTorsions>
[ 6907 6896 6895 6894 ] final  -15.92 input  -60.11 | X-H torsion
[ 7974 7965 7964 7962 ] final -133.95 input  175.53 | X-H torsion
[ 8008 7997 7996 7995 ] final   56.50 input   59.86 | X-H torsion
[ 10167 10162 10161 10158 ] final   80.51 input  -65.29 | X-H torsion
[ 10718 10713 10712 10709 ] final -159.59 input   66.30 | X-H torsion
[ 10763 10752 10751 10750 ] final  134.77 input  -60.55 | X-H torsion
[ 11005 11000 10999 10996 ] final  -49.00 input  -57.11 | X-H torsion

> <Gold.Protein.ActiveResidues>
 VAL166  LYS551  ARG553  GLY616  TRP617  ASP618  TYR619  PRO620  LYS621  CYS622 
 ASP623  PHE694  ASN695  SER759  ASP760  ASP761  ALA762  ILE779  LEU786  VAL792 
 PHE793  MET794  SER795  GLU796  ALA797  LYS798  CYS799  TRP800  GLU811  SER814 

> <Gold.Protein.RotatedAtoms>
  151.3166  135.0808  159.9290 H   0  0  0  0  0  0  0  0  0  0  0  0  # atno 6907 bound_to 6896
  152.5266  133.9682  159.7759 H   0  0  0  0  0  0  0  0  0  0  0  0  # atno 6908 bound_to 6896
  150.9995  133.6018  159.2727 H   0  0  0  0  0  0  0  0  0  0  0  0  # atno 6909 bound_to 6896
  144.9147  140.6939  143.5003 H   0  0  0  0  0  0  0  0  0  0  0  0  # atno 7974 bound_to 7965
  155.5185  140.3479  155.4402 H   0  0  0  0  0  0  0  0  0  0  0  0  # atno 8008 bound_to 7997
  156.0800  140.1384  156.9750 H   0  0  0  0  0  0  0  0  0  0  0  0  # atno 8009 bound_to 7997
  154.4575  140.0948  156.6774 H   0  0  0  0  0  0  0  0  0  0  0  0  # atno 8010 bound_to 7997
  139.9490  144.6039  150.8179 H   0  0  0  0  0  0  0  0  0  0  0  0  # atno 10167 bound_to 10162
  156.5702  130.8685  151.2835 H   0  0  0  0  0  0  0  0  0  0  0  0  # atno 10718 bound_to 10713
  153.8290  135.3106  155.3417 H   0  0  0  0  0  0  0  0  0  0  0  0  # atno 10763 bound_to 10752
  154.7981  135.4743  154.0213 H   0  0  0  0  0  0  0  0  0  0  0  0  # atno 10764 bound_to 10752
  153.1646  135.6867  153.8784 H   0  0  0  0  0  0  0  0  0  0  0  0  # atno 10765 bound_to 10752
  141.0733  133.6673  156.3522 H   0  0  0  0  0  0  0  0  0  0  0  0  # atno 11005 bound_to 11000
  145.3396  139.1736  143.4493 LP  0  0  0  0  0  0  0  0  0  0  0  0  # atno 17320 bound_to 7965
  146.3176  140.3435  142.8650 LP  0  0  0  0  0  0  0  0  0  0  0  0  # atno 17321 bound_to 7965
  140.7588  143.3116  151.2832 LP  0  0  0  0  0  0  0  0  0  0  0  0  # atno 17342 bound_to 10162
  139.6643  144.0133  152.2713 LP  0  0  0  0  0  0  0  0  0  0  0  0  # atno 17343 bound_to 10162
  157.7350  130.9754  150.2057 LP  0  0  0  0  0  0  0  0  0  0  0  0  # atno 17370 bound_to 10713
  156.2721  130.3723  149.8021 LP  0  0  0  0  0  0  0  0  0  0  0  0  # atno 17371 bound_to 10713
  140.5626  134.5919  157.5437 LP  0  0  0  0  0  0  0  0  0  0  0  0  # atno 17394 bound_to 11000
  139.9546  134.7557  156.0370 LP  0  0  0  0  0  0  0  0  0  0  0  0  # atno 17395 bound_to 11000

$$$$
