AV-unprocessed.smi:666|AV-procd|sdf|3254|dock6
  -GOLD-   22720 0203D 1   1.00000     0.00000
 Structure written by MMmdl.
 34 35  0  0  0  0  0  0  0  0  2 V2000
  150.9595  140.2100  154.7717 O   0  0  0  0  0  0  0  0  0  0  0  0
  151.4063  140.1040  155.9143 C   0  0  0  0  0  0  0  0  0  0  0  0
  150.6367  140.7321  157.0827 C   0  0  0  0  0  0  0  0  0  0  0  0
  151.3041  141.9323  157.7334 C   0  0  0  0  0  0  0  0  0  0  0  0
  151.2847  143.1569  157.1715 C   0  0  0  0  0  0  0  0  0  0  0  0
  151.9481  144.3819  157.7759 C   0  0  0  0  0  0  0  0  0  0  0  0
  152.9348  144.0181  158.8982 C   0  0  0  0  0  0  0  0  0  0  0  0
  152.3435  142.9539  159.8314 C   0  0  0  0  0  0  0  0  0  0  0  0
  151.9922  141.6649  159.0665 C   0  0  0  0  0  0  0  0  0  0  0  0
  152.5275  139.4721  156.3327 N   0  5  0  0  0  0  0  0  0  0  0  0
  152.8167  137.8994  156.0561 S   0  0  0  0  0  0  0  0  0  0  0  0
  152.1097  137.4044  154.8642 O   0  0  0  0  0  0  0  0  0  0  0  0
  154.2529  137.5949  156.1514 O   0  0  0  0  0  0  0  0  0  0  0  0
  152.0140  137.0765  157.5110 C   0  0  0  0  0  0  0  0  0  0  0  0
  152.7508  137.3949  158.7841 C   0  0  0  0  0  0  0  0  0  0  0  0
  152.9209  138.6564  159.4206 C   0  0  0  0  0  0  0  0  0  0  0  0
  153.6544  138.3588  160.5321 C   0  0  0  0  0  0  0  0  0  0  0  0
  153.9101  137.0278  160.5899 O   0  0  0  0  0  0  0  0  0  0  0  0
  153.3264  136.4204  159.4722 N   0  0  0  0  0  0  0  0  0  0  0  0
  149.6233  141.0175  156.7925 H   0  0  0  0  0  0  0  0  0  0  0  0
  150.5179  139.9530  157.8369 H   0  0  0  0  0  0  0  0  0  0  0  0
  150.7627  143.3089  156.2380 H   0  0  0  0  0  0  0  0  0  0  0  0
  152.4659  144.9347  156.9917 H   0  0  0  0  0  0  0  0  0  0  0  0
  151.1634  145.0342  158.1603 H   0  0  0  0  0  0  0  0  0  0  0  0
  153.8591  143.6374  158.4617 H   0  0  0  0  0  0  0  0  0  0  0  0
  153.2050  144.9115  159.4617 H   0  0  0  0  0  0  0  0  0  0  0  0
  153.0393  142.7281  160.6399 H   0  0  0  0  0  0  0  0  0  0  0  0
  151.4438  143.3525  160.3020 H   0  0  0  0  0  0  0  0  0  0  0  0
  151.3502  141.0404  159.6881 H   0  0  0  0  0  0  0  0  0  0  0  0
  152.8969  141.0888  158.8690 H   0  0  0  0  0  0  0  0  0  0  0  0
  150.9673  137.3711  157.5691 H   0  0  0  0  0  0  0  0  0  0  0  0
  152.0295  136.0032  157.3203 H   0  0  0  0  0  0  0  0  0  0  0  0
  152.5670  139.6266  159.1055 H   0  0  0  0  0  0  0  0  0  0  0  0
  154.0509  138.9546  161.3408 H   0  0  0  0  0  0  0  0  0  0  0  0
  1  2  2  0  0  0  0
  2  3  1  0  0  0  0
  2 10  1  0  0  0  0
  3  4  1  0  0  0  0
  3 20  1  0  0  0  0
  3 21  1  0  0  0  0
  4  9  1  0  0  0  0
  4  5  2  0  0  0  0
  5  6  1  0  0  0  0
  5 22  1  0  0  0  0
  6  7  1  0  0  0  0
  6 23  1  0  0  0  0
  6 24  1  0  0  0  0
  7  8  1  0  0  0  0
  7 25  1  0  0  0  0
  7 26  1  0  0  0  0
  8  9  1  0  0  0  0
  8 27  1  0  0  0  0
  8 28  1  0  0  0  0
  9 29  1  0  0  0  0
  9 30  1  0  0  0  0
 10 11  1  0  0  0  0
 11 12  2  0  0  0  0
 11 13  2  0  0  0  0
 11 14  1  0  0  0  0
 14 15  1  0  0  0  0
 14 31  1  0  0  0  0
 14 32  1  0  0  0  0
 15 19  2  0  0  0  0
 15 16  1  0  0  0  0
 16 17  2  0  0  0  0
 16 33  1  0  0  0  0
 17 18  1  0  0  0  0
 17 34  1  0  0  0  0
 18 19  1  0  0  0  0
M  CHG  1  10  -1
M  END
> <s_m_source_file>
AV-unprocessed.smi

> <i_m_source_file_index>
666

> <i_lp_mmshare_version>
43012

> <i_f3d_flags>
0

> <s_epik_input>
W0NIMl0xW0NIMl1bQ0gyXVtDSDJdW0NIXT1DMVtDSDJdQyg9TylbTkhdUyg9TykoPU8pW0NIMl1jMltjSF1bY0hdb24y

> <s_epik_cmdline>
J2VwaWtfcHl0aG9uJywgJy1waCcsICc3LjAnLCAnLXRuJywgJzgnLCAnLW1hJywgJzIwMCcsICctbWV0YWxfYmluZGluZycsICctaW1hZScsICc8aW5maWxlLm1hZT4nLCAnLW9tYWUnLCAnPG91dGZpbGUubWFlPic=

> <r_epik_Ionization_Penalty>
0.000833246

> <r_epik_Ionization_Penalty_Charging>
0.000833246

> <r_epik_Ionization_Penalty_Neutral>
1.62659e-10

> <r_epik_State_Penalty>
0.000536532

> <r_epik_Charging_Adjusted_Penalty>
0.00136978

> <i_epik_Tot_Q>
-1

> <i_epik_Tot_abs_Q>
1

> <r_epik_Metal_State_Penalty>
-0

> <b_epik_Metal_Only>
0

> <s_lp_Force_Field>
OPLS_2005

> <r_lp_Energy>
4.18867

> <b_lp_Chiralities_Consistent>
1

> <s_lp_Variant>
AV-unprocessed.smi:666-1

> <Gold.Version>
5.8.1

> <Gold.Id.Protein>
6NUR|6NUR_protein|mol2

> <Gold.PLP.Fitness>
49.7416

> <Gold.PLP.PLP>
-37.1798

> <Gold.PLP.part.hbond>
-5.9000

> <Gold.PLP.part.metal>
0.0000

> <Gold.PLP.part.buried>
-5.6115

> <Gold.PLP.part.nonpolar>
-26.6841

> <Gold.PLP.part.repulsive>
0.1645

> <Gold.PLP.ligand.clash>
0.0000

> <Gold.PLP.ligand.torsion>
1.4642

> <Gold.PLP.Chemscore.Hbond>
4.8187

> <Gold.PLP.Chemscore.CHOScore>
0.0000

> <Gold.PLP.Chemscore.Metal>
0.0000

> <Gold.Chemscore.Hbonds>
donor molecule, donor type, donor heavy atom, donor atom, acceptor molecule, acceptor atom, score
      P1  H  6896  6907       L1    19  1.00
      P1  H  7989  7998       L1     1  1.00
      P1  H  7997  8008       L1    10  1.90
      P1  H 10752 10764       L1    12  0.80
      P1  H 10752 10765       L1    13  0.01

> <Gold.PLP.Chemscore.Internal.Correction>
1.0340

> <Gold.Rescore>
     Score         DG    S(hbond)    S(metal)    S(lipo)     H(rot)  DE(clash)    DE(int)     intcor
     21.18     -23.85       3.58        0.00      92.10       1.70       0.34       2.32       ----

> <Gold.Chemscore.Fitness>
21.1826

> <Gold.Chemscore.DG>
-23.8481

> <Gold.Chemscore.ZeroCoef>
-5.4800

> <Gold.Chemscore.Hbond>
3.5798

> <Gold.Chemscore.Metal>
0.0000

> <Gold.Chemscore.Lipo>
92.0969

> <Gold.Chemscore.Internal_Hbond>
0.0000

> <Gold.Chemscore.DEClash>
0.3441

> <Gold.Chemscore.DEInternal>
2.3214

> <Gold.Chemscore.Rot>
1.7046

> <Gold.Chemscore.Internal.Correction>
   9.000000E+99

> <Gold.Chemscore.Hbonds>
donor molecule, donor type, donor heavy atom, donor atom, acceptor molecule, acceptor atom, score
      P1  H  6896  6907       L1    19  0.68
      P1  H  7989  7998       L1     1  0.98
      P1  H  7997  8008       L1    10  0.21
      P1  H 10752 10764       L1    12  0.46
      P1  H 10752 10765       L1    13  0.01

> <Gold.Chemscore.Hbond.Weighted>
-11.9566

> <Gold.Chemscore.Metal.Weighted>
-0.0000

> <Gold.Chemscore.Lipo.Weighted>
-10.7753

> <Gold.Chemscore.Internal_Hbond.Weighted>
0.0000

> <Gold.Chemscore.DEClash.Weighted>
0.3441

> <Gold.Chemscore.DEInternal.Weighted>
2.3214

> <Gold.Chemscore.Rot.Weighted>
4.3638

> <Gold.Chemscore.Internal.Correction.Weighted>
   9.000000E+99

> <Gold.Protein.RotatedTorsions>
[ 6907 6896 6895 6894 ] final   35.28 input  -60.11 | X-H torsion
[ 7974 7965 7964 7962 ] final   61.39 input  175.53 | X-H torsion
[ 8008 7997 7996 7995 ] final  -45.78 input   59.86 | X-H torsion
[ 10167 10162 10161 10158 ] final   90.19 input  -65.29 | X-H torsion
[ 10718 10713 10712 10709 ] final  125.19 input   66.30 | X-H torsion
[ 10763 10752 10751 10750 ] final  -72.07 input  -60.55 | X-H torsion
[ 11005 11000 10999 10996 ] final  -76.18 input  -57.11 | X-H torsion

> <Gold.Protein.ActiveResidues>
 VAL166  LYS551  ARG553  GLY616  TRP617  ASP618  TYR619  PRO620  LYS621  CYS622 
 ASP623  PHE694  ASN695  SER759  ASP760  ASP761  ALA762  ILE779  LEU786  VAL792 
 PHE793  MET794  SER795  GLU796  ALA797  LYS798  CYS799  TRP800  GLU811  SER814 

> <Gold.Protein.RotatedAtoms>
  152.1140  134.9254  160.0565 H   0  0  0  0  0  0  0  0  0  0  0  0  # atno 6907 bound_to 6896
  152.0420  133.3977  159.4349 H   0  0  0  0  0  0  0  0  0  0  0  0  # atno 6908 bound_to 6896
  150.6845  134.3324  159.4876 H   0  0  0  0  0  0  0  0  0  0  0  0  # atno 6909 bound_to 6896
  145.8853  139.3472  143.0681 H   0  0  0  0  0  0  0  0  0  0  0  0  # atno 7974 bound_to 7965
  154.4003  140.1388  156.3904 H   0  0  0  0  0  0  0  0  0  0  0  0  # atno 8008 bound_to 7997
  155.7920  140.3478  155.5334 H   0  0  0  0  0  0  0  0  0  0  0  0  # atno 8009 bound_to 7997
  155.8570  140.0950  157.1628 H   0  0  0  0  0  0  0  0  0  0  0  0  # atno 8010 bound_to 7997
  139.8498  144.6599  150.9183 H   0  0  0  0  0  0  0  0  0  0  0  0  # atno 10167 bound_to 10162
  157.5523  131.1093  150.8681 H   0  0  0  0  0  0  0  0  0  0  0  0  # atno 10718 bound_to 10713
  154.4406  135.5942  153.6127 H   0  0  0  0  0  0  0  0  0  0  0  0  # atno 10763 bound_to 10752
  152.9805  135.5997  154.3727 H   0  0  0  0  0  0  0  0  0  0  0  0  # atno 10764 bound_to 10752
  154.3577  135.2841  155.2316 H   0  0  0  0  0  0  0  0  0  0  0  0  # atno 10765 bound_to 10752
  141.1652  133.6974  156.7630 H   0  0  0  0  0  0  0  0  0  0  0  0  # atno 11005 bound_to 11000
  145.8974  140.9265  143.0521 LP  0  0  0  0  0  0  0  0  0  0  0  0  # atno 17320 bound_to 7965
  144.6728  140.0986  143.7461 LP  0  0  0  0  0  0  0  0  0  0  0  0  # atno 17321 bound_to 7965
  140.7789  143.3837  151.1431 LP  0  0  0  0  0  0  0  0  0  0  0  0  # atno 17342 bound_to 10162
  139.7476  143.8827  152.3068 LP  0  0  0  0  0  0  0  0  0  0  0  0  # atno 17343 bound_to 10162
  156.9202  130.5312  149.5279 LP  0  0  0  0  0  0  0  0  0  0  0  0  # atno 17370 bound_to 10713
  156.0588  130.5644  150.9148 LP  0  0  0  0  0  0  0  0  0  0  0  0  # atno 17371 bound_to 10713
  140.2520  134.8533  157.3676 LP  0  0  0  0  0  0  0  0  0  0  0  0  # atno 17394 bound_to 11000
  140.1694  134.4628  155.7842 LP  0  0  0  0  0  0  0  0  0  0  0  0  # atno 17395 bound_to 11000

$$$$
