AV-unprocessed.smi:1126|AV-procd|sdf|4839|dock9
  -GOLD-   22720 3403D 1   1.00000     0.00000
 Structure written by MMmdl.
 47 48  0  0  0  0  0  0  0  0  1 V2000
  153.4695  142.4297  160.2031 C   0  0  0  0  0  0  0  0  0  0  0  0
  152.1156  142.5602  159.8072 O   0  0  0  0  0  0  0  0  0  0  0  0
  151.9691  143.3026  158.6076 C   0  0  0  0  0  0  0  0  0  0  0  0
  150.5801  143.0585  157.9936 C   0  0  0  0  0  0  0  0  0  0  0  0
  150.4298  141.8173  157.2310 N   0  0  0  0  0  0  0  0  0  0  0  0
  151.3278  141.7522  156.0748 C   0  0  0  0  0  0  0  0  0  0  0  0
  151.1960  140.4345  155.2912 C   0  0  0  0  0  0  0  0  0  0  0  0
  149.7418  140.2067  154.8296 C   0  0  0  0  0  0  0  0  0  0  0  0
  149.5453  138.8598  154.1099 C   0  0  0  0  0  0  0  0  0  0  0  0
  148.4400  138.9171  153.1628 N   0  0  0  0  0  0  0  0  0  0  0  0
  147.1567  138.6876  153.4754 C   0  0  0  0  0  0  0  0  0  0  0  0
  146.7728  138.4217  154.6142 O   0  0  0  0  0  0  0  0  0  0  0  0
  146.1503  138.7698  152.3270 C   0  0  0  0  0  0  0  0  0  0  0  0
  145.4457  137.5115  152.1582 N   0  0  0  0  0  0  0  0  0  0  0  0
  145.6456  136.5405  151.1996 C   0  0  0  0  0  0  0  0  0  0  0  0
  144.7434  135.5410  151.4317 C   0  0  0  0  0  0  0  0  0  0  0  0
  144.5463  134.2593  150.6750 C   0  0  0  0  0  0  0  0  0  0  0  0
  144.0251  136.0021  152.5713 C   0  0  0  0  0  0  0  0  0  0  0  0
  144.4463  137.1794  153.0040 N   0  0  0  0  0  0  0  0  0  0  0  0
  148.8076  140.3312  156.0466 C   0  0  0  0  0  0  0  0  0  0  0  0
  149.0450  141.6575  156.7868 C   0  0  0  0  0  0  0  0  0  0  0  0
  153.5260  141.8641  161.1330 H   0  0  0  0  0  0  0  0  0  0  0  0
  153.9259  143.4054  160.3744 H   0  0  0  0  0  0  0  0  0  0  0  0
  154.0514  141.8980  159.4490 H   0  0  0  0  0  0  0  0  0  0  0  0
  152.1266  144.3678  158.7847 H   0  0  0  0  0  0  0  0  0  0  0  0
  152.7334  142.9767  157.9003 H   0  0  0  0  0  0  0  0  0  0  0  0
  149.8734  143.0305  158.8237 H   0  0  0  0  0  0  0  0  0  0  0  0
  150.2872  143.9160  157.3860 H   0  0  0  0  0  0  0  0  0  0  0  0
  151.1366  142.5951  155.4088 H   0  0  0  0  0  0  0  0  0  0  0  0
  152.3633  141.8412  156.3998 H   0  0  0  0  0  0  0  0  0  0  0  0
  151.8714  140.4554  154.4355 H   0  0  0  0  0  0  0  0  0  0  0  0
  151.5194  139.6042  155.9205 H   0  0  0  0  0  0  0  0  0  0  0  0
  149.4826  141.0027  154.1296 H   0  0  0  0  0  0  0  0  0  0  0  0
  150.4570  138.5791  153.5801 H   0  0  0  0  0  0  0  0  0  0  0  0
  149.3470  138.0745  154.8413 H   0  0  0  0  0  0  0  0  0  0  0  0
  148.6677  139.1240  152.2007 H   0  0  0  0  0  0  0  0  0  0  0  0
  145.4203  139.5555  152.5257 H   0  0  0  0  0  0  0  0  0  0  0  0
  146.6600  139.0326  151.3985 H   0  0  0  0  0  0  0  0  0  0  0  0
  146.4050  136.6422  150.4381 H   0  0  0  0  0  0  0  0  0  0  0  0
  143.4893  134.0221  150.5525 H   0  0  0  0  0  0  0  0  0  0  0  0
  145.0079  133.4160  151.1886 H   0  0  0  0  0  0  0  0  0  0  0  0
  144.9823  134.3058  149.6768 H   0  0  0  0  0  0  0  0  0  0  0  0
  143.2136  135.5180  153.0943 H   0  0  0  0  0  0  0  0  0  0  0  0
  147.7663  140.2692  155.7291 H   0  0  0  0  0  0  0  0  0  0  0  0
  148.9738  139.4982  156.7313 H   0  0  0  0  0  0  0  0  0  0  0  0
  148.3766  141.6995  157.6476 H   0  0  0  0  0  0  0  0  0  0  0  0
  148.7651  142.4905  156.1397 H   0  0  0  0  0  0  0  0  0  0  0  0
  1  2  1  0  0  0  0
  1 22  1  0  0  0  0
  1 23  1  0  0  0  0
  1 24  1  0  0  0  0
  2  3  1  0  0  0  0
  3  4  1  0  0  0  0
  3 25  1  0  0  0  0
  3 26  1  0  0  0  0
  4  5  1  0  0  0  0
  4 27  1  0  0  0  0
  4 28  1  0  0  0  0
  5 21  1  0  0  0  0
  5  6  1  0  0  0  0
  6  7  1  0  0  0  0
  6 29  1  0  0  0  0
  6 30  1  0  0  0  0
  7  8  1  0  0  0  0
  7 31  1  0  0  0  0
  7 32  1  0  0  0  0
  8  9  1  0  0  0  0
  8 20  1  0  0  0  0
  8 33  1  0  0  0  0
  9 10  1  0  0  0  0
  9 34  1  0  0  0  0
  9 35  1  0  0  0  0
 10 11  1  0  0  0  0
 10 36  1  0  0  0  0
 11 12  2  0  0  0  0
 11 13  1  0  0  0  0
 13 14  1  0  0  0  0
 13 37  1  0  0  0  0
 13 38  1  0  0  0  0
 14 19  1  0  0  0  0
 14 15  1  0  0  0  0
 15 16  2  0  0  0  0
 15 39  1  0  0  0  0
 16 17  1  0  0  0  0
 16 18  1  0  0  0  0
 17 40  1  0  0  0  0
 17 41  1  0  0  0  0
 17 42  1  0  0  0  0
 18 19  2  0  0  0  0
 18 43  1  0  0  0  0
 20 21  1  0  0  0  0
 20 44  1  0  0  0  0
 20 45  1  0  0  0  0
 21 46  1  0  0  0  0
 21 47  1  0  0  0  0
M  END
> <s_m_source_file>
AV-unprocessed.smi

> <i_m_source_file_index>
1126

> <i_lp_mmshare_version>
43012

> <i_f3d_flags>
0

> <s_epik_input>
W0NIM11PW0NIMl1bQ0gyXU4xW0NIMl1bQ0gyXVtDSF0oW0NIMl1bQ0gyXTEpW0NIMl1bTkhdQyg9TylbQ0gyXW4yW2NIXWMoW0NIM10pW2NIXW4y

> <s_epik_cmdline>
J2VwaWtfcHl0aG9uJywgJy1waCcsICc3LjAnLCAnLXRuJywgJzgnLCAnLW1hJywgJzIwMCcsICctbWV0YWxfYmluZGluZycsICctaW1hZScsICc8aW5maWxlLm1hZT4nLCAnLW9tYWUnLCAnPG91dGZpbGUubWFlPic=

> <r_lp_tautomer_probability>
1

> <r_epik_Ionization_Penalty>
2.42913

> <r_epik_Ionization_Penalty_Charging>
0

> <r_epik_Ionization_Penalty_Neutral>
2.42913

> <r_epik_State_Penalty>
2.58903

> <r_epik_Charging_Adjusted_Penalty>
2.58903

> <i_epik_Tot_Q>
0

> <i_epik_Tot_abs_Q>
0

> <r_epik_Metal_State_Penalty>
2.58902

> <b_epik_Metal_Only>
0

> <s_lp_Force_Field>
OPLS_2005

> <r_lp_Energy>
26.3674

> <b_lp_Chiralities_Consistent>
1

> <s_lp_Variant>
AV-unprocessed.smi:1126-3

> <Gold.Version>
5.8.1

> <Gold.Id.Protein>
6NUR|6NUR_protein|mol2

> <Gold.PLP.Fitness>
40.8944

> <Gold.PLP.PLP>
-38.1483

> <Gold.PLP.part.hbond>
-2.3679

> <Gold.PLP.part.metal>
0.0000

> <Gold.PLP.part.buried>
-2.4458

> <Gold.PLP.part.nonpolar>
-34.5244

> <Gold.PLP.part.repulsive>
0.6320

> <Gold.PLP.ligand.clash>
0.0000

> <Gold.PLP.ligand.torsion>
0.8773

> <Gold.PLP.Chemscore.Hbond>
0.8160

> <Gold.PLP.Chemscore.CHOScore>
0.6616

> <Gold.PLP.Chemscore.Metal>
0.0000

> <Gold.Chemscore.Hbonds>
donor molecule, donor type, donor heavy atom, donor atom, acceptor molecule, acceptor atom, score
      L1  H    10    36       P1  7957  0.96
      L1  C    15    39       P1  7948  0.05

> <Gold.PLP.Chemscore.Internal.Correction>
0.0680

> <Gold.Rescore>
     Score         DG    S(hbond)    S(metal)    S(lipo)     H(rot)  DE(clash)    DE(int)     intcor
     13.31     -14.34       0.92        0.00      93.67       2.03       0.07       0.95       ----

> <Gold.Chemscore.Fitness>
13.3096

> <Gold.Chemscore.DG>
-14.3352

> <Gold.Chemscore.ZeroCoef>
-5.4800

> <Gold.Chemscore.Hbond>
0.9230

> <Gold.Chemscore.Metal>
0.0000

> <Gold.Chemscore.Lipo>
93.6721

> <Gold.Chemscore.Internal_Hbond>
0.0000

> <Gold.Chemscore.DEClash>
0.0746

> <Gold.Chemscore.DEInternal>
0.9510

> <Gold.Chemscore.Rot>
2.0263

> <Gold.Chemscore.Internal.Correction>
   9.000000E+99

> <Gold.Chemscore.Hbonds>
donor molecule, donor type, donor heavy atom, donor atom, acceptor molecule, acceptor atom, score
      L1  H    10    36       P1  7957  0.92

> <Gold.Chemscore.Hbond.Weighted>
-3.0828

> <Gold.Chemscore.Metal.Weighted>
-0.0000

> <Gold.Chemscore.Lipo.Weighted>
-10.9596

> <Gold.Chemscore.Internal_Hbond.Weighted>
0.0000

> <Gold.Chemscore.DEClash.Weighted>
0.0746

> <Gold.Chemscore.DEInternal.Weighted>
0.9510

> <Gold.Chemscore.Rot.Weighted>
5.1872

> <Gold.Chemscore.Internal.Correction.Weighted>
   9.000000E+99

> <Gold.Protein.RotatedTorsions>
[ 6907 6896 6895 6894 ] final  168.45 input  -60.11 | X-H torsion
[ 7974 7965 7964 7962 ] final -123.32 input  175.53 | X-H torsion
[ 8008 7997 7996 7995 ] final   -9.62 input   59.86 | X-H torsion
[ 10167 10162 10161 10158 ] final  131.67 input  -65.29 | X-H torsion
[ 10718 10713 10712 10709 ] final   58.25 input   66.30 | X-H torsion
[ 10763 10752 10751 10750 ] final -111.58 input  -60.55 | X-H torsion
[ 11005 11000 10999 10996 ] final  -85.09 input  -57.11 | X-H torsion

> <Gold.Protein.ActiveResidues>
 VAL166  LYS551  ARG553  GLY616  TRP617  ASP618  TYR619  PRO620  LYS621  CYS622 
 ASP623  PHE694  ASN695  SER759  ASP760  ASP761  ALA762  ILE779  LEU786  VAL792 
 PHE793  MET794  SER795  GLU796  ALA797  LYS798  CYS799  TRP800  GLU811  SER814 

> <Gold.Protein.RotatedAtoms>
  151.8474  133.3434  159.3661 H   0  0  0  0  0  0  0  0  0  0  0  0  # atno 6907 bound_to 6896
  150.7216  134.5332  159.5720 H   0  0  0  0  0  0  0  0  0  0  0  0  # atno 6908 bound_to 6896
  152.2819  134.7820  160.0446 H   0  0  0  0  0  0  0  0  0  0  0  0  # atno 6909 bound_to 6896
  145.0200  140.7980  143.4387 H   0  0  0  0  0  0  0  0  0  0  0  0  # atno 7974 bound_to 7965
  154.5629  140.2350  155.8307 H   0  0  0  0  0  0  0  0  0  0  0  0  # atno 8008 bound_to 7997
  156.2044  140.3043  155.9555 H   0  0  0  0  0  0  0  0  0  0  0  0  # atno 8009 bound_to 7997
  155.2854  140.0424  157.3009 H   0  0  0  0  0  0  0  0  0  0  0  0  # atno 8010 bound_to 7997
  139.5373  144.6696  151.4742 H   0  0  0  0  0  0  0  0  0  0  0  0  # atno 10167 bound_to 10162
  157.5581  130.8815  149.9067 H   0  0  0  0  0  0  0  0  0  0  0  0  # atno 10718 bound_to 10713
  154.8307  135.4522  154.1061 H   0  0  0  0  0  0  0  0  0  0  0  0  # atno 10763 bound_to 10752
  153.2336  135.6908  153.7868 H   0  0  0  0  0  0  0  0  0  0  0  0  # atno 10764 bound_to 10752
  153.7241  135.3337  155.3249 H   0  0  0  0  0  0  0  0  0  0  0  0  # atno 10765 bound_to 10752
  141.1644  133.7380  156.8963 H   0  0  0  0  0  0  0  0  0  0  0  0  # atno 11005 bound_to 11000
  145.1909  139.2302  143.5243 LP  0  0  0  0  0  0  0  0  0  0  0  0  # atno 17320 bound_to 7965
  146.3484  140.1704  142.8589 LP  0  0  0  0  0  0  0  0  0  0  0  0  # atno 17321 bound_to 7965
  140.6586  143.8546  150.6863 LP  0  0  0  0  0  0  0  0  0  0  0  0  # atno 17342 bound_to 10162
  140.1933  143.4018  152.1846 LP  0  0  0  0  0  0  0  0  0  0  0  0  # atno 17343 bound_to 10162
  156.0637  130.3695  150.0926 LP  0  0  0  0  0  0  0  0  0  0  0  0  # atno 17370 bound_to 10713
  156.9093  130.9646  151.3565 LP  0  0  0  0  0  0  0  0  0  0  0  0  # atno 17371 bound_to 10713
  140.1613  134.9163  157.2718 LP  0  0  0  0  0  0  0  0  0  0  0  0  # atno 17394 bound_to 11000
  140.2608  134.3574  155.7407 LP  0  0  0  0  0  0  0  0  0  0  0  0  # atno 17395 bound_to 11000

$$$$
