AV-unprocessed.smi:2720|AV-procd|sdf|10499|dock1
  -GOLD-   2272014543D 1   1.00000     0.00000
 Structure written by MMmdl.
 32 33  0  0  0  0  0  0  0  0  3 V2000
  147.4093  134.8156  153.4259 O   0  0  0  0  0  0  0  0  0  0  0  0
  147.6639  133.4321  153.2567 C   0  0  0  0  0  0  0  0  0  0  0  0
  147.4393  133.1126  151.7542 C   0  0  0  0  0  0  0  0  0  0  0  0
  146.0400  133.4034  151.2307 C   0  0  0  0  0  0  0  0  0  0  0  0
  145.1247  132.3532  150.9914 C   0  0  0  0  0  0  0  0  0  0  0  0
  143.8376  132.6588  150.5034 C   0  0  0  0  0  0  0  0  0  0  0  0
  143.4942  133.9443  150.2695 N   0  3  0  0  0  0  0  0  0  0  0  0
  144.3383  134.9773  150.4819 C   0  0  0  0  0  0  0  0  0  0  0  0
  145.6387  134.7323  150.9683 C   0  0  0  0  0  0  0  0  0  0  0  0
  149.1361  133.1648  153.6485 C   0  0  0  0  0  0  0  0  0  0  0  0
  149.4035  133.3830  155.1496 C   0  0  0  0  0  0  0  0  0  0  0  0
  148.4813  132.5712  155.9703 N   0  3  0  0  0  0  0  0  0  0  0  0
  147.0606  132.8685  155.6938 C   0  0  0  0  0  0  0  0  0  0  0  0
  146.7269  132.6428  154.2064 C   0  0  0  0  0  0  0  0  0  0  0  0
  147.9071  135.2977  152.7824 H   0  0  0  0  0  0  0  0  0  0  0  0
  148.1716  133.6343  151.1358 H   0  0  0  0  0  0  0  0  0  0  0  0
  147.6265  132.0515  151.5841 H   0  0  0  0  0  0  0  0  0  0  0  0
  145.4013  131.3258  151.1792 H   0  0  0  0  0  0  0  0  0  0  0  0
  143.0784  131.9194  150.2937 H   0  0  0  0  0  0  0  0  0  0  0  0
  143.9512  135.9606  150.2572 H   0  0  0  0  0  0  0  0  0  0  0  0
  146.3174  135.5556  151.1386 H   0  0  0  0  0  0  0  0  0  0  0  0
  149.3956  132.1348  153.3987 H   0  0  0  0  0  0  0  0  0  0  0  0
  149.8053  133.7941  153.0601 H   0  0  0  0  0  0  0  0  0  0  0  0
  150.4295  133.1070  155.3934 H   0  0  0  0  0  0  0  0  0  0  0  0
  149.2891  134.4354  155.4129 H   0  0  0  0  0  0  0  0  0  0  0  0
  148.6517  131.5940  155.7797 H   0  0  0  0  0  0  0  0  0  0  0  0
  146.4372  132.2303  156.3205 H   0  0  0  0  0  0  0  0  0  0  0  0
  146.8471  133.8986  155.9822 H   0  0  0  0  0  0  0  0  0  0  0  0
  145.6838  132.9110  154.0345 H   0  0  0  0  0  0  0  0  0  0  0  0
  146.8079  131.5771  153.9869 H   0  0  0  0  0  0  0  0  0  0  0  0
  148.6693  132.7498  156.9468 H   0  0  0  0  0  0  0  0  0  0  0  0
  142.5579  134.1435  149.9159 H   0  0  0  0  0  0  0  0  0  0  0  0
  1  2  1  0  0  0  0
  1 15  1  0  0  0  0
  2 14  1  0  0  0  0
  2  3  1  0  0  0  0
  2 10  1  0  0  0  0
  3  4  1  0  0  0  0
  3 16  1  0  0  0  0
  3 17  1  0  0  0  0
  4  9  1  0  0  0  0
  4  5  2  0  0  0  0
  5  6  1  0  0  0  0
  5 18  1  0  0  0  0
  6  7  2  0  0  0  0
  6 19  1  0  0  0  0
  7  8  1  0  0  0  0
  7 32  1  0  0  0  0
  8  9  2  0  0  0  0
  8 20  1  0  0  0  0
  9 21  1  0  0  0  0
 10 11  1  0  0  0  0
 10 22  1  0  0  0  0
 10 23  1  0  0  0  0
 11 12  1  0  0  0  0
 11 24  1  0  0  0  0
 11 25  1  0  0  0  0
 12 13  1  0  0  0  0
 12 26  1  0  0  0  0
 12 31  1  0  0  0  0
 13 14  1  0  0  0  0
 13 27  1  0  0  0  0
 13 28  1  0  0  0  0
 14 29  1  0  0  0  0
 14 30  1  0  0  0  0
M  CHG  1   7   1
M  CHG  1  12   1
M  END
> <s_m_source_file>
AV-unprocessed.smi

> <i_m_source_file_index>
2720

> <i_lp_mmshare_version>
43012

> <i_f3d_flags>
0

> <s_epik_input>
W0NIMl0xW0NIMl1bTkhdW0NIMl1bQ0gyXUMxKFtPSF0pW0NIMl1jMltjSF1bY0hdbltjSF1bY0hdMg==

> <s_epik_cmdline>
J2VwaWtfcHl0aG9uJywgJy1waCcsICc3LjAnLCAnLXRuJywgJzgnLCAnLW1hJywgJzIwMCcsICctbWV0YWxfYmluZGluZycsICctaW1hZScsICc8aW5maWxlLm1hZT4nLCAnLW9tYWUnLCAnPG91dGZpbGUubWFlPic=

> <r_epik_Ionization_Penalty>
1.30405

> <r_epik_Ionization_Penalty_Charging>
1.30405

> <r_epik_Ionization_Penalty_Neutral>
5.30574e-07

> <r_epik_State_Penalty>
1.37793

> <r_epik_Charging_Adjusted_Penalty>
2.68198

> <i_epik_Tot_Q>
2

> <i_epik_Tot_abs_Q>
2

> <r_epik_Metal_State_Penalty>
5.40982

> <b_epik_Metal_Only>
0

> <s_lp_Force_Field>
OPLS_2005

> <r_lp_Energy>
28.3784

> <b_lp_Chiralities_Consistent>
1

> <s_lp_Variant>
AV-unprocessed.smi:2720-2

> <Gold.Version>
5.8.1

> <Gold.Id.Protein>
6NUR|6NUR_protein|mol2

> <Gold.PLP.Fitness>
34.5801

> <Gold.PLP.PLP>
-25.9867

> <Gold.PLP.part.hbond>
-2.0000

> <Gold.PLP.part.metal>
0.0000

> <Gold.PLP.part.buried>
-3.2639

> <Gold.PLP.part.nonpolar>
-21.0511

> <Gold.PLP.part.repulsive>
0.0233

> <Gold.PLP.ligand.clash>
0.0000

> <Gold.PLP.ligand.torsion>
0.2050

> <Gold.PLP.Chemscore.Hbond>
3.0000

> <Gold.PLP.Chemscore.CHOScore>
0.0000

> <Gold.PLP.Chemscore.Metal>
0.0000

> <Gold.Chemscore.Hbonds>
donor molecule, donor type, donor heavy atom, donor atom, acceptor molecule, acceptor atom, score
      L1  H     1    15       P1  7948  1.00
      L1  H     7    32       P1 10186  2.00

> <Gold.PLP.Chemscore.Internal.Correction>
0.0035

> <Gold.Rescore>
     Score         DG    S(hbond)    S(metal)    S(lipo)     H(rot)  DE(clash)    DE(int)     intcor
     15.06     -15.37       2.00        0.00      63.97       1.67       0.01       0.30       ----

> <Gold.Chemscore.Fitness>
15.0567

> <Gold.Chemscore.DG>
-15.3660

> <Gold.Chemscore.ZeroCoef>
-5.4800

> <Gold.Chemscore.Hbond>
1.9985

> <Gold.Chemscore.Metal>
0.0000

> <Gold.Chemscore.Lipo>
63.9657

> <Gold.Chemscore.Internal_Hbond>
0.0000

> <Gold.Chemscore.DEClash>
0.0069

> <Gold.Chemscore.DEInternal>
0.3023

> <Gold.Chemscore.Rot>
1.6691

> <Gold.Chemscore.Internal.Correction>
   9.000000E+99

> <Gold.Chemscore.Hbonds>
donor molecule, donor type, donor heavy atom, donor atom, acceptor molecule, acceptor atom, score
      L1  H     1    15       P1  7948  1.00
      L1  H     7    32       P1 10186  0.98

> <Gold.Chemscore.Hbond.Weighted>
-6.6748

> <Gold.Chemscore.Metal.Weighted>
-0.0000

> <Gold.Chemscore.Lipo.Weighted>
-7.4840

> <Gold.Chemscore.Internal_Hbond.Weighted>
0.0000

> <Gold.Chemscore.DEClash.Weighted>
0.0069

> <Gold.Chemscore.DEInternal.Weighted>
0.3023

> <Gold.Chemscore.Rot.Weighted>
4.2728

> <Gold.Chemscore.Internal.Correction.Weighted>
   9.000000E+99

> <Gold.Protein.RotatedTorsions>
[ 6907 6896 6895 6894 ] final -107.97 input  -60.11 | X-H torsion
[ 7974 7965 7964 7962 ] final  112.36 input  175.53 | X-H torsion
[ 8008 7997 7996 7995 ] final  133.49 input   59.86 | X-H torsion
[ 10167 10162 10161 10158 ] final  -62.02 input  -65.29 | X-H torsion
[ 10718 10713 10712 10709 ] final -106.94 input   66.30 | X-H torsion
[ 10763 10752 10751 10750 ] final   64.99 input  -60.55 | X-H torsion
[ 11005 11000 10999 10996 ] final  103.86 input  -57.11 | X-H torsion

> <Gold.Protein.ActiveResidues>
 VAL166  LYS551  ARG553  GLY616  TRP617  ASP618  TYR619  PRO620  LYS621  CYS622 
 ASP623  PHE694  ASN695  SER759  ASP760  ASP761  ALA762  ILE779  LEU786  VAL792 
 PHE793  MET794  SER795  GLU796  ALA797  LYS798  CYS799  TRP800  GLU811  SER814 

> <Gold.Protein.RotatedAtoms>
  150.7474  133.9747  159.3556 H   0  0  0  0  0  0  0  0  0  0  0  0  # atno 6907 bound_to 6896
  151.7683  135.0790  160.0365 H   0  0  0  0  0  0  0  0  0  0  0  0  # atno 6908 bound_to 6896
  152.3356  133.5971  159.5876 H   0  0  0  0  0  0  0  0  0  0  0  0  # atno 6909 bound_to 6896
  145.2305  139.2821  143.4170 H   0  0  0  0  0  0  0  0  0  0  0  0  # atno 7974 bound_to 7965
  156.2992  140.2520  156.3261 H   0  0  0  0  0  0  0  0  0  0  0  0  # atno 8008 bound_to 7997
  154.9189  140.0401  157.2006 H   0  0  0  0  0  0  0  0  0  0  0  0  # atno 8009 bound_to 7997
  154.8331  140.2879  155.5713 H   0  0  0  0  0  0  0  0  0  0  0  0  # atno 8010 bound_to 7997
  140.5967  143.2352  151.6019 H   0  0  0  0  0  0  0  0  0  0  0  0  # atno 10167 bound_to 10162
  156.0413  130.5638  150.7752 H   0  0  0  0  0  0  0  0  0  0  0  0  # atno 10718 bound_to 10713
  153.0078  135.5373  154.6596 H   0  0  0  0  0  0  0  0  0  0  0  0  # atno 10763 bound_to 10752
  154.5808  135.2850  155.0737 H   0  0  0  0  0  0  0  0  0  0  0  0  # atno 10764 bound_to 10752
  154.1866  135.6507  153.5101 H   0  0  0  0  0  0  0  0  0  0  0  0  # atno 10765 bound_to 10752
  139.8787  134.9279  156.5274 H   0  0  0  0  0  0  0  0  0  0  0  0  # atno 11005 bound_to 11000
  146.3354  140.2639  142.8603 LP  0  0  0  0  0  0  0  0  0  0  0  0  # atno 17320 bound_to 7965
  144.9681  140.8341  143.5472 LP  0  0  0  0  0  0  0  0  0  0  0  0  # atno 17321 bound_to 7965
  139.5263  144.3049  152.1042 LP  0  0  0  0  0  0  0  0  0  0  0  0  # atno 17342 bound_to 10162
  140.2223  144.4454  150.6336 LP  0  0  0  0  0  0  0  0  0  0  0  0  # atno 17343 bound_to 10162
  157.5235  131.0933  151.0048 LP  0  0  0  0  0  0  0  0  0  0  0  0  # atno 17370 bound_to 10713
  157.0372  130.5735  149.5351 LP  0  0  0  0  0  0  0  0  0  0  0  0  # atno 17371 bound_to 10713
  140.8406  133.8208  155.9071 LP  0  0  0  0  0  0  0  0  0  0  0  0  # atno 17394 bound_to 11000
  140.9241  134.2104  157.4907 LP  0  0  0  0  0  0  0  0  0  0  0  0  # atno 17395 bound_to 11000

$$$$
