AV-unprocessed.smi:2751|AV-procd|sdf|10603|dock8
  -GOLD-   2272015 53D 1   1.00000     0.00000
 Structure written by MMmdl.
 33 34  0  0  0  0  0  0  0  0  2 V2000
  151.4318  138.9678  158.2585 O   0  0  0  0  0  0  0  0  0  0  0  0
  152.3176  139.6750  157.7721 C   0  0  0  0  0  0  0  0  0  0  0  0
  153.2094  140.2753  158.5739 N   0  0  0  0  0  0  0  0  0  0  0  0
  153.2497  140.1814  160.0295 C   0  0  0  0  0  0  0  0  0  0  0  0
  153.2194  141.5715  160.6879 C   0  0  0  0  0  0  0  0  0  0  0  0
  152.3199  142.5676  159.9394 C   0  0  2  0  0  0  0  0  0  0  0  0
  153.1306  143.4864  159.0046 C   0  0  0  0  0  0  0  0  0  0  0  0
  152.2144  144.5140  158.3302 C   0  0  0  0  0  0  0  0  0  0  0  0
  151.4028  145.2599  159.3945 C   0  0  0  0  0  0  0  0  0  0  0  0
  150.6845  144.2612  160.3156 C   0  0  0  0  0  0  0  0  0  0  0  0
  151.6314  143.3704  160.8974 O   0  0  0  0  0  0  0  0  0  0  0  0
  152.5057  139.9326  156.4578 N   0  5  0  0  0  0  0  0  0  0  0  0
  151.6516  139.4332  155.5499 C   0  0  0  0  0  0  0  0  0  0  0  0
  150.7773  140.1283  154.8202 N   0  0  0  0  0  0  0  0  0  0  0  0
  150.1132  139.1976  154.0360 C   0  0  0  0  0  0  0  0  0  0  0  0
  150.6181  137.9614  154.3337 C   0  0  0  0  0  0  0  0  0  0  0  0
  151.5852  138.0962  155.2910 O   0  0  0  0  0  0  0  0  0  0  0  0
  153.9179  140.8444  158.1341 H   0  0  0  0  0  0  0  0  0  0  0  0
  152.4223  139.5673  160.3890 H   0  0  0  0  0  0  0  0  0  0  0  0
  154.1652  139.6577  160.3051 H   0  0  0  0  0  0  0  0  0  0  0  0
  152.8875  141.4825  161.7232 H   0  0  0  0  0  0  0  0  0  0  0  0
  154.2338  141.9708  160.7252 H   0  0  0  0  0  0  0  0  0  0  0  0
  151.5916  142.0072  159.3502 H   0  0  0  0  0  0  0  0  0  0  0  0
  153.9019  144.0050  159.5759 H   0  0  0  0  0  0  0  0  0  0  0  0
  153.6469  142.8955  158.2472 H   0  0  0  0  0  0  0  0  0  0  0  0
  152.8004  145.2157  157.7365 H   0  0  0  0  0  0  0  0  0  0  0  0
  151.5383  144.0062  157.6412 H   0  0  0  0  0  0  0  0  0  0  0  0
  152.0676  145.8883  159.9885 H   0  0  0  0  0  0  0  0  0  0  0  0
  150.6806  145.9259  158.9217 H   0  0  0  0  0  0  0  0  0  0  0  0
  150.1661  144.7933  161.1132 H   0  0  0  0  0  0  0  0  0  0  0  0
  149.9291  143.6978  159.7658 H   0  0  0  0  0  0  0  0  0  0  0  0
  149.3426  139.4857  153.3366 H   0  0  0  0  0  0  0  0  0  0  0  0
  150.4144  136.9605  153.9843 H   0  0  0  0  0  0  0  0  0  0  0  0
  1  2  2  0  0  0  0
  2 12  1  0  0  0  0
  2  3  1  0  0  0  0
  3  4  1  0  0  0  0
  3 18  1  0  0  0  0
  4  5  1  0  0  0  0
  4 19  1  0  0  0  0
  4 20  1  0  0  0  0
  5  6  1  0  0  0  0
  5 21  1  0  0  0  0
  5 22  1  0  0  0  0
  6 11  1  0  0  0  0
  6  7  1  0  0  0  0
  6 23  1  0  0  0  0
  7  8  1  0  0  0  0
  7 24  1  0  0  0  0
  7 25  1  0  0  0  0
  8  9  1  0  0  0  0
  8 26  1  0  0  0  0
  8 27  1  0  0  0  0
  9 10  1  0  0  0  0
  9 28  1  0  0  0  0
  9 29  1  0  0  0  0
 10 11  1  0  0  0  0
 10 30  1  0  0  0  0
 10 31  1  0  0  0  0
 12 13  1  0  0  0  0
 13 17  1  0  0  0  0
 13 14  2  0  0  0  0
 14 15  1  0  0  0  0
 15 32  1  0  0  0  0
 15 16  2  0  0  0  0
 16 33  1  0  0  0  0
 16 17  1  0  0  0  0
M  CHG  1  12  -1
M  END
> <s_m_source_file>
AV-unprocessed.smi

> <i_m_source_file_index>
2751

> <i_lp_mmshare_version>
43012

> <i_f3d_flags>
0

> <s_epik_input>
bzFbY0hdW2NIXW5jMVtOSF1DKD1PKVtOSF1bQ0gyXVtDSDJdW0NAQEhdMltDSDJdW0NIMl1bQ0gyXVtDSDJdTzI=

> <s_epik_cmdline>
J2VwaWtfcHl0aG9uJywgJy1waCcsICc3LjAnLCAnLXRuJywgJzgnLCAnLW1hJywgJzIwMCcsICctbWV0YWxfYmluZGluZycsICctaW1hZScsICc8aW5maWxlLm1hZT4nLCAnLW9tYWUnLCAnPG91dGZpbGUubWFlPic=

> <r_lp_tautomer_probability>
0.107061

> <r_epik_Ionization_Penalty>
11.077

> <r_epik_Ionization_Penalty_Charging>
7.79122

> <r_epik_Ionization_Penalty_Neutral>
3.28583

> <r_epik_State_Penalty>
5.8984

> <r_epik_Charging_Adjusted_Penalty>
13.6896

> <i_epik_Tot_Q>
-1

> <i_epik_Tot_abs_Q>
1

> <r_epik_Metal_State_Penalty>
1.82322

> <b_epik_Metal_Only>
1

> <s_lp_Force_Field>
OPLS_2005

> <r_lp_Energy>
3.95886

> <b_lp_Chiralities_Consistent>
1

> <s_lp_Variant>
AV-unprocessed.smi:2751-9

> <Gold.Version>
5.8.1

> <Gold.Id.Protein>
6NUR|6NUR_protein|mol2

> <Gold.PLP.Fitness>
49.7682

> <Gold.PLP.PLP>
-38.4366

> <Gold.PLP.part.hbond>
-2.0000

> <Gold.PLP.part.metal>
0.0000

> <Gold.PLP.part.buried>
-4.7181

> <Gold.PLP.part.nonpolar>
-32.8179

> <Gold.PLP.part.repulsive>
0.9432

> <Gold.PLP.ligand.clash>
0.0000

> <Gold.PLP.ligand.torsion>
1.3294

> <Gold.PLP.Chemscore.Hbond>
2.9000

> <Gold.PLP.Chemscore.CHOScore>
1.7589

> <Gold.PLP.Chemscore.Metal>
0.0000

> <Gold.Chemscore.Hbonds>
donor molecule, donor type, donor heavy atom, donor atom, acceptor molecule, acceptor atom, score
      P1  H  7989  7998       L1    14  0.75
      P1  H  7997  8010       L1    12  2.00
      L1  C    15    32       P1  7957  0.94
      L1  C    16    33       P1  7948  0.59
      L1  C    16    33       P1  7949  0.16

> <Gold.PLP.Chemscore.Internal.Correction>
0.0136

> <Gold.Rescore>
     Score         DG    S(hbond)    S(metal)    S(lipo)     H(rot)  DE(clash)    DE(int)     intcor
     16.67     -18.05       1.71        0.00      93.84       1.60       0.09       1.30       ----

> <Gold.Chemscore.Fitness>
16.6707

> <Gold.Chemscore.DG>
-18.0522

> <Gold.Chemscore.ZeroCoef>
-5.4800

> <Gold.Chemscore.Hbond>
1.7068

> <Gold.Chemscore.Metal>
0.0000

> <Gold.Chemscore.Lipo>
93.8424

> <Gold.Chemscore.Internal_Hbond>
0.0000

> <Gold.Chemscore.DEClash>
0.0852

> <Gold.Chemscore.DEInternal>
1.2964

> <Gold.Chemscore.Rot>
1.6048

> <Gold.Chemscore.Internal.Correction>
   9.000000E+99

> <Gold.Chemscore.Hbonds>
donor molecule, donor type, donor heavy atom, donor atom, acceptor molecule, acceptor atom, score
      P1  H  7989  7998       L1    14  0.07
      P1  H  7997  8010       L1    12  0.63

> <Gold.Chemscore.Hbond.Weighted>
-5.7009

> <Gold.Chemscore.Metal.Weighted>
-0.0000

> <Gold.Chemscore.Lipo.Weighted>
-10.9796

> <Gold.Chemscore.Internal_Hbond.Weighted>
0.0000

> <Gold.Chemscore.DEClash.Weighted>
0.0852

> <Gold.Chemscore.DEInternal.Weighted>
1.2964

> <Gold.Chemscore.Rot.Weighted>
4.1082

> <Gold.Chemscore.Internal.Correction.Weighted>
   9.000000E+99

> <Gold.Protein.RotatedTorsions>
[ 6907 6896 6895 6894 ] final -102.83 input  -60.11 | X-H torsion
[ 7974 7965 7964 7962 ] final  135.02 input  175.53 | X-H torsion
[ 8008 7997 7996 7995 ] final   87.87 input   59.86 | X-H torsion
[ 10167 10162 10161 10158 ] final  167.30 input  -65.29 | X-H torsion
[ 10718 10713 10712 10709 ] final  -21.72 input   66.30 | X-H torsion
[ 10763 10752 10751 10750 ] final  -41.11 input  -60.55 | X-H torsion
[ 11005 11000 10999 10996 ] final -167.33 input  -57.11 | X-H torsion

> <Gold.Protein.ActiveResidues>
 VAL166  LYS551  ARG553  GLY616  TRP617  ASP618  TYR619  PRO620  LYS621  CYS622 
 ASP623  PHE694  ASN695  SER759  ASP760  ASP761  ALA762  ILE779  LEU786  VAL792 
 PHE793  MET794  SER795  GLU796  ALA797  LYS798  CYS799  TRP800  GLU811  SER814 

> <Gold.Protein.RotatedAtoms>
  150.7213  134.0521  159.3801 H   0  0  0  0  0  0  0  0  0  0  0  0  # atno 6907 bound_to 6896
  151.8499  135.0559  160.0467 H   0  0  0  0  0  0  0  0  0  0  0  0  # atno 6908 bound_to 6896
  152.2799  133.5424  159.5527 H   0  0  0  0  0  0  0  0  0  0  0  0  # atno 6909 bound_to 6896
  144.9705  139.4611  143.5435 H   0  0  0  0  0  0  0  0  0  0  0  0  # atno 7974 bound_to 7965
  155.9807  140.3377  155.6660 H   0  0  0  0  0  0  0  0  0  0  0  0  # atno 8008 bound_to 7997
  155.6552  140.0710  157.2591 H   0  0  0  0  0  0  0  0  0  0  0  0  # atno 8009 bound_to 7997
  154.4191  140.1718  156.1705 H   0  0  0  0  0  0  0  0  0  0  0  0  # atno 8010 bound_to 7997
  139.4942  144.3936  151.9489 H   0  0  0  0  0  0  0  0  0  0  0  0  # atno 10167 bound_to 10162
  156.5143  130.4617  149.6631 H   0  0  0  0  0  0  0  0  0  0  0  0  # atno 10718 bound_to 10713
  153.9571  135.6744  153.4744 H   0  0  0  0  0  0  0  0  0  0  0  0  # atno 10763 bound_to 10752
  153.0856  135.4900  154.8587 H   0  0  0  0  0  0  0  0  0  0  0  0  # atno 10764 bound_to 10752
  154.7293  135.3134  154.8877 H   0  0  0  0  0  0  0  0  0  0  0  0  # atno 10765 bound_to 10752
  140.5544  134.5396  157.5129 H   0  0  0  0  0  0  0  0  0  0  0  0  # atno 11005 bound_to 11000
  146.3380  139.8914  142.8808 LP  0  0  0  0  0  0  0  0  0  0  0  0  # atno 17320 bound_to 7965
  145.2566  141.0062  143.3850 LP  0  0  0  0  0  0  0  0  0  0  0  0  # atno 17321 bound_to 7965
  140.3374  144.3244  150.5974 LP  0  0  0  0  0  0  0  0  0  0  0  0  # atno 17342 bound_to 10162
  140.5594  143.2194  151.7791 LP  0  0  0  0  0  0  0  0  0  0  0  0  # atno 17343 bound_to 10162
  156.3210  130.7281  151.2192 LP  0  0  0  0  0  0  0  0  0  0  0  0  # atno 17370 bound_to 10713
  157.7446  131.0455  150.4849 LP  0  0  0  0  0  0  0  0  0  0  0  0  # atno 17371 bound_to 10713
  139.9439  134.7737  156.0610 LP  0  0  0  0  0  0  0  0  0  0  0  0  # atno 17394 bound_to 11000
  141.1152  133.6630  156.3076 LP  0  0  0  0  0  0  0  0  0  0  0  0  # atno 17395 bound_to 11000

$$$$
