AV-unprocessed.smi:2725|AV-procd|sdf|10516|dock1
  -GOLD-   2272014553D 1   1.00000     0.00000
 Structure written by MMmdl.
 44 45  0  0  0  0  0  0  0  0  1 V2000
  149.1016  140.1287  157.2957 O   0  0  0  0  0  0  0  0  0  0  0  0
  149.3355  141.3141  157.0621 C   0  0  0  0  0  0  0  0  0  0  0  0
  150.0018  142.1931  158.1230 C   0  0  0  0  0  0  0  0  0  0  0  0
  151.3947  142.6866  157.6910 C   0  0  0  0  0  0  0  0  0  0  0  0
  151.9966  143.7153  158.6643 C   0  0  0  0  0  0  0  0  0  0  0  0
  152.0896  143.2357  160.1166 C   0  0  0  0  0  0  0  0  0  0  0  0
  152.1801  144.5125  160.9612 C   0  0  0  0  0  0  0  0  0  0  0  0
  151.6472  145.6531  160.0810 C   0  0  0  0  0  0  0  0  0  0  0  0
  151.1744  145.0004  158.7788 C   0  0  0  0  0  0  0  0  0  0  0  0
  149.0474  141.9093  155.8950 N   0  0  0  0  0  0  0  0  0  0  0  0
  148.4490  141.2565  154.7308 C   0  0  1  0  0  0  0  0  0  0  0  0
  149.1952  139.9425  154.4144 C   0  0  0  0  0  0  0  0  0  0  0  0
  150.5910  140.1534  154.3972 O   0  0  0  0  0  0  0  0  0  0  0  0
  146.9520  140.9970  155.0046 C   0  0  0  0  0  0  0  0  0  0  0  0
  146.0700  142.2181  154.7958 C   0  0  0  0  0  0  0  0  0  0  0  0
  146.1428  142.9667  153.6010 C   0  0  0  0  0  0  0  0  0  0  0  0
  145.2982  144.0840  153.4565 C   0  0  0  0  0  0  0  0  0  0  0  0
  144.4188  144.4099  154.5069 C   0  0  0  0  0  0  0  0  0  0  0  0
  144.4227  143.5994  155.6597 C   0  0  0  0  0  0  0  0  0  0  0  0
  145.2285  142.5258  155.8082 N   0  0  0  0  0  0  0  0  0  0  0  0
  149.3447  143.0410  158.3170 H   0  0  0  0  0  0  0  0  0  0  0  0
  150.0821  141.6406  159.0605 H   0  0  0  0  0  0  0  0  0  0  0  0
  152.0693  141.8318  157.6217 H   0  0  0  0  0  0  0  0  0  0  0  0
  151.3465  143.1171  156.6896 H   0  0  0  0  0  0  0  0  0  0  0  0
  152.9979  143.9860  158.3247 H   0  0  0  0  0  0  0  0  0  0  0  0
  151.1846  142.6890  160.3850 H   0  0  0  0  0  0  0  0  0  0  0  0
  152.9365  142.5693  160.2839 H   0  0  0  0  0  0  0  0  0  0  0  0
  151.6076  144.4127  161.8840 H   0  0  0  0  0  0  0  0  0  0  0  0
  153.2155  144.7116  161.2402 H   0  0  0  0  0  0  0  0  0  0  0  0
  150.8441  146.2078  160.5672 H   0  0  0  0  0  0  0  0  0  0  0  0
  152.4512  146.3597  159.8717 H   0  0  0  0  0  0  0  0  0  0  0  0
  151.2987  145.6557  157.9160 H   0  0  0  0  0  0  0  0  0  0  0  0
  150.1136  144.7581  158.8589 H   0  0  0  0  0  0  0  0  0  0  0  0
  149.2788  142.8870  155.7969 H   0  0  0  0  0  0  0  0  0  0  0  0
  148.4997  141.9259  153.8692 H   0  0  0  0  0  0  0  0  0  0  0  0
  148.9424  139.1503  155.1203 H   0  0  0  0  0  0  0  0  0  0  0  0
  148.9217  139.5782  153.4235 H   0  0  0  0  0  0  0  0  0  0  0  0
  150.8675  140.4160  155.2618 H   0  0  0  0  0  0  0  0  0  0  0  0
  146.5916  140.1940  154.3601 H   0  0  0  0  0  0  0  0  0  0  0  0
  146.8213  140.6419  156.0278 H   0  0  0  0  0  0  0  0  0  0  0  0
  146.8258  142.6909  152.8111 H   0  0  0  0  0  0  0  0  0  0  0  0
  145.3243  144.6800  152.5561 H   0  0  0  0  0  0  0  0  0  0  0  0
  143.7572  145.2601  154.4311 H   0  0  0  0  0  0  0  0  0  0  0  0
  143.7616  143.8200  156.4847 H   0  0  0  0  0  0  0  0  0  0  0  0
  1  2  2  0  0  0  0
  2  3  1  0  0  0  0
  2 10  1  0  0  0  0
  3  4  1  0  0  0  0
  3 21  1  0  0  0  0
  3 22  1  0  0  0  0
  4  5  1  0  0  0  0
  4 23  1  0  0  0  0
  4 24  1  0  0  0  0
  5  9  1  0  0  0  0
  5  6  1  0  0  0  0
  5 25  1  0  0  0  0
  6  7  1  0  0  0  0
  6 26  1  0  0  0  0
  6 27  1  0  0  0  0
  7  8  1  0  0  0  0
  7 28  1  0  0  0  0
  7 29  1  0  0  0  0
  8  9  1  0  0  0  0
  8 30  1  0  0  0  0
  8 31  1  0  0  0  0
  9 32  1  0  0  0  0
  9 33  1  0  0  0  0
 10 11  1  0  0  0  0
 10 34  1  0  0  0  0
 11 12  1  0  0  0  0
 11 14  1  0  0  0  0
 11 35  1  0  0  0  0
 12 13  1  0  0  0  0
 12 36  1  0  0  0  0
 12 37  1  0  0  0  0
 13 38  1  0  0  0  0
 14 15  1  0  0  0  0
 14 39  1  0  0  0  0
 14 40  1  0  0  0  0
 15 20  1  0  0  0  0
 15 16  2  0  0  0  0
 16 17  1  0  0  0  0
 16 41  1  0  0  0  0
 17 18  2  0  0  0  0
 17 42  1  0  0  0  0
 18 19  1  0  0  0  0
 18 43  1  0  0  0  0
 19 20  2  0  0  0  0
 19 44  1  0  0  0  0
M  END
> <s_m_source_file>
AV-unprocessed.smi

> <i_m_source_file_index>
2725

> <i_lp_mmshare_version>
43012

> <i_f3d_flags>
0

> <s_epik_input>
W0NIMl0xW0NIMl1bQ0gyXVtDSDJdW0NIXTFbQ0gyXVtDSDJdQyg9TylbTkhdW0NASF0oW0NIMl1bT0hdKVtDSDJdYzJbY0hdW2NIXVtjSF1bY0hdbjI=

> <s_epik_cmdline>
J2VwaWtfcHl0aG9uJywgJy1waCcsICc3LjAnLCAnLXRuJywgJzgnLCAnLW1hJywgJzIwMCcsICctbWV0YWxfYmluZGluZycsICctaW1hZScsICc8aW5maWxlLm1hZT4nLCAnLW9tYWUnLCAnPG91dGZpbGUubWFlPic=

> <r_epik_Ionization_Penalty>
0.0257016

> <r_epik_Ionization_Penalty_Charging>
0

> <r_epik_Ionization_Penalty_Neutral>
0.0257016

> <r_epik_State_Penalty>
0.0209381

> <r_epik_Charging_Adjusted_Penalty>
0.0209381

> <i_epik_Tot_Q>
0

> <i_epik_Tot_abs_Q>
0

> <r_epik_Metal_State_Penalty>
0.0200649

> <b_epik_Metal_Only>
0

> <s_lp_Force_Field>
OPLS_2005

> <r_lp_Energy>
24.1231

> <b_lp_Chiralities_Consistent>
1

> <s_lp_Variant>
AV-unprocessed.smi:2725-2

> <Gold.Version>
5.8.1

> <Gold.Id.Protein>
6NUR|6NUR_protein|mol2

> <Gold.PLP.Fitness>
52.2435

> <Gold.PLP.PLP>
-47.1484

> <Gold.PLP.part.hbond>
-1.9338

> <Gold.PLP.part.metal>
0.0000

> <Gold.PLP.part.buried>
-8.8251

> <Gold.PLP.part.nonpolar>
-37.4051

> <Gold.PLP.part.repulsive>
0.2244

> <Gold.PLP.ligand.clash>
0.0000

> <Gold.PLP.ligand.torsion>
0.5314

> <Gold.PLP.Chemscore.Hbond>
2.0000

> <Gold.PLP.Chemscore.CHOScore>
0.0000

> <Gold.PLP.Chemscore.Metal>
0.0000

> <Gold.Chemscore.Hbonds>
donor molecule, donor type, donor heavy atom, donor atom, acceptor molecule, acceptor atom, score
      L1  H    10    34       P1  8028  1.00
      P1  H  7989  7998       L1    13  1.00

> <Gold.PLP.Chemscore.Internal.Correction>
0.1579

> <Gold.Rescore>
     Score         DG    S(hbond)    S(metal)    S(lipo)     H(rot)  DE(clash)    DE(int)     intcor
     17.90     -19.83       1.95        0.00     120.43       2.44       0.15       1.78       ----

> <Gold.Chemscore.Fitness>
17.9033

> <Gold.Chemscore.DG>
-19.8312

> <Gold.Chemscore.ZeroCoef>
-5.4800

> <Gold.Chemscore.Hbond>
1.9497

> <Gold.Chemscore.Metal>
0.0000

> <Gold.Chemscore.Lipo>
120.4262

> <Gold.Chemscore.Internal_Hbond>
0.0000

> <Gold.Chemscore.DEClash>
0.1484

> <Gold.Chemscore.DEInternal>
1.7794

> <Gold.Chemscore.Rot>
2.4416

> <Gold.Chemscore.Internal.Correction>
   9.000000E+99

> <Gold.Chemscore.Hbonds>
donor molecule, donor type, donor heavy atom, donor atom, acceptor molecule, acceptor atom, score
      L1  H    10    34       P1  8028  0.97
      P1  H  7989  7998       L1    13  0.33

> <Gold.Chemscore.Hbond.Weighted>
-6.5119

> <Gold.Chemscore.Metal.Weighted>
-0.0000

> <Gold.Chemscore.Lipo.Weighted>
-14.0899

> <Gold.Chemscore.Internal_Hbond.Weighted>
0.0000

> <Gold.Chemscore.DEClash.Weighted>
0.1484

> <Gold.Chemscore.DEInternal.Weighted>
1.7794

> <Gold.Chemscore.Rot.Weighted>
6.2505

> <Gold.Chemscore.Internal.Correction.Weighted>
   9.000000E+99

> <Gold.Protein.RotatedTorsions>
[ 6907 6896 6895 6894 ] final  -91.79 input  -60.11 | X-H torsion
[ 7974 7965 7964 7962 ] final -122.78 input  175.53 | X-H torsion
[ 8008 7997 7996 7995 ] final -109.02 input   59.86 | X-H torsion
[ 10167 10162 10161 10158 ] final -136.94 input  -65.29 | X-H torsion
[ 10718 10713 10712 10709 ] final  134.07 input   66.30 | X-H torsion
[ 10763 10752 10751 10750 ] final  125.15 input  -60.55 | X-H torsion
[ 11005 11000 10999 10996 ] final  -79.32 input  -57.11 | X-H torsion

> <Gold.Protein.ActiveResidues>
 VAL166  LYS551  ARG553  GLY616  TRP617  ASP618  TYR619  PRO620  LYS621  CYS622 
 ASP623  PHE694  ASN695  SER759  ASP760  ASP761  ALA762  ILE779  LEU786  VAL792 
 PHE793  MET794  SER795  GLU796  ALA797  LYS798  CYS799  TRP800  GLU811  SER814 

> <Gold.Protein.RotatedAtoms>
  150.6897  134.2223  159.4401 H   0  0  0  0  0  0  0  0  0  0  0  0  # atno 6907 bound_to 6896
  152.0179  134.9837  160.0579 H   0  0  0  0  0  0  0  0  0  0  0  0  # atno 6908 bound_to 6896
  152.1426  133.4438  159.4811 H   0  0  0  0  0  0  0  0  0  0  0  0  # atno 6909 bound_to 6896
  145.0257  140.8026  143.4354 H   0  0  0  0  0  0  0  0  0  0  0  0  # atno 7974 bound_to 7965
  154.9530  140.0400  157.2153 H   0  0  0  0  0  0  0  0  0  0  0  0  # atno 8008 bound_to 7997
  154.7960  140.2843  155.5934 H   0  0  0  0  0  0  0  0  0  0  0  0  # atno 8009 bound_to 7997
  156.2956  140.2564  156.2818 H   0  0  0  0  0  0  0  0  0  0  0  0  # atno 8010 bound_to 7997
  139.8628  143.7056  152.2648 H   0  0  0  0  0  0  0  0  0  0  0  0  # atno 10167 bound_to 10162
  157.4710  131.1080  150.9803 H   0  0  0  0  0  0  0  0  0  0  0  0  # atno 10718 bound_to 10713
  153.6727  135.3327  155.3157 H   0  0  0  0  0  0  0  0  0  0  0  0  # atno 10763 bound_to 10752
  154.8487  135.4390  154.1688 H   0  0  0  0  0  0  0  0  0  0  0  0  # atno 10764 bound_to 10752
  153.2684  135.6998  153.7582 H   0  0  0  0  0  0  0  0  0  0  0  0  # atno 10765 bound_to 10752
  141.1667  133.7101  156.8105 H   0  0  0  0  0  0  0  0  0  0  0  0  # atno 11005 bound_to 11000
  145.1836  139.2338  143.5279 LP  0  0  0  0  0  0  0  0  0  0  0  0  # atno 17320 bound_to 7965
  146.3492  140.1616  142.8590 LP  0  0  0  0  0  0  0  0  0  0  0  0  # atno 17321 bound_to 7965
  139.7357  144.7572  151.0731 LP  0  0  0  0  0  0  0  0  0  0  0  0  # atno 17342 bound_to 10162
  140.7772  143.5033  150.9744 LP  0  0  0  0  0  0  0  0  0  0  0  0  # atno 17343 bound_to 10162
  157.0568  130.5809  149.5379 LP  0  0  0  0  0  0  0  0  0  0  0  0  # atno 17370 bound_to 10713
  156.0073  130.5161  150.7873 LP  0  0  0  0  0  0  0  0  0  0  0  0  # atno 17371 bound_to 10713
  140.2191  134.8770  157.3357 LP  0  0  0  0  0  0  0  0  0  0  0  0  # atno 17394 bound_to 11000
  140.2007  134.4259  155.7664 LP  0  0  0  0  0  0  0  0  0  0  0  0  # atno 17395 bound_to 11000

$$$$
