AV-unprocessed.smi:1147|AV-procd|sdf|4887|dock3
  -GOLD-   22720 3463D 1   1.00000     0.00000
 Structure written by MMmdl.
 41 42  0  0  0  0  0  0  0  0  1 V2000
  148.8614  140.3367  154.1729 C   0  0  0  0  0  0  0  0  0  0  0  0
  150.0648  139.4291  154.4368 C   0  0  0  0  0  0  0  0  0  0  0  0
  150.1462  138.3803  153.7972 O   0  0  0  0  0  0  0  0  0  0  0  0
  150.9889  139.8014  155.3552 N   0  0  0  0  0  0  0  0  0  0  0  0
  152.1697  139.0132  155.7452 C   0  0  0  0  0  0  0  0  0  0  0  0
  152.0708  138.6656  157.2437 C   0  0  0  0  0  0  0  0  0  0  0  0
  151.9851  139.9187  158.0176 N   0  0  0  0  0  0  0  0  0  0  0  0
  152.9155  140.4037  158.8782 C   0  0  0  0  0  0  0  0  0  0  0  0
  154.0880  140.0264  158.8893 O   0  0  0  0  0  0  0  0  0  0  0  0
  152.4611  141.3433  159.7242 N   0  0  0  0  0  0  0  0  0  0  0  0
  153.2594  142.0674  160.7107 C   0  0  2  0  0  0  0  0  0  0  0  0
  153.8191  141.0913  161.7577 C   0  0  0  0  0  0  0  0  0  0  0  0
  152.4075  143.1696  161.3697 C   0  0  0  0  0  0  0  0  0  0  0  0
  151.6515  143.9388  160.3967 N   0  0  0  0  0  0  0  0  0  0  0  0
  152.1169  144.5982  159.2787 C   0  0  0  0  0  0  0  0  0  0  0  0
  151.0384  145.1698  158.6664 C   0  0  0  0  0  0  0  0  0  0  0  0
  149.9432  144.8005  159.4964 C   0  0  0  0  0  0  0  0  0  0  0  0
  150.3130  144.0635  160.5312 N   0  0  0  0  0  0  0  0  0  0  0  0
  150.7906  140.6884  157.6395 C   0  0  0  0  0  0  0  0  0  0  0  0
  150.8749  141.0408  156.1406 C   0  0  0  0  0  0  0  0  0  0  0  0
  149.1847  141.3097  153.8019 H   0  0  0  0  0  0  0  0  0  0  0  0
  148.2770  140.4782  155.0823 H   0  0  0  0  0  0  0  0  0  0  0  0
  148.2048  139.8955  153.4224 H   0  0  0  0  0  0  0  0  0  0  0  0
  152.2919  138.0947  155.1736 H   0  0  0  0  0  0  0  0  0  0  0  0
  153.0685  139.6017  155.5545 H   0  0  0  0  0  0  0  0  0  0  0  0
  151.1761  138.0700  157.4311 H   0  0  0  0  0  0  0  0  0  0  0  0
  152.9071  138.0252  157.5235 H   0  0  0  0  0  0  0  0  0  0  0  0
  151.4886  141.6054  159.6521 H   0  0  0  0  0  0  0  0  0  0  0  0
  154.1002  142.5469  160.2058 H   0  0  0  0  0  0  0  0  0  0  0  0
  154.4210  141.6165  162.4999 H   0  0  0  0  0  0  0  0  0  0  0  0
  154.4560  140.3361  161.2959 H   0  0  0  0  0  0  0  0  0  0  0  0
  153.0176  140.5733  162.2854 H   0  0  0  0  0  0  0  0  0  0  0  0
  151.7195  142.7403  162.1002 H   0  0  0  0  0  0  0  0  0  0  0  0
  153.0491  143.8612  161.9169 H   0  0  0  0  0  0  0  0  0  0  0  0
  153.1641  144.6021  159.0138 H   0  0  0  0  0  0  0  0  0  0  0  0
  151.0325  145.7612  157.7628 H   0  0  0  0  0  0  0  0  0  0  0  0
  148.8977  145.0440  159.3782 H   0  0  0  0  0  0  0  0  0  0  0  0
  149.8986  140.0925  157.8389 H   0  0  0  0  0  0  0  0  0  0  0  0
  150.6740  141.6030  158.2224 H   0  0  0  0  0  0  0  0  0  0  0  0
  151.7468  141.6677  155.9480 H   0  0  0  0  0  0  0  0  0  0  0  0
  150.0074  141.6403  155.8619 H   0  0  0  0  0  0  0  0  0  0  0  0
  1  2  1  0  0  0  0
  1 21  1  0  0  0  0
  1 22  1  0  0  0  0
  1 23  1  0  0  0  0
  2  3  2  0  0  0  0
  2  4  1  0  0  0  0
  4 20  1  0  0  0  0
  4  5  1  0  0  0  0
  5  6  1  0  0  0  0
  5 24  1  0  0  0  0
  5 25  1  0  0  0  0
  6  7  1  0  0  0  0
  6 26  1  0  0  0  0
  6 27  1  0  0  0  0
  7  8  1  0  0  0  0
  7 19  1  0  0  0  0
  8  9  2  0  0  0  0
  8 10  1  0  0  0  0
 10 11  1  0  0  0  0
 10 28  1  0  0  0  0
 11 12  1  0  0  0  0
 11 13  1  0  0  0  0
 11 29  1  0  0  0  0
 12 30  1  0  0  0  0
 12 31  1  0  0  0  0
 12 32  1  0  0  0  0
 13 14  1  0  0  0  0
 13 33  1  0  0  0  0
 13 34  1  0  0  0  0
 14 18  1  0  0  0  0
 14 15  1  0  0  0  0
 15 16  2  0  0  0  0
 15 35  1  0  0  0  0
 16 17  1  0  0  0  0
 16 36  1  0  0  0  0
 17 18  2  0  0  0  0
 17 37  1  0  0  0  0
 19 20  1  0  0  0  0
 19 38  1  0  0  0  0
 19 39  1  0  0  0  0
 20 40  1  0  0  0  0
 20 41  1  0  0  0  0
M  END
> <s_m_source_file>
AV-unprocessed.smi

> <i_m_source_file_index>
1147

> <i_lp_mmshare_version>
43012

> <i_f3d_flags>
0

> <s_epik_input>
W0NIM11DKD1PKU4xW0NIMl1bQ0gyXU4oW0NIMl1bQ0gyXTEpQyg9TylbTkhdW0NASF0oW0NIM10pW0NIMl1uMltjSF1bY0hdW2NIXW4y

> <s_epik_cmdline>
J2VwaWtfcHl0aG9uJywgJy1waCcsICc3LjAnLCAnLXRuJywgJzgnLCAnLW1hJywgJzIwMCcsICctbWV0YWxfYmluZGluZycsICctaW1hZScsICc8aW5maWxlLm1hZT4nLCAnLW9tYWUnLCAnPG91dGZpbGUubWFlPic=

> <r_lp_tautomer_probability>
1

> <r_epik_Ionization_Penalty>
5.58143e-05

> <r_epik_Ionization_Penalty_Charging>
0

> <r_epik_Ionization_Penalty_Neutral>
5.58143e-05

> <r_epik_State_Penalty>
-0

> <r_epik_Charging_Adjusted_Penalty>
0

> <i_epik_Tot_Q>
0

> <i_epik_Tot_abs_Q>
0

> <r_epik_Metal_State_Penalty>
-0

> <b_epik_Metal_Only>
0

> <s_lp_Force_Field>
OPLS_2005

> <r_lp_Energy>
48.2147

> <b_lp_Chiralities_Consistent>
1

> <s_lp_Variant>
AV-unprocessed.smi:1147-1

> <Gold.Version>
5.8.1

> <Gold.Id.Protein>
6NUR|6NUR_protein|mol2

> <Gold.PLP.Fitness>
51.9143

> <Gold.PLP.PLP>
-46.6488

> <Gold.PLP.part.hbond>
-1.3557

> <Gold.PLP.part.metal>
0.0000

> <Gold.PLP.part.buried>
-2.5127

> <Gold.PLP.part.nonpolar>
-41.3360

> <Gold.PLP.part.repulsive>
0.8531

> <Gold.PLP.ligand.clash>
0.0000

> <Gold.PLP.ligand.torsion>
0.3415

> <Gold.PLP.Chemscore.Hbond>
1.0000

> <Gold.PLP.Chemscore.CHOScore>
0.9721

> <Gold.PLP.Chemscore.Metal>
0.0000

> <Gold.Chemscore.Hbonds>
donor molecule, donor type, donor heavy atom, donor atom, acceptor molecule, acceptor atom, score
      P1  H  7997  8008       L1     9  1.00
      L1  C    17    37       P1  8029  0.88

> <Gold.PLP.Chemscore.Internal.Correction>
0.0323

> <Gold.Rescore>
     Score         DG    S(hbond)    S(metal)    S(lipo)     H(rot)  DE(clash)    DE(int)     intcor
     15.89     -16.45       0.96        0.00      98.22       1.46       0.06       0.50       ----

> <Gold.Chemscore.Fitness>
15.8878

> <Gold.Chemscore.DG>
-16.4463

> <Gold.Chemscore.ZeroCoef>
-5.4800

> <Gold.Chemscore.Hbond>
0.9647

> <Gold.Chemscore.Metal>
0.0000

> <Gold.Chemscore.Lipo>
98.2201

> <Gold.Chemscore.Internal_Hbond>
0.0000

> <Gold.Chemscore.DEClash>
0.0551

> <Gold.Chemscore.DEInternal>
0.5034

> <Gold.Chemscore.Rot>
1.4640

> <Gold.Chemscore.Internal.Correction>
   9.000000E+99

> <Gold.Chemscore.Hbonds>
donor molecule, donor type, donor heavy atom, donor atom, acceptor molecule, acceptor atom, score
      P1  H  7997  8008       L1     9  0.88

> <Gold.Chemscore.Hbond.Weighted>
-3.2223

> <Gold.Chemscore.Metal.Weighted>
-0.0000

> <Gold.Chemscore.Lipo.Weighted>
-11.4918

> <Gold.Chemscore.Internal_Hbond.Weighted>
0.0000

> <Gold.Chemscore.DEClash.Weighted>
0.0551

> <Gold.Chemscore.DEInternal.Weighted>
0.5034

> <Gold.Chemscore.Rot.Weighted>
3.7477

> <Gold.Chemscore.Internal.Correction.Weighted>
   9.000000E+99

> <Gold.Protein.RotatedTorsions>
[ 6907 6896 6895 6894 ] final  -58.09 input  -60.11 | X-H torsion
[ 7974 7965 7964 7962 ] final  131.92 input  175.53 | X-H torsion
[ 8008 7997 7996 7995 ] final -111.44 input   59.86 | X-H torsion
[ 10167 10162 10161 10158 ] final  -30.11 input  -65.29 | X-H torsion
[ 10718 10713 10712 10709 ] final   69.20 input   66.30 | X-H torsion
[ 10763 10752 10751 10750 ] final -157.53 input  -60.55 | X-H torsion
[ 11005 11000 10999 10996 ] final  -87.24 input  -57.11 | X-H torsion

> <Gold.Protein.ActiveResidues>
 VAL166  LYS551  ARG553  GLY616  TRP617  ASP618  TYR619  PRO620  LYS621  CYS622 
 ASP623  PHE694  ASN695  SER759  ASP760  ASP761  ALA762  ILE779  LEU786  VAL792 
 PHE793  MET794  SER795  GLU796  ALA797  LYS798  CYS799  TRP800  GLU811  SER814 

> <Gold.Protein.RotatedAtoms>
  150.8034  134.7144  159.6621 H   0  0  0  0  0  0  0  0  0  0  0  0  # atno 6907 bound_to 6896
  152.4153  134.6050  160.0020 H   0  0  0  0  0  0  0  0  0  0  0  0  # atno 6908 bound_to 6896
  151.6281  133.3297  159.3139 H   0  0  0  0  0  0  0  0  0  0  0  0  # atno 6909 bound_to 6896
  145.0022  139.4301  143.5286 H   0  0  0  0  0  0  0  0  0  0  0  0  # atno 7974 bound_to 7965
  154.9899  140.0395  157.2315 H   0  0  0  0  0  0  0  0  0  0  0  0  # atno 8008 bound_to 7997
  154.7638  140.2789  155.6170 H   0  0  0  0  0  0  0  0  0  0  0  0  # atno 8009 bound_to 7997
  156.2909  140.2623  156.2423 H   0  0  0  0  0  0  0  0  0  0  0  0  # atno 8010 bound_to 7997
  140.7253  143.3875  151.1489 H   0  0  0  0  0  0  0  0  0  0  0  0  # atno 10167 bound_to 10162
  157.6332  130.9413  150.0481 H   0  0  0  0  0  0  0  0  0  0  0  0  # atno 10718 bound_to 10713
  154.7629  135.3123  154.8343 H   0  0  0  0  0  0  0  0  0  0  0  0  # atno 10763 bound_to 10752
  153.9099  135.6807  153.4755 H   0  0  0  0  0  0  0  0  0  0  0  0  # atno 10764 bound_to 10752
  153.1231  135.4813  154.9160 H   0  0  0  0  0  0  0  0  0  0  0  0  # atno 10765 bound_to 10752
  141.1619  133.7500  156.9277 H   0  0  0  0  0  0  0  0  0  0  0  0  # atno 11005 bound_to 11000
  146.3454  139.9417  142.8740 LP  0  0  0  0  0  0  0  0  0  0  0  0  # atno 17320 bound_to 7965
  145.2137  140.9906  143.4085 LP  0  0  0  0  0  0  0  0  0  0  0  0  # atno 17321 bound_to 7965
  139.7474  143.8830  152.3067 LP  0  0  0  0  0  0  0  0  0  0  0  0  # atno 17342 bound_to 10162
  139.8672  144.7087  150.9029 LP  0  0  0  0  0  0  0  0  0  0  0  0  # atno 17343 bound_to 10162
  156.1552  130.3643  149.9380 LP  0  0  0  0  0  0  0  0  0  0  0  0  # atno 17370 bound_to 10713
  156.7391  130.9072  151.3631 LP  0  0  0  0  0  0  0  0  0  0  0  0  # atno 17371 bound_to 10713
  140.1407  134.9295  157.2463 LP  0  0  0  0  0  0  0  0  0  0  0  0  # atno 17394 bound_to 11000
  140.2840  134.3317  155.7334 LP  0  0  0  0  0  0  0  0  0  0  0  0  # atno 17395 bound_to 11000

$$$$
