AV-unprocessed.smi:1809|AV-procd|sdf|7331|dock7
  -GOLD-   22720 8593D 1   1.00000     0.00000
 Structure written by MMmdl.
 38 40  0  0  0  0  0  0  0  0  2 V2000
  146.0518  134.4738  162.8807 C   0  0  0  0  0  0  0  0  0  0  0  0
  146.9709  135.2578  162.0079 C   0  0  0  0  0  0  0  0  0  0  0  0
  147.1117  136.5817  162.1111 N   0  0  0  0  0  0  0  0  0  0  0  0
  148.0232  137.0832  161.1933 N   0  0  0  0  0  0  0  0  0  0  0  0
  148.5678  136.1332  160.4196 C   0  0  0  0  0  0  0  0  0  0  0  0
  149.4713  136.4117  159.4654 N   0  5  0  0  0  0  0  0  0  0  0  0
  149.0994  137.0994  158.3616 C   0  0  0  0  0  0  0  0  0  0  0  0
  148.0245  136.9996  157.7653 O   0  0  0  0  0  0  0  0  0  0  0  0
  150.0283  137.9575  157.9207 N   0  0  0  0  0  0  0  0  0  0  0  0
  149.8885  138.8164  156.7524 C   0  0  0  0  0  0  0  0  0  0  0  0
  151.2572  139.3739  156.3165 C   0  0  2  0  0  0  0  0  0  0  0  0
  152.1367  139.8069  157.5138 C   0  0  0  0  0  0  0  0  0  0  0  0
  151.6645  141.0609  158.0710 N   0  0  0  0  0  0  0  0  0  0  0  0
  152.4495  141.6354  159.1386 C   0  0  0  0  0  0  0  0  0  0  0  0
  151.9643  143.0929  159.2249 C   0  0  0  0  0  0  0  0  0  0  0  0
  151.3087  143.3623  157.8524 C   0  0  0  0  0  0  0  0  0  0  0  0
  151.6282  142.0889  157.0670 C   0  0  2  0  0  0  0  0  0  0  0  0
  150.6756  141.7032  155.9276 C   0  0  0  0  0  0  0  0  0  0  0  0
  151.1130  140.4552  155.3808 O   0  0  0  0  0  0  0  0  0  0  0  0
  147.9612  134.5134  160.7643 S   0  0  0  0  0  0  0  0  0  0  0  0
  146.5415  134.2476  163.8280 H   0  0  0  0  0  0  0  0  0  0  0  0
  145.7776  133.5370  162.3953 H   0  0  0  0  0  0  0  0  0  0  0  0
  145.1423  135.0411  163.0807 H   0  0  0  0  0  0  0  0  0  0  0  0
  150.8986  138.0106  158.4294 H   0  0  0  0  0  0  0  0  0  0  0  0
  149.4144  138.2591  155.9439 H   0  0  0  0  0  0  0  0  0  0  0  0
  149.2197  139.6420  156.9995 H   0  0  0  0  0  0  0  0  0  0  0  0
  151.7817  138.5743  155.7921 H   0  0  0  0  0  0  0  0  0  0  0  0
  152.1459  139.0324  158.2813 H   0  0  0  0  0  0  0  0  0  0  0  0
  153.1676  139.9233  157.1761 H   0  0  0  0  0  0  0  0  0  0  0  0
  152.3165  141.0914  160.0741 H   0  0  0  0  0  0  0  0  0  0  0  0
  153.5096  141.6127  158.8807 H   0  0  0  0  0  0  0  0  0  0  0  0
  151.2326  143.2142  160.0245 H   0  0  0  0  0  0  0  0  0  0  0  0
  152.7943  143.7719  159.4228 H   0  0  0  0  0  0  0  0  0  0  0  0
  150.2310  143.4846  157.9682 H   0  0  0  0  0  0  0  0  0  0  0  0
  151.7016  144.2550  157.3652 H   0  0  0  0  0  0  0  0  0  0  0  0
  152.6290  142.2034  156.6448 H   0  0  0  0  0  0  0  0  0  0  0  0
  149.6468  141.6249  156.2803 H   0  0  0  0  0  0  0  0  0  0  0  0
  150.6880  142.4607  155.1439 H   0  0  0  0  0  0  0  0  0  0  0  0
  1  2  1  0  0  0  0
  1 21  1  0  0  0  0
  1 22  1  0  0  0  0
  1 23  1  0  0  0  0
  2 20  1  0  0  0  0
  2  3  2  0  0  0  0
  3  4  1  0  0  0  0
  4  5  2  0  0  0  0
  5  6  1  0  0  0  0
  5 20  1  0  0  0  0
  6  7  1  0  0  0  0
  7  8  2  0  0  0  0
  7  9  1  0  0  0  0
  9 10  1  0  0  0  0
  9 24  1  0  0  0  0
 10 11  1  0  0  0  0
 10 25  1  0  0  0  0
 10 26  1  0  0  0  0
 11 19  1  0  0  0  0
 11 12  1  0  0  0  0
 11 27  1  0  0  0  0
 12 13  1  0  0  0  0
 12 28  1  0  0  0  0
 12 29  1  0  0  0  0
 13 17  1  0  0  0  0
 13 14  1  0  0  0  0
 14 15  1  0  0  0  0
 14 30  1  0  0  0  0
 14 31  1  0  0  0  0
 15 16  1  0  0  0  0
 15 32  1  0  0  0  0
 15 33  1  0  0  0  0
 16 17  1  0  0  0  0
 16 34  1  0  0  0  0
 16 35  1  0  0  0  0
 17 18  1  0  0  0  0
 17 36  1  0  0  0  0
 18 19  1  0  0  0  0
 18 37  1  0  0  0  0
 18 38  1  0  0  0  0
M  CHG  1   6  -1
M  END
> <s_m_source_file>
AV-unprocessed.smi

> <i_m_source_file_index>
1809

> <i_lp_mmshare_version>
43012

> <i_f3d_flags>
0

> <s_epik_input>
W0NIM11jMW5uYyhzMSlbTkhdQyg9TylbTkhdW0NIMl1bQ0BIXShbQ0gyXTIpT1tDSDJdW0NAQEhdKE4yMylbQ0gyXVtDSDJdW0NIMl0z

> <s_epik_cmdline>
J2VwaWtfcHl0aG9uJywgJy1waCcsICc3LjAnLCAnLXRuJywgJzgnLCAnLW1hJywgJzIwMCcsICctbWV0YWxfYmluZGluZycsICctaW1hZScsICc8aW5maWxlLm1hZT4nLCAnLW9tYWUnLCAnPG91dGZpbGUubWFlPic=

> <r_lp_tautomer_probability>
1

> <r_epik_Ionization_Penalty>
4.48809

> <r_epik_Ionization_Penalty_Charging>
3.27284

> <r_epik_Ionization_Penalty_Neutral>
1.21525

> <r_epik_State_Penalty>
4.69427

> <r_epik_Charging_Adjusted_Penalty>
7.96711

> <i_epik_Tot_Q>
-1

> <i_epik_Tot_abs_Q>
1

> <r_epik_Metal_State_Penalty>
1.91976

> <b_epik_Metal_Only>
1

> <s_lp_Force_Field>
OPLS_2005

> <r_lp_Energy>
48.824

> <b_lp_Chiralities_Consistent>
1

> <s_lp_Variant>
AV-unprocessed.smi:1809-23

> <Gold.Version>
5.8.1

> <Gold.Id.Protein>
6NUR|6NUR_protein|mol2

> <Gold.PLP.Fitness>
41.2580

> <Gold.PLP.PLP>
-30.3742

> <Gold.PLP.part.hbond>
-3.9721

> <Gold.PLP.part.metal>
0.0000

> <Gold.PLP.part.buried>
-5.4625

> <Gold.PLP.part.nonpolar>
-21.3319

> <Gold.PLP.part.repulsive>
0.1102

> <Gold.PLP.ligand.clash>
0.0000

> <Gold.PLP.ligand.torsion>
1.1541

> <Gold.PLP.Chemscore.Hbond>
4.3918

> <Gold.PLP.Chemscore.CHOScore>
0.0000

> <Gold.PLP.Chemscore.Metal>
0.0000

> <Gold.Chemscore.Hbonds>
donor molecule, donor type, donor heavy atom, donor atom, acceptor molecule, acceptor atom, score
      P1  H  6896  6909       L1     6  1.79
      P1  H  6931  6943       L1     4  1.00
      P1  H  6934  6947       L1     4  0.52
      P1  H  7989  7998       L1    19  0.96

> <Gold.PLP.Chemscore.Internal.Correction>
0.0167

> <Gold.Rescore>
     Score         DG    S(hbond)    S(metal)    S(lipo)     H(rot)  DE(clash)    DE(int)     intcor
     16.33     -18.02       1.85        0.00      82.94       1.31       0.47       1.22       ----

> <Gold.Chemscore.Fitness>
16.3301

> <Gold.Chemscore.DG>
-18.0205

> <Gold.Chemscore.ZeroCoef>
-5.4800

> <Gold.Chemscore.Hbond>
1.8497

> <Gold.Chemscore.Metal>
0.0000

> <Gold.Chemscore.Lipo>
82.9365

> <Gold.Chemscore.Internal_Hbond>
0.0000

> <Gold.Chemscore.DEClash>
0.4660

> <Gold.Chemscore.DEInternal>
1.2243

> <Gold.Chemscore.Rot>
1.3051

> <Gold.Chemscore.Internal.Correction>
   9.000000E+99

> <Gold.Chemscore.Hbonds>
donor molecule, donor type, donor heavy atom, donor atom, acceptor molecule, acceptor atom, score
      P1  H  6896  6909       L1     6  0.30
      P1  H  6931  6943       L1     4  0.74
      P1  H  6934  6947       L1     4  0.12
      P1  H  7989  7998       L1    19  0.45

> <Gold.Chemscore.Hbond.Weighted>
-6.1781

> <Gold.Chemscore.Metal.Weighted>
-0.0000

> <Gold.Chemscore.Lipo.Weighted>
-9.7036

> <Gold.Chemscore.Internal_Hbond.Weighted>
0.0000

> <Gold.Chemscore.DEClash.Weighted>
0.4660

> <Gold.Chemscore.DEInternal.Weighted>
1.2243

> <Gold.Chemscore.Rot.Weighted>
3.3412

> <Gold.Chemscore.Internal.Correction.Weighted>
   9.000000E+99

> <Gold.Protein.RotatedTorsions>
[ 6907 6896 6895 6894 ] final   71.25 input  -60.11 | X-H torsion
[ 7974 7965 7964 7962 ] final   25.33 input  175.53 | X-H torsion
[ 8008 7997 7996 7995 ] final   24.55 input   59.86 | X-H torsion
[ 10167 10162 10161 10158 ] final -115.58 input  -65.29 | X-H torsion
[ 10718 10713 10712 10709 ] final  -57.21 input   66.30 | X-H torsion
[ 10763 10752 10751 10750 ] final  -49.61 input  -60.55 | X-H torsion
[ 11005 11000 10999 10996 ] final  171.09 input  -57.11 | X-H torsion

> <Gold.Protein.ActiveResidues>
 VAL166  LYS551  ARG553  GLY616  TRP617  ASP618  TYR619  PRO620  LYS621  CYS622 
 ASP623  PHE694  ASN695  SER759  ASP760  ASP761  ALA762  ILE779  LEU786  VAL792 
 PHE793  MET794  SER795  GLU796  ALA797  LYS798  CYS799  TRP800  GLU811  SER814 

> <Gold.Protein.RotatedAtoms>
  152.4799  134.4748  159.9646 H   0  0  0  0  0  0  0  0  0  0  0  0  # atno 6907 bound_to 6896
  151.4756  133.3552  159.2838 H   0  0  0  0  0  0  0  0  0  0  0  0  # atno 6908 bound_to 6896
  150.8863  134.8287  159.7322 H   0  0  0  0  0  0  0  0  0  0  0  0  # atno 6909 bound_to 6896
  146.1894  139.7481  142.8843 H   0  0  0  0  0  0  0  0  0  0  0  0  # atno 7974 bound_to 7965
  154.9980  140.3122  155.4879 H   0  0  0  0  0  0  0  0  0  0  0  0  # atno 8008 bound_to 7997
  156.2929  140.2237  156.5029 H   0  0  0  0  0  0  0  0  0  0  0  0  # atno 8009 bound_to 7997
  154.7644  140.0457  157.0988 H   0  0  0  0  0  0  0  0  0  0  0  0  # atno 8010 bound_to 7997
  140.0886  143.4721  152.1883 H   0  0  0  0  0  0  0  0  0  0  0  0  # atno 10167 bound_to 10162
  156.1229  130.4165  150.0409 H   0  0  0  0  0  0  0  0  0  0  0  0  # atno 10718 bound_to 10713
  154.0969  135.6569  153.4861 H   0  0  0  0  0  0  0  0  0  0  0  0  # atno 10763 bound_to 10752
  153.0302  135.5216  154.7325 H   0  0  0  0  0  0  0  0  0  0  0  0  # atno 10764 bound_to 10752
  154.6465  135.2995  155.0008 H   0  0  0  0  0  0  0  0  0  0  0  0  # atno 10765 bound_to 10752
  140.3153  134.7483  157.4022 H   0  0  0  0  0  0  0  0  0  0  0  0  # atno 11005 bound_to 11000
  145.3840  141.0362  143.3161 LP  0  0  0  0  0  0  0  0  0  0  0  0  # atno 17320 bound_to 7965
  144.8457  139.5400  143.6879 LP  0  0  0  0  0  0  0  0  0  0  0  0  # atno 17321 bound_to 7965
  139.5738  144.7477  151.3820 LP  0  0  0  0  0  0  0  0  0  0  0  0  # atno 17342 bound_to 10162
  140.7040  143.7559  150.7451 LP  0  0  0  0  0  0  0  0  0  0  0  0  # atno 17343 bound_to 10162
  156.8342  130.9403  151.3635 LP  0  0  0  0  0  0  0  0  0  0  0  0  # atno 17370 bound_to 10713
  157.6411  130.8807  149.9451 LP  0  0  0  0  0  0  0  0  0  0  0  0  # atno 17371 bound_to 10713
  140.0989  134.5499  155.8371 LP  0  0  0  0  0  0  0  0  0  0  0  0  # atno 17394 bound_to 11000
  141.2099  133.6689  156.6472 LP  0  0  0  0  0  0  0  0  0  0  0  0  # atno 17395 bound_to 11000

$$$$
