#       Name:                AV-unprocessed.smi:2796
#       Creating user name   scv26
#       Creation time:       Fri Mar 27 15:21:48 2020


#       File generated by GOLD software.
#

@<TRIPOS>MOLECULE
AV-unprocessed.smi:2796
    33    34     1
SMALL
NO_CHARGES


@<TRIPOS>ATOM
      1 ****        -7.1055  -0.7820  -0.0740 N.1            1 S1                 0.0000
      2 ****        -5.9518  -0.6913  -0.0725 C.1            1 S1                 0.0000
      3 ****        -4.5034  -0.5762  -0.0704 C.ar           1 S1                 0.0000
      4 ****        -3.9037   0.6473   0.2945 C.ar           1 S1                 0.0000
      5 ****        -2.4986   0.7406   0.2885 C.ar           1 S1                 0.0000
      6 ****        -1.7376  -0.3923  -0.0821 C.ar           1 S1                 0.0000
      7 ****        -0.3362  -0.4011  -0.1241 N.pl3          1 S1                 0.0000
      8 ****         0.4294   0.7208   0.3992 C.3            1 S1                 0.0000
      9 ****         1.9259   0.5468   0.2320 C.2            1 S1                 0.0000
     10 ****         2.8445   1.0015   1.1091 C.2            1 S1                 0.0000
     11 ****         4.1909   0.7698   0.9842 O.3            1 S1                 0.0000
     12 ****         4.5270  -0.2324   0.0308 C.3            1 S1                 0.0000
     13 ****         3.6682  -0.0820  -1.2353 C.3            1 S1                 0.0000
     14 ****         2.2803  -0.1227  -0.9159 O.3            1 S1                 0.0000
     15 ****        -2.4385  -1.5669  -0.4278 C.ar           1 S1                 0.0000
     16 ****        -3.7852  -1.6640  -0.4245 N.ar           1 S1                 0.0000
     17 ****        -4.5042   1.5013   0.5737 H              1 S1                 0.0000
     18 ****        -2.0313   1.6736   0.5655 H              1 S1                 0.0000
     19 ****         0.1437  -1.2779  -0.2709 H              1 S1                 0.0000
     20 ****         0.1397   1.6347  -0.1202 H              1 S1                 0.0000
     21 ****         0.1982   0.8549   1.4567 H              1 S1                 0.0000
     22 ****         2.6069   1.5390   2.0151 H              1 S1                 0.0000
     23 ****         5.5862  -0.1519  -0.2148 H              1 S1                 0.0000
     24 ****         4.3753  -1.2159   0.4777 H              1 S1                 0.0000
     25 ****         3.8897   0.8634  -1.7321 H              1 S1                 0.0000
     26 ****         3.8940  -0.8772  -1.9458 H              1 S1                 0.0000
     27 ****        -1.9033  -2.4595  -0.7174 H              1 S1                 0.0000
     28 ****        -8.1024  -0.8604  -0.0753 LP             1 S1                 0.0000
     29 ****         4.5436   0.4850   1.8755 LP             1 S1                 0.0000
     30 ****         4.6315   1.6242   0.7089 LP             1 S1                 0.0000
     31 ****         1.7749   0.2810  -1.6785 LP             1 S1                 0.0000
     32 ****         2.0147  -1.0810  -0.8101 LP             1 S1                 0.0000
     33 ****        -4.2389  -2.5185  -0.6775 LP             1 S1                 0.0000
@<TRIPOS>BOND
    1    1    2 3     
    2    2    3 1     
    3    3   16 ar    
    4    3    4 ar    
    5    4    5 ar    
    6    4   17 1     
    7    5    6 ar    
    8    5   18 1     
    9    6    7 1     
   10    6   15 ar    
   11    7    8 1     
   12    7   19 1     
   13    8    9 1     
   14    8   20 1     
   15    8   21 1     
   16    9   14 1     
   17    9   10 2     
   18   10   11 1     
   19   10   22 1     
   20   11   12 1     
   21   12   13 1     
   22   12   23 1     
   23   12   24 1     
   24   13   14 1     
   25   13   25 1     
   26   13   26 1     
   27   15   16 ar    
   28   15   27 1     
   29    1   28 1     
   30   11   29 1     
   31   11   30 1     
   32   14   31 1     
   33   14   32 1     
   34   16   33 1     
@<TRIPOS>SUBSTRUCTURE
      1 S1             1
@<TRIPOS>SET
LONE_PAIRS      STATIC     ATOMS    <user>   **** ""
6 28 29 30 31 32 33
DONOR_HYDROGENS      STATIC     ATOMS    <user>   **** ""
1 19
ATOM$BLUE        STATIC     ATOMS    COLORGROUP SYSTEM
6 28 29 30 31 32 33
ATOM$RED        STATIC     ATOMS    COLORGROUP SYSTEM
1 19
