#       Name:                AV-unprocessed.smi:1464
#       Creating user name   scv26
#       Creation time:       Fri Mar 27 06:02:55 2020


#       File generated by GOLD software.
#

@<TRIPOS>MOLECULE
AV-unprocessed.smi:1464
    48    49     1
SMALL
NO_CHARGES


@<TRIPOS>ATOM
      1 ****        -3.6773   1.3039   1.7233 C.3            1 S1                 0.0000
      2 ****        -3.1839  -0.1067   2.1057 C.3            1 S1                 0.0000
      3 ****        -3.9483  -1.2037   1.3368 C.3            1 S1                 0.0000
      4 ****        -3.5363  -1.2696  -0.1421 C.3            1 S1                 0.0000
      5 ****        -2.0217  -1.4703  -0.2860 C.3            1 S1                 0.0000
      6 ****        -1.2219  -0.3867   0.4675 C.3            1 S1                 0.0000
      7 ****         0.2074  -0.6749   0.3654 N.am           1 S1                 0.0000
      8 ****         1.0028  -0.3179  -0.6544 C.2            1 S1                 0.0000
      9 ****         0.5972   0.2893  -1.6467 O.2            1 S1                 0.0000
     10 ****         2.4757  -0.7349  -0.5327 C.3            1 S1                 0.0000
     11 ****         3.3804   0.0649  -1.3710 N.am           1 S1                 0.0000
     12 ****         3.7498  -0.5536  -2.5559 N.2            1 S1                 0.0000
     13 ****         4.5282   0.0549  -3.3855 C.2            1 S1                 0.0000
     14 ****         4.8655  -0.5919  -4.5492 O.3            1 S1                 0.0000
     15 ****         5.0343   1.3803  -3.1027 C.2            1 S1                 0.0000
     16 ****         4.6737   1.9722  -1.9429 C.2            1 S1                 0.0000
     17 ****         3.7913   1.3105  -0.9800 C.2            1 S1                 0.0000
     18 ****         3.4477   1.8255   0.0840 O.2            1 S1                 0.0000
     19 ****        -1.6515  -0.3070   1.9557 C.3            1 S1                 0.0000
     20 ****        -0.8425   0.7306   2.7596 C.3            1 S1                 0.0000
     21 ****         5.4281   0.0063  -5.0161 H              1 S1                 0.0000
     22 ****        -3.4278   1.5640   0.6951 H              1 S1                 0.0000
     23 ****        -3.2475   2.0679   2.3709 H              1 S1                 0.0000
     24 ****        -4.7604   1.3765   1.8253 H              1 S1                 0.0000
     25 ****        -3.4270  -0.2376   3.1612 H              1 S1                 0.0000
     26 ****        -3.7528  -2.1706   1.8024 H              1 S1                 0.0000
     27 ****        -5.0241  -1.0439   1.4175 H              1 S1                 0.0000
     28 ****        -4.0641  -2.0856  -0.6364 H              1 S1                 0.0000
     29 ****        -3.8375  -0.3567  -0.6564 H              1 S1                 0.0000
     30 ****        -1.7538  -2.4567   0.0957 H              1 S1                 0.0000
     31 ****        -1.7553  -1.4682  -1.3438 H              1 S1                 0.0000
     32 ****        -1.4168   0.5810   0.0024 H              1 S1                 0.0000
     33 ****         0.6245  -1.1765   1.1361 H              1 S1                 0.0000
     34 ****         2.7874  -0.6747   0.5120 H              1 S1                 0.0000
     35 ****         2.5492  -1.7907  -0.7994 H              1 S1                 0.0000
     36 ****         5.6850   1.8775  -3.8069 H              1 S1                 0.0000
     37 ****         5.0444   2.9616  -1.7185 H              1 S1                 0.0000
     38 ****        -1.4263  -1.2767   2.4031 H              1 S1                 0.0000
     39 ****        -0.9046   1.7226   2.3119 H              1 S1                 0.0000
     40 ****         0.2130   0.4626   2.8113 H              1 S1                 0.0000
     41 ****        -1.2055   0.8023   3.7851 H              1 S1                 0.0000
     42 ****        -0.3681   0.5400  -1.7196 LP             1 S1                 0.0000
     43 ****         1.2333   0.5315  -2.3793 LP             1 S1                 0.0000
     44 ****         3.4129  -1.4711  -2.7673 LP             1 S1                 0.0000
     45 ****         4.0469  -0.7937  -5.0869 LP             1 S1                 0.0000
     46 ****         5.3504  -1.4430  -4.3482 LP             1 S1                 0.0000
     47 ****         2.8417   1.3303   0.7064 LP             1 S1                 0.0000
     48 ****         3.7747   2.7391   0.3258 LP             1 S1                 0.0000
@<TRIPOS>BOND
    1    1    2 1     
    2    1   22 1     
    3    1   23 1     
    4    1   24 1     
    5    2   19 1     
    6    2    3 1     
    7    2   25 1     
    8    3    4 1     
    9    3   26 1     
   10    3   27 1     
   11    4    5 1     
   12    4   28 1     
   13    4   29 1     
   14    5    6 1     
   15    5   30 1     
   16    5   31 1     
   17    6    7 1     
   18    6   19 1     
   19    6   32 1     
   20    7    8 am    
   21    7   33 1     
   22    8    9 2     
   23    8   10 1     
   24   10   34 1     
   25   10   35 1     
   26   10   11 1     
   27   11   12 1     
   28   11   17 am    
   29   12   13 2     
   30   13   14 1     
   31   13   15 1     
   32   14   21 1     
   33   15   36 1     
   34   15   16 2     
   35   16   37 1     
   36   16   17 1     
   37   17   18 2     
   38   19   20 1     
   39   19   38 1     
   40   20   39 1     
   41   20   40 1     
   42   20   41 1     
   43    9   42 1     
   44    9   43 1     
   45   12   44 1     
   46   14   45 1     
   47   14   46 1     
   48   18   47 1     
   49   18   48 1     
@<TRIPOS>SUBSTRUCTURE
      1 S1             1
@<TRIPOS>SET
LONE_PAIRS      STATIC     ATOMS    <user>   **** ""
7 42 43 44 45 46 47 48
DONOR_HYDROGENS      STATIC     ATOMS    <user>   **** ""
2 33 21
ATOM$BLUE        STATIC     ATOMS    COLORGROUP SYSTEM
7 42 43 44 45 46 47 48
ATOM$RED        STATIC     ATOMS    COLORGROUP SYSTEM
2 33 21
