AV-unprocessed.smi:3032|AV-procd|sdf|11560|dock9
  -GOLD-   2272016523D 1   1.00000     0.00000
 Structure written by MMmdl.
 37 38  0  0  0  0  0  0  0  0  1 V2000
  153.1002  142.3962  162.3112 C   0  0  0  0  0  0  0  0  0  0  0  0
  152.3479  142.9987  161.1161 C   0  0  1  0  0  0  0  0  0  0  0  0
  152.2279  144.5286  161.2430 C   0  0  0  0  0  0  0  0  0  0  0  0
  151.4760  145.1376  160.0503 C   0  0  0  0  0  0  0  0  0  0  0  0
  152.1441  144.7609  158.7153 C   0  0  0  0  0  0  0  0  0  0  0  0
  152.3491  143.2386  158.5340 C   0  0  2  0  0  0  0  0  0  0  0  0
  151.0560  142.5021  158.1356 C   0  0  0  0  0  0  0  0  0  0  0  0
  150.1047  142.4252  158.9127 O   0  0  0  0  0  0  0  0  0  0  0  0
  151.0377  141.9559  156.9095 N   0  0  0  0  0  0  0  0  0  0  0  0
  149.9273  141.1980  156.3444 C   0  0  0  0  0  0  0  0  0  0  0  0
  149.5105  141.7472  154.9703 C   0  0  0  0  0  0  0  0  0  0  0  0
  148.3284  141.0328  154.4019 C   0  0  0  0  0  0  0  0  0  0  0  0
  148.3328  140.5122  153.1731 N   0  0  0  0  0  0  0  0  0  0  0  0
  147.1341  139.9432  152.9258 N   0  0  0  0  0  0  0  0  0  0  0  0
  146.4761  140.1756  154.0601 C   0  0  0  0  0  0  0  0  0  0  0  0
  147.1668  140.8575  155.0226 N   0  0  0  0  0  0  0  0  0  0  0  0
  153.0248  142.6195  159.7805 C   0  0  0  0  0  0  0  0  0  0  0  0
  149.0892  140.5192  152.5036 H   0  0  0  0  0  0  0  0  0  0  0  0
  154.1215  142.7740  162.3695 H   0  0  0  0  0  0  0  0  0  0  0  0
  153.1505  141.3097  162.2353 H   0  0  0  0  0  0  0  0  0  0  0  0
  152.6025  142.6374  163.2507 H   0  0  0  0  0  0  0  0  0  0  0  0
  151.3419  142.5795  161.1301 H   0  0  0  0  0  0  0  0  0  0  0  0
  151.7116  144.7870  162.1683 H   0  0  0  0  0  0  0  0  0  0  0  0
  153.2221  144.9725  161.3102 H   0  0  0  0  0  0  0  0  0  0  0  0
  150.4374  144.8075  160.0621 H   0  0  0  0  0  0  0  0  0  0  0  0
  151.4464  146.2229  160.1508 H   0  0  0  0  0  0  0  0  0  0  0  0
  151.5612  145.1658  157.8868 H   0  0  0  0  0  0  0  0  0  0  0  0
  153.1161  145.2527  158.6607 H   0  0  0  0  0  0  0  0  0  0  0  0
  153.0445  143.1126  157.7022 H   0  0  0  0  0  0  0  0  0  0  0  0
  151.8565  142.0674  156.3291 H   0  0  0  0  0  0  0  0  0  0  0  0
  150.1910  140.1415  156.2717 H   0  0  0  0  0  0  0  0  0  0  0  0
  149.0891  141.2622  157.0384 H   0  0  0  0  0  0  0  0  0  0  0  0
  149.2775  142.8100  155.0463 H   0  0  0  0  0  0  0  0  0  0  0  0
  150.3359  141.6614  154.2625 H   0  0  0  0  0  0  0  0  0  0  0  0
  145.4580  139.8428  154.2005 H   0  0  0  0  0  0  0  0  0  0  0  0
  154.0659  142.9446  159.8068 H   0  0  0  0  0  0  0  0  0  0  0  0
  153.0584  141.5333  159.6818 H   0  0  0  0  0  0  0  0  0  0  0  0
  1  2  1  0  0  0  0
  1 19  1  0  0  0  0
  1 20  1  0  0  0  0
  1 21  1  0  0  0  0
  2 17  1  0  0  0  0
  2  3  1  0  0  0  0
  2 22  1  0  0  0  0
  3  4  1  0  0  0  0
  3 23  1  0  0  0  0
  3 24  1  0  0  0  0
  4  5  1  0  0  0  0
  4 25  1  0  0  0  0
  4 26  1  0  0  0  0
  5  6  1  0  0  0  0
  5 27  1  0  0  0  0
  5 28  1  0  0  0  0
  6  7  1  0  0  0  0
  6 17  1  0  0  0  0
  6 29  1  0  0  0  0
  7  8  2  0  0  0  0
  7  9  1  0  0  0  0
  9 10  1  0  0  0  0
  9 30  1  0  0  0  0
 10 11  1  0  0  0  0
 10 31  1  0  0  0  0
 10 32  1  0  0  0  0
 11 33  1  0  0  0  0
 11 34  1  0  0  0  0
 11 12  1  0  0  0  0
 12 16  2  0  0  0  0
 12 13  1  0  0  0  0
 13 18  1  0  0  0  0
 13 14  1  0  0  0  0
 14 15  2  0  0  0  0
 15 16  1  0  0  0  0
 15 35  1  0  0  0  0
 17 36  1  0  0  0  0
 17 37  1  0  0  0  0
M  END
> <s_m_source_file>
AV-unprocessed.smi

> <i_m_source_file_index>
3032

> <i_lp_mmshare_version>
43012

> <i_f3d_flags>
0

> <s_epik_input>
W0NIM11bQ0BASF0xW0NIMl1bQ0gyXVtDSDJdW0NASF0oW0NIMl0xKUMoPU8pW05IXVtDSDJdW0NIMl1jMm5uW2NIXVtuSF0y

> <s_epik_cmdline>
J2VwaWtfcHl0aG9uJywgJy1waCcsICc3LjAnLCAnLXRuJywgJzgnLCAnLW1hJywgJzIwMCcsICctbWV0YWxfYmluZGluZycsICctaW1hZScsICc8aW5maWxlLm1hZT4nLCAnLW9tYWUnLCAnPG91dGZpbGUubWFlPic=

> <r_lp_tautomer_probability>
0.948284

> <r_epik_Ionization_Penalty>
0.000474052

> <r_epik_Ionization_Penalty_Charging>
0

> <r_epik_Ionization_Penalty_Neutral>
0.000474052

> <r_epik_State_Penalty>
0.271807

> <r_epik_Charging_Adjusted_Penalty>
0.271807

> <i_epik_Tot_Q>
0

> <i_epik_Tot_abs_Q>
0

> <r_epik_Metal_State_Penalty>
0.397201

> <b_epik_Metal_Only>
0

> <s_lp_Force_Field>
OPLS_2005

> <r_lp_Energy>
9.09743

> <b_lp_Chiralities_Consistent>
1

> <s_lp_Variant>
AV-unprocessed.smi:3032-4

> <Gold.Version>
5.8.1

> <Gold.Id.Protein>
6NUR|6NUR_protein|mol2

> <Gold.PLP.Fitness>
46.1846

> <Gold.PLP.PLP>
-40.9299

> <Gold.PLP.part.hbond>
-1.3735

> <Gold.PLP.part.metal>
0.0000

> <Gold.PLP.part.buried>
-5.0640

> <Gold.PLP.part.nonpolar>
-35.3325

> <Gold.PLP.part.repulsive>
0.8640

> <Gold.PLP.ligand.clash>
0.0000

> <Gold.PLP.ligand.torsion>
0.1199

> <Gold.PLP.Chemscore.Hbond>
0.9920

> <Gold.PLP.Chemscore.CHOScore>
0.8242

> <Gold.PLP.Chemscore.Metal>
0.0000

> <Gold.Chemscore.Hbonds>
donor molecule, donor type, donor heavy atom, donor atom, acceptor molecule, acceptor atom, score
      L1  H    13    18       P1  7957  0.91
      L1  C    15    35       P1 10175  0.74

> <Gold.PLP.Chemscore.Internal.Correction>
0.0458

> <Gold.Rescore>
     Score         DG    S(hbond)    S(metal)    S(lipo)     H(rot)  DE(clash)    DE(int)     intcor
     14.51     -14.66       0.96        0.00     100.25       2.25       0.08       0.07       ----

> <Gold.Chemscore.Fitness>
14.5075

> <Gold.Chemscore.DG>
-14.6596

> <Gold.Chemscore.ZeroCoef>
-5.4800

> <Gold.Chemscore.Hbond>
0.9613

> <Gold.Chemscore.Metal>
0.0000

> <Gold.Chemscore.Lipo>
100.2489

> <Gold.Chemscore.Internal_Hbond>
0.0000

> <Gold.Chemscore.DEClash>
0.0834

> <Gold.Chemscore.DEInternal>
0.0687

> <Gold.Chemscore.Rot>
2.2501

> <Gold.Chemscore.Internal.Correction>
   9.000000E+99

> <Gold.Chemscore.Hbonds>
donor molecule, donor type, donor heavy atom, donor atom, acceptor molecule, acceptor atom, score
      L1  H    13    18       P1  7957  0.83

> <Gold.Chemscore.Hbond.Weighted>
-3.2108

> <Gold.Chemscore.Metal.Weighted>
-0.0000

> <Gold.Chemscore.Lipo.Weighted>
-11.7291

> <Gold.Chemscore.Internal_Hbond.Weighted>
0.0000

> <Gold.Chemscore.DEClash.Weighted>
0.0834

> <Gold.Chemscore.DEInternal.Weighted>
0.0687

> <Gold.Chemscore.Rot.Weighted>
5.7603

> <Gold.Chemscore.Internal.Correction.Weighted>
   9.000000E+99

> <Gold.Protein.RotatedTorsions>
[ 6907 6896 6895 6894 ] final   81.22 input  -60.11 | X-H torsion
[ 7974 7965 7964 7962 ] final   33.45 input  175.53 | X-H torsion
[ 8008 7997 7996 7995 ] final  152.43 input   59.86 | X-H torsion
[ 10167 10162 10161 10158 ] final   -5.43 input  -65.29 | X-H torsion
[ 10718 10713 10712 10709 ] final  168.74 input   66.30 | X-H torsion
[ 10763 10752 10751 10750 ] final   42.41 input  -60.55 | X-H torsion
[ 11005 11000 10999 10996 ] final    0.15 input  -57.11 | X-H torsion

> <Gold.Protein.ActiveResidues>
 VAL166  LYS551  ARG553  GLY616  TRP617  ASP618  TYR619  PRO620  LYS621  CYS622 
 ASP623  PHE694  ASN695  SER759  ASP760  ASP761  ALA762  ILE779  LEU786  VAL792 
 PHE793  MET794  SER795  GLU796  ALA797  LYS798  CYS799  TRP800  GLU811  SER814 

> <Gold.Protein.RotatedAtoms>
  152.5261  134.3237  159.9157 H   0  0  0  0  0  0  0  0  0  0  0  0  # atno 6907 bound_to 6896
  151.3186  133.4043  159.2660 H   0  0  0  0  0  0  0  0  0  0  0  0  # atno 6908 bound_to 6896
  150.9978  134.9315  159.7994 H   0  0  0  0  0  0  0  0  0  0  0  0  # atno 6909 bound_to 6896
  146.1420  139.6395  142.9157 H   0  0  0  0  0  0  0  0  0  0  0  0  # atno 7974 bound_to 7965
  156.2629  140.2021  156.6332 H   0  0  0  0  0  0  0  0  0  0  0  0  # atno 8008 bound_to 7997
  154.6666  140.0555  157.0145 H   0  0  0  0  0  0  0  0  0  0  0  0  # atno 8009 bound_to 7997
  155.1197  140.3223  155.4503 H   0  0  0  0  0  0  0  0  0  0  0  0  # atno 8010 bound_to 7997
  140.6963  143.6309  150.8524 H   0  0  0  0  0  0  0  0  0  0  0  0  # atno 10167 bound_to 10162
  157.0327  131.0264  151.2739 H   0  0  0  0  0  0  0  0  0  0  0  0  # atno 10718 bound_to 10713
  152.9883  135.6132  154.2946 H   0  0  0  0  0  0  0  0  0  0  0  0  # atno 10763 bound_to 10752
  154.2669  135.2780  155.2756 H   0  0  0  0  0  0  0  0  0  0  0  0  # atno 10764 bound_to 10752
  154.5156  135.5829  153.6697 H   0  0  0  0  0  0  0  0  0  0  0  0  # atno 10765 bound_to 10752
  140.6297  133.9586  155.8268 H   0  0  0  0  0  0  0  0  0  0  0  0  # atno 11005 bound_to 11000
  145.5026  141.0437  143.2532 LP  0  0  0  0  0  0  0  0  0  0  0  0  # atno 17320 bound_to 7965
  144.7803  139.6541  143.7157 LP  0  0  0  0  0  0  0  0  0  0  0  0  # atno 17321 bound_to 7965
  140.0027  143.5726  152.2869 LP  0  0  0  0  0  0  0  0  0  0  0  0  # atno 17342 bound_to 10162
  139.6422  144.7655  151.2316 LP  0  0  0  0  0  0  0  0  0  0  0  0  # atno 17343 bound_to 10162
  157.5165  130.7971  149.7762 LP  0  0  0  0  0  0  0  0  0  0  0  0  # atno 17370 bound_to 10713
  156.0064  130.3853  150.2416 LP  0  0  0  0  0  0  0  0  0  0  0  0  # atno 17371 bound_to 10713
  141.0684  134.0243  157.3561 LP  0  0  0  0  0  0  0  0  0  0  0  0  # atno 17394 bound_to 11000
  139.9121  135.0191  156.7732 LP  0  0  0  0  0  0  0  0  0  0  0  0  # atno 17395 bound_to 11000

$$$$
