#       Name:                AV-unprocessed.smi:38
#       Creating user name   scv26
#       Creation time:       Thu Mar 26 16:18:41 2020


#       File generated by GOLD software.
#

@<TRIPOS>MOLECULE
AV-unprocessed.smi:38
    38    39     1
SMALL
NO_CHARGES


@<TRIPOS>ATOM
      1 ****        -4.3027   2.7617  -1.8414 O.2            1 S1                 0.0000
      2 ****        -3.3656   2.2906  -1.1984 C.2            1 S1                 0.0000
      3 ****        -3.3854   2.1785   0.1612 N.pl3          1 S1                -1.0000
      4 ****        -2.3453   1.6533   0.8730 C.2            1 S1                 0.0000
      5 ****        -2.3554   1.5483   2.0998 O.2            1 S1                 0.0000
      6 ****        -1.1918   1.1998   0.1757 N.am           1 S1                 0.0000
      7 ****        -0.0407   0.6175   0.9730 C.3            1 S1                 0.0000
      8 ****        -0.3830  -0.8005   1.4667 C.3            1 S1                 0.0000
      9 ****         0.8053  -1.6284   1.0110 C.3            1 S1                 0.0000
     10 ****         1.7790  -1.7136   2.0349 O.3            1 S1                 0.0000
     11 ****         1.3101  -0.8433  -0.2050 C.3            1 S1                 0.0000
     12 ****         2.7709  -1.0767  -0.6284 C.3            1 S1                 0.0000
     13 ****         2.9511  -2.4066  -1.0676 O.3            1 S1                 0.0000
     14 ****         1.0965   0.5143   0.1640 O.3            1 S1                 0.0000
     15 ****        -1.1427   1.3071  -1.2052 C.2            1 S1                 0.0000
     16 ****        -2.1727   1.8270  -1.9039 C.2            1 S1                 0.0000
     17 ****        -2.0949   1.9171  -3.2429 F              1 S1                 0.0000
     18 ****         0.1558   1.3324   1.7738 H              1 S1                 0.0000
     19 ****         0.5085  -2.6416   0.7385 H              1 S1                 0.0000
     20 ****         0.6556  -1.0591  -1.0512 H              1 S1                 0.0000
     21 ****        -0.5457  -0.8129   2.5452 H              1 S1                 0.0000
     22 ****        -1.2918  -1.1526   0.9761 H              1 S1                 0.0000
     23 ****         2.5142  -2.2081   1.7065 H              1 S1                 0.0000
     24 ****         3.0294  -0.4065  -1.4486 H              1 S1                 0.0000
     25 ****         3.4635  -0.8612   0.1854 H              1 S1                 0.0000
     26 ****         3.8492  -2.5130  -1.3416 H              1 S1                 0.0000
     27 ****        -0.2727   0.9761  -1.7510 H              1 S1                 0.0000
     28 ****        -4.2438   2.8247  -2.8377 LP             1 S1                 0.0000
     29 ****        -5.1232   3.0817  -1.3678 LP             1 S1                 0.0000
     30 ****        -4.1947   2.4939   0.6567 LP             1 S1                 0.0000
     31 ****        -3.1515   1.8552   2.6214 LP             1 S1                 0.0000
     32 ****        -1.5674   1.1562   2.5746 LP             1 S1                 0.0000
     33 ****         1.3909  -2.1750   2.8327 LP             1 S1                 0.0000
     34 ****         2.0782  -0.7952   2.2938 LP             1 S1                 0.0000
     35 ****         2.3396  -2.5937  -1.8363 LP             1 S1                 0.0000
     36 ****         2.7495  -3.0390  -0.3197 LP             1 S1                 0.0000
     37 ****         1.8927   0.8497   0.6676 LP             1 S1                 0.0000
     38 ****         0.9674   1.0652  -0.6605 LP             1 S1                 0.0000
@<TRIPOS>BOND
    1    1    2 2     
    2    2   16 1     
    3    2    3 1     
    4    3    4 1     
    5    4    5 2     
    6    4    6 am    
    7    6    7 1     
    8    6   15 1     
    9    7   18 1     
   10    7   14 1     
   11    7    8 1     
   12    8    9 1     
   13    8   21 1     
   14    8   22 1     
   15    9   19 1     
   16    9   10 1     
   17    9   11 1     
   18   10   23 1     
   19   11   20 1     
   20   11   12 1     
   21   11   14 1     
   22   12   13 1     
   23   12   24 1     
   24   12   25 1     
   25   13   26 1     
   26   15   16 2     
   27   15   27 1     
   28   16   17 1     
   29    1   28 1     
   30    1   29 1     
   31    3   30 1     
   32    5   31 1     
   33    5   32 1     
   34   10   33 1     
   35   10   34 1     
   36   13   35 1     
   37   13   36 1     
   38   14   37 1     
   39   14   38 1     
@<TRIPOS>SUBSTRUCTURE
      1 S1             1
@<TRIPOS>SET
LONE_PAIRS      STATIC     ATOMS    <user>   **** ""
11 28 29 30 31 32 33 34 35 36 37 38
DONOR_HYDROGENS      STATIC     ATOMS    <user>   **** ""
2 23 26
ATOM$BLUE        STATIC     ATOMS    COLORGROUP SYSTEM
11 28 29 30 31 32 33 34 35 36 37 38
ATOM$RED        STATIC     ATOMS    COLORGROUP SYSTEM
2 23 26
