AV-unprocessed.smi:1515|AV-procd|sdf|6117|dock4
  -GOLD-   22720 6253D 1   1.00000     0.00000
 Structure written by MMmdl.
 34 35  0  0  0  0  0  0  0  0  1 V2000
  151.6872  138.3661  154.4457 C   0  0  0  0  0  0  0  0  0  0  0  0
  150.3395  138.2966  153.9924 O   0  0  0  0  0  0  0  0  0  0  0  0
  149.5502  139.4267  154.0930 C   0  0  0  0  0  0  0  0  0  0  0  0
  150.0738  140.5274  154.6891 N   0  0  0  0  0  0  0  0  0  0  0  0
  149.3083  141.6340  154.7823 C   0  0  0  0  0  0  0  0  0  0  0  0
  147.9940  141.7050  154.2863 C   0  0  0  0  0  0  0  0  0  0  0  0
  147.4482  140.5648  153.6686 C   0  0  0  0  0  0  0  0  0  0  0  0
  148.2343  139.3904  153.5751 C   0  0  0  0  0  0  0  0  0  0  0  0
  147.7895  138.1917  152.9510 N   0  0  0  0  0  0  0  0  0  0  0  0
  146.5336  137.7348  152.8099 C   0  0  0  0  0  0  0  0  0  0  0  0
  145.5241  138.2783  153.2575 O   0  0  0  0  0  0  0  0  0  0  0  0
  146.5128  136.5825  152.1249 N   0  0  0  0  0  0  0  0  0  0  0  0
  145.3144  135.8231  151.7862 C   0  0  0  0  0  0  0  0  0  0  0  0
  145.6367  134.6622  150.8482 C   0  0  0  0  0  0  0  0  0  0  0  0
  144.5770  133.5884  150.5522 C   0  0  0  0  0  0  0  0  0  0  0  0
  145.7050  132.5556  150.4942 C   0  0  0  0  0  0  0  0  0  0  0  0
  146.5382  133.5207  151.3418 C   0  0  0  0  0  0  0  0  0  0  0  0
  152.1680  137.3998  154.2945 H   0  0  0  0  0  0  0  0  0  0  0  0
  151.7388  138.5978  155.5105 H   0  0  0  0  0  0  0  0  0  0  0  0
  152.2586  139.1101  153.8890 H   0  0  0  0  0  0  0  0  0  0  0  0
  149.7596  142.4908  155.2603 H   0  0  0  0  0  0  0  0  0  0  0  0
  147.4190  142.6151  154.3723 H   0  0  0  0  0  0  0  0  0  0  0  0
  146.4486  140.6207  153.2670 H   0  0  0  0  0  0  0  0  0  0  0  0
  148.5230  137.5864  152.6118 H   0  0  0  0  0  0  0  0  0  0  0  0
  147.3927  136.2062  151.8038 H   0  0  0  0  0  0  0  0  0  0  0  0
  144.8871  135.4442  152.7147 H   0  0  0  0  0  0  0  0  0  0  0  0
  144.5567  136.4768  151.3509 H   0  0  0  0  0  0  0  0  0  0  0  0
  146.0365  135.0311  149.9011 H   0  0  0  0  0  0  0  0  0  0  0  0
  143.8971  133.4197  151.3891 H   0  0  0  0  0  0  0  0  0  0  0  0
  144.0343  133.7291  149.6170 H   0  0  0  0  0  0  0  0  0  0  0  0
  145.4783  131.6029  150.9737 H   0  0  0  0  0  0  0  0  0  0  0  0
  146.1050  132.4206  149.4880 H   0  0  0  0  0  0  0  0  0  0  0  0
  147.5839  133.6042  151.0448 H   0  0  0  0  0  0  0  0  0  0  0  0
  146.4383  133.3333  152.4123 H   0  0  0  0  0  0  0  0  0  0  0  0
  1  2  1  0  0  0  0
  1 18  1  0  0  0  0
  1 19  1  0  0  0  0
  1 20  1  0  0  0  0
  2  3  1  0  0  0  0
  3  8  1  0  0  0  0
  3  4  2  0  0  0  0
  4  5  1  0  0  0  0
  5  6  2  0  0  0  0
  5 21  1  0  0  0  0
  6  7  1  0  0  0  0
  6 22  1  0  0  0  0
  7  8  2  0  0  0  0
  7 23  1  0  0  0  0
  8  9  1  0  0  0  0
  9 10  1  0  0  0  0
  9 24  1  0  0  0  0
 10 11  2  0  0  0  0
 10 12  1  0  0  0  0
 12 13  1  0  0  0  0
 12 25  1  0  0  0  0
 13 14  1  0  0  0  0
 13 26  1  0  0  0  0
 13 27  1  0  0  0  0
 14 17  1  0  0  0  0
 14 15  1  0  0  0  0
 14 28  1  0  0  0  0
 15 16  1  0  0  0  0
 15 29  1  0  0  0  0
 15 30  1  0  0  0  0
 16 17  1  0  0  0  0
 16 31  1  0  0  0  0
 16 32  1  0  0  0  0
 17 33  1  0  0  0  0
 17 34  1  0  0  0  0
M  END
> <s_m_source_file>
AV-unprocessed.smi

> <i_m_source_file_index>
1515

> <i_lp_mmshare_version>
43012

> <i_f3d_flags>
0

> <s_epik_input>
W0NIM11PYzFuW2NIXVtjSF1bY0hdYzFbTkhdQyg9TylbTkhdW0NIMl1bQ0hdMltDSDJdW0NIMl1bQ0gyXTI=

> <s_epik_cmdline>
J2VwaWtfcHl0aG9uJywgJy1waCcsICc3LjAnLCAnLXRuJywgJzgnLCAnLW1hJywgJzIwMCcsICctbWV0YWxfYmluZGluZycsICctaW1hZScsICc8aW5maWxlLm1hZT4nLCAnLW9tYWUnLCAnPG91dGZpbGUubWFlPic=

> <r_lp_tautomer_probability>
1

> <r_epik_Ionization_Penalty>
9.92152e-05

> <r_epik_Ionization_Penalty_Charging>
0

> <r_epik_Ionization_Penalty_Neutral>
9.92152e-05

> <r_epik_State_Penalty>
-0

> <r_epik_Charging_Adjusted_Penalty>
0

> <i_epik_Tot_Q>
0

> <i_epik_Tot_abs_Q>
0

> <r_epik_Metal_State_Penalty>
-0

> <b_epik_Metal_Only>
0

> <s_lp_Force_Field>
OPLS_2005

> <r_lp_Energy>
15.166

> <b_lp_Chiralities_Consistent>
1

> <s_lp_Variant>
AV-unprocessed.smi:1515-1

> <Gold.Version>
5.8.1

> <Gold.Id.Protein>
6NUR|6NUR_protein|mol2

> <Gold.PLP.Fitness>
41.9408

> <Gold.PLP.PLP>
-30.5962

> <Gold.PLP.part.hbond>
-3.5197

> <Gold.PLP.part.metal>
0.0000

> <Gold.PLP.part.buried>
-0.1872

> <Gold.PLP.part.nonpolar>
-28.9914

> <Gold.PLP.part.repulsive>
1.9947

> <Gold.PLP.ligand.clash>
0.0000

> <Gold.PLP.ligand.torsion>
0.2226

> <Gold.PLP.Chemscore.Hbond>
2.9120

> <Gold.PLP.Chemscore.CHOScore>
0.9959

> <Gold.PLP.Chemscore.Metal>
0.0000

> <Gold.Chemscore.Hbonds>
donor molecule, donor type, donor heavy atom, donor atom, acceptor molecule, acceptor atom, score
      L1  H     9    24       P1  7948  0.99
      L1  H    12    25       P1  7948  1.00
      P1  H  7989  7998       L1     4  0.90
      L1  C     5    21       P1  8028  1.00

> <Gold.PLP.Chemscore.Internal.Correction>
0.0661

> <Gold.Rescore>
     Score         DG    S(hbond)    S(metal)    S(lipo)     H(rot)  DE(clash)    DE(int)     intcor
     15.06     -16.83       2.13        0.00      67.69       1.44       0.54       1.23       ----

> <Gold.Chemscore.Fitness>
15.0628

> <Gold.Chemscore.DG>
-16.8349

> <Gold.Chemscore.ZeroCoef>
-5.4800

> <Gold.Chemscore.Hbond>
2.1313

> <Gold.Chemscore.Metal>
0.0000

> <Gold.Chemscore.Lipo>
67.6943

> <Gold.Chemscore.Internal_Hbond>
0.0000

> <Gold.Chemscore.DEClash>
0.5422

> <Gold.Chemscore.DEInternal>
1.2299

> <Gold.Chemscore.Rot>
1.4391

> <Gold.Chemscore.Internal.Correction>
   9.000000E+99

> <Gold.Chemscore.Hbonds>
donor molecule, donor type, donor heavy atom, donor atom, acceptor molecule, acceptor atom, score
      L1  H     9    24       P1  7948  0.92
      L1  H    12    25       P1  7948  0.88
      P1  H  7989  7998       L1     4  0.15

> <Gold.Chemscore.Hbond.Weighted>
-7.1187

> <Gold.Chemscore.Metal.Weighted>
-0.0000

> <Gold.Chemscore.Lipo.Weighted>
-7.9202

> <Gold.Chemscore.Internal_Hbond.Weighted>
0.0000

> <Gold.Chemscore.DEClash.Weighted>
0.5422

> <Gold.Chemscore.DEInternal.Weighted>
1.2299

> <Gold.Chemscore.Rot.Weighted>
3.6840

> <Gold.Chemscore.Internal.Correction.Weighted>
   9.000000E+99

> <Gold.Protein.RotatedTorsions>
[ 6907 6896 6895 6894 ] final  137.55 input  -60.11 | X-H torsion
[ 7974 7965 7964 7962 ] final -119.72 input  175.53 | X-H torsion
[ 8008 7997 7996 7995 ] final  103.32 input   59.86 | X-H torsion
[ 10167 10162 10161 10158 ] final  -28.91 input  -65.29 | X-H torsion
[ 10718 10713 10712 10709 ] final  -53.18 input   66.30 | X-H torsion
[ 10763 10752 10751 10750 ] final   51.73 input  -60.55 | X-H torsion
[ 11005 11000 10999 10996 ] final  -22.15 input  -57.11 | X-H torsion

> <Gold.Protein.ActiveResidues>
 VAL166  LYS551  ARG553  GLY616  TRP617  ASP618  TYR619  PRO620  LYS621  CYS622 
 ASP623  PHE694  ASN695  SER759  ASP760  ASP761  ALA762  ILE779  LEU786  VAL792 
 PHE793  MET794  SER795  GLU796  ALA797  LYS798  CYS799  TRP800  GLU811  SER814 

> <Gold.Protein.RotatedAtoms>
  152.2768  133.5433  159.5472 H   0  0  0  0  0  0  0  0  0  0  0  0  # atno 6907 bound_to 6896
  150.7180  134.0621  159.3843 H   0  0  0  0  0  0  0  0  0  0  0  0  # atno 6908 bound_to 6896
  151.8533  135.0550  160.0512 H   0  0  0  0  0  0  0  0  0  0  0  0  # atno 6909 bound_to 6896
  145.0593  140.8278  143.4162 H   0  0  0  0  0  0  0  0  0  0  0  0  # atno 7974 bound_to 7965
  156.1473  140.3166  155.8591 H   0  0  0  0  0  0  0  0  0  0  0  0  # atno 8008 bound_to 7997
  155.4039  140.0501  157.3052 H   0  0  0  0  0  0  0  0  0  0  0  0  # atno 8009 bound_to 7997
  154.5027  140.2135  155.9324 H   0  0  0  0  0  0  0  0  0  0  0  0  # atno 8010 bound_to 7997
  140.7265  143.3971  151.1328 H   0  0  0  0  0  0  0  0  0  0  0  0  # atno 10167 bound_to 10162
  156.1557  130.4150  149.9872 H   0  0  0  0  0  0  0  0  0  0  0  0  # atno 10718 bound_to 10713
  152.9786  135.5836  154.4463 H   0  0  0  0  0  0  0  0  0  0  0  0  # atno 10763 bound_to 10752
  154.4058  135.2769  155.2070 H   0  0  0  0  0  0  0  0  0  0  0  0  # atno 10764 bound_to 10752
  154.3881  135.6131  153.5882 H   0  0  0  0  0  0  0  0  0  0  0  0  # atno 10765 bound_to 10752
  140.8629  133.7775  156.0096 H   0  0  0  0  0  0  0  0  0  0  0  0  # atno 11005 bound_to 11000
  145.1428  139.2561  143.5481 LP  0  0  0  0  0  0  0  0  0  0  0  0  # atno 17320 bound_to 7965
  146.3523  140.1110  142.8604 LP  0  0  0  0  0  0  0  0  0  0  0  0  # atno 17321 bound_to 7965
  139.7585  143.8670  152.3094 LP  0  0  0  0  0  0  0  0  0  0  0  0  # atno 17342 bound_to 10162
  139.8548  144.7146  150.9170 LP  0  0  0  0  0  0  0  0  0  0  0  0  # atno 17343 bound_to 10162
  156.7717  130.9188  151.3644 LP  0  0  0  0  0  0  0  0  0  0  0  0  # atno 17370 bound_to 10713
  157.6693  130.9036  150.0004 LP  0  0  0  0  0  0  0  0  0  0  0  0  # atno 17371 bound_to 10713
  140.8662  134.2782  157.5212 LP  0  0  0  0  0  0  0  0  0  0  0  0  # atno 17394 bound_to 11000
  139.8708  134.9543  156.4173 LP  0  0  0  0  0  0  0  0  0  0  0  0  # atno 17395 bound_to 11000

$$$$
