AV-unprocessed.smi:265|AV-procd|sdf|2029|dock5
  -GOLD-   2262021233D 1   1.00000     0.00000
 Structure written by MMmdl.
 52 56  0  0  0  0  0  0  0  0  1 V2000
  151.7984  141.8980  159.9615 C   0  0  0  0  0  0  0  0  0  0  0  0
  152.4199  142.7076  158.8129 C   0  0  2  0  0  0  0  0  0  0  0  0
  152.9231  143.9606  159.2738 O   0  0  0  0  0  0  0  0  0  0  0  0
  152.5441  145.0068  158.3866 C   0  0  0  0  0  0  0  0  0  0  0  0
  152.1178  144.3103  157.0983 C   0  0  0  0  0  0  0  0  0  0  0  0
  151.4997  143.0165  157.6105 C   0  0  2  0  0  0  0  0  0  0  0  0
  150.1825  143.2943  158.0561 O   0  0  0  0  0  0  0  0  0  0  0  0
  151.3663  141.8852  156.5579 C   0  0  0  0  0  0  0  0  0  0  0  0
  150.8194  140.6355  157.0633 N   0  0  0  0  0  0  0  0  0  0  0  0
  149.4890  140.2857  157.1395 C   0  0  0  0  0  0  0  0  0  0  0  0
  149.2498  139.1027  157.6369 N   0  0  0  0  0  0  0  0  0  0  0  0
  150.5106  138.6083  157.9441 C   0  0  0  0  0  0  0  0  0  0  0  0
  150.9836  137.3963  158.5095 C   0  0  0  0  0  0  0  0  0  0  0  0
  150.1455  136.4040  158.8754 N   0  0  0  0  0  0  0  0  0  0  0  0
  149.6057  135.6460  157.7458 C   0  0  0  0  0  0  0  0  0  0  0  0
  148.8233  134.4105  158.2305 C   0  0  0  0  0  0  0  0  0  0  0  0
  147.7476  134.8389  159.2382 C   0  0  1  0  0  0  0  0  0  0  0  0
  147.0683  133.7255  159.7988 O   0  0  0  0  0  0  0  0  0  0  0  0
  145.9550  134.0934  160.6214 C   0  0  0  0  0  0  0  0  0  0  0  0
  146.2920  135.2254  161.6159 C   0  0  0  0  0  0  0  0  0  0  0  0
  145.5204  135.4793  162.5382 O   0  0  0  0  0  0  0  0  0  0  0  0
  147.4143  135.9352  161.4130 N   0  0  0  0  0  0  0  0  0  0  0  0
  148.4094  135.5832  160.4091 C   0  0  2  0  0  0  0  0  0  0  0  0
  149.1698  136.8121  159.8856 C   0  0  0  0  0  0  0  0  0  0  0  0
  152.3240  137.2490  158.6772 N   0  0  0  0  0  0  0  0  0  0  0  0
  153.1518  138.2333  158.3123 C   0  0  0  0  0  0  0  0  0  0  0  0
  152.8546  139.4173  157.7711 N   0  0  0  0  0  0  0  0  0  0  0  0
  151.5086  139.5619  157.6005 C   0  0  0  0  0  0  0  0  0  0  0  0
  147.0276  135.4837  158.7295 H   0  0  0  0  0  0  0  0  0  0  0  0
  149.1230  134.9158  160.8961 H   0  0  0  0  0  0  0  0  0  0  0  0
  151.4141  140.9430  159.6031 H   0  0  0  0  0  0  0  0  0  0  0  0
  150.9775  142.4360  160.4358 H   0  0  0  0  0  0  0  0  0  0  0  0
  152.5407  141.6882  160.7316 H   0  0  0  0  0  0  0  0  0  0  0  0
  153.3025  142.1747  158.4626 H   0  0  0  0  0  0  0  0  0  0  0  0
  151.7056  145.5499  158.8241 H   0  0  0  0  0  0  0  0  0  0  0  0
  153.3599  145.7131  158.2311 H   0  0  0  0  0  0  0  0  0  0  0  0
  151.4398  144.9105  156.4903 H   0  0  0  0  0  0  0  0  0  0  0  0
  153.0094  144.1109  156.5052 H   0  0  0  0  0  0  0  0  0  0  0  0
  149.6930  143.6633  157.3371 H   0  0  0  0  0  0  0  0  0  0  0  0
  150.7333  142.2192  155.7344 H   0  0  0  0  0  0  0  0  0  0  0  0
  152.3413  141.6689  156.1188 H   0  0  0  0  0  0  0  0  0  0  0  0
  148.6954  140.9382  156.8052 H   0  0  0  0  0  0  0  0  0  0  0  0
  148.9495  136.2894  157.1578 H   0  0  0  0  0  0  0  0  0  0  0  0
  150.4193  135.3342  157.0893 H   0  0  0  0  0  0  0  0  0  0  0  0
  148.3670  133.8978  157.3835 H   0  0  0  0  0  0  0  0  0  0  0  0
  149.5078  133.7003  158.6964 H   0  0  0  0  0  0  0  0  0  0  0  0
  145.1320  134.4213  159.9854 H   0  0  0  0  0  0  0  0  0  0  0  0
  145.6102  133.2142  161.1661 H   0  0  0  0  0  0  0  0  0  0  0  0
  147.6249  136.7009  162.0365 H   0  0  0  0  0  0  0  0  0  0  0  0
  149.6814  137.3134  160.7087 H   0  0  0  0  0  0  0  0  0  0  0  0
  148.4718  137.5306  159.4531 H   0  0  0  0  0  0  0  0  0  0  0  0
  154.2028  138.0454  158.4760 H   0  0  0  0  0  0  0  0  0  0  0  0
  1  2  1  0  0  0  0
  1 31  1  0  0  0  0
  1 32  1  0  0  0  0
  1 33  1  0  0  0  0
  2  6  1  0  0  0  0
  2  3  1  0  0  0  0
  2 34  1  0  0  0  0
  3  4  1  0  0  0  0
  4  5  1  0  0  0  0
  4 35  1  0  0  0  0
  4 36  1  0  0  0  0
  5  6  1  0  0  0  0
  5 37  1  0  0  0  0
  5 38  1  0  0  0  0
  6  7  1  0  0  0  0
  6  8  1  0  0  0  0
  7 39  1  0  0  0  0
  8  9  1  0  0  0  0
  8 40  1  0  0  0  0
  8 41  1  0  0  0  0
  9 28  1  0  0  0  0
  9 10  1  0  0  0  0
 10 11  2  0  0  0  0
 10 42  1  0  0  0  0
 11 12  1  0  0  0  0
 12 28  2  0  0  0  0
 12 13  1  0  0  0  0
 13 14  1  0  0  0  0
 13 25  2  0  0  0  0
 14 24  1  0  0  0  0
 14 15  1  0  0  0  0
 15 16  1  0  0  0  0
 15 43  1  0  0  0  0
 15 44  1  0  0  0  0
 16 17  1  0  0  0  0
 16 45  1  0  0  0  0
 16 46  1  0  0  0  0
 17 29  1  0  0  0  0
 17 23  1  0  0  0  0
 17 18  1  0  0  0  0
 18 19  1  0  0  0  0
 19 20  1  0  0  0  0
 19 47  1  0  0  0  0
 19 48  1  0  0  0  0
 20 21  2  0  0  0  0
 20 22  1  0  0  0  0
 22 23  1  0  0  0  0
 22 49  1  0  0  0  0
 23 30  1  0  0  0  0
 23 24  1  0  0  0  0
 24 50  1  0  0  0  0
 24 51  1  0  0  0  0
 25 26  1  0  0  0  0
 26 27  2  0  0  0  0
 26 52  1  0  0  0  0
 27 28  1  0  0  0  0
M  END
> <s_m_source_file>
AV-unprocessed.smi

> <i_m_source_file_index>
265

> <i_lp_mmshare_version>
43012

> <i_f3d_flags>
0

> <s_epik_input>
W0NIMl0xW0NIMl1PW0NAQEhdKFtDSDNdKVtDQEBdMShbT0hdKVtDSDJdbihbY0hdbjIpYyhjMjMpbltjSF1uYzNOKFtDSDJdW0NIMl00KVtDSDJdW0NAQEhdKFtDQEhdNDUpW05IXUMoPU8pW0NIMl1PNQ==

> <s_epik_cmdline>
J2VwaWtfcHl0aG9uJywgJy1waCcsICc3LjAnLCAnLXRuJywgJzgnLCAnLW1hJywgJzIwMCcsICctbWV0YWxfYmluZGluZycsICctaW1hZScsICc8aW5maWxlLm1hZT4nLCAnLW9tYWUnLCAnPG91dGZpbGUubWFlPic=

> <r_lp_tautomer_probability>
1

> <r_epik_Ionization_Penalty>
0.00221504

> <r_epik_Ionization_Penalty_Charging>
0

> <r_epik_Ionization_Penalty_Neutral>
0.00221504

> <r_epik_State_Penalty>
-0

> <r_epik_Charging_Adjusted_Penalty>
0

> <i_epik_Tot_Q>
0

> <i_epik_Tot_abs_Q>
0

> <r_epik_Metal_State_Penalty>
-0

> <b_epik_Metal_Only>
0

> <s_lp_Force_Field>
OPLS_2005

> <r_lp_Energy>
49.142

> <b_lp_Chiralities_Consistent>
1

> <s_lp_Variant>
AV-unprocessed.smi:265-15

> <Gold.Version>
5.8.1

> <Gold.Id.Protein>
6NUR|6NUR_protein|mol2

> <Gold.PLP.Fitness>
41.8465

> <Gold.PLP.PLP>
-34.2022

> <Gold.PLP.part.hbond>
-3.0000

> <Gold.PLP.part.metal>
0.0000

> <Gold.PLP.part.buried>
-6.0951

> <Gold.PLP.part.nonpolar>
-25.5205

> <Gold.PLP.part.repulsive>
0.1221

> <Gold.PLP.ligand.clash>
0.0000

> <Gold.PLP.ligand.torsion>
0.5650

> <Gold.PLP.Chemscore.Hbond>
2.8509

> <Gold.PLP.Chemscore.CHOScore>
0.0000

> <Gold.PLP.Chemscore.Metal>
0.0000

> <Gold.Chemscore.Hbonds>
donor molecule, donor type, donor heavy atom, donor atom, acceptor molecule, acceptor atom, score
      L1  H     7    39       P1  8028  0.76
      P1  H  6896  6908       L1    14  0.95
      P1  H  7997  8009       L1    27  1.00

> <Gold.PLP.Chemscore.Internal.Correction>
0.2217

> <Gold.Rescore>
     Score         DG    S(hbond)    S(metal)    S(lipo)     H(rot)  DE(clash)    DE(int)     intcor
     14.34     -16.22       1.68        0.00      93.02       2.25       1.32       0.56       ----

> <Gold.Chemscore.Fitness>
14.3361

> <Gold.Chemscore.DG>
-16.2168

> <Gold.Chemscore.ZeroCoef>
-5.4800

> <Gold.Chemscore.Hbond>
1.6769

> <Gold.Chemscore.Metal>
0.0000

> <Gold.Chemscore.Lipo>
93.0236

> <Gold.Chemscore.Internal_Hbond>
0.0000

> <Gold.Chemscore.DEClash>
1.3164

> <Gold.Chemscore.DEInternal>
0.5643

> <Gold.Chemscore.Rot>
2.2453

> <Gold.Chemscore.Internal.Correction>
   9.000000E+99

> <Gold.Chemscore.Hbonds>
donor molecule, donor type, donor heavy atom, donor atom, acceptor molecule, acceptor atom, score
      L1  H     7    39       P1  8028  0.59
      P1  H  6896  6908       L1    14  0.05
      P1  H  7997  8009       L1    27  0.73

> <Gold.Chemscore.Hbond.Weighted>
-5.6010

> <Gold.Chemscore.Metal.Weighted>
-0.0000

> <Gold.Chemscore.Lipo.Weighted>
-10.8838

> <Gold.Chemscore.Internal_Hbond.Weighted>
0.0000

> <Gold.Chemscore.DEClash.Weighted>
1.3164

> <Gold.Chemscore.DEInternal.Weighted>
0.5643

> <Gold.Chemscore.Rot.Weighted>
5.7479

> <Gold.Chemscore.Internal.Correction.Weighted>
   9.000000E+99

> <Gold.Protein.RotatedTorsions>
[ 6907 6896 6895 6894 ] final -155.62 input  -60.11 | X-H torsion
[ 7974 7965 7964 7962 ] final  134.84 input  175.53 | X-H torsion
[ 8008 7997 7996 7995 ] final -177.89 input   59.86 | X-H torsion
[ 10167 10162 10161 10158 ] final -104.73 input  -65.29 | X-H torsion
[ 10718 10713 10712 10709 ] final  150.24 input   66.30 | X-H torsion
[ 10763 10752 10751 10750 ] final   17.70 input  -60.55 | X-H torsion
[ 11005 11000 10999 10996 ] final   46.59 input  -57.11 | X-H torsion

> <Gold.Protein.ActiveResidues>
 VAL166  LYS551  ARG553  GLY616  TRP617  ASP618  TYR619  PRO620  LYS621  CYS622 
 ASP623  PHE694  ASN695  SER759  ASP760  ASP761  ALA762  ILE779  LEU786  VAL792 
 PHE793  MET794  SER795  GLU796  ALA797  LYS798  CYS799  TRP800  GLU811  SER814 

> <Gold.Protein.RotatedAtoms>
  151.2752  133.4236  159.2623 H   0  0  0  0  0  0  0  0  0  0  0  0  # atno 6907 bound_to 6896
  151.0409  134.9607  159.8171 H   0  0  0  0  0  0  0  0  0  0  0  0  # atno 6908 bound_to 6896
  152.5365  134.2710  159.9024 H   0  0  0  0  0  0  0  0  0  0  0  0  # atno 6909 bound_to 6896
  144.9723  139.4592  143.5427 H   0  0  0  0  0  0  0  0  0  0  0  0  # atno 7974 bound_to 7965
  156.0123  140.1243  157.0441 H   0  0  0  0  0  0  0  0  0  0  0  0  # atno 8008 bound_to 7997
  154.4280  140.1085  156.5916 H   0  0  0  0  0  0  0  0  0  0  0  0  # atno 8009 bound_to 7997
  155.6062  140.3471  155.4611 H   0  0  0  0  0  0  0  0  0  0  0  0  # atno 8010 bound_to 7997
  140.2061  143.3781  152.1089 H   0  0  0  0  0  0  0  0  0  0  0  0  # atno 10167 bound_to 10162
  157.2860  131.0844  151.1497 H   0  0  0  0  0  0  0  0  0  0  0  0  # atno 10718 bound_to 10713
  153.1315  135.6741  153.9170 H   0  0  0  0  0  0  0  0  0  0  0  0  # atno 10763 bound_to 10752
  153.8655  135.3076  155.3441 H   0  0  0  0  0  0  0  0  0  0  0  0  # atno 10764 bound_to 10752
  154.7711  135.4938  153.9733 H   0  0  0  0  0  0  0  0  0  0  0  0  # atno 10765 bound_to 10752
  140.1355  134.4651  155.8489 H   0  0  0  0  0  0  0  0  0  0  0  0  # atno 11005 bound_to 11000
  146.3385  139.8944  142.8804 LP  0  0  0  0  0  0  0  0  0  0  0  0  # atno 17320 bound_to 7965
  145.2540  141.0054  143.3864 LP  0  0  0  0  0  0  0  0  0  0  0  0  # atno 17321 bound_to 7965
  139.5198  144.7024  151.5454 LP  0  0  0  0  0  0  0  0  0  0  0  0  # atno 17342 bound_to 10162
  140.6356  143.8990  150.6644 LP  0  0  0  0  0  0  0  0  0  0  0  0  # atno 17343 bound_to 10162
  157.2912  130.6797  149.6115 LP  0  0  0  0  0  0  0  0  0  0  0  0  # atno 17370 bound_to 10713
  155.9665  130.4420  150.5364 LP  0  0  0  0  0  0  0  0  0  0  0  0  # atno 17371 bound_to 10713
  141.2177  133.6812  156.7149 LP  0  0  0  0  0  0  0  0  0  0  0  0  # atno 17394 bound_to 11000
  140.2788  134.8333  157.3914 LP  0  0  0  0  0  0  0  0  0  0  0  0  # atno 17395 bound_to 11000

$$$$
