#       Name:                AV-unprocessed.smi:1511
#       Creating user name   scv26
#       Creation time:       Fri Mar 27 06:22:52 2020


#       File generated by GOLD software.
#

@<TRIPOS>MOLECULE
AV-unprocessed.smi:1511
    35    36     1
SMALL
NO_CHARGES


@<TRIPOS>ATOM
      1 ****        -0.1146  -0.1593  -2.9841 O.2            1 S1                 0.0000
      2 ****         0.7892  -0.4097  -2.1874 C.2            1 S1                 0.0000
      3 ****         2.1668   0.2329  -2.3642 C.3            1 S1                 0.0000
      4 ****         2.5066   1.0738  -1.2282 N.pl3          1 S1                 0.0000
      5 ****         3.3081   0.7709  -0.1470 C.2            1 S1                 0.0000
      6 ****         3.3163   1.8632   0.6723 C.2            1 S1                 0.0000
      7 ****         2.4821   2.7979  -0.0021 C.2            1 S1                 0.0000
      8 ****         2.0000   2.3234  -1.1393 N.2            1 S1                 0.0000
      9 ****         0.6380  -1.2236  -1.1308 N.am           1 S1                 0.0000
     10 ****        -0.6202  -1.8288  -0.7111 C.3            1 S1                 0.0000
     11 ****        -1.5361  -0.8159   0.0061 C.3            1 S1                 0.0000
     12 ****        -0.8752  -0.1443   1.2292 C.3            1 S1                 0.0000
     13 ****        -1.9543   0.6062   2.0141 C.3            1 S1                 0.0000
     14 ****        -3.4730  -0.4021   1.8470 S.o2           1 S1                 0.0000
     15 ****        -3.6365  -1.2415   3.0434 O.2            1 S1                 0.0000
     16 ****        -4.5681   0.4546   1.3676 O.2            1 S1                 0.0000
     17 ****        -2.8589  -1.4462   0.4702 C.3            1 S1                 0.0000
     18 ****         2.9243  -0.5444  -2.4720 H              1 S1                 0.0000
     19 ****         2.1899   0.8353  -3.2738 H              1 S1                 0.0000
     20 ****         3.7967  -0.1874  -0.0495 H              1 S1                 0.0000
     21 ****         3.8384   1.9771   1.6106 H              1 S1                 0.0000
     22 ****         2.2134   3.7994   0.2993 H              1 S1                 0.0000
     23 ****         1.4395  -1.3825  -0.5377 H              1 S1                 0.0000
     24 ****        -1.1314  -2.2599  -1.5735 H              1 S1                 0.0000
     25 ****        -0.3862  -2.6589  -0.0439 H              1 S1                 0.0000
     26 ****        -1.7918  -0.0204  -0.6955 H              1 S1                 0.0000
     27 ****        -0.4410  -0.9129   1.8697 H              1 S1                 0.0000
     28 ****        -0.0643   0.5253   0.9398 H              1 S1                 0.0000
     29 ****        -1.7038   0.7448   3.0658 H              1 S1                 0.0000
     30 ****        -2.1464   1.5820   1.5673 H              1 S1                 0.0000
     31 ****        -3.6041  -1.4965  -0.3237 H              1 S1                 0.0000
     32 ****        -2.7023  -2.4516   0.8615 H              1 S1                 0.0000
     33 ****         0.0507   0.4646  -3.7479 LP             1 S1                 0.0000
     34 ****        -1.0145  -0.5797  -2.8677 LP             1 S1                 0.0000
     35 ****         1.3957   2.7861  -1.7880 LP             1 S1                 0.0000
@<TRIPOS>BOND
    1    1    2 2     
    2    2    3 1     
    3    2    9 am    
    4    3    4 1     
    5    3   18 1     
    6    3   19 1     
    7    4    8 1     
    8    4    5 1     
    9    5    6 2     
   10    5   20 1     
   11    6    7 1     
   12    6   21 1     
   13    7    8 2     
   14    7   22 1     
   15    9   10 1     
   16    9   23 1     
   17   10   11 1     
   18   10   24 1     
   19   10   25 1     
   20   11   17 1     
   21   11   12 1     
   22   11   26 1     
   23   12   13 1     
   24   12   27 1     
   25   12   28 1     
   26   13   14 1     
   27   13   29 1     
   28   13   30 1     
   29   14   15 2     
   30   14   16 2     
   31   14   17 1     
   32   17   31 1     
   33   17   32 1     
   34    1   33 1     
   35    1   34 1     
   36    8   35 1     
@<TRIPOS>SUBSTRUCTURE
      1 S1             1
@<TRIPOS>SET
LONE_PAIRS      STATIC     ATOMS    <user>   **** ""
5 33 34 35 15 16
DONOR_HYDROGENS      STATIC     ATOMS    <user>   **** ""
1 23
ATOM$BLUE        STATIC     ATOMS    COLORGROUP SYSTEM
5 33 34 35 15 16
ATOM$RED        STATIC     ATOMS    COLORGROUP SYSTEM
1 23
