#       Name:                AV-unprocessed.smi:2047
#       Creating user name   scv26
#       Creation time:       Fri Mar 27 10:58:15 2020


#       File generated by GOLD software.
#

@<TRIPOS>MOLECULE
AV-unprocessed.smi:2047
    46    48     1
SMALL
NO_CHARGES


@<TRIPOS>ATOM
      1 ****         0.2473   2.5559   0.0368 O.2            1 S1                 0.0000
      2 ****        -0.1210   1.4078  -0.2105 C.2            1 S1                 0.0000
      3 ****         0.6897   0.3614  -0.4407 N.am           1 S1                 0.0000
      4 ****         2.1135   0.3176  -0.4314 C.ar           1 S1                 0.0000
      5 ****         2.8998   1.4489  -0.7627 C.ar           1 S1                 0.0000
      6 ****         4.2996   1.3292  -0.8034 C.ar           1 S1                 0.0000
      7 ****         4.8678   0.0750  -0.5269 C.ar           1 S1                 0.0000
      8 ****         4.1345  -1.0144  -0.2241 N.ar           1 S1                 0.0000
      9 ****         2.7837  -0.9117  -0.1665 C.ar           1 S1                 0.0000
     10 ****         2.0687  -2.0850   0.1673 N.3            1 S1                 0.0000
     11 ****         2.7232  -3.3882   0.1225 C.3            1 S1                 0.0000
     12 ****         1.7932  -4.3227   0.8905 C.3            1 S1                 0.0000
     13 ****         1.2546  -3.4130   1.9903 C.3            1 S1                 0.0000
     14 ****         1.1712  -2.0381   1.3180 C.3            1 S1                 0.0000
     15 ****        -1.4085   1.0411  -0.2717 N.am           1 S1                 0.0000
     16 ****        -2.5459   1.9371  -0.0880 C.3            1 S1                 0.0000
     17 ****        -3.7989   1.1592   0.3548 C.3            1 S1                 0.0000
     18 ****        -5.0251   2.0613   0.1743 C.3            1 S1                 0.0000
     19 ****        -4.6568   3.1339  -1.2653 S.o2           1 S1                 0.0000
     20 ****        -5.3596   2.6221  -2.4516 O.2            1 S1                 0.0000
     21 ****        -4.7843   4.5412  -0.8579 O.2            1 S1                 0.0000
     22 ****        -2.8832   2.6885  -1.3859 C.3            1 S1                 0.0000
     23 ****         0.2359  -0.5340  -0.5481 H              1 S1                 0.0000
     24 ****         2.4564   2.4006  -1.0106 H              1 S1                 0.0000
     25 ****         4.9211   2.1760  -1.0539 H              1 S1                 0.0000
     26 ****         5.9389  -0.0599  -0.5559 H              1 S1                 0.0000
     27 ****         2.8764  -3.7212  -0.9044 H              1 S1                 0.0000
     28 ****         3.6929  -3.3527   0.6212 H              1 S1                 0.0000
     29 ****         0.9771  -4.6519   0.2455 H              1 S1                 0.0000
     30 ****         2.3015  -5.2068   1.2760 H              1 S1                 0.0000
     31 ****         0.2971  -3.7482   2.3900 H              1 S1                 0.0000
     32 ****         1.9678  -3.3749   2.8146 H              1 S1                 0.0000
     33 ****         1.4351  -1.2390   2.0123 H              1 S1                 0.0000
     34 ****         0.1553  -1.8592   0.9650 H              1 S1                 0.0000
     35 ****        -1.6183   0.0741  -0.4719 H              1 S1                 0.0000
     36 ****        -2.3198   2.6691   0.6899 H              1 S1                 0.0000
     37 ****        -3.9187   0.2794  -0.2793 H              1 S1                 0.0000
     38 ****        -3.7132   0.8025   1.3816 H              1 S1                 0.0000
     39 ****        -5.9455   1.5028   0.0040 H              1 S1                 0.0000
     40 ****        -5.1629   2.7033   1.0445 H              1 S1                 0.0000
     41 ****        -2.2787   3.5847  -1.5273 H              1 S1                 0.0000
     42 ****        -2.7619   2.0467  -2.2593 H              1 S1                 0.0000
     43 ****         1.2233   2.7698   0.0790 LP             1 S1                 0.0000
     44 ****        -0.4294   3.2749   0.1954 LP             1 S1                 0.0000
     45 ****         4.5823  -1.8901  -0.0437 LP             1 S1                 0.0000
     46 ****         1.5236  -2.0347  -0.6696 LP             1 S1                 0.0000
@<TRIPOS>BOND
    1    1    2 2     
    2    2    3 am    
    3    2   15 am    
    4    3    4 1     
    5    3   23 1     
    6    4    9 ar    
    7    4    5 ar    
    8    5    6 ar    
    9    5   24 1     
   10    6    7 ar    
   11    6   25 1     
   12    7    8 ar    
   13    7   26 1     
   14    8    9 ar    
   15    9   10 1     
   16   10   14 1     
   17   10   11 1     
   18   11   12 1     
   19   11   27 1     
   20   11   28 1     
   21   12   13 1     
   22   12   29 1     
   23   12   30 1     
   24   13   14 1     
   25   13   31 1     
   26   13   32 1     
   27   14   33 1     
   28   14   34 1     
   29   15   16 1     
   30   15   35 1     
   31   16   22 1     
   32   16   17 1     
   33   16   36 1     
   34   17   18 1     
   35   17   37 1     
   36   17   38 1     
   37   18   19 1     
   38   18   39 1     
   39   18   40 1     
   40   19   20 2     
   41   19   21 2     
   42   19   22 1     
   43   22   41 1     
   44   22   42 1     
   45    1   43 1     
   46    1   44 1     
   47    8   45 1     
   48   10   46 1     
@<TRIPOS>SUBSTRUCTURE
      1 S1             1
@<TRIPOS>SET
LONE_PAIRS      STATIC     ATOMS    <user>   **** ""
6 43 44 45 46 20 21
DONOR_HYDROGENS      STATIC     ATOMS    <user>   **** ""
2 23 35
ATOM$BLUE        STATIC     ATOMS    COLORGROUP SYSTEM
6 43 44 45 46 20 21
ATOM$RED        STATIC     ATOMS    COLORGROUP SYSTEM
2 23 35
