AV-unprocessed.smi:193|AV-procd|sdf|1512|dock10
  -GOLD-   2262019343D 1   1.00000     0.00000
 Structure written by MMmdl.
 61 65  0  0  0  0  0  0  0  0  1 V2000
  152.6860  138.1865  154.9660 C   0  0  0  0  0  0  0  0  0  0  0  0
  151.1771  137.9379  155.1191 C   0  0  2  0  0  0  0  0  0  0  0  0
  150.8313  136.5316  154.5832 C   0  0  0  0  0  0  0  0  0  0  0  0
  149.5474  136.0030  155.0501 N   0  0  0  0  0  0  0  0  0  0  0  0
  149.4982  134.6906  155.4047 C   0  0  0  0  0  0  0  0  0  0  0  0
  149.8965  134.3270  156.6534 N   0  0  0  0  0  0  0  0  0  0  0  0
  149.8730  133.0452  157.0283 C   0  0  0  0  0  0  0  0  0  0  0  0
  149.4902  131.9784  156.3257 N   0  0  0  0  0  0  0  0  0  0  0  0
  149.0792  132.3316  155.0749 C   0  0  0  0  0  0  0  0  0  0  0  0
  149.0518  133.6504  154.5366 C   0  0  0  0  0  0  0  0  0  0  0  0
  148.5643  133.6131  153.2346 N   0  0  0  0  0  0  0  0  0  0  0  0
  148.3319  132.3487  153.0130 C   0  0  0  0  0  0  0  0  0  0  0  0
  148.6013  131.5087  154.0694 N   0  0  0  0  0  0  0  0  0  0  0  0
  148.4320  130.0630  154.0966 C   0  0  0  0  0  0  0  0  0  0  0  0
  146.9583  129.5915  153.9590 C   0  0  0  0  0  0  0  0  0  0  0  0
  146.2447  130.0822  155.0789 O   0  0  0  0  0  0  0  0  0  0  0  0
  146.2878  130.1751  152.6994 C   0  0  0  0  0  0  0  0  0  0  0  0
  146.7702  129.4684  151.4196 C   0  0  0  0  0  0  0  0  0  0  0  0
  146.5417  128.0670  151.5203 O   0  0  0  0  0  0  0  0  0  0  0  0
  147.2531  127.4616  152.5943 C   0  0  0  0  0  0  0  0  0  0  0  0
  146.7861  128.0574  153.9342 C   0  0  0  0  0  0  0  0  0  0  0  0
  148.4670  136.8918  155.4784 C   0  0  0  0  0  0  0  0  0  0  0  0
  148.2126  138.0408  154.4931 C   0  0  0  0  0  0  0  0  0  0  0  0
  149.0196  139.2063  154.8413 N   0  0  0  0  0  0  0  0  0  0  0  0
  148.4559  140.3693  154.1726 C   0  0  2  0  0  0  0  0  0  0  0  0
  149.0850  141.7136  154.4617 C   0  0  0  0  0  0  0  0  0  0  0  0
  147.7239  141.3828  155.0268 C   0  0  1  0  0  0  0  0  0  0  0  0
  146.4860  142.0803  154.5066 C   0  0  0  0  0  0  0  0  0  0  0  0
  150.3982  139.0489  154.3806 C   0  0  0  0  0  0  0  0  0  0  0  0
  152.9902  138.1454  153.9197 H   0  0  0  0  0  0  0  0  0  0  0  0
  153.2662  137.4417  155.5112 H   0  0  0  0  0  0  0  0  0  0  0  0
  152.9670  139.1650  155.3565 H   0  0  0  0  0  0  0  0  0  0  0  0
  150.9621  137.9865  156.1879 H   0  0  0  0  0  0  0  0  0  0  0  0
  150.8449  136.5271  153.4929 H   0  0  0  0  0  0  0  0  0  0  0  0
  151.6224  135.8518  154.9020 H   0  0  0  0  0  0  0  0  0  0  0  0
  150.2101  132.8464  158.0351 H   0  0  0  0  0  0  0  0  0  0  0  0
  147.9488  131.9923  152.0676 H   0  0  0  0  0  0  0  0  0  0  0  0
  149.0344  129.6415  153.2906 H   0  0  0  0  0  0  0  0  0  0  0  0
  148.8736  129.6905  155.0206 H   0  0  0  0  0  0  0  0  0  0  0  0
  145.3259  130.1088  154.8598 H   0  0  0  0  0  0  0  0  0  0  0  0
  145.2058  130.0512  152.7692 H   0  0  0  0  0  0  0  0  0  0  0  0
  146.4673  131.2485  152.6286 H   0  0  0  0  0  0  0  0  0  0  0  0
  146.2228  129.8488  150.5571 H   0  0  0  0  0  0  0  0  0  0  0  0
  147.8262  129.6639  151.2301 H   0  0  0  0  0  0  0  0  0  0  0  0
  147.0631  126.3883  152.5787 H   0  0  0  0  0  0  0  0  0  0  0  0
  148.3257  127.5919  152.4509 H   0  0  0  0  0  0  0  0  0  0  0  0
  147.3087  127.5832  154.7648 H   0  0  0  0  0  0  0  0  0  0  0  0
  145.7320  127.8077  154.0651 H   0  0  0  0  0  0  0  0  0  0  0  0
  147.5436  136.3140  155.5353 H   0  0  0  0  0  0  0  0  0  0  0  0
  148.6570  137.2643  156.4860 H   0  0  0  0  0  0  0  0  0  0  0  0
  148.3523  137.7363  153.4544 H   0  0  0  0  0  0  0  0  0  0  0  0
  147.1629  138.3203  154.5936 H   0  0  0  0  0  0  0  0  0  0  0  0
  148.0725  140.2477  153.1606 H   0  0  0  0  0  0  0  0  0  0  0  0
  149.9205  141.7478  155.1583 H   0  0  0  0  0  0  0  0  0  0  0  0
  149.1355  142.4267  153.6414 H   0  0  0  0  0  0  0  0  0  0  0  0
  147.6914  141.1802  156.0959 H   0  0  0  0  0  0  0  0  0  0  0  0
  146.5655  142.2639  153.4348 H   0  0  0  0  0  0  0  0  0  0  0  0
  146.3535  143.0356  155.0145 H   0  0  0  0  0  0  0  0  0  0  0  0
  145.6058  141.4637  154.6892 H   0  0  0  0  0  0  0  0  0  0  0  0
  150.9070  139.9974  154.5586 H   0  0  0  0  0  0  0  0  0  0  0  0
  150.4266  138.8865  153.3019 H   0  0  0  0  0  0  0  0  0  0  0  0
  1  2  1  0  0  0  0
  1 30  1  0  0  0  0
  1 31  1  0  0  0  0
  1 32  1  0  0  0  0
  2 29  1  0  0  0  0
  2  3  1  0  0  0  0
  2 33  1  0  0  0  0
  3  4  1  0  0  0  0
  3 34  1  0  0  0  0
  3 35  1  0  0  0  0
  4  5  1  0  0  0  0
  4 22  1  0  0  0  0
  5 10  1  0  0  0  0
  5  6  2  0  0  0  0
  6  7  1  0  0  0  0
  7  8  2  0  0  0  0
  7 36  1  0  0  0  0
  8  9  1  0  0  0  0
  9 13  1  0  0  0  0
  9 10  2  0  0  0  0
 10 11  1  0  0  0  0
 11 12  2  0  0  0  0
 12 13  1  0  0  0  0
 12 37  1  0  0  0  0
 13 14  1  0  0  0  0
 14 15  1  0  0  0  0
 14 38  1  0  0  0  0
 14 39  1  0  0  0  0
 15 21  1  0  0  0  0
 15 16  1  0  0  0  0
 15 17  1  0  0  0  0
 16 40  1  0  0  0  0
 17 18  1  0  0  0  0
 17 41  1  0  0  0  0
 17 42  1  0  0  0  0
 18 19  1  0  0  0  0
 18 43  1  0  0  0  0
 18 44  1  0  0  0  0
 19 20  1  0  0  0  0
 20 21  1  0  0  0  0
 20 45  1  0  0  0  0
 20 46  1  0  0  0  0
 21 47  1  0  0  0  0
 21 48  1  0  0  0  0
 22 23  1  0  0  0  0
 22 49  1  0  0  0  0
 22 50  1  0  0  0  0
 23 24  1  0  0  0  0
 23 51  1  0  0  0  0
 23 52  1  0  0  0  0
 24 25  1  0  0  0  0
 24 29  1  0  0  0  0
 25 27  1  0  0  0  0
 25 26  1  0  0  0  0
 25 53  1  0  0  0  0
 26 27  1  0  0  0  0
 26 54  1  0  0  0  0
 26 55  1  0  0  0  0
 27 28  1  0  0  0  0
 27 56  1  0  0  0  0
 28 57  1  0  0  0  0
 28 58  1  0  0  0  0
 28 59  1  0  0  0  0
 29 60  1  0  0  0  0
 29 61  1  0  0  0  0
M  END
> <s_m_source_file>
AV-unprocessed.smi

> <i_m_source_file_index>
193

> <i_lp_mmshare_version>
43012

> <i_f3d_flags>
0

> <s_epik_input>
W0NIM11bQ0BASF0xW0NIMl1bQ0BIXTFOKFtDSDJdMilbQ0gyXVtDSDJdTihbQ0gyXVtDQEhdMltDSDNdKWMobltjSF1uMyljKGMzNCluW2NIXW40W0NIMl1DNShbT0hdKVtDSDJdW0NIMl1PW0NIMl1bQ0gyXTU=

> <s_epik_cmdline>
J2VwaWtfcHl0aG9uJywgJy1waCcsICc3LjAnLCAnLXRuJywgJzgnLCAnLW1hJywgJzIwMCcsICctbWV0YWxfYmluZGluZycsICctaW1hZScsICc8aW5maWxlLm1hZT4nLCAnLW9tYWUnLCAnPG91dGZpbGUubWFlPic=

> <r_lp_tautomer_probability>
1

> <r_epik_Ionization_Penalty>
1.45227

> <r_epik_Ionization_Penalty_Charging>
0

> <r_epik_Ionization_Penalty_Neutral>
1.45227

> <r_epik_State_Penalty>
2.02377

> <r_epik_Charging_Adjusted_Penalty>
2.02377

> <i_epik_Tot_Q>
0

> <i_epik_Tot_abs_Q>
0

> <r_epik_Metal_State_Penalty>
2.01937

> <b_epik_Metal_Only>
0

> <s_lp_Force_Field>
OPLS_2005

> <r_lp_Energy>
48.8748

> <b_lp_Chiralities_Consistent>
1

> <s_lp_Variant>
AV-unprocessed.smi:193-17

> <Gold.Version>
5.8.1

> <Gold.Id.Protein>
6NUR|6NUR_protein|mol2

> <Gold.PLP.Fitness>
42.2358

> <Gold.PLP.PLP>
-39.3416

> <Gold.PLP.part.hbond>
-1.0000

> <Gold.PLP.part.metal>
0.0000

> <Gold.PLP.part.buried>
1.1301

> <Gold.PLP.part.nonpolar>
-42.1658

> <Gold.PLP.part.repulsive>
1.4912

> <Gold.PLP.ligand.clash>
0.0000

> <Gold.PLP.ligand.torsion>
2.1822

> <Gold.PLP.Chemscore.Hbond>
1.0000

> <Gold.PLP.Chemscore.CHOScore>
1.0000

> <Gold.PLP.Chemscore.Metal>
0.0000

> <Gold.Chemscore.Hbonds>
donor molecule, donor type, donor heavy atom, donor atom, acceptor molecule, acceptor atom, score
      L1  H    16    40       P1 10956  0.78
      L1  C    12    37       P1 10747  1.00

> <Gold.PLP.Chemscore.Internal.Correction>
1.2587

> <Gold.Rescore>
     Score         DG    S(hbond)    S(metal)    S(lipo)     H(rot)  DE(clash)    DE(int)     intcor
     11.78     -15.13       0.96        0.00      96.76       1.91       0.15       3.21       ----

> <Gold.Chemscore.Fitness>
11.7799

> <Gold.Chemscore.DG>
-15.1346

> <Gold.Chemscore.ZeroCoef>
-5.4800

> <Gold.Chemscore.Hbond>
0.9626

> <Gold.Chemscore.Metal>
0.0000

> <Gold.Chemscore.Lipo>
96.7597

> <Gold.Chemscore.Internal_Hbond>
0.0000

> <Gold.Chemscore.DEClash>
0.1470

> <Gold.Chemscore.DEInternal>
3.2078

> <Gold.Chemscore.Rot>
1.9068

> <Gold.Chemscore.Internal.Correction>
   9.000000E+99

> <Gold.Chemscore.Hbonds>
donor molecule, donor type, donor heavy atom, donor atom, acceptor molecule, acceptor atom, score
      L1  H    16    40       P1 10956  0.53

> <Gold.Chemscore.Hbond.Weighted>
-3.2151

> <Gold.Chemscore.Metal.Weighted>
-0.0000

> <Gold.Chemscore.Lipo.Weighted>
-11.3209

> <Gold.Chemscore.Internal_Hbond.Weighted>
0.0000

> <Gold.Chemscore.DEClash.Weighted>
0.1470

> <Gold.Chemscore.DEInternal.Weighted>
3.2078

> <Gold.Chemscore.Rot.Weighted>
4.8814

> <Gold.Chemscore.Internal.Correction.Weighted>
   9.000000E+99

> <Gold.Protein.RotatedTorsions>
[ 6907 6896 6895 6894 ] final  122.30 input  -60.11 | X-H torsion
[ 7974 7965 7964 7962 ] final  159.58 input  175.53 | X-H torsion
[ 8008 7997 7996 7995 ] final -167.68 input   59.86 | X-H torsion
[ 10167 10162 10161 10158 ] final   69.48 input  -65.29 | X-H torsion
[ 10718 10713 10712 10709 ] final   24.88 input   66.30 | X-H torsion
[ 10763 10752 10751 10750 ] final  149.70 input  -60.55 | X-H torsion
[ 11005 11000 10999 10996 ] final -170.23 input  -57.11 | X-H torsion

> <Gold.Protein.ActiveResidues>
 VAL166  LYS551  ARG553  GLY616  TRP617  ASP618  TYR619  PRO620  LYS621  CYS622 
 ASP623  PHE694  ASN695  SER759  ASP760  ASP761  ALA762  ILE779  LEU786  VAL792 
 PHE793  MET794  SER795  GLU796  ALA797  LYS798  CYS799  TRP800  GLU811  SER814 

> <Gold.Protein.RotatedAtoms>
  152.4254  133.7186  159.6519 H   0  0  0  0  0  0  0  0  0  0  0  0  # atno 6907 bound_to 6896
  150.8130  133.8376  159.3179 H   0  0  0  0  0  0  0  0  0  0  0  0  # atno 6908 bound_to 6896
  151.6081  135.1044  160.0126 H   0  0  0  0  0  0  0  0  0  0  0  0  # atno 6909 bound_to 6896
  144.7782  139.7638  143.6270 H   0  0  0  0  0  0  0  0  0  0  0  0  # atno 7974 bound_to 7965
  155.8810  140.1009  157.1485 H   0  0  0  0  0  0  0  0  0  0  0  0  # atno 8008 bound_to 7997
  154.4005  140.1329  156.4260 H   0  0  0  0  0  0  0  0  0  0  0  0  # atno 8009 bound_to 7997
  155.7642  140.3462  155.5216 H   0  0  0  0  0  0  0  0  0  0  0  0  # atno 8010 bound_to 7997
  140.0673  144.5182  150.7252 H   0  0  0  0  0  0  0  0  0  0  0  0  # atno 10167 bound_to 10162
  157.1858  130.6823  149.6130 H   0  0  0  0  0  0  0  0  0  0  0  0  # atno 10718 bound_to 10713
  154.0755  135.2863  155.3300 H   0  0  0  0  0  0  0  0  0  0  0  0  # atno 10763 bound_to 10752
  154.6718  135.5296  153.8152 H   0  0  0  0  0  0  0  0  0  0  0  0  # atno 10764 bound_to 10752
  153.0469  135.6559  154.0933 H   0  0  0  0  0  0  0  0  0  0  0  0  # atno 10765 bound_to 10752
  140.5218  134.5702  157.5050 H   0  0  0  0  0  0  0  0  0  0  0  0  # atno 11005 bound_to 11000
  146.1975  139.5250  142.9765 LP  0  0  0  0  0  0  0  0  0  0  0  0  # atno 17320 bound_to 7965
  145.6124  141.0337  143.1959 LP  0  0  0  0  0  0  0  0  0  0  0  0  # atno 17321 bound_to 7965
  140.7143  143.2531  151.4485 LP  0  0  0  0  0  0  0  0  0  0  0  0  # atno 17342 bound_to 10162
  139.5857  144.1610  152.2026 LP  0  0  0  0  0  0  0  0  0  0  0  0  # atno 17343 bound_to 10162
  155.9718  130.4631  150.6170 LP  0  0  0  0  0  0  0  0  0  0  0  0  # atno 17370 bound_to 10713
  157.3908  131.0795  151.1395 LP  0  0  0  0  0  0  0  0  0  0  0  0  # atno 17371 bound_to 10713
  139.9602  134.7466  156.0254 LP  0  0  0  0  0  0  0  0  0  0  0  0  # atno 17394 bound_to 11000
  141.1330  133.6582  156.3516 LP  0  0  0  0  0  0  0  0  0  0  0  0  # atno 17395 bound_to 11000

$$$$
