#       Name:                AV-unprocessed.smi:1762
#       Creating user name   scv26
#       Creation time:       Fri Mar 27 08:32:56 2020


#       File generated by GOLD software.
#

@<TRIPOS>MOLECULE
AV-unprocessed.smi:1762
    58    59     1
SMALL
NO_CHARGES


@<TRIPOS>ATOM
      1 ****        -1.1322  -0.3378  -4.8322 C.3            1 S1                 0.0000
      2 ****        -1.7054  -1.0140  -3.5816 C.3            1 S1                 0.0000
      3 ****        -1.2297  -0.3390  -2.2803 C.3            1 S1                 0.0000
      4 ****        -1.8432  -0.9246  -1.0755 N.3            1 S1                 0.0000
      5 ****        -1.4005  -0.3011   0.2033 C.3            1 S1                 0.0000
      6 ****         0.1354  -0.1445   0.3102 C.2            1 S1                 0.0000
      7 ****         0.8726  -1.1249   0.1997 O.2            1 S1                 0.0000
      8 ****         0.6012   1.0982   0.5136 N.am           1 S1                 0.0000
      9 ****         2.0089   1.4514   0.6500 C.3            1 S1                 0.0000
     10 ****         2.5363   1.1365   2.0601 C.3            1 S1                 0.0000
     11 ****         3.9965   1.5114   2.2236 C.ar           1 S1                 0.0000
     12 ****         5.0320   0.5567   2.1242 C.ar           1 S1                 0.0000
     13 ****         6.3707   0.9734   2.2790 C.ar           1 S1                 0.0000
     14 ****         6.6456   2.3342   2.5278 C.ar           1 S1                 0.0000
     15 ****         5.5731   3.2451   2.6161 C.ar           1 S1                 0.0000
     16 ****         4.3040   2.8070   2.4627 N.pl3          1 S1                 1.0000
     17 ****        -1.9775  -0.9662   1.4984 C.3            1 S1                 0.0000
     18 ****        -1.5618  -0.2479   2.7985 C.3            1 S1                 0.0000
     19 ****        -1.6868  -2.4762   1.6053 C.3            1 S1                 0.0000
     20 ****        -3.3016  -0.9105  -1.2438 C.3            1 S1                 0.0000
     21 ****        -3.7587  -1.5846  -2.5516 C.3            1 S1                 0.0000
     22 ****        -5.2755  -1.4942  -2.7539 C.3            1 S1                 0.0000
     23 ****        -3.1240  -0.9470  -3.6525 O.3            1 S1                 0.0000
     24 ****        -0.0426  -0.3756  -4.8348 H              1 S1                 0.0000
     25 ****        -1.4317   0.7091  -4.8876 H              1 S1                 0.0000
     26 ****        -1.4832  -0.8328  -5.7379 H              1 S1                 0.0000
     27 ****        -1.3994  -2.0617  -3.5814 H              1 S1                 0.0000
     28 ****        -0.1446  -0.4322  -2.2583 H              1 S1                 0.0000
     29 ****        -1.4503   0.7292  -2.3218 H              1 S1                 0.0000
     30 ****        -1.7948   0.7175   0.2003 H              1 S1                 0.0000
     31 ****        -0.0698   1.8498   0.5829 H              1 S1                 0.0000
     32 ****         2.5992   0.9289  -0.1051 H              1 S1                 0.0000
     33 ****         2.1107   2.5166   0.4410 H              1 S1                 0.0000
     34 ****         1.9473   1.6700   2.8077 H              1 S1                 0.0000
     35 ****         2.4188   0.0743   2.2798 H              1 S1                 0.0000
     36 ****         4.8056  -0.4820   1.9304 H              1 S1                 0.0000
     37 ****         7.1770   0.2579   2.2068 H              1 S1                 0.0000
     38 ****         7.6641   2.6735   2.6487 H              1 S1                 0.0000
     39 ****         5.6910   4.3025   2.8034 H              1 S1                 0.0000
     40 ****        -3.0601  -0.8533   1.4739 H              1 S1                 0.0000
     41 ****        -0.5019  -0.3779   3.0199 H              1 S1                 0.0000
     42 ****        -2.1184  -0.6376   3.6513 H              1 S1                 0.0000
     43 ****        -1.7642   0.8218   2.7395 H              1 S1                 0.0000
     44 ****        -0.6232  -2.6790   1.7279 H              1 S1                 0.0000
     45 ****        -2.0289  -3.0144   0.7212 H              1 S1                 0.0000
     46 ****        -2.2002  -2.9092   2.4642 H              1 S1                 0.0000
     47 ****        -3.7893  -1.4431  -0.4300 H              1 S1                 0.0000
     48 ****        -3.6687   0.1170  -1.2137 H              1 S1                 0.0000
     49 ****        -3.4718  -2.6377  -2.5382 H              1 S1                 0.0000
     50 ****        -5.8101  -1.9839  -1.9396 H              1 S1                 0.0000
     51 ****        -5.5736  -1.9775  -3.6844 H              1 S1                 0.0000
     52 ****        -5.6072  -0.4564  -2.7962 H              1 S1                 0.0000
     53 ****         3.5435   3.4838   2.5310 H              1 S1                 0.0000
     54 ****        -1.5233  -1.8682  -0.9909 LP             1 S1                 0.0000
     55 ****         0.4796  -2.0304   0.0396 LP             1 S1                 0.0000
     56 ****         1.8640  -1.0154   0.2700 LP             1 S1                 0.0000
     57 ****        -3.4237  -1.3922  -4.4964 LP             1 S1                 0.0000
     58 ****        -3.3987   0.0145  -3.6673 LP             1 S1                 0.0000
@<TRIPOS>BOND
    1    1    2 1     
    2    1   24 1     
    3    1   25 1     
    4    1   26 1     
    5    2   23 1     
    6    2    3 1     
    7    2   27 1     
    8    3    4 1     
    9    3   28 1     
   10    3   29 1     
   11    4    5 1     
   12    4   20 1     
   13    5    6 1     
   14    5   17 1     
   15    5   30 1     
   16    6    7 2     
   17    6    8 am    
   18    8    9 1     
   19    8   31 1     
   20    9   10 1     
   21    9   32 1     
   22    9   33 1     
   23   10   11 1     
   24   10   34 1     
   25   10   35 1     
   26   11   16 ar    
   27   11   12 ar    
   28   12   13 ar    
   29   12   36 1     
   30   13   14 ar    
   31   13   37 1     
   32   14   15 ar    
   33   14   38 1     
   34   15   16 ar    
   35   15   39 1     
   36   16   53 1     
   37   17   18 1     
   38   17   19 1     
   39   17   40 1     
   40   18   41 1     
   41   18   42 1     
   42   18   43 1     
   43   19   44 1     
   44   19   45 1     
   45   19   46 1     
   46   20   21 1     
   47   20   47 1     
   48   20   48 1     
   49   21   22 1     
   50   21   23 1     
   51   21   49 1     
   52   22   50 1     
   53   22   51 1     
   54   22   52 1     
   55    4   54 1     
   56    7   55 1     
   57    7   56 1     
   58   23   57 1     
   59   23   58 1     
@<TRIPOS>SUBSTRUCTURE
      1 S1             1
@<TRIPOS>SET
LONE_PAIRS      STATIC     ATOMS    <user>   **** ""
5 54 55 56 57 58
DONOR_HYDROGENS      STATIC     ATOMS    <user>   **** ""
2 31 53
ATOM$BLUE        STATIC     ATOMS    COLORGROUP SYSTEM
5 54 55 56 57 58
ATOM$RED        STATIC     ATOMS    COLORGROUP SYSTEM
2 31 53
