AV-unprocessed.smi:2100|AV-procd|sdf|8576|dock6
  -GOLD-   2272011303D 1   1.00000     0.00000
 Structure written by MMmdl.
 40 41  0  0  0  0  0  0  0  0  2 V2000
  149.5952  141.5620  157.5280 C   0  0  0  0  0  0  0  0  0  0  0  0
  150.1404  140.2656  156.9191 C   0  0  2  0  0  0  0  0  0  0  0  0
  151.1936  139.6076  157.8250 C   0  0  0  0  0  0  0  0  0  0  0  0
  151.7948  138.4316  157.1684 N   0  0  0  0  0  0  0  0  0  0  0  0
  152.7357  137.3532  158.1521 S   0  0  0  0  0  0  0  0  0  0  0  0
  151.9132  137.0285  159.3289 O   0  0  0  0  0  0  0  0  0  0  0  0
  153.1337  136.2480  157.2644 O   0  0  0  0  0  0  0  0  0  0  0  0
  153.9313  138.3902  158.4959 N   0  5  0  0  0  0  0  0  0  0  0  0
  154.0915  138.8759  159.8556 C   0  0  0  0  0  0  0  0  0  0  0  0
  154.8129  140.2437  159.8490 C   0  0  0  0  0  0  0  0  0  0  0  0
  153.9842  141.4163  160.3716 C   0  0  0  0  0  0  0  0  0  0  0  0
  153.4853  142.3974  159.4838 C   0  0  0  0  0  0  0  0  0  0  0  0
  152.7275  143.4613  160.0081 C   0  0  0  0  0  0  0  0  0  0  0  0
  152.4850  143.5024  161.3942 C   0  0  0  0  0  0  0  0  0  0  0  0
  153.0144  142.4728  162.1971 C   0  0  0  0  0  0  0  0  0  0  0  0
  153.7443  141.4487  161.7057 N   0  0  0  0  0  0  0  0  0  0  0  0
  152.3093  138.7347  155.8232 C   0  0  0  0  0  0  0  0  0  0  0  0
  151.2574  139.4603  154.9609 C   0  0  1  0  0  0  0  0  0  0  0  0
  150.1576  138.5255  154.4257 C   0  0  0  0  0  0  0  0  0  0  0  0
  150.7172  140.5808  155.6570 O   0  0  0  0  0  0  0  0  0  0  0  0
  149.1283  141.3733  158.4952 H   0  0  0  0  0  0  0  0  0  0  0  0
  148.8446  142.0121  156.8782 H   0  0  0  0  0  0  0  0  0  0  0  0
  150.3902  142.2932  157.6766 H   0  0  0  0  0  0  0  0  0  0  0  0
  149.3014  139.5831  156.7833 H   0  0  0  0  0  0  0  0  0  0  0  0
  151.9862  140.3169  158.0659 H   0  0  0  0  0  0  0  0  0  0  0  0
  150.7301  139.3234  158.7693 H   0  0  0  0  0  0  0  0  0  0  0  0
  153.1245  138.9905  160.3462 H   0  0  0  0  0  0  0  0  0  0  0  0
  154.6573  138.1791  160.4752 H   0  0  0  0  0  0  0  0  0  0  0  0
  155.7366  140.1778  160.4257 H   0  0  0  0  0  0  0  0  0  0  0  0
  155.1218  140.4743  158.8287 H   0  0  0  0  0  0  0  0  0  0  0  0
  153.6941  142.3411  158.4253 H   0  0  0  0  0  0  0  0  0  0  0  0
  152.3402  144.2318  159.3581 H   0  0  0  0  0  0  0  0  0  0  0  0
  151.9074  144.3031  161.8316 H   0  0  0  0  0  0  0  0  0  0  0  0
  152.8460  142.4717  163.2639 H   0  0  0  0  0  0  0  0  0  0  0  0
  153.1975  139.3588  155.9281 H   0  0  0  0  0  0  0  0  0  0  0  0
  152.6267  137.8182  155.3263 H   0  0  0  0  0  0  0  0  0  0  0  0
  151.7706  139.8685  154.0898 H   0  0  0  0  0  0  0  0  0  0  0  0
  150.5826  137.7654  153.7701 H   0  0  0  0  0  0  0  0  0  0  0  0
  149.4193  139.0830  153.8490 H   0  0  0  0  0  0  0  0  0  0  0  0
  149.6350  138.0023  155.2262 H   0  0  0  0  0  0  0  0  0  0  0  0
  1  2  1  0  0  0  0
  1 21  1  0  0  0  0
  1 22  1  0  0  0  0
  1 23  1  0  0  0  0
  2 20  1  0  0  0  0
  2  3  1  0  0  0  0
  2 24  1  0  0  0  0
  3  4  1  0  0  0  0
  3 25  1  0  0  0  0
  3 26  1  0  0  0  0
  4  5  1  0  0  0  0
  4 17  1  0  0  0  0
  5  6  2  0  0  0  0
  5  7  2  0  0  0  0
  5  8  1  0  0  0  0
  8  9  1  0  0  0  0
  9 10  1  0  0  0  0
  9 27  1  0  0  0  0
  9 28  1  0  0  0  0
 10 11  1  0  0  0  0
 10 29  1  0  0  0  0
 10 30  1  0  0  0  0
 11 16  1  0  0  0  0
 11 12  2  0  0  0  0
 12 13  1  0  0  0  0
 12 31  1  0  0  0  0
 13 14  2  0  0  0  0
 13 32  1  0  0  0  0
 14 15  1  0  0  0  0
 14 33  1  0  0  0  0
 15 16  2  0  0  0  0
 15 34  1  0  0  0  0
 17 18  1  0  0  0  0
 17 35  1  0  0  0  0
 17 36  1  0  0  0  0
 18 19  1  0  0  0  0
 18 20  1  0  0  0  0
 18 37  1  0  0  0  0
 19 38  1  0  0  0  0
 19 39  1  0  0  0  0
 19 40  1  0  0  0  0
M  CHG  1   8  -1
M  END
> <s_m_source_file>
AV-unprocessed.smi

> <i_m_source_file_index>
2100

> <i_lp_mmshare_version>
43012

> <i_f3d_flags>
0

> <s_epik_input>
W0NIM11bQ0BASF0xW0NIMl1OKFtDSDJdW0NASF0oTzEpW0NIM10pUyg9TykoPU8pW05IXVtDSDJdW0NIMl1jMltjSF1bY0hdW2NIXVtjSF1uMg==

> <s_epik_cmdline>
J2VwaWtfcHl0aG9uJywgJy1waCcsICc3LjAnLCAnLXRuJywgJzgnLCAnLW1hJywgJzIwMCcsICctbWV0YWxfYmluZGluZycsICctaW1hZScsICc8aW5maWxlLm1hZT4nLCAnLW9tYWUnLCAnPG91dGZpbGUubWFlPic=

> <r_epik_Ionization_Penalty>
1.27779

> <r_epik_Ionization_Penalty_Charging>
1.20871

> <r_epik_Ionization_Penalty_Neutral>
0.0690773

> <r_epik_State_Penalty>
1.64557

> <r_epik_Charging_Adjusted_Penalty>
2.85428

> <i_epik_Tot_Q>
-1

> <i_epik_Tot_abs_Q>
1

> <r_epik_Metal_State_Penalty>
0.643506

> <b_epik_Metal_Only>
0

> <s_lp_Force_Field>
OPLS_2005

> <r_lp_Energy>
11.2488

> <b_lp_Chiralities_Consistent>
1

> <s_lp_Variant>
AV-unprocessed.smi:2100-4

> <Gold.Version>
5.8.1

> <Gold.Id.Protein>
6NUR|6NUR_protein|mol2

> <Gold.PLP.Fitness>
50.0982

> <Gold.PLP.PLP>
-39.7248

> <Gold.PLP.part.hbond>
-3.1316

> <Gold.PLP.part.metal>
0.0000

> <Gold.PLP.part.buried>
-4.5982

> <Gold.PLP.part.nonpolar>
-32.9142

> <Gold.PLP.part.repulsive>
0.0334

> <Gold.PLP.ligand.clash>
0.0000

> <Gold.PLP.ligand.torsion>
1.4571

> <Gold.PLP.Chemscore.Hbond>
3.9263

> <Gold.PLP.Chemscore.CHOScore>
0.0000

> <Gold.PLP.Chemscore.Metal>
0.0000

> <Gold.Chemscore.Hbonds>
donor molecule, donor type, donor heavy atom, donor atom, acceptor molecule, acceptor atom, score
      P1  H  6896  6907       L1     6  1.00
      P1  H  7997  8010       L1     8  0.81
      P1  H 10752 10764       L1     7  0.52

> <Gold.PLP.Chemscore.Internal.Correction>
1.5088

> <Gold.Rescore>
     Score         DG    S(hbond)    S(metal)    S(lipo)     H(rot)  DE(clash)    DE(int)     intcor
     21.19     -22.57       2.59        0.00     104.43       1.47       0.00       1.37       ----

> <Gold.Chemscore.Fitness>
21.1906

> <Gold.Chemscore.DG>
-22.5666

> <Gold.Chemscore.ZeroCoef>
-5.4800

> <Gold.Chemscore.Hbond>
2.5866

> <Gold.Chemscore.Metal>
0.0000

> <Gold.Chemscore.Lipo>
104.4324

> <Gold.Chemscore.Internal_Hbond>
0.0000

> <Gold.Chemscore.DEClash>
0.0029

> <Gold.Chemscore.DEInternal>
1.3730

> <Gold.Chemscore.Rot>
1.4731

> <Gold.Chemscore.Internal.Correction>
   9.000000E+99

> <Gold.Chemscore.Hbonds>
donor molecule, donor type, donor heavy atom, donor atom, acceptor molecule, acceptor atom, score
      P1  H  6896  6907       L1     6  0.94
      P1  H  7997  8010       L1     8  0.27
      P1  H 10752 10764       L1     7  0.49

> <Gold.Chemscore.Hbond.Weighted>
-8.6392

> <Gold.Chemscore.Metal.Weighted>
-0.0000

> <Gold.Chemscore.Lipo.Weighted>
-12.2186

> <Gold.Chemscore.Internal_Hbond.Weighted>
0.0000

> <Gold.Chemscore.DEClash.Weighted>
0.0029

> <Gold.Chemscore.DEInternal.Weighted>
1.3730

> <Gold.Chemscore.Rot.Weighted>
3.7712

> <Gold.Chemscore.Internal.Correction.Weighted>
   9.000000E+99

> <Gold.Protein.RotatedTorsions>
[ 6907 6896 6895 6894 ] final    9.22 input  -60.11 | X-H torsion
[ 7974 7965 7964 7962 ] final  -57.67 input  175.53 | X-H torsion
[ 8008 7997 7996 7995 ] final   29.21 input   59.86 | X-H torsion
[ 10167 10162 10161 10158 ] final   12.87 input  -65.29 | X-H torsion
[ 10718 10713 10712 10709 ] final -117.20 input   66.30 | X-H torsion
[ 10763 10752 10751 10750 ] final   22.48 input  -60.55 | X-H torsion
[ 11005 11000 10999 10996 ] final  103.04 input  -57.11 | X-H torsion

> <Gold.Protein.ActiveResidues>
 VAL166  LYS551  ARG553  GLY616  TRP617  ASP618  TYR619  PRO620  LYS621  CYS622 
 ASP623  PHE694  ASN695  SER759  ASP760  ASP761  ALA762  ILE779  LEU786  VAL792 
 PHE793  MET794  SER795  GLU796  ALA797  LYS798  CYS799  TRP800  GLU811  SER814 

> <Gold.Protein.RotatedAtoms>
  151.7186  135.0899  160.0279 H   0  0  0  0  0  0  0  0  0  0  0  0  # atno 6907 bound_to 6896
  152.3616  133.6300  159.6028 H   0  0  0  0  0  0  0  0  0  0  0  0  # atno 6908 bound_to 6896
  150.7608  133.9330  159.3474 H   0  0  0  0  0  0  0  0  0  0  0  0  # atno 6909 bound_to 6896
  145.8483  140.8370  142.9999 H   0  0  0  0  0  0  0  0  0  0  0  0  # atno 7974 bound_to 7965
  155.0708  140.3200  155.4631 H   0  0  0  0  0  0  0  0  0  0  0  0  # atno 8008 bound_to 7997
  156.2791  140.2112  156.5781 H   0  0  0  0  0  0  0  0  0  0  0  0  # atno 8009 bound_to 7997
  154.7056  140.0503  157.0488 H   0  0  0  0  0  0  0  0  0  0  0  0  # atno 8010 bound_to 7997
  140.6040  143.8547  150.6994 H   0  0  0  0  0  0  0  0  0  0  0  0  # atno 10167 bound_to 10162
  156.1017  130.6177  150.9134 H   0  0  0  0  0  0  0  0  0  0  0  0  # atno 10718 bound_to 10713
  153.0912  135.6647  153.9850 H   0  0  0  0  0  0  0  0  0  0  0  0  # atno 10763 bound_to 10752
  153.9446  135.2990  155.3442 H   0  0  0  0  0  0  0  0  0  0  0  0  # atno 10764 bound_to 10752
  154.7327  135.5116  153.9063 H   0  0  0  0  0  0  0  0  0  0  0  0  # atno 10765 bound_to 10752
  139.8781  134.9247  156.5149 H   0  0  0  0  0  0  0  0  0  0  0  0  # atno 11005 bound_to 11000
  144.6730  140.0914  143.7465 LP  0  0  0  0  0  0  0  0  0  0  0  0  # atno 17320 bound_to 7965
  145.9387  139.2654  143.1282 LP  0  0  0  0  0  0  0  0  0  0  0  0  # atno 17321 bound_to 7965
  140.2099  143.3891  152.1726 LP  0  0  0  0  0  0  0  0  0  0  0  0  # atno 17342 bound_to 10162
  139.5311  144.7160  151.5052 LP  0  0  0  0  0  0  0  0  0  0  0  0  # atno 17343 bound_to 10162
  157.6188  131.0931  150.8661 LP  0  0  0  0  0  0  0  0  0  0  0  0  # atno 17370 bound_to 10713
  156.8787  130.5172  149.5292 LP  0  0  0  0  0  0  0  0  0  0  0  0  # atno 17371 bound_to 10713
  140.8493  133.8144  155.9153 LP  0  0  0  0  0  0  0  0  0  0  0  0  # atno 17394 bound_to 11000
  140.9160  134.2201  157.4956 LP  0  0  0  0  0  0  0  0  0  0  0  0  # atno 17395 bound_to 11000

$$$$
