#       Name:                AV-unprocessed.smi:1983
#       Creating user name   scv26
#       Creation time:       Fri Mar 27 10:23:08 2020


#       File generated by GOLD software.
#

@<TRIPOS>MOLECULE
AV-unprocessed.smi:1983
    57    58     1
SMALL
NO_CHARGES


@<TRIPOS>ATOM
      1 ****        -6.0593  -1.4384  -3.5718 C.3            1 S1                 0.0000
      2 ****        -4.8311  -0.6493  -3.0916 C.3            1 S1                 0.0000
      3 ****        -5.0959   0.1835  -1.8198 C.3            1 S1                 0.0000
      4 ****        -5.5992  -0.6183  -0.7703 O.3            1 S1                 0.0000
      5 ****        -3.6909  -1.5446  -2.9090 N.am           1 S1                 0.0000
      6 ****        -2.4017  -1.1867  -2.9858 C.2            1 S1                 0.0000
      7 ****        -2.0133  -0.0432  -3.2262 O.2            1 S1                 0.0000
      8 ****        -1.5824  -2.2232  -2.7596 N.am           1 S1                 0.0000
      9 ****        -0.1250  -2.1496  -2.7822 C.3            1 S1                 0.0000
     10 ****         0.4832  -1.4287  -1.5873 C.ar           1 S1                 0.0000
     11 ****         1.6322  -0.6260  -1.7567 C.ar           1 S1                 0.0000
     12 ****         2.1859   0.0405  -0.6445 C.ar           1 S1                 0.0000
     13 ****         1.5807  -0.1093   0.6250 C.ar           1 S1                 0.0000
     14 ****         2.0552   0.5128   1.7871 N.3            1 S1                 0.0000
     15 ****         2.1343   1.9644   1.6880 C.3            1 S1                 0.0000
     16 ****         2.5465   2.5631   3.0455 C.3            1 S1                 0.0000
     17 ****         2.7354   4.0819   2.9726 C.3            1 S1                 0.0000
     18 ****         3.7809   1.9758   3.4513 O.3            1 S1                 0.0000
     19 ****         3.6894   0.5628   3.6216 C.3            1 S1                 0.0000
     20 ****         5.0419   0.0501   4.1269 C.3            1 S1                 0.0000
     21 ****         3.2899  -0.0816   2.2803 C.3            1 S1                 0.0000
     22 ****         0.4899  -0.8972   0.7467 N.pl3          1 S1                 1.0000
     23 ****        -0.0711  -1.5512  -0.2935 C.ar           1 S1                 0.0000
     24 ****        -6.9103  -0.7764  -3.7338 H              1 S1                 0.0000
     25 ****        -6.3607  -2.1970  -2.8485 H              1 S1                 0.0000
     26 ****        -5.8537  -1.9451  -4.5152 H              1 S1                 0.0000
     27 ****        -4.5762   0.0500  -3.8903 H              1 S1                 0.0000
     28 ****        -4.1916   0.6922  -1.4840 H              1 S1                 0.0000
     29 ****        -5.8309   0.9601  -2.0333 H              1 S1                 0.0000
     30 ****        -5.7847  -0.0612  -0.0298 H              1 S1                 0.0000
     31 ****        -3.9053  -2.5089  -2.7006 H              1 S1                 0.0000
     32 ****        -1.9940  -3.1261  -2.5727 H              1 S1                 0.0000
     33 ****         0.2671  -3.1665  -2.8040 H              1 S1                 0.0000
     34 ****         0.1981  -1.6736  -3.7098 H              1 S1                 0.0000
     35 ****         2.0851  -0.5163  -2.7313 H              1 S1                 0.0000
     36 ****         3.0651   0.6554  -0.7704 H              1 S1                 0.0000
     37 ****         2.8607   2.2463   0.9246 H              1 S1                 0.0000
     38 ****         1.1673   2.3634   1.3785 H              1 S1                 0.0000
     39 ****         1.7823   2.3435   3.7934 H              1 S1                 0.0000
     40 ****         1.8117   4.5784   2.6745 H              1 S1                 0.0000
     41 ****         3.5081   4.3504   2.2516 H              1 S1                 0.0000
     42 ****         3.0304   4.4841   3.9421 H              1 S1                 0.0000
     43 ****         2.9311   0.3430   4.3755 H              1 S1                 0.0000
     44 ****         5.0207  -1.0292   4.2803 H              1 S1                 0.0000
     45 ****         5.3037   0.5151   5.0777 H              1 S1                 0.0000
     46 ****         5.8395   0.2719   3.4172 H              1 S1                 0.0000
     47 ****         3.1560  -1.1569   2.4066 H              1 S1                 0.0000
     48 ****         4.0833   0.0609   1.5449 H              1 S1                 0.0000
     49 ****        -0.9426  -2.1448  -0.0583 H              1 S1                 0.0000
     50 ****         0.0660  -1.0003   1.6690 H              1 S1                 0.0000
     51 ****        -4.9186  -1.3046  -0.5140 LP             1 S1                 0.0000
     52 ****        -6.4378  -1.0751  -1.0672 LP             1 S1                 0.0000
     53 ****        -2.6774   0.6887  -3.3789 LP             1 S1                 0.0000
     54 ****        -1.0338   0.1536  -3.2688 LP             1 S1                 0.0000
     55 ****         1.3566   0.3342   2.4800 LP             1 S1                 0.0000
     56 ****         4.0594   2.3852   4.3201 LP             1 S1                 0.0000
     57 ****         4.4716   2.1699   2.7547 LP             1 S1                 0.0000
@<TRIPOS>BOND
    1    1    2 1     
    2    1   24 1     
    3    1   25 1     
    4    1   26 1     
    5    2    3 1     
    6    2    5 1     
    7    2   27 1     
    8    3    4 1     
    9    3   28 1     
   10    3   29 1     
   11    4   30 1     
   12    5    6 am    
   13    5   31 1     
   14    6    7 2     
   15    6    8 am    
   16    8    9 1     
   17    8   32 1     
   18    9   10 1     
   19    9   33 1     
   20    9   34 1     
   21   10   23 ar    
   22   10   11 ar    
   23   11   12 ar    
   24   11   35 1     
   25   12   13 ar    
   26   12   36 1     
   27   13   14 1     
   28   13   22 ar    
   29   14   21 1     
   30   14   15 1     
   31   15   16 1     
   32   15   37 1     
   33   15   38 1     
   34   16   17 1     
   35   16   18 1     
   36   16   39 1     
   37   17   40 1     
   38   17   41 1     
   39   17   42 1     
   40   18   19 1     
   41   19   20 1     
   42   19   21 1     
   43   19   43 1     
   44   20   44 1     
   45   20   45 1     
   46   20   46 1     
   47   21   47 1     
   48   21   48 1     
   49   22   23 ar    
   50   22   50 1     
   51   23   49 1     
   52    4   51 1     
   53    4   52 1     
   54    7   53 1     
   55    7   54 1     
   56   14   55 1     
   57   18   56 1     
   58   18   57 1     
@<TRIPOS>SUBSTRUCTURE
      1 S1             1
@<TRIPOS>SET
LONE_PAIRS      STATIC     ATOMS    <user>   **** ""
7 51 52 53 54 55 56 57
DONOR_HYDROGENS      STATIC     ATOMS    <user>   **** ""
4 30 31 32 50
ATOM$BLUE        STATIC     ATOMS    COLORGROUP SYSTEM
7 51 52 53 54 55 56 57
ATOM$RED        STATIC     ATOMS    COLORGROUP SYSTEM
4 30 31 32 50
