#       Name:                AV-unprocessed.smi:1055
#       Creating user name   scv26
#       Creation time:       Fri Mar 27 03:12:57 2020


#       File generated by GOLD software.
#

@<TRIPOS>MOLECULE
AV-unprocessed.smi:1055
    54    55     1
SMALL
NO_CHARGES


@<TRIPOS>ATOM
      1 ****        -6.6381  -2.8470  -2.4746 C.2            1 S1                 0.0000
      2 ****        -5.8330  -3.1329  -1.4378 C.2            1 S1                 0.0000
      3 ****        -5.2858  -4.5289  -1.2067 C.3            1 S1                 0.0000
      4 ****        -5.4202  -2.0796  -0.4216 C.3            1 S1                 0.0000
      5 ****        -3.9607  -1.8117  -0.4630 N.4            1 S1                 1.0000
      6 ****        -3.4894  -1.0974   0.7510 C.3            1 S1                 0.0000
      7 ****        -1.9589  -0.9495   0.7534 C.3            1 S1                 0.0000
      8 ****        -1.4694  -0.2341  -0.5190 C.3            1 S1                 0.0000
      9 ****        -0.0112  -0.1697  -0.5589 N.am           1 S1                 0.0000
     10 ****         0.7391   0.7255   0.0998 C.2            1 S1                 0.0000
     11 ****         0.2682   1.5941   0.8335 O.2            1 S1                 0.0000
     12 ****         2.0456   0.5552  -0.1659 N.am           1 S1                 0.0000
     13 ****         3.1506   1.2947   0.3355 C.ar           1 S1                 0.0000
     14 ****         4.3547   1.2653  -0.3931 C.ar           1 S1                 0.0000
     15 ****         5.4712   1.9743   0.0890 C.ar           1 S1                 0.0000
     16 ****         5.3613   2.6951   1.3042 C.ar           1 S1                 0.0000
     17 ****         6.4513   3.4256   1.8305 N.pl3          1 S1                 0.0000
     18 ****         7.7304   3.4414   1.1317 C.3            1 S1                 0.0000
     19 ****         6.3029   4.1431   3.0929 C.3            1 S1                 0.0000
     20 ****         4.2047   2.7078   2.0109 N.ar           1 S1                 0.0000
     21 ****         3.1359   2.0286   1.5445 C.ar           1 S1                 0.0000
     22 ****        -1.9949  -0.9780  -1.7568 C.3            1 S1                 0.0000
     23 ****        -3.5251  -1.1253  -1.7087 C.3            1 S1                 0.0000
     24 ****        -6.9255  -3.6061  -3.1876 H              1 S1                 0.0000
     25 ****        -7.0231  -1.8492  -2.6278 H              1 S1                 0.0000
     26 ****        -5.5951  -4.8989  -0.2289 H              1 S1                 0.0000
     27 ****        -4.1963  -4.5265  -1.2448 H              1 S1                 0.0000
     28 ****        -5.6476  -5.2272  -1.9621 H              1 S1                 0.0000
     29 ****        -5.9698  -1.1506  -0.5835 H              1 S1                 0.0000
     30 ****        -5.7054  -2.4441   0.5663 H              1 S1                 0.0000
     31 ****        -3.9622  -0.1156   0.8037 H              1 S1                 0.0000
     32 ****        -3.7970  -1.6454   1.6423 H              1 S1                 0.0000
     33 ****        -1.6482  -0.3976   1.6414 H              1 S1                 0.0000
     34 ****        -1.4986  -1.9359   0.8262 H              1 S1                 0.0000
     35 ****        -1.8699   0.7817  -0.5342 H              1 S1                 0.0000
     36 ****         0.4605  -0.8450  -1.1427 H              1 S1                 0.0000
     37 ****         2.2724  -0.1471  -0.8546 H              1 S1                 0.0000
     38 ****         4.4253   0.7098  -1.3169 H              1 S1                 0.0000
     39 ****         6.3867   1.9503  -0.4822 H              1 S1                 0.0000
     40 ****         8.1304   2.4310   1.0413 H              1 S1                 0.0000
     41 ****         8.4669   4.0435   1.6644 H              1 S1                 0.0000
     42 ****         7.6160   3.8647   0.1334 H              1 S1                 0.0000
     43 ****         6.0569   3.4518   3.8997 H              1 S1                 0.0000
     44 ****         5.5088   4.8870   3.0197 H              1 S1                 0.0000
     45 ****         7.2212   4.6627   3.3670 H              1 S1                 0.0000
     46 ****         2.2645   2.0685   2.1793 H              1 S1                 0.0000
     47 ****        -1.7057  -0.4461  -2.6641 H              1 S1                 0.0000
     48 ****        -1.5381  -1.9668  -1.8193 H              1 S1                 0.0000
     49 ****        -3.8522  -1.6870  -2.5839 H              1 S1                 0.0000
     50 ****        -3.9983  -0.1439  -1.7690 H              1 S1                 0.0000
     51 ****        -3.5078  -2.7144  -0.4532 H              1 S1                 0.0000
     52 ****        -0.7214   1.6573   0.9622 LP             1 S1                 0.0000
     53 ****         0.8753   2.2367   1.3010 LP             1 S1                 0.0000
     54 ****         4.1440   3.2159   2.8701 LP             1 S1                 0.0000
@<TRIPOS>BOND
    1    1    2 2     
    2    1   24 1     
    3    1   25 1     
    4    2    3 1     
    5    2    4 1     
    6    3   26 1     
    7    3   27 1     
    8    3   28 1     
    9    4    5 1     
   10    4   29 1     
   11    4   30 1     
   12    5   23 1     
   13    5    6 1     
   14    5   51 1     
   15    6    7 1     
   16    6   31 1     
   17    6   32 1     
   18    7    8 1     
   19    7   33 1     
   20    7   34 1     
   21    8    9 1     
   22    8   22 1     
   23    8   35 1     
   24    9   10 am    
   25    9   36 1     
   26   10   11 2     
   27   10   12 am    
   28   12   13 1     
   29   12   37 1     
   30   13   21 ar    
   31   13   14 ar    
   32   14   15 ar    
   33   14   38 1     
   34   15   16 ar    
   35   15   39 1     
   36   16   17 1     
   37   16   20 ar    
   38   17   18 1     
   39   17   19 1     
   40   18   40 1     
   41   18   41 1     
   42   18   42 1     
   43   19   43 1     
   44   19   44 1     
   45   19   45 1     
   46   20   21 ar    
   47   21   46 1     
   48   22   23 1     
   49   22   47 1     
   50   22   48 1     
   51   23   49 1     
   52   23   50 1     
   53   11   52 1     
   54   11   53 1     
   55   20   54 1     
@<TRIPOS>SUBSTRUCTURE
      1 S1             1
@<TRIPOS>SET
LONE_PAIRS      STATIC     ATOMS    <user>   **** ""
3 52 53 54
DONOR_HYDROGENS      STATIC     ATOMS    <user>   **** ""
3 51 36 37
ATOM$BLUE        STATIC     ATOMS    COLORGROUP SYSTEM
3 52 53 54
ATOM$RED        STATIC     ATOMS    COLORGROUP SYSTEM
3 51 36 37
