AV-unprocessed.smi:160|AV-procd|sdf|1367|dock5
  -GOLD-   2262019 83D 1   1.00000     0.00000
 Structure written by MMmdl.
 28 29  0  0  0  0  0  0  0  0  2 V2000
  148.6624  135.4442  159.4632 N   0  5  0  0  0  0  0  0  0  0  0  0
  148.7892  136.6818  158.9358 C   0  0  0  0  0  0  0  0  0  0  0  0
  148.2365  137.7050  159.3383 O   0  0  0  0  0  0  0  0  0  0  0  0
  149.7081  136.7610  157.7399 C   0  0  0  0  0  0  0  0  0  0  0  0
  150.3289  135.6410  157.2596 N   0  0  0  0  0  0  0  0  0  0  0  0
  151.0021  136.1864  156.2554 C   0  0  0  0  0  0  0  0  0  0  0  0
  150.8134  137.5022  156.1170 N   0  0  0  0  0  0  0  0  0  0  0  0
  151.4151  138.4572  155.1271 C   0  0  2  0  0  0  0  0  0  0  0  0
  151.8427  139.5800  155.8342 O   0  0  0  0  0  0  0  0  0  0  0  0
  150.9814  140.6983  155.6094 C   0  0  2  0  0  0  0  0  0  0  0  0
  150.5374  141.2980  156.9543 C   0  0  0  0  0  0  0  0  0  0  0  0
  150.7083  142.6995  156.9439 O   0  0  0  0  0  0  0  0  0  0  0  0
  149.8122  140.1721  154.7596 C   0  0  1  0  0  0  0  0  0  0  0  0
  149.4248  141.1309  153.7954 O   0  0  0  0  0  0  0  0  0  0  0  0
  150.4036  138.9475  154.0788 C   0  0  2  0  0  0  0  0  0  0  0  0
  149.4050  137.9984  153.7499 O   0  0  0  0  0  0  0  0  0  0  0  0
  149.9667  137.9034  157.0971 N   0  0  0  0  0  0  0  0  0  0  0  0
  152.2556  137.9085  154.7009 H   0  0  0  0  0  0  0  0  0  0  0  0
  151.5465  141.4317  155.0308 H   0  0  0  0  0  0  0  0  0  0  0  0
  148.9615  139.9028  155.3874 H   0  0  0  0  0  0  0  0  0  0  0  0
  150.9636  139.2324  153.1865 H   0  0  0  0  0  0  0  0  0  0  0  0
  147.8472  135.2474  160.0560 H   0  0  0  0  0  0  0  0  0  0  0  0
  151.6472  135.6133  155.6060 H   0  0  0  0  0  0  0  0  0  0  0  0
  149.4778  141.1015  157.1206 H   0  0  0  0  0  0  0  0  0  0  0  0
  151.0820  140.8573  157.7893 H   0  0  0  0  0  0  0  0  0  0  0  0
  149.9552  143.0885  156.5262 H   0  0  0  0  0  0  0  0  0  0  0  0
  149.5558  140.7563  152.9377 H   0  0  0  0  0  0  0  0  0  0  0  0
  149.6686  137.5418  152.9661 H   0  0  0  0  0  0  0  0  0  0  0  0
  1  2  1  0  0  0  0
  1 22  1  0  0  0  0
  2  3  2  0  0  0  0
  2  4  1  0  0  0  0
  4 17  2  0  0  0  0
  4  5  1  0  0  0  0
  5  6  2  0  0  0  0
  6  7  1  0  0  0  0
  6 23  1  0  0  0  0
  7  8  1  0  0  0  0
  7 17  1  0  0  0  0
  8 18  1  0  0  0  0
  8 15  1  0  0  0  0
  8  9  1  0  0  0  0
  9 10  1  0  0  0  0
 10 19  1  0  0  0  0
 10 11  1  0  0  0  0
 10 13  1  0  0  0  0
 11 12  1  0  0  0  0
 11 24  1  0  0  0  0
 11 25  1  0  0  0  0
 12 26  1  0  0  0  0
 13 20  1  0  0  0  0
 13 14  1  0  0  0  0
 13 15  1  0  0  0  0
 14 27  1  0  0  0  0
 15 21  1  0  0  0  0
 15 16  1  0  0  0  0
 16 28  1  0  0  0  0
M  CHG  1   1  -1
M  END
> <s_m_source_file>
AV-unprocessed.smi

> <i_m_source_file_index>
160

> <i_lp_mmshare_version>
43012

> <i_f3d_flags>
0

> <s_epik_input>
W05IMl1DKD1PKWMxbltjSF1uKG4xKVtDQEBIXTJPW0NASF0oW0NIMl1bT0hdKVtDQEBIXShbT0hdKVtDQEhdMltPSF0=

> <s_epik_cmdline>
J2VwaWtfcHl0aG9uJywgJy1waCcsICc3LjAnLCAnLXRuJywgJzgnLCAnLW1hJywgJzIwMCcsICctbWV0YWxfYmluZGluZycsICctaW1hZScsICc8aW5maWxlLm1hZT4nLCAnLW9tYWUnLCAnPG91dGZpbGUubWFlPic=

> <r_lp_tautomer_probability>
1

> <r_epik_Ionization_Penalty>
6.6993

> <r_epik_Ionization_Penalty_Charging>
6.6993

> <r_epik_Ionization_Penalty_Neutral>
6.01698e-06

> <r_epik_State_Penalty>
6.69929

> <r_epik_Charging_Adjusted_Penalty>
13.3986

> <i_epik_Tot_Q>
-1

> <i_epik_Tot_abs_Q>
1

> <r_epik_Metal_State_Penalty>
2.62798

> <b_epik_Metal_Only>
1

> <s_epik_Chemistry_Notes>
This compound contains an acetal/aminal-like group ( X-CH(R)-Y where X, Y are N, S, or O) that may be acid/base labile, releasing an aldehyde.

> <s_lp_Force_Field>
OPLS_2005

> <r_lp_Energy>
43.4077

> <b_lp_Chiralities_Consistent>
1

> <s_lp_Variant>
AV-unprocessed.smi:160-25

> <Gold.Version>
5.8.1

> <Gold.Id.Protein>
6NUR|6NUR_protein|mol2

> <Gold.PLP.Fitness>
40.0599

> <Gold.PLP.PLP>
-27.1010

> <Gold.PLP.part.hbond>
-8.5932

> <Gold.PLP.part.metal>
0.0000

> <Gold.PLP.part.buried>
-2.9073

> <Gold.PLP.part.nonpolar>
-15.0533

> <Gold.PLP.part.repulsive>
0.0000

> <Gold.PLP.ligand.clash>
0.0000

> <Gold.PLP.ligand.torsion>
1.0004

> <Gold.PLP.Chemscore.Hbond>
4.9824

> <Gold.PLP.Chemscore.CHOScore>
0.0000

> <Gold.PLP.Chemscore.Metal>
0.0000

> <Gold.Chemscore.Hbonds>
donor molecule, donor type, donor heavy atom, donor atom, acceptor molecule, acceptor atom, score
      L1  H    12    26       P1  8028  0.75
      L1  H    14    27       P1  7957  1.00
      L1  H    16    28       P1  7948  0.77
      P1  H  6896  6908       L1     1  1.24
      P1  H  6934  6947       L1     3  0.14

> <Gold.PLP.Chemscore.Internal.Correction>
0.0124

> <Gold.Rescore>
     Score         DG    S(hbond)    S(metal)    S(lipo)     H(rot)  DE(clash)    DE(int)     intcor
     10.08     -11.41       3.88        0.00      28.28       4.04       0.28       1.05       ----

> <Gold.Chemscore.Fitness>
10.0806

> <Gold.Chemscore.DG>
-11.4145

> <Gold.Chemscore.ZeroCoef>
-5.4800

> <Gold.Chemscore.Hbond>
3.8829

> <Gold.Chemscore.Metal>
0.0000

> <Gold.Chemscore.Lipo>
28.2788

> <Gold.Chemscore.Internal_Hbond>
0.0000

> <Gold.Chemscore.DEClash>
0.2817

> <Gold.Chemscore.DEInternal>
1.0521

> <Gold.Chemscore.Rot>
4.0403

> <Gold.Chemscore.Internal.Correction>
   9.000000E+99

> <Gold.Chemscore.Hbonds>
donor molecule, donor type, donor heavy atom, donor atom, acceptor molecule, acceptor atom, score
      L1  H    12    26       P1  8028  0.72
      L1  H    14    27       P1  7957  1.00
      L1  H    16    28       P1  7948  0.47
      P1  H  6896  6908       L1     1  0.34
      P1  H  6934  6947       L1     3  0.14

> <Gold.Chemscore.Hbond.Weighted>
-12.9689

> <Gold.Chemscore.Metal.Weighted>
-0.0000

> <Gold.Chemscore.Lipo.Weighted>
-3.3086

> <Gold.Chemscore.Internal_Hbond.Weighted>
0.0000

> <Gold.Chemscore.DEClash.Weighted>
0.2817

> <Gold.Chemscore.DEInternal.Weighted>
1.0521

> <Gold.Chemscore.Rot.Weighted>
10.3431

> <Gold.Chemscore.Internal.Correction.Weighted>
   9.000000E+99

> <Gold.Protein.RotatedTorsions>
[ 6907 6896 6895 6894 ] final  174.23 input  -60.11 | X-H torsion
[ 7974 7965 7964 7962 ] final   -3.54 input  175.53 | X-H torsion
[ 8008 7997 7996 7995 ] final -159.04 input   59.86 | X-H torsion
[ 10167 10162 10161 10158 ] final  -71.88 input  -65.29 | X-H torsion
[ 10718 10713 10712 10709 ] final -175.29 input   66.30 | X-H torsion
[ 10763 10752 10751 10750 ] final  140.48 input  -60.55 | X-H torsion
[ 11005 11000 10999 10996 ] final -136.60 input  -57.11 | X-H torsion

> <Gold.Protein.ActiveResidues>
 VAL166  LYS551  ARG553  GLY616  TRP617  ASP618  TYR619  PRO620  LYS621  CYS622 
 ASP623  PHE694  ASN695  SER759  ASP760  ASP761  ALA762  ILE779  LEU786  VAL792 
 PHE793  MET794  SER795  GLU796  ALA797  LYS798  CYS799  TRP800  GLU811  SER814 

> <Gold.Protein.RotatedAtoms>
  151.7556  133.3330  159.3403 H   0  0  0  0  0  0  0  0  0  0  0  0  # atno 6907 bound_to 6896
  150.7518  134.6152  159.6116 H   0  0  0  0  0  0  0  0  0  0  0  0  # atno 6908 bound_to 6896
  152.3439  134.7099  160.0307 H   0  0  0  0  0  0  0  0  0  0  0  0  # atno 6909 bound_to 6896
  146.2388  140.1736  142.8332 H   0  0  0  0  0  0  0  0  0  0  0  0  # atno 7974 bound_to 7965
  155.7565  140.0833  157.2176 H   0  0  0  0  0  0  0  0  0  0  0  0  # atno 8008 bound_to 7997
  154.4007  140.1550  156.2840 H   0  0  0  0  0  0  0  0  0  0  0  0  # atno 8009 bound_to 7997
  155.8880  140.3417  155.5938 H   0  0  0  0  0  0  0  0  0  0  0  0  # atno 8010 bound_to 7997
  140.5237  143.2328  151.7384 H   0  0  0  0  0  0  0  0  0  0  0  0  # atno 10167 bound_to 10162
  156.7977  130.9541  151.3119 H   0  0  0  0  0  0  0  0  0  0  0  0  # atno 10718 bound_to 10713
  153.9235  135.2998  155.3447 H   0  0  0  0  0  0  0  0  0  0  0  0  # atno 10763 bound_to 10752
  154.7563  135.4956  153.9384 H   0  0  0  0  0  0  0  0  0  0  0  0  # atno 10764 bound_to 10752
  153.1129  135.6763  153.9572 H   0  0  0  0  0  0  0  0  0  0  0  0  # atno 10765 bound_to 10752
  140.8789  134.1956  157.4604 H   0  0  0  0  0  0  0  0  0  0  0  0  # atno 11005 bound_to 11000
  144.9991  140.8616  143.5292 LP  0  0  0  0  0  0  0  0  0  0  0  0  # atno 17320 bound_to 7965
  145.1753  139.2381  143.5320 LP  0  0  0  0  0  0  0  0  0  0  0  0  # atno 17321 bound_to 7965
  139.4931  144.4217  151.9971 LP  0  0  0  0  0  0  0  0  0  0  0  0  # atno 17342 bound_to 10162
  140.3315  144.3311  150.5986 LP  0  0  0  0  0  0  0  0  0  0  0  0  # atno 17343 bound_to 10162
  157.6569  130.8932  149.9748 LP  0  0  0  0  0  0  0  0  0  0  0  0  # atno 17370 bound_to 10713
  156.1120  130.3649  150.0032 LP  0  0  0  0  0  0  0  0  0  0  0  0  # atno 17371 bound_to 10713
  139.8718  134.9808  156.5092 LP  0  0  0  0  0  0  0  0  0  0  0  0  # atno 17394 bound_to 11000
  140.8484  133.8150  155.9144 LP  0  0  0  0  0  0  0  0  0  0  0  0  # atno 17395 bound_to 11000

$$$$
