AV-unprocessed.smi:1359|AV-procd|sdf|5550|dock4
  -GOLD-   22720 5143D 1   1.00000     0.00000
 Structure written by MMmdl.
 34 35  0  0  0  0  0  0  0  0  1 V2000
  151.9245  144.4130  157.7335 C   0  0  0  0  0  0  0  0  0  0  0  0
  150.9949  143.2046  157.8873 C   0  0  0  0  0  0  0  0  0  0  0  0
  151.0921  142.2335  156.6995 C   0  0  0  0  0  0  0  0  0  0  0  0
  149.8939  142.2787  155.8698 N   0  0  0  0  0  0  0  0  0  0  0  0
  149.5667  141.3695  154.9376 C   0  0  0  0  0  0  0  0  0  0  0  0
  150.2651  140.3919  154.6702 O   0  0  0  0  0  0  0  0  0  0  0  0
  148.2530  141.5974  154.1871 C   0  0  0  0  0  0  0  0  0  0  0  0
  147.3156  140.4426  154.3974 C   0  0  0  0  0  0  0  0  0  0  0  0
  146.7320  140.0565  155.5797 C   0  0  0  0  0  0  0  0  0  0  0  0
  145.7093  138.6605  155.3794 S   0  0  0  0  0  0  0  0  0  0  0  0
  146.1272  138.6429  153.6635 C   0  0  0  0  0  0  0  0  0  0  0  0
  145.6675  137.7068  152.6900 N   0  0  0  0  0  0  0  0  0  0  0  0
  144.7318  136.6404  153.0332 C   0  0  0  0  0  0  0  0  0  0  0  0
  144.5071  135.9111  151.7124 C   0  0  0  0  0  0  0  0  0  0  0  0
  145.3486  136.6570  150.8068 N   0  0  0  0  0  0  0  0  0  0  0  0
  145.9969  137.6716  151.3833 C   0  0  0  0  0  0  0  0  0  0  0  0
  146.7627  138.4257  150.7861 O   0  0  0  0  0  0  0  0  0  0  0  0
  146.9640  139.6270  153.3165 N   0  0  0  0  0  0  0  0  0  0  0  0
  151.8365  145.0820  158.5897 H   0  0  0  0  0  0  0  0  0  0  0  0
  151.6826  144.9852  156.8374 H   0  0  0  0  0  0  0  0  0  0  0  0
  152.9665  144.1004  157.6615 H   0  0  0  0  0  0  0  0  0  0  0  0
  151.2407  142.6843  158.8138 H   0  0  0  0  0  0  0  0  0  0  0  0
  149.9667  143.5526  157.9936 H   0  0  0  0  0  0  0  0  0  0  0  0
  151.9460  142.4964  156.0744 H   0  0  0  0  0  0  0  0  0  0  0  0
  151.2661  141.2148  157.0500 H   0  0  0  0  0  0  0  0  0  0  0  0
  149.2600  143.0499  156.0233 H   0  0  0  0  0  0  0  0  0  0  0  0
  147.8080  142.5332  154.5283 H   0  0  0  0  0  0  0  0  0  0  0  0
  148.4617  141.7266  153.1243 H   0  0  0  0  0  0  0  0  0  0  0  0
  146.8388  140.5118  156.5533 H   0  0  0  0  0  0  0  0  0  0  0  0
  145.1610  135.9775  153.7859 H   0  0  0  0  0  0  0  0  0  0  0  0
  143.8008  137.0544  153.4230 H   0  0  0  0  0  0  0  0  0  0  0  0
  144.8226  134.8683  151.7600 H   0  0  0  0  0  0  0  0  0  0  0  0
  143.4657  135.9542  151.3916 H   0  0  0  0  0  0  0  0  0  0  0  0
  145.4317  136.4219  149.8281 H   0  0  0  0  0  0  0  0  0  0  0  0
  1  2  1  0  0  0  0
  1 19  1  0  0  0  0
  1 20  1  0  0  0  0
  1 21  1  0  0  0  0
  2  3  1  0  0  0  0
  2 22  1  0  0  0  0
  2 23  1  0  0  0  0
  3  4  1  0  0  0  0
  3 24  1  0  0  0  0
  3 25  1  0  0  0  0
  4  5  1  0  0  0  0
  4 26  1  0  0  0  0
  5  6  2  0  0  0  0
  5  7  1  0  0  0  0
  7  8  1  0  0  0  0
  7 27  1  0  0  0  0
  7 28  1  0  0  0  0
  8 18  1  0  0  0  0
  8  9  2  0  0  0  0
  9 10  1  0  0  0  0
  9 29  1  0  0  0  0
 10 11  1  0  0  0  0
 11 12  1  0  0  0  0
 11 18  2  0  0  0  0
 12 16  1  0  0  0  0
 12 13  1  0  0  0  0
 13 14  1  0  0  0  0
 13 30  1  0  0  0  0
 13 31  1  0  0  0  0
 14 15  1  0  0  0  0
 14 32  1  0  0  0  0
 14 33  1  0  0  0  0
 15 16  1  0  0  0  0
 15 34  1  0  0  0  0
 16 17  2  0  0  0  0
M  END
> <s_m_source_file>
AV-unprocessed.smi

> <i_m_source_file_index>
1359

> <i_lp_mmshare_version>
43012

> <i_f3d_flags>
0

> <s_epik_input>
W0NIM11bQ0gyXVtDSDJdW05IXUMoPU8pW0NIMl1jMVtjSF1zYyhuMSlOMltDSDJdW0NIMl1bTkhdQzI9Tw==

> <s_epik_cmdline>
J2VwaWtfcHl0aG9uJywgJy1waCcsICc3LjAnLCAnLXRuJywgJzgnLCAnLW1hJywgJzIwMCcsICctbWV0YWxfYmluZGluZycsICctaW1hZScsICc8aW5maWxlLm1hZT4nLCAnLW9tYWUnLCAnPG91dGZpbGUubWFlPic=

> <r_lp_tautomer_probability>
1

> <r_epik_Ionization_Penalty>
0.000119828

> <r_epik_Ionization_Penalty_Charging>
0

> <r_epik_Ionization_Penalty_Neutral>
0.000119828

> <r_epik_State_Penalty>
-0

> <r_epik_Charging_Adjusted_Penalty>
0

> <i_epik_Tot_Q>
0

> <i_epik_Tot_abs_Q>
0

> <r_epik_Metal_State_Penalty>
-0

> <b_epik_Metal_Only>
0

> <s_lp_Force_Field>
OPLS_2005

> <r_lp_Energy>
29.9012

> <b_lp_Chiralities_Consistent>
1

> <s_lp_Variant>
AV-unprocessed.smi:1359-1

> <Gold.Version>
5.8.1

> <Gold.Id.Protein>
6NUR|6NUR_protein|mol2

> <Gold.PLP.Fitness>
37.9583

> <Gold.PLP.PLP>
-29.8769

> <Gold.PLP.part.hbond>
-4.0000

> <Gold.PLP.part.metal>
0.0000

> <Gold.PLP.part.buried>
-2.8531

> <Gold.PLP.part.nonpolar>
-24.4906

> <Gold.PLP.part.repulsive>
1.2513

> <Gold.PLP.ligand.clash>
0.0000

> <Gold.PLP.ligand.torsion>
0.4635

> <Gold.PLP.Chemscore.Hbond>
2.9920

> <Gold.PLP.Chemscore.CHOScore>
0.0000

> <Gold.PLP.Chemscore.Metal>
0.0000

> <Gold.Chemscore.Hbonds>
donor molecule, donor type, donor heavy atom, donor atom, acceptor molecule, acceptor atom, score
      L1  H     4    26       P1  8028  0.93
      P1  H  7954  7966       L1    17  0.99
      P1  H  7989  7998       L1     6  1.00

> <Gold.PLP.Chemscore.Internal.Correction>
0.0325

> <Gold.Rescore>
     Score         DG    S(hbond)    S(metal)    S(lipo)     H(rot)  DE(clash)    DE(int)     intcor
     13.19     -15.58       2.57        0.00      52.43       1.81       0.59       1.80       ----

> <Gold.Chemscore.Fitness>
13.1892

> <Gold.Chemscore.DG>
-15.5844

> <Gold.Chemscore.ZeroCoef>
-5.4800

> <Gold.Chemscore.Hbond>
2.5727

> <Gold.Chemscore.Metal>
0.0000

> <Gold.Chemscore.Lipo>
52.4284

> <Gold.Chemscore.Internal_Hbond>
0.0000

> <Gold.Chemscore.DEClash>
0.5933

> <Gold.Chemscore.DEInternal>
1.8019

> <Gold.Chemscore.Rot>
1.8057

> <Gold.Chemscore.Internal.Correction>
   9.000000E+99

> <Gold.Chemscore.Hbonds>
donor molecule, donor type, donor heavy atom, donor atom, acceptor molecule, acceptor atom, score
      L1  H     4    26       P1  8028  0.90
      P1  H  7954  7966       L1    17  0.93
      P1  H  7989  7998       L1     6  0.71

> <Gold.Chemscore.Hbond.Weighted>
-8.5928

> <Gold.Chemscore.Metal.Weighted>
-0.0000

> <Gold.Chemscore.Lipo.Weighted>
-6.1341

> <Gold.Chemscore.Internal_Hbond.Weighted>
0.0000

> <Gold.Chemscore.DEClash.Weighted>
0.5933

> <Gold.Chemscore.DEInternal.Weighted>
1.8019

> <Gold.Chemscore.Rot.Weighted>
4.6226

> <Gold.Chemscore.Internal.Correction.Weighted>
   9.000000E+99

> <Gold.Protein.RotatedTorsions>
[ 6907 6896 6895 6894 ] final  -76.91 input  -60.11 | X-H torsion
[ 7974 7965 7964 7962 ] final  126.99 input  175.53 | X-H torsion
[ 8008 7997 7996 7995 ] final -166.33 input   59.86 | X-H torsion
[ 10167 10162 10161 10158 ] final  115.29 input  -65.29 | X-H torsion
[ 10718 10713 10712 10709 ] final  150.27 input   66.30 | X-H torsion
[ 10763 10752 10751 10750 ] final  -55.52 input  -60.55 | X-H torsion
[ 11005 11000 10999 10996 ] final  -87.23 input  -57.11 | X-H torsion

> <Gold.Protein.ActiveResidues>
 VAL166  LYS551  ARG553  GLY616  TRP617  ASP618  TYR619  PRO620  LYS621  CYS622 
 ASP623  PHE694  ASN695  SER759  ASP760  ASP761  ALA762  ILE779  LEU786  VAL792 
 PHE793  MET794  SER795  GLU796  ALA797  LYS798  CYS799  TRP800  GLU811  SER814 

> <Gold.Protein.RotatedAtoms>
  150.7013  134.4501  159.5331 H   0  0  0  0  0  0  0  0  0  0  0  0  # atno 6907 bound_to 6896
  152.2195  134.8423  160.0497 H   0  0  0  0  0  0  0  0  0  0  0  0  # atno 6908 bound_to 6896
  151.9279  133.3568  159.3957 H   0  0  0  0  0  0  0  0  0  0  0  0  # atno 6909 bound_to 6896
  145.0555  139.3847  143.5032 H   0  0  0  0  0  0  0  0  0  0  0  0  # atno 7974 bound_to 7965
  155.8623  140.0980  157.1605 H   0  0  0  0  0  0  0  0  0  0  0  0  # atno 8008 bound_to 7997
  154.3991  140.1363  156.4039 H   0  0  0  0  0  0  0  0  0  0  0  0  # atno 8009 bound_to 7997
  155.7843  140.3457  155.5316 H   0  0  0  0  0  0  0  0  0  0  0  0  # atno 8010 bound_to 7997
  139.6327  144.7116  151.2398 H   0  0  0  0  0  0  0  0  0  0  0  0  # atno 10167 bound_to 10162
  157.2855  131.0843  151.1500 H   0  0  0  0  0  0  0  0  0  0  0  0  # atno 10718 bound_to 10713
  154.1921  135.6425  153.5063 H   0  0  0  0  0  0  0  0  0  0  0  0  # atno 10763 bound_to 10752
  153.0032  135.5431  154.6404 H   0  0  0  0  0  0  0  0  0  0  0  0  # atno 10764 bound_to 10752
  154.5795  135.2924  155.0719 H   0  0  0  0  0  0  0  0  0  0  0  0  # atno 10765 bound_to 10752
  141.1619  133.7500  156.9277 H   0  0  0  0  0  0  0  0  0  0  0  0  # atno 11005 bound_to 11000
  146.3521  140.0227  142.8657 LP  0  0  0  0  0  0  0  0  0  0  0  0  # atno 17320 bound_to 7965
  145.1473  140.9604  143.4453 LP  0  0  0  0  0  0  0  0  0  0  0  0  # atno 17321 bound_to 7965
  140.7448  143.6450  150.8300 LP  0  0  0  0  0  0  0  0  0  0  0  0  # atno 17342 bound_to 10162
  140.0078  143.5675  152.2851 LP  0  0  0  0  0  0  0  0  0  0  0  0  # atno 17343 bound_to 10162
  157.2917  130.6799  149.6117 LP  0  0  0  0  0  0  0  0  0  0  0  0  # atno 17370 bound_to 10713
  155.9665  130.4419  150.5358 LP  0  0  0  0  0  0  0  0  0  0  0  0  # atno 17371 bound_to 10713
  140.1408  134.9295  157.2463 LP  0  0  0  0  0  0  0  0  0  0  0  0  # atno 17394 bound_to 11000
  140.2839  134.3318  155.7335 LP  0  0  0  0  0  0  0  0  0  0  0  0  # atno 17395 bound_to 11000

$$$$
