AV-unprocessed.smi:1487|AV-procd|sdf|6007|dock3
  -GOLD-   22720 6103D 1   1.00000     0.00000
 Structure written by MMmdl.
 48 50  0  0  0  0  0  0  0  0  2 V2000
  153.0744  142.8573  161.9191 C   0  0  0  0  0  0  0  0  0  0  0  0
  152.5129  142.5179  160.5494 C   0  0  0  0  0  0  0  0  0  0  0  0
  152.9096  141.3148  159.9233 C   0  0  0  0  0  0  0  0  0  0  0  0
  152.4128  140.9632  158.6494 C   0  0  0  0  0  0  0  0  0  0  0  0
  152.6590  139.8498  157.8645 N   0  0  0  0  0  0  0  0  0  0  0  0
  151.9049  140.1004  156.7986 C   0  0  0  0  0  0  0  0  0  0  0  0
  151.1916  141.2427  156.8033 N   0  0  0  0  0  0  0  0  0  0  0  0
  150.2954  141.7150  155.7642 C   0  0  0  0  0  0  0  0  0  0  0  0
  149.4491  140.5802  155.1545 C   0  0  2  0  0  0  0  0  0  0  0  0
  150.1876  140.0333  154.0803 O   0  0  0  0  0  0  0  0  0  0  0  0
  148.0725  141.0557  154.6352 C   0  0  0  0  0  0  0  0  0  0  0  0
  147.4506  142.0951  155.4951 N   0  3  1  0  0  0  0  0  0  0  0  0
  146.1462  142.5886  154.9740 C   0  0  0  0  0  0  0  0  0  0  0  0
  145.6012  143.7409  155.8349 C   0  0  0  0  0  0  0  0  0  0  0  0
  145.4730  143.3168  157.3033 C   0  0  0  0  0  0  0  0  0  0  0  0
  146.8219  142.7868  157.8103 C   0  0  1  0  0  0  0  0  0  0  0  0
  146.6737  142.3050  159.1284 O   0  0  0  0  0  0  0  0  0  0  0  0
  147.3397  141.6512  156.9091 C   0  0  0  0  0  0  0  0  0  0  0  0
  151.5005  141.8551  158.0136 C   0  0  0  0  0  0  0  0  0  0  0  0
  151.0963  143.0540  158.6272 C   0  0  0  0  0  0  0  0  0  0  0  0
  151.6022  143.3898  159.9004 C   0  0  0  0  0  0  0  0  0  0  0  0
  151.1595  144.6864  160.5550 C   0  0  0  0  0  0  0  0  0  0  0  0
  153.7941  142.1084  162.2512 H   0  0  0  0  0  0  0  0  0  0  0  0
  152.2746  142.9039  162.6584 H   0  0  0  0  0  0  0  0  0  0  0  0
  153.5832  143.8212  161.8976 H   0  0  0  0  0  0  0  0  0  0  0  0
  153.6020  140.6496  160.4181 H   0  0  0  0  0  0  0  0  0  0  0  0
  151.8623  139.4107  155.9681 H   0  0  0  0  0  0  0  0  0  0  0  0
  149.6525  142.4895  156.1847 H   0  0  0  0  0  0  0  0  0  0  0  0
  150.8956  142.1967  154.9909 H   0  0  0  0  0  0  0  0  0  0  0  0
  149.3296  139.8054  155.9107 H   0  0  0  0  0  0  0  0  0  0  0  0
  150.1753  139.0910  154.1461 H   0  0  0  0  0  0  0  0  0  0  0  0
  148.1484  141.4525  153.6224 H   0  0  0  0  0  0  0  0  0  0  0  0
  147.4148  140.1872  154.5696 H   0  0  0  0  0  0  0  0  0  0  0  0
  146.2515  142.9393  153.9483 H   0  0  0  0  0  0  0  0  0  0  0  0
  145.4279  141.7674  154.9524 H   0  0  0  0  0  0  0  0  0  0  0  0
  146.2649  144.6032  155.7573 H   0  0  0  0  0  0  0  0  0  0  0  0
  144.6307  144.0622  155.4556 H   0  0  0  0  0  0  0  0  0  0  0  0
  145.1407  144.1599  157.9106 H   0  0  0  0  0  0  0  0  0  0  0  0
  144.7081  142.5437  157.3936 H   0  0  0  0  0  0  0  0  0  0  0  0
  147.5505  143.5986  157.8270 H   0  0  0  0  0  0  0  0  0  0  0  0
  146.0880  142.8800  159.5977 H   0  0  0  0  0  0  0  0  0  0  0  0
  146.6762  140.7862  156.9643 H   0  0  0  0  0  0  0  0  0  0  0  0
  148.3169  141.3255  157.2685 H   0  0  0  0  0  0  0  0  0  0  0  0
  150.4021  143.7100  158.1233 H   0  0  0  0  0  0  0  0  0  0  0  0
  150.4227  145.2094  159.9447 H   0  0  0  0  0  0  0  0  0  0  0  0
  152.0112  145.3525  160.6961 H   0  0  0  0  0  0  0  0  0  0  0  0
  150.7076  144.4900  161.5276 H   0  0  0  0  0  0  0  0  0  0  0  0
  148.0859  142.8800  155.4989 H   0  0  0  0  0  0  0  0  0  0  0  0
  1  2  1  0  0  0  0
  1 23  1  0  0  0  0
  1 24  1  0  0  0  0
  1 25  1  0  0  0  0
  2 21  1  0  0  0  0
  2  3  2  0  0  0  0
  3  4  1  0  0  0  0
  3 26  1  0  0  0  0
  4 19  2  0  0  0  0
  4  5  1  0  0  0  0
  5  6  2  0  0  0  0
  6  7  1  0  0  0  0
  6 27  1  0  0  0  0
  7  8  1  0  0  0  0
  7 19  1  0  0  0  0
  8  9  1  0  0  0  0
  8 28  1  0  0  0  0
  8 29  1  0  0  0  0
  9 10  1  0  0  0  0
  9 11  1  0  0  0  0
  9 30  1  0  0  0  0
 10 31  1  0  0  0  0
 11 12  1  0  0  0  0
 11 32  1  0  0  0  0
 11 33  1  0  0  0  0
 12 18  1  0  0  0  0
 12 13  1  0  0  0  0
 12 48  1  0  0  0  0
 13 14  1  0  0  0  0
 13 34  1  0  0  0  0
 13 35  1  0  0  0  0
 14 15  1  0  0  0  0
 14 36  1  0  0  0  0
 14 37  1  0  0  0  0
 15 16  1  0  0  0  0
 15 38  1  0  0  0  0
 15 39  1  0  0  0  0
 16 17  1  0  0  0  0
 16 18  1  0  0  0  0
 16 40  1  0  0  0  0
 17 41  1  0  0  0  0
 18 42  1  0  0  0  0
 18 43  1  0  0  0  0
 19 20  1  0  0  0  0
 20 21  2  0  0  0  0
 20 44  1  0  0  0  0
 21 22  1  0  0  0  0
 22 45  1  0  0  0  0
 22 46  1  0  0  0  0
 22 47  1  0  0  0  0
M  CHG  1  12   1
M  END
> <s_m_source_file>
AV-unprocessed.smi

> <i_m_source_file_index>
1487

> <i_lp_mmshare_version>
43012

> <i_f3d_flags>
0

> <s_epik_input>
W0NIM11jKFtjSF0xKWMoW0NIM10pW2NIXWMoYzEyKW4oW2NIXW4yKVtDSDJdW0NASF0oW09IXSlbQ0gyXU4zW0NIMl1bQ0gyXVtDSDJdW0NAQEhdKFtPSF0pW0NIMl0z

> <s_epik_cmdline>
J2VwaWtfcHl0aG9uJywgJy1waCcsICc3LjAnLCAnLXRuJywgJzgnLCAnLW1hJywgJzIwMCcsICctbWV0YWxfYmluZGluZycsICctaW1hZScsICc8aW5maWxlLm1hZT4nLCAnLW9tYWUnLCAnPG91dGZpbGUubWFlPic=

> <r_epik_Ionization_Penalty>
0.0940186

> <r_epik_Ionization_Penalty_Charging>
0.00679686

> <r_epik_Ionization_Penalty_Neutral>
0.0872218

> <r_epik_State_Penalty>
0.0799311

> <r_epik_Charging_Adjusted_Penalty>
0.086728

> <i_epik_Tot_Q>
1

> <i_epik_Tot_abs_Q>
1

> <r_epik_Metal_State_Penalty>
7.95545e-05

> <b_epik_Metal_Only>
0

> <s_lp_Force_Field>
OPLS_2005

> <r_lp_Energy>
20.897

> <b_lp_Chiralities_Consistent>
1

> <s_lp_Variant>
AV-unprocessed.smi:1487-1

> <Gold.Version>
5.8.1

> <Gold.Id.Protein>
6NUR|6NUR_protein|mol2

> <Gold.PLP.Fitness>
56.1612

> <Gold.PLP.PLP>
-43.9513

> <Gold.PLP.part.hbond>
-5.0000

> <Gold.PLP.part.metal>
0.0000

> <Gold.PLP.part.buried>
-8.0974

> <Gold.PLP.part.nonpolar>
-31.9163

> <Gold.PLP.part.repulsive>
0.0527

> <Gold.PLP.ligand.clash>
0.0000

> <Gold.PLP.ligand.torsion>
0.8747

> <Gold.PLP.Chemscore.Hbond>
4.6400

> <Gold.PLP.Chemscore.CHOScore>
0.0000

> <Gold.PLP.Chemscore.Metal>
0.0000

> <Gold.Chemscore.Hbonds>
donor molecule, donor type, donor heavy atom, donor atom, acceptor molecule, acceptor atom, score
      L1  H    12    48       P1  8028  2.00
      P1  H  6934  6946       L1    17  0.53
      P1  H  7989  7998       L1    10  0.99
      P1  H  7997  8010       L1     5  0.81

> <Gold.PLP.Chemscore.Internal.Correction>
0.0393

> <Gold.Rescore>
     Score         DG    S(hbond)    S(metal)    S(lipo)     H(rot)  DE(clash)    DE(int)     intcor
     19.04     -20.45       2.63        0.00     111.46       2.67       0.72       0.70       ----

> <Gold.Chemscore.Fitness>
19.0396

> <Gold.Chemscore.DG>
-20.4541

> <Gold.Chemscore.ZeroCoef>
-5.4800

> <Gold.Chemscore.Hbond>
2.6261

> <Gold.Chemscore.Metal>
0.0000

> <Gold.Chemscore.Lipo>
111.4637

> <Gold.Chemscore.Internal_Hbond>
0.0000

> <Gold.Chemscore.DEClash>
0.7159

> <Gold.Chemscore.DEInternal>
0.6986

> <Gold.Chemscore.Rot>
2.6712

> <Gold.Chemscore.Internal.Correction>
   9.000000E+99

> <Gold.Chemscore.Hbonds>
donor molecule, donor type, donor heavy atom, donor atom, acceptor molecule, acceptor atom, score
      L1  H    12    48       P1  8028  0.88
      P1  H  6934  6946       L1    17  0.09
      P1  H  7989  7998       L1    10  0.91
      P1  H  7997  8010       L1     5  0.14

> <Gold.Chemscore.Hbond.Weighted>
-8.7712

> <Gold.Chemscore.Metal.Weighted>
-0.0000

> <Gold.Chemscore.Lipo.Weighted>
-13.0413

> <Gold.Chemscore.Internal_Hbond.Weighted>
0.0000

> <Gold.Chemscore.DEClash.Weighted>
0.7159

> <Gold.Chemscore.DEInternal.Weighted>
0.6986

> <Gold.Chemscore.Rot.Weighted>
6.8383

> <Gold.Chemscore.Internal.Correction.Weighted>
   9.000000E+99

> <Gold.Protein.RotatedTorsions>
[ 6907 6896 6895 6894 ] final   27.29 input  -60.11 | X-H torsion
[ 7974 7965 7964 7962 ] final  -24.53 input  175.53 | X-H torsion
[ 8008 7997 7996 7995 ] final   35.83 input   59.86 | X-H torsion
[ 10167 10162 10161 10158 ] final  -79.53 input  -65.29 | X-H torsion
[ 10718 10713 10712 10709 ] final -176.55 input   66.30 | X-H torsion
[ 10763 10752 10751 10750 ] final  -19.04 input  -60.55 | X-H torsion
[ 11005 11000 10999 10996 ] final   -8.27 input  -57.11 | X-H torsion

> <Gold.Protein.ActiveResidues>
 VAL166  LYS551  ARG553  GLY616  TRP617  ASP618  TYR619  PRO620  LYS621  CYS622 
 ASP623  PHE694  ASN695  SER759  ASP760  ASP761  ALA762  ILE779  LEU786  VAL792 
 PHE793  MET794  SER795  GLU796  ALA797  LYS798  CYS799  TRP800  GLU811  SER814 

> <Gold.Protein.RotatedAtoms>
  152.0001  134.9933  160.0564 H   0  0  0  0  0  0  0  0  0  0  0  0  # atno 6907 bound_to 6896
  152.1527  133.4527  159.4830 H   0  0  0  0  0  0  0  0  0  0  0  0  # atno 6908 bound_to 6896
  150.6877  134.2086  159.4393 H   0  0  0  0  0  0  0  0  0  0  0  0  # atno 6909 bound_to 6896
  146.1549  140.4764  142.8596 H   0  0  0  0  0  0  0  0  0  0  0  0  # atno 7974 bound_to 7965
  155.1774  140.3297  155.4381 H   0  0  0  0  0  0  0  0  0  0  0  0  # atno 8008 bound_to 7997
  156.2489  140.1933  156.6825 H   0  0  0  0  0  0  0  0  0  0  0  0  # atno 8009 bound_to 7997
  154.6295  140.0584  156.9700 H   0  0  0  0  0  0  0  0  0  0  0  0  # atno 8010 bound_to 7997
  140.4584  143.2461  151.8385 H   0  0  0  0  0  0  0  0  0  0  0  0  # atno 10167 bound_to 10162
  156.8163  130.9604  151.3114 H   0  0  0  0  0  0  0  0  0  0  0  0  # atno 10718 bound_to 10713
  153.5987  135.7000  153.5393 H   0  0  0  0  0  0  0  0  0  0  0  0  # atno 10763 bound_to 10752
  153.3116  135.4099  155.1340 H   0  0  0  0  0  0  0  0  0  0  0  0  # atno 10764 bound_to 10752
  154.8587  135.3673  154.5521 H   0  0  0  0  0  0  0  0  0  0  0  0  # atno 10765 bound_to 10752
  140.7217  133.8823  155.8825 H   0  0  0  0  0  0  0  0  0  0  0  0  # atno 11005 bound_to 11000
  144.7950  140.6106  143.6516 LP  0  0  0  0  0  0  0  0  0  0  0  0  # atno 17320 bound_to 7965
  145.4733  139.1501  143.3802 LP  0  0  0  0  0  0  0  0  0  0  0  0  # atno 17321 bound_to 7965
  139.4803  144.5037  151.9027 LP  0  0  0  0  0  0  0  0  0  0  0  0  # atno 17342 bound_to 10162
  140.4123  144.2353  150.5888 LP  0  0  0  0  0  0  0  0  0  0  0  0  # atno 17343 bound_to 10162
  157.6480  130.8860  149.9576 LP  0  0  0  0  0  0  0  0  0  0  0  0  # atno 17370 bound_to 10713
  156.1015  130.3655  150.0210 LP  0  0  0  0  0  0  0  0  0  0  0  0  # atno 17371 bound_to 10713
  140.9998  134.1166  157.4328 LP  0  0  0  0  0  0  0  0  0  0  0  0  # atno 17394 bound_to 11000
  139.8847  135.0065  156.6384 LP  0  0  0  0  0  0  0  0  0  0  0  0  # atno 17395 bound_to 11000

$$$$
