#       Name:                AV-unprocessed.smi:1864
#       Creating user name   scv26
#       Creation time:       Fri Mar 27 09:26:54 2020


#       File generated by GOLD software.
#

@<TRIPOS>MOLECULE
AV-unprocessed.smi:1864
    43    44     1
SMALL
NO_CHARGES


@<TRIPOS>ATOM
      1 ****        -2.9155   6.3506   0.8534 C.3            1 S1                 0.0000
      2 ****        -2.5428   5.0811   0.1677 C.2            1 S1                 0.0000
      3 ****        -2.5147   5.0009  -1.1568 N.2            1 S1                 0.0000
      4 ****        -2.1193   3.6761  -1.3919 O.3            1 S1                 0.0000
      5 ****        -1.9740   3.1111  -0.1692 C.2            1 S1                 0.0000
      6 ****        -1.5054   1.6974  -0.0787 C.3            1 S1                 0.0000
      7 ****         0.0259   1.5841  -0.1433 C.3            1 S1                 0.0000
      8 ****         0.4706   0.2009  -0.0171 N.am           1 S1                 0.0000
      9 ****         0.4729  -0.7060  -1.0111 C.2            1 S1                 0.0000
     10 ****         0.0834  -0.4498  -2.1508 O.2            1 S1                 0.0000
     11 ****         0.9798  -2.0595  -0.6585 C.2            1 S1                 0.0000
     12 ****         1.2723  -2.3432   0.5723 N.2            1 S1                 0.0000
     13 ****         1.7347  -3.5885   0.9469 N.am           1 S1                 0.0000
     14 ****         1.7561  -3.8268   2.3888 C.3            1 S1                 0.0000
     15 ****         2.1782  -4.5379   0.0854 C.2            1 S1                 0.0000
     16 ****         2.5782  -5.6477   0.4367 O.2            1 S1                 0.0000
     17 ****         2.1965  -4.1579  -1.3980 C.3            1 S1                 0.0000
     18 ****         1.1225  -3.1074  -1.7445 C.3            1 S1                 0.0000
     19 ****        -2.2079   3.9459   0.8406 N.2            1 S1                 0.0000
     20 ****        -3.9257   6.6491   0.5726 H              1 S1                 0.0000
     21 ****        -2.2263   7.1476   0.5732 H              1 S1                 0.0000
     22 ****        -2.8803   6.2294   1.9365 H              1 S1                 0.0000
     23 ****        -1.8751   1.2671   0.8529 H              1 S1                 0.0000
     24 ****        -1.9645   1.1299  -0.8891 H              1 S1                 0.0000
     25 ****         0.4029   2.0152  -1.0724 H              1 S1                 0.0000
     26 ****         0.4741   2.1572   0.6690 H              1 S1                 0.0000
     27 ****         0.8073  -0.0910   0.8894 H              1 S1                 0.0000
     28 ****         1.1439  -4.6930   2.6446 H              1 S1                 0.0000
     29 ****         1.3706  -2.9742   2.9507 H              1 S1                 0.0000
     30 ****         2.7746  -4.0137   2.7326 H              1 S1                 0.0000
     31 ****         3.1865  -3.7582  -1.6208 H              1 S1                 0.0000
     32 ****         2.0703  -5.0478  -2.0157 H              1 S1                 0.0000
     33 ****         0.1602  -3.5965  -1.8997 H              1 S1                 0.0000
     34 ****         1.3884  -2.6433  -2.6951 H              1 S1                 0.0000
     35 ****        -2.7248   5.7136  -1.8260 LP             1 S1                 0.0000
     36 ****        -1.2527   3.6547  -1.8905 LP             1 S1                 0.0000
     37 ****        -2.8186   3.1922  -1.9181 LP             1 S1                 0.0000
     38 ****        -0.2536   0.4658  -2.3700 LP             1 S1                 0.0000
     39 ****         0.1042  -1.1574  -2.8572 LP             1 S1                 0.0000
     40 ****         1.1594  -1.6378   1.2720 LP             1 S1                 0.0000
     41 ****         2.5884  -5.8917   1.4064 LP             1 S1                 0.0000
     42 ****         2.8931  -6.3054  -0.2476 LP             1 S1                 0.0000
     43 ****        -2.1526   3.7835   1.8258 LP             1 S1                 0.0000
@<TRIPOS>BOND
    1    1    2 1     
    2    1   20 1     
    3    1   21 1     
    4    1   22 1     
    5    2   19 1     
    6    2    3 2     
    7    3    4 1     
    8    4    5 1     
    9    5    6 1     
   10    5   19 2     
   11    6    7 1     
   12    6   23 1     
   13    6   24 1     
   14    7    8 1     
   15    7   25 1     
   16    7   26 1     
   17    8    9 am    
   18    8   27 1     
   19    9   10 2     
   20    9   11 1     
   21   11   18 1     
   22   11   12 2     
   23   12   13 1     
   24   13   14 1     
   25   13   15 am    
   26   14   28 1     
   27   14   29 1     
   28   14   30 1     
   29   15   16 2     
   30   15   17 1     
   31   17   18 1     
   32   17   31 1     
   33   17   32 1     
   34   18   33 1     
   35   18   34 1     
   36    3   35 1     
   37    4   36 1     
   38    4   37 1     
   39   10   38 1     
   40   10   39 1     
   41   12   40 1     
   42   16   41 1     
   43   16   42 1     
   44   19   43 1     
@<TRIPOS>SUBSTRUCTURE
      1 S1             1
@<TRIPOS>SET
LONE_PAIRS      STATIC     ATOMS    <user>   **** ""
9 35 36 37 38 39 40 41 42 43
DONOR_HYDROGENS      STATIC     ATOMS    <user>   **** ""
1 27
ATOM$BLUE        STATIC     ATOMS    COLORGROUP SYSTEM
9 35 36 37 38 39 40 41 42 43
ATOM$RED        STATIC     ATOMS    COLORGROUP SYSTEM
1 27
