AV-unprocessed.smi:3170|AV-procd|sdf|12107|dock5
  -GOLD-   2272017543D 1   1.00000     0.00000
 Structure written by MMmdl.
 36 37  0  0  0  0  0  0  0  0  2 V2000
  148.8097  133.4554  155.3268 O   0  0  0  0  0  0  0  0  0  0  0  0
  148.7738  134.2049  154.3506 C   0  0  0  0  0  0  0  0  0  0  0  0
  148.1297  133.9222  153.2096 N   0  0  0  0  0  0  0  0  0  0  0  0
  147.4039  132.6857  152.9329 C   0  0  0  0  0  0  0  0  0  0  0  0
  145.8800  132.8513  153.0845 C   0  0  0  0  0  0  0  0  0  0  0  0
  145.1783  132.8691  151.7972 N   0  0  0  0  0  0  0  0  0  0  0  0
  145.6150  132.3445  150.6079 C   0  0  0  0  0  0  0  0  0  0  0  0
  144.6289  132.5889  149.6875 C   0  0  0  0  0  0  0  0  0  0  0  0
  143.6349  133.2562  150.3518 N   0  3  0  0  0  0  0  0  0  0  0  0
  143.9723  133.4290  151.6339 C   0  0  0  0  0  0  0  0  0  0  0  0
  149.3689  135.4045  154.3023 N   0  0  0  0  0  0  0  0  0  0  0  0
  150.1516  135.9945  155.3829 C   0  0  0  0  0  0  0  0  0  0  0  0
  151.0292  137.1623  154.8928 C   0  0  2  0  0  0  0  0  0  0  0  0
  151.9048  137.7675  155.9701 C   0  0  0  0  0  0  0  0  0  0  0  0
  152.2661  139.1145  155.3532 C   0  0  0  0  0  0  0  0  0  0  0  0
  151.1263  139.5047  154.5934 O   0  0  0  0  0  0  0  0  0  0  0  0
  150.2550  138.3917  154.4101 C   0  0  0  0  0  0  0  0  0  0  0  0
  148.1623  134.6044  152.4657 H   0  0  0  0  0  0  0  0  0  0  0  0
  147.6298  132.4045  151.9042 H   0  0  0  0  0  0  0  0  0  0  0  0
  147.7711  131.8683  153.5560 H   0  0  0  0  0  0  0  0  0  0  0  0
  145.4596  132.0600  153.7076 H   0  0  0  0  0  0  0  0  0  0  0  0
  145.6583  133.7961  153.5823 H   0  0  0  0  0  0  0  0  0  0  0  0
  146.5672  131.8436  150.5092 H   0  0  0  0  0  0  0  0  0  0  0  0
  144.5616  132.3437  148.6375 H   0  0  0  0  0  0  0  0  0  0  0  0
  143.3817  133.9155  152.3896 H   0  0  0  0  0  0  0  0  0  0  0  0
  149.2816  135.9475  153.4554 H   0  0  0  0  0  0  0  0  0  0  0  0
  149.4577  136.3429  156.1485 H   0  0  0  0  0  0  0  0  0  0  0  0
  150.7703  135.2291  155.8543 H   0  0  0  0  0  0  0  0  0  0  0  0
  151.6768  136.8193  154.0838 H   0  0  0  0  0  0  0  0  0  0  0  0
  151.3351  137.9179  156.8885 H   0  0  0  0  0  0  0  0  0  0  0  0
  152.7793  137.1596  156.2048 H   0  0  0  0  0  0  0  0  0  0  0  0
  152.5232  139.8634  156.1025 H   0  0  0  0  0  0  0  0  0  0  0  0
  153.1148  139.0061  154.6766 H   0  0  0  0  0  0  0  0  0  0  0  0
  149.9411  138.3014  153.3699 H   0  0  0  0  0  0  0  0  0  0  0  0
  149.3634  138.5526  155.0176 H   0  0  0  0  0  0  0  0  0  0  0  0
  142.7681  133.5722  149.9353 H   0  0  0  0  0  0  0  0  0  0  0  0
  1  2  2  0  0  0  0
  2  3  1  0  0  0  0
  2 11  1  0  0  0  0
  3  4  1  0  0  0  0
  3 18  1  0  0  0  0
  4  5  1  0  0  0  0
  4 19  1  0  0  0  0
  4 20  1  0  0  0  0
  5  6  1  0  0  0  0
  5 21  1  0  0  0  0
  5 22  1  0  0  0  0
  6 10  1  0  0  0  0
  6  7  1  0  0  0  0
  7  8  2  0  0  0  0
  7 23  1  0  0  0  0
  8  9  1  0  0  0  0
  8 24  1  0  0  0  0
  9 10  2  0  0  0  0
  9 36  1  0  0  0  0
 10 25  1  0  0  0  0
 11 12  1  0  0  0  0
 11 26  1  0  0  0  0
 12 13  1  0  0  0  0
 12 27  1  0  0  0  0
 12 28  1  0  0  0  0
 13 17  1  0  0  0  0
 13 14  1  0  0  0  0
 13 29  1  0  0  0  0
 14 15  1  0  0  0  0
 14 30  1  0  0  0  0
 14 31  1  0  0  0  0
 15 16  1  0  0  0  0
 15 32  1  0  0  0  0
 15 33  1  0  0  0  0
 16 17  1  0  0  0  0
 17 34  1  0  0  0  0
 17 35  1  0  0  0  0
M  CHG  1   9   1
M  END
> <s_m_source_file>
AV-unprocessed.smi

> <i_m_source_file_index>
3170

> <i_lp_mmshare_version>
43012

> <i_f3d_flags>
0

> <s_epik_input>
W0NIMl0xT1tDSDJdW0NIMl1bQ0BIXTFbQ0gyXVtOSF1DKD1PKVtOSF1bQ0gyXVtDSDJdbjJbY0hdW2NIXW5bY0hdMg==

> <s_epik_cmdline>
J2VwaWtfcHl0aG9uJywgJy1waCcsICc3LjAnLCAnLXRuJywgJzgnLCAnLW1hJywgJzIwMCcsICctbWV0YWxfYmluZGluZycsICctaW1hZScsICc8aW5maWxlLm1hZT4nLCAnLW9tYWUnLCAnPG91dGZpbGUubWFlPic=

> <r_lp_tautomer_probability>
1

> <r_epik_Ionization_Penalty>
0.255699

> <r_epik_Ionization_Penalty_Charging>
0

> <r_epik_Ionization_Penalty_Neutral>
0.255699

> <r_epik_State_Penalty>
0.247169

> <r_epik_Charging_Adjusted_Penalty>
0.247169

> <i_epik_Tot_Q>
1

> <i_epik_Tot_abs_Q>
1

> <r_epik_Metal_State_Penalty>
0.536793

> <b_epik_Metal_Only>
0

> <s_lp_Force_Field>
OPLS_2005

> <r_lp_Energy>
19.7141

> <b_lp_Chiralities_Consistent>
1

> <s_lp_Variant>
AV-unprocessed.smi:3170-1

> <Gold.Version>
5.8.1

> <Gold.Id.Protein>
6NUR|6NUR_protein|mol2

> <Gold.PLP.Fitness>
47.1187

> <Gold.PLP.PLP>
-31.4202

> <Gold.PLP.part.hbond>
-4.0000

> <Gold.PLP.part.metal>
0.0000

> <Gold.PLP.part.buried>
-4.6044

> <Gold.PLP.part.nonpolar>
-22.7894

> <Gold.PLP.part.repulsive>
0.1836

> <Gold.PLP.ligand.clash>
0.0000

> <Gold.PLP.ligand.torsion>
0.9084

> <Gold.PLP.Chemscore.Hbond>
4.9120

> <Gold.PLP.Chemscore.CHOScore>
0.9132

> <Gold.PLP.Chemscore.Metal>
0.0000

> <Gold.Chemscore.Hbonds>
donor molecule, donor type, donor heavy atom, donor atom, acceptor molecule, acceptor atom, score
      L1  H     3    18       P1  7948  0.91
      L1  H     9    36       P1 10186  2.00
      L1  H    11    26       P1  7948  1.00
      P1  H  7989  7998       L1    16  1.00
      L1  C     7    23       P1 10747  0.80

> <Gold.PLP.Chemscore.Internal.Correction>
0.0398

> <Gold.Rescore>
     Score         DG    S(hbond)    S(metal)    S(lipo)     H(rot)  DE(clash)    DE(int)     intcor
     17.18     -18.10       3.55        0.00      57.61       2.33       0.01       0.92       ----

> <Gold.Chemscore.Fitness>
17.1796

> <Gold.Chemscore.DG>
-18.1029

> <Gold.Chemscore.ZeroCoef>
-5.4800

> <Gold.Chemscore.Hbond>
3.5462

> <Gold.Chemscore.Metal>
0.0000

> <Gold.Chemscore.Lipo>
57.6096

> <Gold.Chemscore.Internal_Hbond>
0.0000

> <Gold.Chemscore.DEClash>
0.0073

> <Gold.Chemscore.DEInternal>
0.9160

> <Gold.Chemscore.Rot>
2.3288

> <Gold.Chemscore.Internal.Correction>
   9.000000E+99

> <Gold.Chemscore.Hbonds>
donor molecule, donor type, donor heavy atom, donor atom, acceptor molecule, acceptor atom, score
      L1  H     3    18       P1  7948  0.31
      L1  H     9    36       P1 10186  0.97
      L1  H    11    26       P1  7948  0.64
      P1  H  7989  7998       L1    16  0.60

> <Gold.Chemscore.Hbond.Weighted>
-11.8443

> <Gold.Chemscore.Metal.Weighted>
-0.0000

> <Gold.Chemscore.Lipo.Weighted>
-6.7403

> <Gold.Chemscore.Internal_Hbond.Weighted>
0.0000

> <Gold.Chemscore.DEClash.Weighted>
0.0073

> <Gold.Chemscore.DEInternal.Weighted>
0.9160

> <Gold.Chemscore.Rot.Weighted>
5.9617

> <Gold.Chemscore.Internal.Correction.Weighted>
   9.000000E+99

> <Gold.Protein.RotatedTorsions>
[ 6907 6896 6895 6894 ] final -160.71 input  -60.11 | X-H torsion
[ 7974 7965 7964 7962 ] final  -96.81 input  175.53 | X-H torsion
[ 8008 7997 7996 7995 ] final   79.01 input   59.86 | X-H torsion
[ 10167 10162 10161 10158 ] final  -53.16 input  -65.29 | X-H torsion
[ 10718 10713 10712 10709 ] final  112.16 input   66.30 | X-H torsion
[ 10763 10752 10751 10750 ] final -176.31 input  -60.55 | X-H torsion
[ 11005 11000 10999 10996 ] final  138.89 input  -57.11 | X-H torsion

> <Gold.Protein.ActiveResidues>
 VAL166  LYS551  ARG553  GLY616  TRP617  ASP618  TYR619  PRO620  LYS621  CYS622 
 ASP623  PHE694  ASN695  SER759  ASP760  ASP761  ALA762  ILE779  LEU786  VAL792 
 PHE793  MET794  SER795  GLU796  ALA797  LYS798  CYS799  TRP800  GLU811  SER814 

> <Gold.Protein.RotatedAtoms>
  151.3534  133.3917  159.2682 H   0  0  0  0  0  0  0  0  0  0  0  0  # atno 6907 bound_to 6896
  150.9783  134.9144  159.7839 H   0  0  0  0  0  0  0  0  0  0  0  0  # atno 6908 bound_to 6896
  152.5208  134.3497  159.9299 H   0  0  0  0  0  0  0  0  0  0  0  0  # atno 6909 bound_to 6896
  145.3419  140.9461  143.2603 H   0  0  0  0  0  0  0  0  0  0  0  0  # atno 7974 bound_to 7965
  155.8638  140.3452  155.5774 H   0  0  0  0  0  0  0  0  0  0  0  0  # atno 8008 bound_to 7997
  155.7904  140.0871  157.2031 H   0  0  0  0  0  0  0  0  0  0  0  0  # atno 8009 bound_to 7997
  154.4013  140.1484  156.3144 H   0  0  0  0  0  0  0  0  0  0  0  0  # atno 8010 bound_to 7997
  140.6500  143.2559  151.4751 H   0  0  0  0  0  0  0  0  0  0  0  0  # atno 10167 bound_to 10162
  157.6407  131.0963  150.6854 H   0  0  0  0  0  0  0  0  0  0  0  0  # atno 10718 bound_to 10713
  154.5739  135.2830  155.0800 H   0  0  0  0  0  0  0  0  0  0  0  0  # atno 10763 bound_to 10752
  154.2163  135.6399  153.5134 H   0  0  0  0  0  0  0  0  0  0  0  0  # atno 10764 bound_to 10752
  153.0066  135.5503  154.6371 H   0  0  0  0  0  0  0  0  0  0  0  0  # atno 10765 bound_to 10752
  140.0215  134.9394  157.0484 H   0  0  0  0  0  0  0  0  0  0  0  0  # atno 11005 bound_to 11000
  144.8783  139.4939  143.6735 LP  0  0  0  0  0  0  0  0  0  0  0  0  # atno 17320 bound_to 7965
  146.3004  139.7407  142.9096 LP  0  0  0  0  0  0  0  0  0  0  0  0  # atno 17321 bound_to 7965
  139.5714  144.1920  152.1841 LP  0  0  0  0  0  0  0  0  0  0  0  0  # atno 17342 bound_to 10162
  140.1218  144.5367  150.6858 LP  0  0  0  0  0  0  0  0  0  0  0  0  # atno 17343 bound_to 10162
  156.7179  130.4671  149.5530 LP  0  0  0  0  0  0  0  0  0  0  0  0  # atno 17370 bound_to 10713
  156.1685  130.6421  151.0808 LP  0  0  0  0  0  0  0  0  0  0  0  0  # atno 17371 bound_to 10713
  140.4378  134.1712  155.7172 LP  0  0  0  0  0  0  0  0  0  0  0  0  # atno 17394 bound_to 11000
  141.1777  133.8480  157.1366 LP  0  0  0  0  0  0  0  0  0  0  0  0  # atno 17395 bound_to 11000

$$$$
