AV-unprocessed.smi:2505|AV-procd|sdf|9857|dock2
  -GOLD-   2272013483D 1   1.00000     0.00000
 Structure written by MMmdl.
 48 52  0  0  0  0  0  0  0  0  1 V2000
  149.6015  135.1853  156.1228 O   0  0  0  0  0  0  0  0  0  0  0  0
  149.3957  135.4936  154.9513 C   0  0  0  0  0  0  0  0  0  0  0  0
  149.6621  136.6993  154.4144 N   0  0  0  0  0  0  0  0  0  0  0  0
  150.1862  137.8598  155.0423 C   0  0  0  0  0  0  0  0  0  0  0  0
  150.5112  139.0720  154.3851 C   0  0  0  0  0  0  0  0  0  0  0  0
  151.0279  140.1249  155.0553 N   0  0  0  0  0  0  0  0  0  0  0  0
  151.2327  139.9684  156.3661 C   0  0  0  0  0  0  0  0  0  0  0  0
  151.7740  141.1509  157.1078 C   0  0  0  0  0  0  0  0  0  0  0  0
  151.0452  141.7111  158.3125 C   0  0  0  0  0  0  0  0  0  0  0  0
  151.0811  142.4964  157.0314 C   0  0  0  0  0  0  0  0  0  0  0  0
  150.9600  138.8795  157.0903 N   0  0  0  0  0  0  0  0  0  0  0  0
  150.4445  137.8220  156.4285 C   0  0  0  0  0  0  0  0  0  0  0  0
  148.8958  134.6061  154.0741 N   0  0  0  0  0  0  0  0  0  0  0  0
  148.5044  133.2195  154.3352 C   0  0  2  0  0  0  0  0  0  0  0  0
  149.5961  132.2230  153.9114 C   0  0  1  0  0  0  0  0  0  0  0  0
  150.2990  131.3937  154.9514 C   0  0  0  0  0  0  0  0  0  0  0  0
  149.5148  130.0791  154.9253 C   0  0  0  0  0  0  0  0  0  0  0  0
  148.2466  130.4300  154.3763 O   0  0  0  0  0  0  0  0  0  0  0  0
  148.4794  131.3697  153.3298 C   0  0  1  0  0  0  0  0  0  0  0  0
  147.5520  132.6024  153.2816 C   0  0  0  0  0  0  0  0  0  0  0  0
  146.0859  132.3814  153.6459 C   0  0  0  0  0  0  0  0  0  0  0  0
  145.3443  132.0493  152.3468 C   0  0  0  0  0  0  0  0  0  0  0  0
  146.2290  132.5822  151.2149 C   0  0  0  0  0  0  0  0  0  0  0  0
  147.4120  133.2619  151.9068 C   0  0  0  0  0  0  0  0  0  0  0  0
  149.5025  136.7806  153.4207 H   0  0  0  0  0  0  0  0  0  0  0  0
  150.3842  139.2165  153.3240 H   0  0  0  0  0  0  0  0  0  0  0  0
  152.8620  141.1392  157.1316 H   0  0  0  0  0  0  0  0  0  0  0  0
  150.0978  141.2542  158.5922 H   0  0  0  0  0  0  0  0  0  0  0  0
  151.6513  142.0717  159.1410 H   0  0  0  0  0  0  0  0  0  0  0  0
  151.7106  143.3834  157.0023 H   0  0  0  0  0  0  0  0  0  0  0  0
  150.1579  142.5610  156.4589 H   0  0  0  0  0  0  0  0  0  0  0  0
  150.2355  136.9379  157.0129 H   0  0  0  0  0  0  0  0  0  0  0  0
  148.7956  134.9206  153.1197 H   0  0  0  0  0  0  0  0  0  0  0  0
  148.1662  133.0321  155.3571 H   0  0  0  0  0  0  0  0  0  0  0  0
  150.2452  132.6177  153.1274 H   0  0  0  0  0  0  0  0  0  0  0  0
  151.3532  131.2369  154.7218 H   0  0  0  0  0  0  0  0  0  0  0  0
  150.2349  131.8643  155.9331 H   0  0  0  0  0  0  0  0  0  0  0  0
  149.9993  129.3570  154.2663 H   0  0  0  0  0  0  0  0  0  0  0  0
  149.4154  129.6273  155.9124 H   0  0  0  0  0  0  0  0  0  0  0  0
  148.7209  130.9073  152.3716 H   0  0  0  0  0  0  0  0  0  0  0  0
  145.9483  131.5994  154.3929 H   0  0  0  0  0  0  0  0  0  0  0  0
  145.6680  133.2935  154.0725 H   0  0  0  0  0  0  0  0  0  0  0  0
  145.2206  130.9705  152.2443 H   0  0  0  0  0  0  0  0  0  0  0  0
  144.3500  132.4967  152.3330 H   0  0  0  0  0  0  0  0  0  0  0  0
  146.5813  131.7521  150.6014 H   0  0  0  0  0  0  0  0  0  0  0  0
  145.6938  133.2716  150.5610 H   0  0  0  0  0  0  0  0  0  0  0  0
  147.1885  134.3240  152.0127 H   0  0  0  0  0  0  0  0  0  0  0  0
  148.3218  133.1882  151.3100 H   0  0  0  0  0  0  0  0  0  0  0  0
  1  2  2  0  0  0  0
  2  3  1  0  0  0  0
  2 13  1  0  0  0  0
  3  4  1  0  0  0  0
  3 25  1  0  0  0  0
  4 12  1  0  0  0  0
  4  5  2  0  0  0  0
  5  6  1  0  0  0  0
  5 26  1  0  0  0  0
  6  7  2  0  0  0  0
  7  8  1  0  0  0  0
  7 11  1  0  0  0  0
  8 10  1  0  0  0  0
  8  9  1  0  0  0  0
  8 27  1  0  0  0  0
  9 10  1  0  0  0  0
  9 28  1  0  0  0  0
  9 29  1  0  0  0  0
 10 30  1  0  0  0  0
 10 31  1  0  0  0  0
 11 12  2  0  0  0  0
 12 32  1  0  0  0  0
 13 14  1  0  0  0  0
 13 33  1  0  0  0  0
 14 20  1  0  0  0  0
 14 15  1  0  0  0  0
 14 34  1  0  0  0  0
 15 19  1  0  0  0  0
 15 16  1  0  0  0  0
 15 35  1  0  0  0  0
 16 17  1  0  0  0  0
 16 36  1  0  0  0  0
 16 37  1  0  0  0  0
 17 18  1  0  0  0  0
 17 38  1  0  0  0  0
 17 39  1  0  0  0  0
 18 19  1  0  0  0  0
 19 20  1  0  0  0  0
 19 40  1  0  0  0  0
 20 24  1  0  0  0  0
 20 21  1  0  0  0  0
 21 22  1  0  0  0  0
 21 41  1  0  0  0  0
 21 42  1  0  0  0  0
 22 23  1  0  0  0  0
 22 43  1  0  0  0  0
 22 44  1  0  0  0  0
 23 24  1  0  0  0  0
 23 45  1  0  0  0  0
 23 46  1  0  0  0  0
 24 47  1  0  0  0  0
 24 48  1  0  0  0  0
M  END
> <s_m_source_file>
AV-unprocessed.smi

> <i_m_source_file_index>
2505

> <i_lp_mmshare_version>
43012

> <i_f3d_flags>
0

> <s_epik_input>
W0NIMl0xW0NIMl1bQ0hdMWMobltjSF0yKW5bY0hdYzJbTkhdQyg9TylbTkhdW0NAQEhdM1tDQEBIXShbQ0gyXVtDSDJdTzQpW0NASF00QzM1W0NIMl1bQ0gyXVtDSDJdW0NIMl01

> <s_epik_cmdline>
J2VwaWtfcHl0aG9uJywgJy1waCcsICc3LjAnLCAnLXRuJywgJzgnLCAnLW1hJywgJzIwMCcsICctbWV0YWxfYmluZGluZycsICctaW1hZScsICc8aW5maWxlLm1hZT4nLCAnLW9tYWUnLCAnPG91dGZpbGUubWFlPic=

> <r_lp_tautomer_probability>
1

> <r_epik_Ionization_Penalty>
2.6075e-05

> <r_epik_Ionization_Penalty_Charging>
0

> <r_epik_Ionization_Penalty_Neutral>
2.6075e-05

> <r_epik_State_Penalty>
-0

> <r_epik_Charging_Adjusted_Penalty>
0

> <i_epik_Tot_Q>
0

> <i_epik_Tot_abs_Q>
0

> <r_epik_Metal_State_Penalty>
-0

> <b_epik_Metal_Only>
0

> <s_lp_Force_Field>
OPLS_2005

> <r_lp_Energy>
63.1454

> <b_lp_Chiralities_Consistent>
1

> <s_lp_Variant>
AV-unprocessed.smi:2505-5

> <Gold.Version>
5.8.1

> <Gold.Id.Protein>
6NUR|6NUR_protein|mol2

> <Gold.PLP.Fitness>
47.1814

> <Gold.PLP.PLP>
-36.7620

> <Gold.PLP.part.hbond>
-3.0000

> <Gold.PLP.part.metal>
0.0000

> <Gold.PLP.part.buried>
-4.5604

> <Gold.PLP.part.nonpolar>
-29.6219

> <Gold.PLP.part.repulsive>
0.1333

> <Gold.PLP.ligand.clash>
0.0000

> <Gold.PLP.ligand.torsion>
0.3422

> <Gold.PLP.Chemscore.Hbond>
2.6000

> <Gold.PLP.Chemscore.CHOScore>
1.0000

> <Gold.PLP.Chemscore.Metal>
0.0000

> <Gold.Chemscore.Hbonds>
donor molecule, donor type, donor heavy atom, donor atom, acceptor molecule, acceptor atom, score
      L1  H     3    25       P1  7948  1.00
      L1  H    13    33       P1  7948  1.00
      P1  H  7989  7998       L1     6  0.60
      L1  C     5    26       P1  7957  1.00

> <Gold.PLP.Chemscore.Internal.Correction>
0.3038

> <Gold.Rescore>
     Score         DG    S(hbond)    S(metal)    S(lipo)     H(rot)  DE(clash)    DE(int)     intcor
     16.87     -18.77       1.82        0.00      87.42       1.17       0.16       1.75       ----

> <Gold.Chemscore.Fitness>
16.8665

> <Gold.Chemscore.DG>
-18.7738

> <Gold.Chemscore.ZeroCoef>
-5.4800

> <Gold.Chemscore.Hbond>
1.8181

> <Gold.Chemscore.Metal>
0.0000

> <Gold.Chemscore.Lipo>
87.4173

> <Gold.Chemscore.Internal_Hbond>
0.0000

> <Gold.Chemscore.DEClash>
0.1606

> <Gold.Chemscore.DEInternal>
1.7467

> <Gold.Chemscore.Rot>
1.1744

> <Gold.Chemscore.Internal.Correction>
   9.000000E+99

> <Gold.Chemscore.Hbonds>
donor molecule, donor type, donor heavy atom, donor atom, acceptor molecule, acceptor atom, score
      L1  H     3    25       P1  7948  0.77
      L1  H    13    33       P1  7948  0.29
      P1  H  7989  7998       L1     6  0.04

> <Gold.Chemscore.Hbond.Weighted>
-6.0724

> <Gold.Chemscore.Metal.Weighted>
-0.0000

> <Gold.Chemscore.Lipo.Weighted>
-10.2278

> <Gold.Chemscore.Internal_Hbond.Weighted>
0.0000

> <Gold.Chemscore.DEClash.Weighted>
0.1606

> <Gold.Chemscore.DEInternal.Weighted>
1.7467

> <Gold.Chemscore.Rot.Weighted>
3.0064

> <Gold.Chemscore.Internal.Correction.Weighted>
   9.000000E+99

> <Gold.Protein.RotatedTorsions>
[ 6907 6896 6895 6894 ] final -106.16 input  -60.11 | X-H torsion
[ 7974 7965 7964 7962 ] final -106.15 input  175.53 | X-H torsion
[ 8008 7997 7996 7995 ] final  123.15 input   59.86 | X-H torsion
[ 10167 10162 10161 10158 ] final -122.81 input  -65.29 | X-H torsion
[ 10718 10713 10712 10709 ] final   76.59 input   66.30 | X-H torsion
[ 10763 10752 10751 10750 ] final -118.61 input  -60.55 | X-H torsion
[ 11005 11000 10999 10996 ] final  153.92 input  -57.11 | X-H torsion

> <Gold.Protein.ActiveResidues>
 VAL166  LYS551  ARG553  GLY616  TRP617  ASP618  TYR619  PRO620  LYS621  CYS622 
 ASP623  PHE694  ASN695  SER759  ASP760  ASP761  ALA762  ILE779  LEU786  VAL792 
 PHE793  MET794  SER795  GLU796  ALA797  LYS798  CYS799  TRP800  GLU811  SER814 

> <Gold.Protein.RotatedAtoms>
  150.7375  134.0017  159.3640 H   0  0  0  0  0  0  0  0  0  0  0  0  # atno 6907 bound_to 6896
  151.7972  135.0717  160.0404 H   0  0  0  0  0  0  0  0  0  0  0  0  # atno 6908 bound_to 6896
  152.3166  133.5773  159.5753 H   0  0  0  0  0  0  0  0  0  0  0  0  # atno 6909 bound_to 6896
  145.2214  140.9136  143.3257 H   0  0  0  0  0  0  0  0  0  0  0  0  # atno 7974 bound_to 7965
  156.2755  140.2769  156.1582 H   0  0  0  0  0  0  0  0  0  0  0  0  # atno 8008 bound_to 7997
  155.0782  140.0387  157.2648 H   0  0  0  0  0  0  0  0  0  0  0  0  # atno 8009 bound_to 7997
  154.6985  140.2644  155.6748 H   0  0  0  0  0  0  0  0  0  0  0  0  # atno 8010 bound_to 7997
  140.0103  143.5449  152.2266 H   0  0  0  0  0  0  0  0  0  0  0  0  # atno 10167 bound_to 10162
  157.6679  130.9781  150.1518 H   0  0  0  0  0  0  0  0  0  0  0  0  # atno 10718 bound_to 10713
  154.8592  135.4268  154.2166 H   0  0  0  0  0  0  0  0  0  0  0  0  # atno 10763 bound_to 10752
  153.3180  135.6980  153.7062 H   0  0  0  0  0  0  0  0  0  0  0  0  # atno 10764 bound_to 10752
  153.6128  135.3516  155.2958 H   0  0  0  0  0  0  0  0  0  0  0  0  # atno 10765 bound_to 10752
  140.1441  134.8719  157.2370 H   0  0  0  0  0  0  0  0  0  0  0  0  # atno 11005 bound_to 11000
  144.9761  139.3830  143.6285 LP  0  0  0  0  0  0  0  0  0  0  0  0  # atno 17320 bound_to 7965
  146.3375  139.8881  142.8813 LP  0  0  0  0  0  0  0  0  0  0  0  0  # atno 17321 bound_to 7965
  139.6210  144.7629  151.2741 LP  0  0  0  0  0  0  0  0  0  0  0  0  # atno 17342 bound_to 10162
  140.7384  143.6649  150.8132 LP  0  0  0  0  0  0  0  0  0  0  0  0  # atno 17343 bound_to 10162
  156.2316  130.3682  149.8439 LP  0  0  0  0  0  0  0  0  0  0  0  0  # atno 17370 bound_to 10713
  156.6264  130.8647  151.3486 LP  0  0  0  0  0  0  0  0  0  0  0  0  # atno 17371 bound_to 10713
  140.2685  134.3488  155.7381 LP  0  0  0  0  0  0  0  0  0  0  0  0  # atno 17394 bound_to 11000
  141.2190  133.7410  156.9187 LP  0  0  0  0  0  0  0  0  0  0  0  0  # atno 17395 bound_to 11000

$$$$
