AV-unprocessed.smi:2016|AV-procd|sdf|8166|dock5
  -GOLD-   2272010413D 1   1.00000     0.00000
 Structure written by MMmdl.
 42 43  0  0  0  0  0  0  0  0  1 V2000
  151.6782  144.3492  161.4483 C   0  0  0  0  0  0  0  0  0  0  0  0
  151.9458  142.9735  160.8335 C   0  0  0  0  0  0  0  0  0  0  0  0
  151.7273  141.9788  161.5252 O   0  0  0  0  0  0  0  0  0  0  0  0
  152.4131  142.8946  159.5641 N   0  0  0  0  0  0  0  0  0  0  0  0
  152.6472  141.6508  158.8200 C   0  0  0  0  0  0  0  0  0  0  0  0
  151.5757  141.5199  157.7233 C   0  0  0  0  0  0  0  0  0  0  0  0
  151.5643  142.7586  156.7967 C   0  0  0  0  0  0  0  0  0  0  0  0
  150.4175  142.7157  155.8948 N   0  0  0  0  0  0  0  0  0  0  0  0
  150.1943  141.7731  154.9665 C   0  0  0  0  0  0  0  0  0  0  0  0
  150.9486  140.8170  154.7808 O   0  0  0  0  0  0  0  0  0  0  0  0
  148.9085  141.9364  154.1429 C   0  0  0  0  0  0  0  0  0  0  0  0
  148.1097  140.7019  154.0524 N   0  0  0  0  0  0  0  0  0  0  0  0
  147.8088  140.2324  152.7614 C   0  0  0  0  0  0  0  0  0  0  0  0
  147.0879  139.1202  152.5655 C   0  0  0  0  0  0  0  0  0  0  0  0
  146.6180  138.3991  153.7231 C   0  0  0  0  0  0  0  0  0  0  0  0
  146.8876  138.8287  154.9777 C   0  0  0  0  0  0  0  0  0  0  0  0
  146.3994  138.0768  156.2139 C   0  0  0  0  0  0  0  0  0  0  0  0
  145.6491  138.8704  156.9790 F   0  0  0  0  0  0  0  0  0  0  0  0
  145.6654  137.0118  155.8881 F   0  0  0  0  0  0  0  0  0  0  0  0
  147.4323  137.6514  156.9422 F   0  0  0  0  0  0  0  0  0  0  0  0
  147.6806  140.0582  155.1822 C   0  0  0  0  0  0  0  0  0  0  0  0
  147.9489  140.4912  156.3044 O   0  0  0  0  0  0  0  0  0  0  0  0
  151.5317  144.0708  157.6101 C   0  0  0  0  0  0  0  0  0  0  0  0
  152.6047  144.0752  158.7140 C   0  0  0  0  0  0  0  0  0  0  0  0
  152.5857  144.9536  161.4564 H   0  0  0  0  0  0  0  0  0  0  0  0
  151.3368  144.2492  162.4794 H   0  0  0  0  0  0  0  0  0  0  0  0
  150.9038  144.8772  160.8912 H   0  0  0  0  0  0  0  0  0  0  0  0
  153.6392  141.6861  158.3669 H   0  0  0  0  0  0  0  0  0  0  0  0
  152.6475  140.7601  159.4463 H   0  0  0  0  0  0  0  0  0  0  0  0
  151.7526  140.6151  157.1408 H   0  0  0  0  0  0  0  0  0  0  0  0
  150.5980  141.3989  158.1925 H   0  0  0  0  0  0  0  0  0  0  0  0
  152.4834  142.7580  156.2073 H   0  0  0  0  0  0  0  0  0  0  0  0
  149.7439  143.4627  155.9811 H   0  0  0  0  0  0  0  0  0  0  0  0
  148.3208  142.7399  154.5890 H   0  0  0  0  0  0  0  0  0  0  0  0
  149.1630  142.2933  153.1429 H   0  0  0  0  0  0  0  0  0  0  0  0
  148.1914  140.8339  151.9494 H   0  0  0  0  0  0  0  0  0  0  0  0
  146.8618  138.7751  151.5673 H   0  0  0  0  0  0  0  0  0  0  0  0
  146.0401  137.5004  153.5674 H   0  0  0  0  0  0  0  0  0  0  0  0
  151.6757  144.9258  156.9482 H   0  0  0  0  0  0  0  0  0  0  0  0
  150.5499  144.1977  158.0694 H   0  0  0  0  0  0  0  0  0  0  0  0
  152.5580  145.0107  159.2730 H   0  0  0  0  0  0  0  0  0  0  0  0
  153.6010  144.0447  158.2703 H   0  0  0  0  0  0  0  0  0  0  0  0
  1  2  1  0  0  0  0
  1 25  1  0  0  0  0
  1 26  1  0  0  0  0
  1 27  1  0  0  0  0
  2  3  2  0  0  0  0
  2  4  1  0  0  0  0
  4 24  1  0  0  0  0
  4  5  1  0  0  0  0
  5  6  1  0  0  0  0
  5 28  1  0  0  0  0
  5 29  1  0  0  0  0
  6  7  1  0  0  0  0
  6 30  1  0  0  0  0
  6 31  1  0  0  0  0
  7  8  1  0  0  0  0
  7 23  1  0  0  0  0
  7 32  1  0  0  0  0
  8  9  1  0  0  0  0
  8 33  1  0  0  0  0
  9 10  2  0  0  0  0
  9 11  1  0  0  0  0
 11 12  1  0  0  0  0
 11 34  1  0  0  0  0
 11 35  1  0  0  0  0
 12 21  1  0  0  0  0
 12 13  1  0  0  0  0
 13 14  2  0  0  0  0
 13 36  1  0  0  0  0
 14 15  1  0  0  0  0
 14 37  1  0  0  0  0
 15 16  2  0  0  0  0
 15 38  1  0  0  0  0
 16 17  1  0  0  0  0
 16 21  1  0  0  0  0
 17 18  1  0  0  0  0
 17 19  1  0  0  0  0
 17 20  1  0  0  0  0
 21 22  2  0  0  0  0
 23 24  1  0  0  0  0
 23 39  1  0  0  0  0
 23 40  1  0  0  0  0
 24 41  1  0  0  0  0
 24 42  1  0  0  0  0
M  END
> <s_m_source_file>
AV-unprocessed.smi

> <i_m_source_file_index>
2016

> <i_lp_mmshare_version>
43012

> <i_f3d_flags>
0

> <s_epik_input>
W0NIM11DKD1PKU4xW0NIMl1bQ0gyXVtDSF0oW0NIMl1bQ0gyXTEpW05IXUMoPU8pW0NIMl1uMltjSF1bY0hdW2NIXWMoQyhGKShGKUYpYzI9Tw==

> <s_epik_cmdline>
J2VwaWtfcHl0aG9uJywgJy1waCcsICc3LjAnLCAnLXRuJywgJzgnLCAnLW1hJywgJzIwMCcsICctbWV0YWxfYmluZGluZycsICctaW1hZScsICc8aW5maWxlLm1hZT4nLCAnLW9tYWUnLCAnPG91dGZpbGUubWFlPic=

> <r_lp_tautomer_probability>
1

> <r_epik_Ionization_Penalty>
1.12606e-06

> <r_epik_Ionization_Penalty_Charging>
2.00242e-09

> <r_epik_Ionization_Penalty_Neutral>
1.12405e-06

> <r_epik_State_Penalty>
-0

> <r_epik_Charging_Adjusted_Penalty>
2.00242e-09

> <i_epik_Tot_Q>
0

> <i_epik_Tot_abs_Q>
0

> <r_epik_Metal_State_Penalty>
-0

> <b_epik_Metal_Only>
0

> <s_lp_Force_Field>
OPLS_2005

> <r_lp_Energy>
31.7258

> <b_lp_Chiralities_Consistent>
1

> <s_lp_Variant>
AV-unprocessed.smi:2016-1

> <Gold.Version>
5.8.1

> <Gold.Id.Protein>
6NUR|6NUR_protein|mol2

> <Gold.PLP.Fitness>
48.6847

> <Gold.PLP.PLP>
-37.9481

> <Gold.PLP.part.hbond>
-3.0000

> <Gold.PLP.part.metal>
0.0000

> <Gold.PLP.part.buried>
-2.5141

> <Gold.PLP.part.nonpolar>
-33.4977

> <Gold.PLP.part.repulsive>
0.3429

> <Gold.PLP.ligand.clash>
0.2869

> <Gold.PLP.ligand.torsion>
0.1841

> <Gold.PLP.Chemscore.Hbond>
2.6898

> <Gold.PLP.Chemscore.CHOScore>
1.0000

> <Gold.PLP.Chemscore.Metal>
0.0000

> <Gold.Chemscore.Hbonds>
donor molecule, donor type, donor heavy atom, donor atom, acceptor molecule, acceptor atom, score
      L1  H     8    33       P1  8028  1.00
      P1  H  6933  6945       L1     3  0.61
      P1  H  7989  7998       L1    10  0.66
      L1  C    13    36       P1  7957  0.24

> <Gold.PLP.Chemscore.Internal.Correction>
0.3222

> <Gold.Rescore>
     Score         DG    S(hbond)    S(metal)    S(lipo)     H(rot)  DE(clash)    DE(int)     intcor
     12.10     -18.28       2.04        0.00      87.24       1.64       1.41       4.77       ----

> <Gold.Chemscore.Fitness>
12.1025

> <Gold.Chemscore.DG>
-18.2803

> <Gold.Chemscore.ZeroCoef>
-5.4800

> <Gold.Chemscore.Hbond>
2.0363

> <Gold.Chemscore.Metal>
0.0000

> <Gold.Chemscore.Lipo>
87.2353

> <Gold.Chemscore.Internal_Hbond>
0.0000

> <Gold.Chemscore.DEClash>
1.4120

> <Gold.Chemscore.DEInternal>
4.7658

> <Gold.Chemscore.Rot>
1.6435

> <Gold.Chemscore.Internal.Correction>
   9.000000E+99

> <Gold.Chemscore.Hbonds>
donor molecule, donor type, donor heavy atom, donor atom, acceptor molecule, acceptor atom, score
      L1  H     8    33       P1  8028  0.95
      P1  H  6933  6945       L1     3  0.58
      P1  H  7989  7998       L1    10  0.54

> <Gold.Chemscore.Hbond.Weighted>
-6.8012

> <Gold.Chemscore.Metal.Weighted>
-0.0000

> <Gold.Chemscore.Lipo.Weighted>
-10.2065

> <Gold.Chemscore.Internal_Hbond.Weighted>
0.0000

> <Gold.Chemscore.DEClash.Weighted>
1.4120

> <Gold.Chemscore.DEInternal.Weighted>
4.7658

> <Gold.Chemscore.Rot.Weighted>
4.2074

> <Gold.Chemscore.Internal.Correction.Weighted>
   9.000000E+99

> <Gold.Protein.RotatedTorsions>
[ 6907 6896 6895 6894 ] final  -54.40 input  -60.11 | X-H torsion
[ 7974 7965 7964 7962 ] final -158.43 input  175.53 | X-H torsion
[ 8008 7997 7996 7995 ] final  -22.26 input   59.86 | X-H torsion
[ 10167 10162 10161 10158 ] final    3.14 input  -65.29 | X-H torsion
[ 10718 10713 10712 10709 ] final  -80.43 input   66.30 | X-H torsion
[ 10763 10752 10751 10750 ] final -123.18 input  -60.55 | X-H torsion
[ 11005 11000 10999 10996 ] final  -24.56 input  -57.11 | X-H torsion

> <Gold.Protein.ActiveResidues>
 VAL166  LYS551  ARG553  GLY616  TRP617  ASP618  TYR619  PRO620  LYS621  CYS622 
 ASP623  PHE694  ASN695  SER759  ASP760  ASP761  ALA762  ILE779  LEU786  VAL792 
 PHE793  MET794  SER795  GLU796  ALA797  LYS798  CYS799  TRP800  GLU811  SER814 

> <Gold.Protein.RotatedAtoms>
  150.8341  134.7607  159.6877 H   0  0  0  0  0  0  0  0  0  0  0  0  # atno 6907 bound_to 6896
  152.4441  134.5528  159.9881 H   0  0  0  0  0  0  0  0  0  0  0  0  # atno 6908 bound_to 6896
  151.5682  133.3356  159.3020 H   0  0  0  0  0  0  0  0  0  0  0  0  # atno 6909 bound_to 6896
  144.7506  140.3828  143.6051 H   0  0  0  0  0  0  0  0  0  0  0  0  # atno 7974 bound_to 7965
  154.4655  140.2012  156.0131 H   0  0  0  0  0  0  0  0  0  0  0  0  # atno 8008 bound_to 7997
  156.0918  140.3257  155.7797 H   0  0  0  0  0  0  0  0  0  0  0  0  # atno 8009 bound_to 7997
  155.4943  140.0548  157.2939 H   0  0  0  0  0  0  0  0  0  0  0  0  # atno 8010 bound_to 7997
  140.6600  143.7327  150.7722 H   0  0  0  0  0  0  0  0  0  0  0  0  # atno 10167 bound_to 10162
  156.0070  130.4574  150.3798 H   0  0  0  0  0  0  0  0  0  0  0  0  # atno 10718 bound_to 10713
  154.8703  135.4107  154.2901 H   0  0  0  0  0  0  0  0  0  0  0  0  # atno 10763 bound_to 10752
  153.3779  135.7010  153.6593 H   0  0  0  0  0  0  0  0  0  0  0  0  # atno 10764 bound_to 10752
  153.5428  135.3644  155.2697 H   0  0  0  0  0  0  0  0  0  0  0  0  # atno 10765 bound_to 10752
  140.8857  133.7623  156.0357 H   0  0  0  0  0  0  0  0  0  0  0  0  # atno 11005 bound_to 11000
  145.6959  139.1650  143.2620 LP  0  0  0  0  0  0  0  0  0  0  0  0  # atno 17320 bound_to 7965
  146.1450  140.7005  142.9349 LP  0  0  0  0  0  0  0  0  0  0  0  0  # atno 17321 bound_to 7965
  140.0994  143.4802  152.2433 LP  0  0  0  0  0  0  0  0  0  0  0  0  # atno 17342 bound_to 10162
  139.5832  144.7519  151.3587 LP  0  0  0  0  0  0  0  0  0  0  0  0  # atno 17343 bound_to 10162
  157.1879  131.0408  151.2715 LP  0  0  0  0  0  0  0  0  0  0  0  0  # atno 17370 bound_to 10713
  157.4088  130.7373  149.6823 LP  0  0  0  0  0  0  0  0  0  0  0  0  # atno 17371 bound_to 10713
  140.8408  134.3069  157.5314 LP  0  0  0  0  0  0  0  0  0  0  0  0  # atno 17394 bound_to 11000
  139.8724  134.9415  156.3799 LP  0  0  0  0  0  0  0  0  0  0  0  0  # atno 17395 bound_to 11000

$$$$
