AV-unprocessed.smi:1032|AV-procd|sdf|4482|dock1
  -GOLD-   22720 2463D 1   1.00000     0.00000
 Structure written by MMmdl.
 46 47  0  0  0  0  0  0  0  0  2 V2000
  142.9969  143.6760  156.0444 C   0  0  0  0  0  0  0  0  0  0  0  0
  144.3744  143.1069  155.6761 C   0  0  2  0  0  0  0  0  0  0  0  0
  144.8463  143.6084  154.3009 C   0  0  0  0  0  0  0  0  0  0  0  0
  146.2085  143.0044  153.9202 C   0  0  0  0  0  0  0  0  0  0  0  0
  146.1588  141.5183  153.9407 N   0  3  1  0  0  0  0  0  0  0  0  0
  147.4066  140.8798  153.4480 C   0  0  0  0  0  0  0  0  0  0  0  0
  147.3720  139.3426  153.5713 C   0  0  2  0  0  0  0  0  0  0  0  0
  148.6138  138.8479  153.1100 O   0  0  0  0  0  0  0  0  0  0  0  0
  146.2577  138.7295  152.6979 C   0  0  0  0  0  0  0  0  0  0  0  0
  146.5502  137.3502  152.3184 N   0  0  0  0  0  0  0  0  0  0  0  0
  145.6280  136.4178  152.0369 C   0  0  0  0  0  0  0  0  0  0  0  0
  144.4168  136.6291  152.0979 O   0  0  0  0  0  0  0  0  0  0  0  0
  146.2032  135.2476  151.7088 N   0  0  0  0  0  0  0  0  0  0  0  0
  145.5858  134.0214  151.3381 C   0  0  0  0  0  0  0  0  0  0  0  0
  144.1858  134.0200  151.1671 C   0  0  0  0  0  0  0  0  0  0  0  0
  143.5447  132.8153  150.8153 C   0  0  0  0  0  0  0  0  0  0  0  0
  144.2015  131.6496  150.6391 N   0  0  0  0  0  0  0  0  0  0  0  0
  145.5395  131.6490  150.8160 C   0  0  0  0  0  0  0  0  0  0  0  0
  146.2775  132.7974  151.1672 C   0  0  0  0  0  0  0  0  0  0  0  0
  145.7488  141.0082  155.2742 C   0  0  0  0  0  0  0  0  0  0  0  0
  144.3760  141.5687  155.6833 C   0  0  0  0  0  0  0  0  0  0  0  0
  142.2335  143.3627  155.3315 H   0  0  0  0  0  0  0  0  0  0  0  0
  143.0133  144.7664  156.0555 H   0  0  0  0  0  0  0  0  0  0  0  0
  142.6849  143.3418  157.0342 H   0  0  0  0  0  0  0  0  0  0  0  0
  145.0872  143.4516  156.4268 H   0  0  0  0  0  0  0  0  0  0  0  0
  144.1092  143.3503  153.5392 H   0  0  0  0  0  0  0  0  0  0  0  0
  144.9172  144.6966  154.3052 H   0  0  0  0  0  0  0  0  0  0  0  0
  146.4880  143.3640  152.9308 H   0  0  0  0  0  0  0  0  0  0  0  0
  146.9788  143.3538  154.6094 H   0  0  0  0  0  0  0  0  0  0  0  0
  147.5739  141.1793  152.4123 H   0  0  0  0  0  0  0  0  0  0  0  0
  148.2637  141.2523  154.0115 H   0  0  0  0  0  0  0  0  0  0  0  0
  147.2355  139.0500  154.6116 H   0  0  0  0  0  0  0  0  0  0  0  0
  148.8228  139.2775  152.2940 H   0  0  0  0  0  0  0  0  0  0  0  0
  145.3106  138.7387  153.2403 H   0  0  0  0  0  0  0  0  0  0  0  0
  146.0934  139.3254  151.7992 H   0  0  0  0  0  0  0  0  0  0  0  0
  147.5244  137.0940  152.2475 H   0  0  0  0  0  0  0  0  0  0  0  0
  147.2100  135.2171  151.7741 H   0  0  0  0  0  0  0  0  0  0  0  0
  143.6085  134.9237  151.2975 H   0  0  0  0  0  0  0  0  0  0  0  0
  142.4743  132.7878  150.6744 H   0  0  0  0  0  0  0  0  0  0  0  0
  146.0385  130.7007  150.6796 H   0  0  0  0  0  0  0  0  0  0  0  0
  147.3433  132.7099  151.3087 H   0  0  0  0  0  0  0  0  0  0  0  0
  145.6954  139.9190  155.2530 H   0  0  0  0  0  0  0  0  0  0  0  0
  146.5031  141.2746  156.0165 H   0  0  0  0  0  0  0  0  0  0  0  0
  144.1097  141.1995  156.6743 H   0  0  0  0  0  0  0  0  0  0  0  0
  143.6129  141.1943  154.9992 H   0  0  0  0  0  0  0  0  0  0  0  0
  145.4314  141.2368  153.2985 H   0  0  0  0  0  0  0  0  0  0  0  0
  1  2  1  0  0  0  0
  1 22  1  0  0  0  0
  1 23  1  0  0  0  0
  1 24  1  0  0  0  0
  2 21  1  0  0  0  0
  2  3  1  0  0  0  0
  2 25  1  0  0  0  0
  3  4  1  0  0  0  0
  3 26  1  0  0  0  0
  3 27  1  0  0  0  0
  4  5  1  0  0  0  0
  4 28  1  0  0  0  0
  4 29  1  0  0  0  0
  5  6  1  0  0  0  0
  5 20  1  0  0  0  0
  5 46  1  0  0  0  0
  6  7  1  0  0  0  0
  6 30  1  0  0  0  0
  6 31  1  0  0  0  0
  7  8  1  0  0  0  0
  7  9  1  0  0  0  0
  7 32  1  0  0  0  0
  8 33  1  0  0  0  0
  9 10  1  0  0  0  0
  9 34  1  0  0  0  0
  9 35  1  0  0  0  0
 10 11  1  0  0  0  0
 10 36  1  0  0  0  0
 11 12  2  0  0  0  0
 11 13  1  0  0  0  0
 13 14  1  0  0  0  0
 13 37  1  0  0  0  0
 14 19  1  0  0  0  0
 14 15  2  0  0  0  0
 15 16  1  0  0  0  0
 15 38  1  0  0  0  0
 16 17  2  0  0  0  0
 16 39  1  0  0  0  0
 17 18  1  0  0  0  0
 18 19  2  0  0  0  0
 18 40  1  0  0  0  0
 19 41  1  0  0  0  0
 20 21  1  0  0  0  0
 20 42  1  0  0  0  0
 20 43  1  0  0  0  0
 21 44  1  0  0  0  0
 21 45  1  0  0  0  0
M  CHG  1   5   1
M  END
> <s_m_source_file>
AV-unprocessed.smi

> <i_m_source_file_index>
1032

> <i_lp_mmshare_version>
43012

> <i_f3d_flags>
0

> <s_epik_input>
W0NIM11bQ0hdMVtDSDJdW0NIMl1OKFtDSDJdW0NIMl0xKVtDSDJdW0NASF0oW09IXSlbQ0gyXVtOSF1DKD1PKVtOSF1jMltjSF1bY0hdbltjSF1bY0hdMg==

> <s_epik_cmdline>
J2VwaWtfcHl0aG9uJywgJy1waCcsICc3LjAnLCAnLXRuJywgJzgnLCAnLW1hJywgJzIwMCcsICctbWV0YWxfYmluZGluZycsICctaW1hZScsICc8aW5maWxlLm1hZT4nLCAnLW9tYWUnLCAnPG91dGZpbGUubWFlPic=

> <r_epik_Ionization_Penalty>
0.11743

> <r_epik_Ionization_Penalty_Charging>
0.00147689

> <r_epik_Ionization_Penalty_Neutral>
0.115954

> <r_epik_State_Penalty>
0.105552

> <r_epik_Charging_Adjusted_Penalty>
0.107029

> <i_epik_Tot_Q>
1

> <i_epik_Tot_abs_Q>
1

> <r_epik_Metal_State_Penalty>
0.0881315

> <b_epik_Metal_Only>
0

> <s_lp_Force_Field>
OPLS_2005

> <r_lp_Energy>
24.9442

> <b_lp_Chiralities_Consistent>
1

> <s_lp_Variant>
AV-unprocessed.smi:1032-1

> <Gold.Version>
5.8.1

> <Gold.Id.Protein>
6NUR|6NUR_protein|mol2

> <Gold.PLP.Fitness>
55.0743

> <Gold.PLP.PLP>
-35.8823

> <Gold.PLP.part.hbond>
-5.0707

> <Gold.PLP.part.metal>
0.0000

> <Gold.PLP.part.buried>
-5.4882

> <Gold.PLP.part.nonpolar>
-27.8864

> <Gold.PLP.part.repulsive>
1.4014

> <Gold.PLP.ligand.clash>
0.0000

> <Gold.PLP.ligand.torsion>
0.5065

> <Gold.PLP.Chemscore.Hbond>
4.9425

> <Gold.PLP.Chemscore.CHOScore>
1.7822

> <Gold.PLP.Chemscore.Metal>
0.0000

> <Gold.Chemscore.Hbonds>
donor molecule, donor type, donor heavy atom, donor atom, acceptor molecule, acceptor atom, score
      L1  H     5    46       P1 10175  1.85
      L1  H     8    33       P1  7957  1.00
      L1  H    10    36       P1  7948  1.00
      L1  H    13    37       P1  7948  0.98
      L1  C    16    39       P1 10186  1.00

> <Gold.PLP.Chemscore.Internal.Correction>
0.0309

> <Gold.Rescore>
     Score         DG    S(hbond)    S(metal)    S(lipo)     H(rot)  DE(clash)    DE(int)     intcor
     18.08     -20.49       3.71        0.00      72.55       2.29       0.63       1.78       ----

> <Gold.Chemscore.Fitness>
18.0784

> <Gold.Chemscore.DG>
-20.4914

> <Gold.Chemscore.ZeroCoef>
-5.4800

> <Gold.Chemscore.Hbond>
3.7055

> <Gold.Chemscore.Metal>
0.0000

> <Gold.Chemscore.Lipo>
72.5537

> <Gold.Chemscore.Internal_Hbond>
0.0000

> <Gold.Chemscore.DEClash>
0.6326

> <Gold.Chemscore.DEInternal>
1.7804

> <Gold.Chemscore.Rot>
2.2865

> <Gold.Chemscore.Internal.Correction>
   9.000000E+99

> <Gold.Chemscore.Hbonds>
donor molecule, donor type, donor heavy atom, donor atom, acceptor molecule, acceptor atom, score
      L1  H     5    46       P1 10175  0.23
      L1  H     8    33       P1  7957  0.97
      L1  H    10    36       P1  7948  1.00
      L1  H    13    37       P1  7948  0.88

> <Gold.Chemscore.Hbond.Weighted>
-12.3762

> <Gold.Chemscore.Metal.Weighted>
-0.0000

> <Gold.Chemscore.Lipo.Weighted>
-8.4888

> <Gold.Chemscore.Internal_Hbond.Weighted>
0.0000

> <Gold.Chemscore.DEClash.Weighted>
0.6326

> <Gold.Chemscore.DEInternal.Weighted>
1.7804

> <Gold.Chemscore.Rot.Weighted>
5.8536

> <Gold.Chemscore.Internal.Correction.Weighted>
   9.000000E+99

> <Gold.Protein.RotatedTorsions>
[ 6907 6896 6895 6894 ] final  176.45 input  -60.11 | X-H torsion
[ 7974 7965 7964 7962 ] final   71.55 input  175.53 | X-H torsion
[ 8008 7997 7996 7995 ] final   45.82 input   59.86 | X-H torsion
[ 10167 10162 10161 10158 ] final  -58.23 input  -65.29 | X-H torsion
[ 10718 10713 10712 10709 ] final  148.14 input   66.30 | X-H torsion
[ 10763 10752 10751 10750 ] final  136.66 input  -60.55 | X-H torsion
[ 11005 11000 10999 10996 ] final  173.33 input  -57.11 | X-H torsion

> <Gold.Protein.ActiveResidues>
 VAL166  LYS551  ARG553  GLY616  TRP617  ASP618  TYR619  PRO620  LYS621  CYS622 
 ASP623  PHE694  ASN695  SER759  ASP760  ASP761  ALA762  ILE779  LEU786  VAL792 
 PHE793  MET794  SER795  GLU796  ALA797  LYS798  CYS799  TRP800  GLU811  SER814 

> <Gold.Protein.RotatedAtoms>
  151.7200  133.3314  159.3312 H   0  0  0  0  0  0  0  0  0  0  0  0  # atno 6907 bound_to 6896
  150.7657  134.6456  159.6270 H   0  0  0  0  0  0  0  0  0  0  0  0  # atno 6908 bound_to 6896
  152.3658  134.6809  160.0244 H   0  0  0  0  0  0  0  0  0  0  0  0  # atno 6909 bound_to 6896
  145.7644  139.2815  143.1357 H   0  0  0  0  0  0  0  0  0  0  0  0  # atno 7974 bound_to 7965
  155.3422  140.3409  155.4239 H   0  0  0  0  0  0  0  0  0  0  0  0  # atno 8008 bound_to 7997
  156.1807  140.1663  156.8315 H   0  0  0  0  0  0  0  0  0  0  0  0  # atno 8009 bound_to 7997
  154.5330  140.0741  156.8362 H   0  0  0  0  0  0  0  0  0  0  0  0  # atno 8010 bound_to 7997
  140.6210  143.2419  151.5481 H   0  0  0  0  0  0  0  0  0  0  0  0  # atno 10167 bound_to 10162
  157.3123  131.0890  151.1306 H   0  0  0  0  0  0  0  0  0  0  0  0  # atno 10718 bound_to 10713
  153.8602  135.3068  155.3437 H   0  0  0  0  0  0  0  0  0  0  0  0  # atno 10763 bound_to 10752
  154.7852  135.4813  153.9934 H   0  0  0  0  0  0  0  0  0  0  0  0  # atno 10764 bound_to 10752
  153.1466  135.6835  153.9039 H   0  0  0  0  0  0  0  0  0  0  0  0  # atno 10765 bound_to 10752
  140.3393  134.7290  157.4191 H   0  0  0  0  0  0  0  0  0  0  0  0  # atno 11005 bound_to 11000
  146.0232  140.8328  142.9913 LP  0  0  0  0  0  0  0  0  0  0  0  0  # atno 17320 bound_to 7965
  144.6824  140.2660  143.7312 LP  0  0  0  0  0  0  0  0  0  0  0  0  # atno 17321 bound_to 7965
  139.5438  144.2574  152.1404 LP  0  0  0  0  0  0  0  0  0  0  0  0  # atno 17342 bound_to 10162
  140.1795  144.4858  150.6536 LP  0  0  0  0  0  0  0  0  0  0  0  0  # atno 17343 bound_to 10162
  157.2623  130.6665  149.5980 LP  0  0  0  0  0  0  0  0  0  0  0  0  # atno 17370 bound_to 10713
  155.9679  130.4504  150.5698 LP  0  0  0  0  0  0  0  0  0  0  0  0  # atno 17371 bound_to 10713
  140.0794  134.5752  155.8556 LP  0  0  0  0  0  0  0  0  0  0  0  0  # atno 17394 bound_to 11000
  141.2043  133.6638  156.6111 LP  0  0  0  0  0  0  0  0  0  0  0  0  # atno 17395 bound_to 11000

$$$$
