AV-unprocessed.smi:767|AV-procd|sdf|3668|dock4
  -GOLD-   22720 1 73D 1   1.00000     0.00000
 Structure written by MMmdl.
 48 50  0  0  0  0  0  0  0  0  2 V2000
  151.6121  144.3688  158.1974 C   0  0  0  0  0  0  0  0  0  0  0  0
  151.3067  142.9094  157.9356 C   0  0  0  0  0  0  0  0  0  0  0  0
  151.7849  141.8784  158.7724 C   0  0  0  0  0  0  0  0  0  0  0  0
  151.4676  140.5392  158.4646 C   0  0  0  0  0  0  0  0  0  0  0  0
  150.6792  140.2573  157.3269 C   0  0  0  0  0  0  0  0  0  0  0  0
  150.3568  138.8239  156.9407 C   0  0  0  0  0  0  0  0  0  0  0  0
  150.6104  137.8071  158.0720 C   0  0  0  0  0  0  0  0  0  0  0  0
  149.4194  137.5618  158.8829 N   0  0  0  0  0  0  0  0  0  0  0  0
  148.8716  136.3597  159.1141 C   0  0  0  0  0  0  0  0  0  0  0  0
  149.3049  135.3026  158.6548 O   0  0  0  0  0  0  0  0  0  0  0  0
  147.8074  136.4432  159.9223 N   0  0  0  0  0  0  0  0  0  0  0  0
  147.0458  135.2904  160.3906 C   0  0  1  0  0  0  0  0  0  0  0  0
  147.9460  134.1228  160.8227 C   0  0  2  0  0  0  0  0  0  0  0  0
  147.9238  132.8341  160.0469 C   0  0  0  0  0  0  0  0  0  0  0  0
  146.9148  131.9845  160.8249 C   0  0  0  0  0  0  0  0  0  0  0  0
  146.1293  132.9282  161.5501 O   0  0  0  0  0  0  0  0  0  0  0  0
  147.0061  133.9554  162.0072 C   0  0  2  0  0  0  0  0  0  0  0  0
  146.5145  135.4092  161.8412 C   0  0  0  0  0  0  0  0  0  0  0  0
  147.2056  136.4184  162.7695 C   0  0  0  0  0  0  0  0  0  0  0  0
  145.0087  135.6308  161.9924 C   0  0  0  0  0  0  0  0  0  0  0  0
  150.2207  141.3305  156.5330 C   0  0  0  0  0  0  0  0  0  0  0  0
  150.5483  142.5995  156.8603 N   0  3  0  0  0  0  0  0  0  0  0  0
  152.4594  144.4744  158.8757 H   0  0  0  0  0  0  0  0  0  0  0  0
  150.7493  144.8606  158.6474 H   0  0  0  0  0  0  0  0  0  0  0  0
  151.8572  144.8842  157.2680 H   0  0  0  0  0  0  0  0  0  0  0  0
  152.3920  142.1077  159.6359 H   0  0  0  0  0  0  0  0  0  0  0  0
  151.8385  139.7390  159.0881 H   0  0  0  0  0  0  0  0  0  0  0  0
  149.3155  138.7639  156.6213 H   0  0  0  0  0  0  0  0  0  0  0  0
  150.9553  138.5564  156.0691 H   0  0  0  0  0  0  0  0  0  0  0  0
  150.9250  136.8562  157.6416 H   0  0  0  0  0  0  0  0  0  0  0  0
  151.4374  138.1405  158.7014 H   0  0  0  0  0  0  0  0  0  0  0  0
  148.9850  138.3691  159.3058 H   0  0  0  0  0  0  0  0  0  0  0  0
  147.5172  137.3526  160.2511 H   0  0  0  0  0  0  0  0  0  0  0  0
  146.2709  134.9642  159.6927 H   0  0  0  0  0  0  0  0  0  0  0  0
  148.9383  134.4487  161.1400 H   0  0  0  0  0  0  0  0  0  0  0  0
  147.5854  133.0009  159.0237 H   0  0  0  0  0  0  0  0  0  0  0  0
  148.9016  132.3537  160.0027 H   0  0  0  0  0  0  0  0  0  0  0  0
  146.2976  131.3644  160.1744 H   0  0  0  0  0  0  0  0  0  0  0  0
  147.4282  131.3325  161.5330 H   0  0  0  0  0  0  0  0  0  0  0  0
  147.5085  133.7184  162.9463 H   0  0  0  0  0  0  0  0  0  0  0  0
  146.9149  136.2657  163.8092 H   0  0  0  0  0  0  0  0  0  0  0  0
  146.9527  137.4465  162.5082 H   0  0  0  0  0  0  0  0  0  0  0  0
  148.2915  136.3305  162.7269 H   0  0  0  0  0  0  0  0  0  0  0  0
  144.6772  135.4416  163.0138 H   0  0  0  0  0  0  0  0  0  0  0  0
  144.4372  134.9702  161.3401 H   0  0  0  0  0  0  0  0  0  0  0  0
  144.7277  136.6528  161.7367 H   0  0  0  0  0  0  0  0  0  0  0  0
  149.6220  141.2123  155.6417 H   0  0  0  0  0  0  0  0  0  0  0  0
  150.2140  143.3574  156.2648 H   0  0  0  0  0  0  0  0  0  0  0  0
  1  2  1  0  0  0  0
  1 23  1  0  0  0  0
  1 24  1  0  0  0  0
  1 25  1  0  0  0  0
  2 22  1  0  0  0  0
  2  3  2  0  0  0  0
  3  4  1  0  0  0  0
  3 26  1  0  0  0  0
  4  5  2  0  0  0  0
  4 27  1  0  0  0  0
  5  6  1  0  0  0  0
  5 21  1  0  0  0  0
  6  7  1  0  0  0  0
  6 28  1  0  0  0  0
  6 29  1  0  0  0  0
  7  8  1  0  0  0  0
  7 30  1  0  0  0  0
  7 31  1  0  0  0  0
  8  9  1  0  0  0  0
  8 32  1  0  0  0  0
  9 10  2  0  0  0  0
  9 11  1  0  0  0  0
 11 12  1  0  0  0  0
 11 33  1  0  0  0  0
 12 18  1  0  0  0  0
 12 13  1  0  0  0  0
 12 34  1  0  0  0  0
 13 17  1  0  0  0  0
 13 14  1  0  0  0  0
 13 35  1  0  0  0  0
 14 15  1  0  0  0  0
 14 36  1  0  0  0  0
 14 37  1  0  0  0  0
 15 16  1  0  0  0  0
 15 38  1  0  0  0  0
 15 39  1  0  0  0  0
 16 17  1  0  0  0  0
 17 18  1  0  0  0  0
 17 40  1  0  0  0  0
 18 19  1  0  0  0  0
 18 20  1  0  0  0  0
 19 41  1  0  0  0  0
 19 42  1  0  0  0  0
 19 43  1  0  0  0  0
 20 44  1  0  0  0  0
 20 45  1  0  0  0  0
 20 46  1  0  0  0  0
 21 22  2  0  0  0  0
 21 47  1  0  0  0  0
 22 48  1  0  0  0  0
M  CHG  1  22   1
M  END
> <s_m_source_file>
AV-unprocessed.smi

> <i_m_source_file_index>
767

> <i_lp_mmshare_version>
43012

> <i_f3d_flags>
0

> <s_epik_input>
W0NIM11jMVtjSF1bY0hdYyhbY0hdbjEpW0NIMl1bQ0gyXVtOSF1DKD1PKVtOSF1bQ0BIXTJDKFtDSDNdKShbQ0gzXSlbQ0BIXShbQ0BASF0yMylPW0NIMl1bQ0gyXTM=

> <s_epik_cmdline>
J2VwaWtfcHl0aG9uJywgJy1waCcsICc3LjAnLCAnLXRuJywgJzgnLCAnLW1hJywgJzIwMCcsICctbWV0YWxfYmluZGluZycsICctaW1hZScsICc8aW5maWxlLm1hZT4nLCAnLW9tYWUnLCAnPG91dGZpbGUubWFlPic=

> <r_epik_Ionization_Penalty>
1.41853

> <r_epik_Ionization_Penalty_Charging>
1.41848

> <r_epik_Ionization_Penalty_Neutral>
5.17407e-05

> <r_epik_State_Penalty>
1.50205

> <r_epik_Charging_Adjusted_Penalty>
2.92053

> <i_epik_Tot_Q>
1

> <i_epik_Tot_abs_Q>
1

> <r_epik_Metal_State_Penalty>
1.5544

> <b_epik_Metal_Only>
0

> <s_lp_Force_Field>
OPLS_2005

> <r_lp_Energy>
39.2779

> <b_lp_Chiralities_Consistent>
1

> <s_lp_Variant>
AV-unprocessed.smi:767-12

> <Gold.Version>
5.8.1

> <Gold.Id.Protein>
6NUR|6NUR_protein|mol2

> <Gold.PLP.Fitness>
48.3856

> <Gold.PLP.PLP>
-40.6083

> <Gold.PLP.part.hbond>
-2.0000

> <Gold.PLP.part.metal>
0.0000

> <Gold.PLP.part.buried>
-7.0340

> <Gold.PLP.part.nonpolar>
-31.8974

> <Gold.PLP.part.repulsive>
0.4980

> <Gold.PLP.ligand.clash>
0.0000

> <Gold.PLP.ligand.torsion>
0.7011

> <Gold.PLP.Chemscore.Hbond>
3.0000

> <Gold.PLP.Chemscore.CHOScore>
0.0000

> <Gold.PLP.Chemscore.Metal>
0.0000

> <Gold.Chemscore.Hbonds>
donor molecule, donor type, donor heavy atom, donor atom, acceptor molecule, acceptor atom, score
      L1  H    22    48       P1  8028  2.00
      P1  H  6896  6907       L1    10  1.00

> <Gold.PLP.Chemscore.Internal.Correction>
0.1796

> <Gold.Rescore>
     Score         DG    S(hbond)    S(metal)    S(lipo)     H(rot)  DE(clash)    DE(int)     intcor
     19.59     -21.76       1.99        0.00     115.75       1.52       0.00       2.17       ----

> <Gold.Chemscore.Fitness>
19.5922

> <Gold.Chemscore.DG>
-21.7633

> <Gold.Chemscore.ZeroCoef>
-5.4800

> <Gold.Chemscore.Hbond>
1.9881

> <Gold.Chemscore.Metal>
0.0000

> <Gold.Chemscore.Lipo>
115.7486

> <Gold.Chemscore.Internal_Hbond>
0.0000

> <Gold.Chemscore.DEClash>
0.0038

> <Gold.Chemscore.DEInternal>
2.1673

> <Gold.Chemscore.Rot>
1.5233

> <Gold.Chemscore.Internal.Correction>
   9.000000E+99

> <Gold.Chemscore.Hbonds>
donor molecule, donor type, donor heavy atom, donor atom, acceptor molecule, acceptor atom, score
      L1  H    22    48       P1  8028  0.95
      P1  H  6896  6907       L1    10  0.99

> <Gold.Chemscore.Hbond.Weighted>
-6.6403

> <Gold.Chemscore.Metal.Weighted>
-0.0000

> <Gold.Chemscore.Lipo.Weighted>
-13.5426

> <Gold.Chemscore.Internal_Hbond.Weighted>
0.0000

> <Gold.Chemscore.DEClash.Weighted>
0.0038

> <Gold.Chemscore.DEInternal.Weighted>
2.1673

> <Gold.Chemscore.Rot.Weighted>
3.8995

> <Gold.Chemscore.Internal.Correction.Weighted>
   9.000000E+99

> <Gold.Protein.RotatedTorsions>
[ 6907 6896 6895 6894 ] final  -86.76 input  -60.11 | X-H torsion
[ 7974 7965 7964 7962 ] final -139.59 input  175.53 | X-H torsion
[ 8008 7997 7996 7995 ] final  142.15 input   59.86 | X-H torsion
[ 10167 10162 10161 10158 ] final   18.01 input  -65.29 | X-H torsion
[ 10718 10713 10712 10709 ] final   78.07 input   66.30 | X-H torsion
[ 10763 10752 10751 10750 ] final   16.22 input  -60.55 | X-H torsion
[ 11005 11000 10999 10996 ] final   11.43 input  -57.11 | X-H torsion

> <Gold.Protein.ActiveResidues>
 VAL166  LYS551  ARG553  GLY616  TRP617  ASP618  TYR619  PRO620  LYS621  CYS622 
 ASP623  PHE694  ASN695  SER759  ASP760  ASP761  ALA762  ILE779  LEU786  VAL792 
 PHE793  MET794  SER795  GLU796  ALA797  LYS798  CYS799  TRP800  GLU811  SER814 

> <Gold.Protein.RotatedAtoms>
  150.6866  134.3001  159.4702 H   0  0  0  0  0  0  0  0  0  0  0  0  # atno 6907 bound_to 6896
  152.0897  134.9413  160.0581 H   0  0  0  0  0  0  0  0  0  0  0  0  # atno 6908 bound_to 6896
  152.0733  133.4082  159.4506 H   0  0  0  0  0  0  0  0  0  0  0  0  # atno 6909 bound_to 6896
  144.8664  140.6300  143.5295 H   0  0  0  0  0  0  0  0  0  0  0  0  # atno 7974 bound_to 7965
  156.2954  140.2296  156.4680 H   0  0  0  0  0  0  0  0  0  0  0  0  # atno 8008 bound_to 7997
  154.7960  140.0451  157.1258 H   0  0  0  0  0  0  0  0  0  0  0  0  # atno 8009 bound_to 7997
  154.9589  140.3052  155.5043 H   0  0  0  0  0  0  0  0  0  0  0  0  # atno 8010 bound_to 7997
  140.5685  143.9206  150.6694 H   0  0  0  0  0  0  0  0  0  0  0  0  # atno 10167 bound_to 10162
  157.6732  130.9851  150.1733 H   0  0  0  0  0  0  0  0  0  0  0  0  # atno 10718 bound_to 10713
  153.1452  135.6768  153.8966 H   0  0  0  0  0  0  0  0  0  0  0  0  # atno 10763 bound_to 10752
  153.8410  135.3105  155.3427 H   0  0  0  0  0  0  0  0  0  0  0  0  # atno 10764 bound_to 10752
  154.7819  135.4883  153.9947 H   0  0  0  0  0  0  0  0  0  0  0  0  # atno 10765 bound_to 10752
  140.5033  134.0724  155.7799 H   0  0  0  0  0  0  0  0  0  0  0  0  # atno 11005 bound_to 11000
  145.4213  139.1563  143.4073 LP  0  0  0  0  0  0  0  0  0  0  0  0  # atno 17320 bound_to 7965
  146.2899  140.4323  142.8743 LP  0  0  0  0  0  0  0  0  0  0  0  0  # atno 17321 bound_to 7965
  140.2675  143.3479  152.1267 LP  0  0  0  0  0  0  0  0  0  0  0  0  # atno 17342 bound_to 10162
  139.5105  144.6885  151.5823 LP  0  0  0  0  0  0  0  0  0  0  0  0  # atno 17343 bound_to 10162
  156.2482  130.3698  149.8261 LP  0  0  0  0  0  0  0  0  0  0  0  0  # atno 17370 bound_to 10713
  156.6041  130.8559  151.3439 LP  0  0  0  0  0  0  0  0  0  0  0  0  # atno 17371 bound_to 10713
  141.1424  133.9114  157.2295 LP  0  0  0  0  0  0  0  0  0  0  0  0  # atno 17394 bound_to 11000
  139.9701  135.0131  156.9489 LP  0  0  0  0  0  0  0  0  0  0  0  0  # atno 17395 bound_to 11000

$$$$
