AV-unprocessed.smi:1809|AV-procd|sdf|7327|dock2
  -GOLD-   22720 8583D 1   1.00000     0.00000
 Structure written by MMmdl.
 39 41  0  0  0  0  0  0  0  0  3 V2000
  147.3428  135.4002  162.8198 C   0  0  0  0  0  0  0  0  0  0  0  0
  147.7678  135.8607  161.4679 C   0  0  0  0  0  0  0  0  0  0  0  0
  148.0118  137.1426  161.1846 N   0  0  0  0  0  0  0  0  0  0  0  0
  148.3923  137.3224  159.8624 N   0  0  0  0  0  0  0  0  0  0  0  0
  148.4411  136.1759  159.1690 C   0  0  0  0  0  0  0  0  0  0  0  0
  148.7826  136.1333  157.8705 N   0  5  0  0  0  0  0  0  0  0  0  0
  148.2610  137.0307  157.0050 C   0  0  0  0  0  0  0  0  0  0  0  0
  147.6380  138.0543  157.2963 O   0  0  0  0  0  0  0  0  0  0  0  0
  148.4727  136.7237  155.7196 N   0  0  0  0  0  0  0  0  0  0  0  0
  148.0021  137.5076  154.5869 C   0  0  0  0  0  0  0  0  0  0  0  0
  146.4643  137.4734  154.4989 C   0  0  2  0  0  0  0  0  0  0  0  0
  145.9147  136.0542  154.2173 C   0  0  0  0  0  0  0  0  0  0  0  0
  146.1641  135.7170  152.8031 N   0  3  1  0  0  0  0  0  0  0  0  0
  145.7305  134.3966  152.3159 C   0  0  0  0  0  0  0  0  0  0  0  0
  145.5586  134.5731  150.7939 C   0  0  0  0  0  0  0  0  0  0  0  0
  145.7463  136.0769  150.5237 C   0  0  0  0  0  0  0  0  0  0  0  0
  145.5621  136.7028  151.9028 C   0  0  2  0  0  0  0  0  0  0  0  0
  146.1982  138.0735  152.1625 C   0  0  0  0  0  0  0  0  0  0  0  0
  145.9640  138.4112  153.5322 O   0  0  0  0  0  0  0  0  0  0  0  0
  147.9931  134.7596  160.1194 S   0  0  0  0  0  0  0  0  0  0  0  0
  148.2125  135.3011  163.4693 H   0  0  0  0  0  0  0  0  0  0  0  0
  146.8449  134.4329  162.7500 H   0  0  0  0  0  0  0  0  0  0  0  0
  146.6510  136.1164  163.2638 H   0  0  0  0  0  0  0  0  0  0  0  0
  148.9861  135.8778  155.5177 H   0  0  0  0  0  0  0  0  0  0  0  0
  148.3688  138.5311  154.6722 H   0  0  0  0  0  0  0  0  0  0  0  0
  148.4332  137.0966  153.6727 H   0  0  0  0  0  0  0  0  0  0  0  0
  146.0781  137.7925  155.4679 H   0  0  0  0  0  0  0  0  0  0  0  0
  146.3868  135.3172  154.8679 H   0  0  0  0  0  0  0  0  0  0  0  0
  144.8428  136.0201  154.4169 H   0  0  0  0  0  0  0  0  0  0  0  0
  146.4601  133.6273  152.5696 H   0  0  0  0  0  0  0  0  0  0  0  0
  144.7769  134.1255  152.7716 H   0  0  0  0  0  0  0  0  0  0  0  0
  146.2870  133.9845  150.2353 H   0  0  0  0  0  0  0  0  0  0  0  0
  144.5652  134.2438  150.4870 H   0  0  0  0  0  0  0  0  0  0  0  0
  146.7565  136.2644  150.1565 H   0  0  0  0  0  0  0  0  0  0  0  0
  145.0429  136.4667  149.7873 H   0  0  0  0  0  0  0  0  0  0  0  0
  144.4919  136.7606  152.1135 H   0  0  0  0  0  0  0  0  0  0  0  0
  147.2649  138.0720  151.9368 H   0  0  0  0  0  0  0  0  0  0  0  0
  145.7397  138.8318  151.5275 H   0  0  0  0  0  0  0  0  0  0  0  0
  147.1620  135.7657  152.6533 H   0  0  0  0  0  0  0  0  0  0  0  0
  1  2  1  0  0  0  0
  1 21  1  0  0  0  0
  1 22  1  0  0  0  0
  1 23  1  0  0  0  0
  2 20  1  0  0  0  0
  2  3  2  0  0  0  0
  3  4  1  0  0  0  0
  4  5  2  0  0  0  0
  5  6  1  0  0  0  0
  5 20  1  0  0  0  0
  6  7  1  0  0  0  0
  7  8  2  0  0  0  0
  7  9  1  0  0  0  0
  9 10  1  0  0  0  0
  9 24  1  0  0  0  0
 10 11  1  0  0  0  0
 10 25  1  0  0  0  0
 10 26  1  0  0  0  0
 11 19  1  0  0  0  0
 11 12  1  0  0  0  0
 11 27  1  0  0  0  0
 12 13  1  0  0  0  0
 12 28  1  0  0  0  0
 12 29  1  0  0  0  0
 13 17  1  0  0  0  0
 13 14  1  0  0  0  0
 13 39  1  0  0  0  0
 14 15  1  0  0  0  0
 14 30  1  0  0  0  0
 14 31  1  0  0  0  0
 15 16  1  0  0  0  0
 15 32  1  0  0  0  0
 15 33  1  0  0  0  0
 16 17  1  0  0  0  0
 16 34  1  0  0  0  0
 16 35  1  0  0  0  0
 17 18  1  0  0  0  0
 17 36  1  0  0  0  0
 18 19  1  0  0  0  0
 18 37  1  0  0  0  0
 18 38  1  0  0  0  0
M  CHG  1   6  -1
M  CHG  1  13   1
M  END
> <s_m_source_file>
AV-unprocessed.smi

> <i_m_source_file_index>
1809

> <i_lp_mmshare_version>
43012

> <i_f3d_flags>
0

> <s_epik_input>
W0NIM11jMW5uYyhzMSlbTkhdQyg9TylbTkhdW0NIMl1bQ0BIXShbQ0gyXTIpT1tDSDJdW0NAQEhdKE4yMylbQ0gyXVtDSDJdW0NIMl0z

> <s_epik_cmdline>
J2VwaWtfcHl0aG9uJywgJy1waCcsICc3LjAnLCAnLXRuJywgJzgnLCAnLW1hJywgJzIwMCcsICctbWV0YWxfYmluZGluZycsICctaW1hZScsICc8aW5maWxlLm1hZT4nLCAnLW9tYWUnLCAnPG91dGZpbGUubWFlPic=

> <r_lp_tautomer_probability>
1

> <r_epik_Ionization_Penalty>
3.2601

> <r_epik_Ionization_Penalty_Charging>
3.1406

> <r_epik_Ionization_Penalty_Neutral>
0.119497

> <r_epik_State_Penalty>
3.08894

> <r_epik_Charging_Adjusted_Penalty>
6.22954

> <i_epik_Tot_Q>
0

> <i_epik_Tot_abs_Q>
2

> <r_epik_Metal_State_Penalty>
0.510807

> <b_epik_Metal_Only>
1

> <s_lp_Force_Field>
OPLS_2005

> <r_lp_Energy>
31.1042

> <b_lp_Chiralities_Consistent>
1

> <s_lp_Variant>
AV-unprocessed.smi:1809-19

> <Gold.Version>
5.8.1

> <Gold.Id.Protein>
6NUR|6NUR_protein|mol2

> <Gold.PLP.Fitness>
35.1506

> <Gold.PLP.PLP>
-26.5989

> <Gold.PLP.part.hbond>
-5.0000

> <Gold.PLP.part.metal>
0.0000

> <Gold.PLP.part.buried>
-0.1204

> <Gold.PLP.part.nonpolar>
-21.4253

> <Gold.PLP.part.repulsive>
0.1977

> <Gold.PLP.ligand.clash>
0.0000

> <Gold.PLP.ligand.torsion>
0.4625

> <Gold.PLP.Chemscore.Hbond>
3.1376

> <Gold.PLP.Chemscore.CHOScore>
0.0000

> <Gold.PLP.Chemscore.Metal>
0.0000

> <Gold.Chemscore.Hbonds>
donor molecule, donor type, donor heavy atom, donor atom, acceptor molecule, acceptor atom, score
      L1  H    13    39       P1  7948  2.00
      P1  H  6931  6943       L1     3  0.95
      P1  H  6934  6947       L1     3  0.10

> <Gold.PLP.Chemscore.Internal.Correction>
0.0639

> <Gold.Rescore>
     Score         DG    S(hbond)    S(metal)    S(lipo)     H(rot)  DE(clash)    DE(int)     intcor
     12.19     -14.21       1.53        0.00      59.83       1.32       0.10       1.92       ----

> <Gold.Chemscore.Fitness>
12.1872

> <Gold.Chemscore.DG>
-14.2102

> <Gold.Chemscore.ZeroCoef>
-5.4800

> <Gold.Chemscore.Hbond>
1.5331

> <Gold.Chemscore.Metal>
0.0000

> <Gold.Chemscore.Lipo>
59.8350

> <Gold.Chemscore.Internal_Hbond>
0.0000

> <Gold.Chemscore.DEClash>
0.1040

> <Gold.Chemscore.DEInternal>
1.9190

> <Gold.Chemscore.Rot>
1.3246

> <Gold.Chemscore.Internal.Correction>
   9.000000E+99

> <Gold.Chemscore.Hbonds>
donor molecule, donor type, donor heavy atom, donor atom, acceptor molecule, acceptor atom, score
      L1  H    13    39       P1  7948  0.96
      P1  H  6931  6943       L1     3  0.21

> <Gold.Chemscore.Hbond.Weighted>
-5.1205

> <Gold.Chemscore.Metal.Weighted>
-0.0000

> <Gold.Chemscore.Lipo.Weighted>
-7.0007

> <Gold.Chemscore.Internal_Hbond.Weighted>
0.0000

> <Gold.Chemscore.DEClash.Weighted>
0.1040

> <Gold.Chemscore.DEInternal.Weighted>
1.9190

> <Gold.Chemscore.Rot.Weighted>
3.3910

> <Gold.Chemscore.Internal.Correction.Weighted>
   9.000000E+99

> <Gold.Protein.RotatedTorsions>
[ 6907 6896 6895 6894 ] final  142.61 input  -60.11 | X-H torsion
[ 7974 7965 7964 7962 ] final   58.79 input  175.53 | X-H torsion
[ 8008 7997 7996 7995 ] final  -76.52 input   59.86 | X-H torsion
[ 10167 10162 10161 10158 ] final   94.99 input  -65.29 | X-H torsion
[ 10718 10713 10712 10709 ] final   41.27 input   66.30 | X-H torsion
[ 10763 10752 10751 10750 ] final   77.32 input  -60.55 | X-H torsion
[ 11005 11000 10999 10996 ] final -159.85 input  -57.11 | X-H torsion

> <Gold.Protein.ActiveResidues>
 VAL166  LYS551  ARG553  GLY616  TRP617  ASP618  TYR619  PRO620  LYS621  CYS622 
 ASP623  PHE694  ASN695  SER759  ASP760  ASP761  ALA762  ILE779  LEU786  VAL792 
 PHE793  MET794  SER795  GLU796  ALA797  LYS798  CYS799  TRP800  GLU811  SER814 

> <Gold.Protein.RotatedAtoms>
  152.2166  133.4951  159.5139 H   0  0  0  0  0  0  0  0  0  0  0  0  # atno 6907 bound_to 6896
  150.7002  134.1397  159.4109 H   0  0  0  0  0  0  0  0  0  0  0  0  # atno 6908 bound_to 6896
  151.9317  135.0253  160.0580 H   0  0  0  0  0  0  0  0  0  0  0  0  # atno 6909 bound_to 6896
  145.9143  139.3678  143.0517 H   0  0  0  0  0  0  0  0  0  0  0  0  # atno 7974 bound_to 7965
  154.5513  140.0725  156.8672 H   0  0  0  0  0  0  0  0  0  0  0  0  # atno 8008 bound_to 7997
  155.2988  140.3383  155.4230 H   0  0  0  0  0  0  0  0  0  0  0  0  # atno 8009 bound_to 7997
  156.1963  140.1705  156.7976 H   0  0  0  0  0  0  0  0  0  0  0  0  # atno 8010 bound_to 7997
  139.8031  144.6805  150.9738 H   0  0  0  0  0  0  0  0  0  0  0  0  # atno 10167 bound_to 10162
  157.3917  130.7810  149.7275 H   0  0  0  0  0  0  0  0  0  0  0  0  # atno 10718 bound_to 10713
  153.0790  135.4918  154.8464 H   0  0  0  0  0  0  0  0  0  0  0  0  # atno 10763 bound_to 10752
  154.7126  135.3023  154.9176 H   0  0  0  0  0  0  0  0  0  0  0  0  # atno 10764 bound_to 10752
  153.9865  135.6783  153.4805 H   0  0  0  0  0  0  0  0  0  0  0  0  # atno 10765 bound_to 10752
  140.6380  134.4581  157.5232 H   0  0  0  0  0  0  0  0  0  0  0  0  # atno 11005 bound_to 11000
  145.8632  140.9463  143.0689 LP  0  0  0  0  0  0  0  0  0  0  0  0  # atno 17320 bound_to 7965
  144.6746  140.0557  143.7477 LP  0  0  0  0  0  0  0  0  0  0  0  0  # atno 17321 bound_to 7965
  140.7820  143.4261  151.0766 LP  0  0  0  0  0  0  0  0  0  0  0  0  # atno 17342 bound_to 10162
  139.7932  143.8189  152.3154 LP  0  0  0  0  0  0  0  0  0  0  0  0  # atno 17343 bound_to 10162
  155.9800  130.4034  150.3555 LP  0  0  0  0  0  0  0  0  0  0  0  0  # atno 17370 bound_to 10713
  157.1671  131.0359  151.2813 LP  0  0  0  0  0  0  0  0  0  0  0  0  # atno 17371 bound_to 10713
  139.9091  134.8384  156.1595 LP  0  0  0  0  0  0  0  0  0  0  0  0  # atno 17394 bound_to 11000
  141.0628  133.6834  156.1985 LP  0  0  0  0  0  0  0  0  0  0  0  0  # atno 17395 bound_to 11000

$$$$
