AV-unprocessed.smi:3343|AV-procd|sdf|12896|dock2
  -GOLD-   2272019303D 1   1.00000     0.00000
 Structure written by MMmdl.
 42 43  0  0  0  0  0  0  0  0  2 V2000
  152.1754  138.2166  154.4947 C   0  0  0  0  0  0  0  0  0  0  0  0
  150.6433  138.0838  154.4129 C   0  0  1  0  0  0  0  0  0  0  0  0
  150.1140  136.8630  155.1804 C   0  0  0  0  0  0  0  0  0  0  0  0
  150.2076  136.8019  156.4072 O   0  0  0  0  0  0  0  0  0  0  0  0
  149.5545  135.8926  154.4406 N   0  0  0  0  0  0  0  0  0  0  0  0
  148.9824  134.6602  154.9695 C   0  0  0  0  0  0  0  0  0  0  0  0
  148.6790  133.6492  153.8469 C   0  0  0  0  0  0  0  0  0  0  0  0
  147.7206  134.1842  152.8483 N   0  3  0  0  0  0  0  0  0  0  0  0
  146.5259  134.7954  153.4798 C   0  0  0  0  0  0  0  0  0  0  0  0
  145.6070  135.4238  152.4108 C   0  0  0  0  0  0  0  0  0  0  0  0
  145.1924  134.4507  151.3990 N   0  0  0  0  0  0  0  0  0  0  0  0
  144.2326  133.4739  151.9021 C   0  0  0  0  0  0  0  0  0  0  0  0
  146.3711  133.8367  150.7854 C   0  0  0  0  0  0  0  0  0  0  0  0
  147.3023  133.1873  151.8310 C   0  0  0  0  0  0  0  0  0  0  0  0
  149.9833  139.2949  154.8796 N   0  0  0  0  0  0  0  0  0  0  0  0
  149.0052  139.4725  155.7724 C   0  0  0  0  0  0  0  0  0  0  0  0
  148.6426  140.7379  155.9277 N   0  0  0  0  0  0  0  0  0  0  0  0
  149.4930  141.3293  155.0372 C   0  0  0  0  0  0  0  0  0  0  0  0
  150.3130  140.5098  154.3790 N   0  0  0  0  0  0  0  0  0  0  0  0
  152.6697  137.3121  154.1383 H   0  0  0  0  0  0  0  0  0  0  0  0
  152.5151  138.4010  155.5146 H   0  0  0  0  0  0  0  0  0  0  0  0
  152.5255  139.0442  153.8770 H   0  0  0  0  0  0  0  0  0  0  0  0
  150.3871  137.9453  153.3605 H   0  0  0  0  0  0  0  0  0  0  0  0
  149.5108  136.0264  153.4402 H   0  0  0  0  0  0  0  0  0  0  0  0
  149.6577  134.2227  155.7068 H   0  0  0  0  0  0  0  0  0  0  0  0
  148.0727  134.9312  155.5041 H   0  0  0  0  0  0  0  0  0  0  0  0
  149.5972  133.3342  153.3488 H   0  0  0  0  0  0  0  0  0  0  0  0
  148.2508  132.7525  154.2973 H   0  0  0  0  0  0  0  0  0  0  0  0
  145.9919  134.0507  154.0712 H   0  0  0  0  0  0  0  0  0  0  0  0
  146.8417  135.5746  154.1743 H   0  0  0  0  0  0  0  0  0  0  0  0
  144.7259  135.8660  152.8775 H   0  0  0  0  0  0  0  0  0  0  0  0
  146.1333  136.2389  151.9121 H   0  0  0  0  0  0  0  0  0  0  0  0
  143.9097  132.8139  151.0964 H   0  0  0  0  0  0  0  0  0  0  0  0
  143.3472  133.9803  152.2879 H   0  0  0  0  0  0  0  0  0  0  0  0
  144.6414  132.8557  152.7001 H   0  0  0  0  0  0  0  0  0  0  0  0
  146.0566  133.0998  150.0454 H   0  0  0  0  0  0  0  0  0  0  0  0
  146.9181  134.6070  150.2399 H   0  0  0  0  0  0  0  0  0  0  0  0
  148.1762  132.7902  151.3158 H   0  0  0  0  0  0  0  0  0  0  0  0
  146.8171  132.3385  152.3145 H   0  0  0  0  0  0  0  0  0  0  0  0
  148.5482  138.6596  156.3179 H   0  0  0  0  0  0  0  0  0  0  0  0
  149.5057  142.3958  154.8663 H   0  0  0  0  0  0  0  0  0  0  0  0
  148.1939  134.9302  152.3589 H   0  0  0  0  0  0  0  0  0  0  0  0
  1  2  1  0  0  0  0
  1 20  1  0  0  0  0
  1 21  1  0  0  0  0
  1 22  1  0  0  0  0
  2  3  1  0  0  0  0
  2 15  1  0  0  0  0
  2 23  1  0  0  0  0
  3  4  2  0  0  0  0
  3  5  1  0  0  0  0
  5  6  1  0  0  0  0
  5 24  1  0  0  0  0
  6  7  1  0  0  0  0
  6 25  1  0  0  0  0
  6 26  1  0  0  0  0
  7  8  1  0  0  0  0
  7 27  1  0  0  0  0
  7 28  1  0  0  0  0
  8 14  1  0  0  0  0
  8  9  1  0  0  0  0
  8 42  1  0  0  0  0
  9 10  1  0  0  0  0
  9 29  1  0  0  0  0
  9 30  1  0  0  0  0
 10 11  1  0  0  0  0
 10 31  1  0  0  0  0
 10 32  1  0  0  0  0
 11 12  1  0  0  0  0
 11 13  1  0  0  0  0
 12 33  1  0  0  0  0
 12 34  1  0  0  0  0
 12 35  1  0  0  0  0
 13 14  1  0  0  0  0
 13 36  1  0  0  0  0
 13 37  1  0  0  0  0
 14 38  1  0  0  0  0
 14 39  1  0  0  0  0
 15 19  1  0  0  0  0
 15 16  1  0  0  0  0
 16 17  2  0  0  0  0
 16 40  1  0  0  0  0
 17 18  1  0  0  0  0
 18 19  2  0  0  0  0
 18 41  1  0  0  0  0
M  CHG  1   8   1
M  END
> <s_m_source_file>
AV-unprocessed.smi

> <i_m_source_file_index>
3343

> <i_lp_mmshare_version>
43012

> <i_f3d_flags>
0

> <s_epik_input>
bjFbY0hdbltjSF1uMVtDQEhdKFtDSDNdKUMoPU8pW05IXVtDSDJdW0NIMl1OMltDSDJdW0NIMl1OKFtDSDNdKVtDSDJdW0NIMl0y

> <s_epik_cmdline>
J2VwaWtfcHl0aG9uJywgJy1waCcsICc3LjAnLCAnLXRuJywgJzgnLCAnLW1hJywgJzIwMCcsICctbWV0YWxfYmluZGluZycsICctaW1hZScsICc8aW5maWxlLm1hZT4nLCAnLW9tYWUnLCAnPG91dGZpbGUubWFlPic=

> <r_epik_Ionization_Penalty>
0.559944

> <r_epik_Ionization_Penalty_Charging>
0.558624

> <r_epik_Ionization_Penalty_Neutral>
0.00131959

> <r_epik_State_Penalty>
2.08679

> <r_epik_Charging_Adjusted_Penalty>
2.64542

> <i_epik_Tot_Q>
1

> <i_epik_Tot_abs_Q>
1

> <r_epik_Metal_State_Penalty>
2.0868

> <b_epik_Metal_Only>
0

> <s_lp_Force_Field>
OPLS_2005

> <r_lp_Energy>
21.6118

> <b_lp_Chiralities_Consistent>
1

> <s_lp_Variant>
AV-unprocessed.smi:3343-6

> <Gold.Version>
5.8.1

> <Gold.Id.Protein>
6NUR|6NUR_protein|mol2

> <Gold.PLP.Fitness>
43.9978

> <Gold.PLP.PLP>
-29.5840

> <Gold.PLP.part.hbond>
-2.8749

> <Gold.PLP.part.metal>
0.0000

> <Gold.PLP.part.buried>
-2.8524

> <Gold.PLP.part.nonpolar>
-23.1810

> <Gold.PLP.part.repulsive>
0.3598

> <Gold.PLP.ligand.clash>
0.0000

> <Gold.PLP.ligand.torsion>
0.2153

> <Gold.PLP.Chemscore.Hbond>
3.9440

> <Gold.PLP.Chemscore.CHOScore>
0.9644

> <Gold.PLP.Chemscore.Metal>
0.0000

> <Gold.Chemscore.Hbonds>
donor molecule, donor type, donor heavy atom, donor atom, acceptor molecule, acceptor atom, score
      L1  H     5    24       P1  7948  1.00
      L1  H     8    42       P1  7948  2.00
      P1  H  7989  7998       L1    19  0.93
      L1  C    18    41       P1  8028  1.00

> <Gold.PLP.Chemscore.Internal.Correction>
0.1195

> <Gold.Rescore>
     Score         DG    S(hbond)    S(metal)    S(lipo)     H(rot)  DE(clash)    DE(int)     intcor
     13.81     -14.06       2.92        0.00      47.52       2.63       0.00       0.26       ----

> <Gold.Chemscore.Fitness>
13.8071

> <Gold.Chemscore.DG>
-14.0628

> <Gold.Chemscore.ZeroCoef>
-5.4800

> <Gold.Chemscore.Hbond>
2.9191

> <Gold.Chemscore.Metal>
0.0000

> <Gold.Chemscore.Lipo>
47.5214

> <Gold.Chemscore.Internal_Hbond>
0.0000

> <Gold.Chemscore.DEClash>
0.0000

> <Gold.Chemscore.DEInternal>
0.2557

> <Gold.Chemscore.Rot>
2.6278

> <Gold.Chemscore.Internal.Correction>
   9.000000E+99

> <Gold.Chemscore.Hbonds>
donor molecule, donor type, donor heavy atom, donor atom, acceptor molecule, acceptor atom, score
      L1  H     5    24       P1  7948  0.40
      L1  H     8    42       P1  7948  0.52
      P1  H  7989  7998       L1    19  0.89

> <Gold.Chemscore.Hbond.Weighted>
-9.7499

> <Gold.Chemscore.Metal.Weighted>
-0.0000

> <Gold.Chemscore.Lipo.Weighted>
-5.5600

> <Gold.Chemscore.Internal_Hbond.Weighted>
0.0000

> <Gold.Chemscore.DEClash.Weighted>
0.0000

> <Gold.Chemscore.DEInternal.Weighted>
0.2557

> <Gold.Chemscore.Rot.Weighted>
6.7271

> <Gold.Chemscore.Internal.Correction.Weighted>
   9.000000E+99

> <Gold.Protein.RotatedTorsions>
[ 6907 6896 6895 6894 ] final   45.68 input  -60.11 | X-H torsion
[ 7974 7965 7964 7962 ] final -179.56 input  175.53 | X-H torsion
[ 8008 7997 7996 7995 ] final -113.51 input   59.86 | X-H torsion
[ 10167 10162 10161 10158 ] final -101.58 input  -65.29 | X-H torsion
[ 10718 10713 10712 10709 ] final -126.51 input   66.30 | X-H torsion
[ 10763 10752 10751 10750 ] final   61.73 input  -60.55 | X-H torsion
[ 11005 11000 10999 10996 ] final  110.19 input  -57.11 | X-H torsion

> <Gold.Protein.ActiveResidues>
 VAL166  LYS551  ARG553  GLY616  TRP617  ASP618  TYR619  PRO620  LYS621  CYS622 
 ASP623  PHE694  ASN695  SER759  ASP760  ASP761  ALA762  ILE779  LEU786  VAL792 
 PHE793  MET794  SER795  GLU796  ALA797  LYS798  CYS799  TRP800  GLU811  SER814 

> <Gold.Protein.RotatedAtoms>
  152.2474  134.8167  160.0450 H   0  0  0  0  0  0  0  0  0  0  0  0  # atno 6907 bound_to 6896
  151.8859  133.3500  159.3790 H   0  0  0  0  0  0  0  0  0  0  0  0  # atno 6908 bound_to 6896
  150.7073  134.4898  159.5554 H   0  0  0  0  0  0  0  0  0  0  0  0  # atno 6909 bound_to 6896
  144.7137  140.0699  143.6430 H   0  0  0  0  0  0  0  0  0  0  0  0  # atno 7974 bound_to 7965
  155.0218  140.0393  157.2440 H   0  0  0  0  0  0  0  0  0  0  0  0  # atno 8008 bound_to 7997
  154.7371  140.2742  155.6382 H   0  0  0  0  0  0  0  0  0  0  0  0  # atno 8009 bound_to 7997
  156.2855  140.2673  156.2088 H   0  0  0  0  0  0  0  0  0  0  0  0  # atno 8010 bound_to 7997
  140.2398  143.3547  152.0812 H   0  0  0  0  0  0  0  0  0  0  0  0  # atno 10167 bound_to 10162
  156.1772  130.6708  151.0258 H   0  0  0  0  0  0  0  0  0  0  0  0  # atno 10718 bound_to 10713
  152.9960  135.5490  154.6080 H   0  0  0  0  0  0  0  0  0  0  0  0  # atno 10763 bound_to 10752
  154.5407  135.2819  155.1100 H   0  0  0  0  0  0  0  0  0  0  0  0  # atno 10764 bound_to 10752
  154.2379  135.6422  153.5250 H   0  0  0  0  0  0  0  0  0  0  0  0  # atno 10765 bound_to 10752
  139.8877  134.9477  156.6240 H   0  0  0  0  0  0  0  0  0  0  0  0  # atno 11005 bound_to 11000
  145.9792  139.2928  143.1052 LP  0  0  0  0  0  0  0  0  0  0  0  0  # atno 17320 bound_to 7965
  145.9029  140.9231  143.0493 LP  0  0  0  0  0  0  0  0  0  0  0  0  # atno 17321 bound_to 7965
  139.5081  144.6844  151.5926 LP  0  0  0  0  0  0  0  0  0  0  0  0  # atno 17342 bound_to 10162
  140.6122  143.9415  150.6462 LP  0  0  0  0  0  0  0  0  0  0  0  0  # atno 17343 bound_to 10162
  157.6844  131.0829  150.7283 LP  0  0  0  0  0  0  0  0  0  0  0  0  # atno 17370 bound_to 10713
  156.7341  130.4719  149.5492 LP  0  0  0  0  0  0  0  0  0  0  0  0  # atno 17371 bound_to 10713
  140.7717  133.8733  155.8497 LP  0  0  0  0  0  0  0  0  0  0  0  0  # atno 17394 bound_to 11000
  140.9836  134.1373  157.4472 LP  0  0  0  0  0  0  0  0  0  0  0  0  # atno 17395 bound_to 11000

$$$$
