AV-unprocessed.smi:1194|AV-procd|sdf|4992|dock1
  -GOLD-   22720 3593D 1   1.00000     0.00000
 Structure written by MMmdl.
 48 49  0  0  0  0  0  0  0  0  2 V2000
  155.2116  141.3121  165.1259 C   0  0  0  0  0  0  0  0  0  0  0  0
  155.7570  140.0664  165.8328 C   0  0  0  0  0  0  0  0  0  0  0  0
  155.4967  138.7759  165.0320 C   0  0  0  0  0  0  0  0  0  0  0  0
  156.1921  138.7392  163.6581 C   0  0  0  0  0  0  0  0  0  0  0  0
  157.2931  139.2824  163.5474 O   0  0  0  0  0  0  0  0  0  0  0  0
  155.5744  138.1331  162.6069 N   0  0  0  0  0  0  0  0  0  0  0  0
  154.2166  137.5442  162.6960 C   0  0  0  0  0  0  0  0  0  0  0  0
  154.1262  136.1807  161.9944 C   0  0  0  0  0  0  0  0  0  0  0  0
  154.6343  136.2633  160.5546 C   0  0  0  0  0  0  0  0  0  0  0  0
  156.0646  136.8094  160.5579 C   0  0  0  0  0  0  0  0  0  0  0  0
  156.1846  138.1901  161.2490 C   0  0  1  0  0  0  0  0  0  0  0  0
  155.6140  139.3181  160.3563 C   0  0  0  0  0  0  0  0  0  0  0  0
  156.0172  139.4417  159.1999 O   0  0  0  0  0  0  0  0  0  0  0  0
  154.7307  140.1704  160.9015 N   0  0  0  0  0  0  0  0  0  0  0  0
  154.2077  141.3745  160.2669 C   0  0  0  0  0  0  0  0  0  0  0  0
  153.3456  142.2122  161.2330 C   0  0  0  0  0  0  0  0  0  0  0  0
  152.5668  143.3198  160.5407 C   0  0  0  0  0  0  0  0  0  0  0  0
  152.7428  143.5707  159.1621 C   0  0  0  0  0  0  0  0  0  0  0  0
  151.9820  144.5832  158.5408 C   0  0  0  0  0  0  0  0  0  0  0  0
  151.0637  145.3237  159.3129 C   0  0  0  0  0  0  0  0  0  0  0  0
  150.9246  145.0577  160.6299 N   0  3  0  0  0  0  0  0  0  0  0  0
  151.6337  144.0973  161.2616 C   0  0  0  0  0  0  0  0  0  0  0  0
  155.4095  142.2096  165.7123 H   0  0  0  0  0  0  0  0  0  0  0  0
  154.1334  141.2417  164.9796 H   0  0  0  0  0  0  0  0  0  0  0  0
  155.6752  141.4448  164.1480 H   0  0  0  0  0  0  0  0  0  0  0  0
  156.8280  140.1936  165.9942 H   0  0  0  0  0  0  0  0  0  0  0  0
  155.2996  139.9911  166.8202 H   0  0  0  0  0  0  0  0  0  0  0  0
  155.8313  137.9184  165.6173 H   0  0  0  0  0  0  0  0  0  0  0  0
  154.4209  138.6735  164.8845 H   0  0  0  0  0  0  0  0  0  0  0  0
  153.8730  137.3914  163.7168 H   0  0  0  0  0  0  0  0  0  0  0  0
  153.4997  138.2315  162.2475 H   0  0  0  0  0  0  0  0  0  0  0  0
  154.7133  135.4466  162.5483 H   0  0  0  0  0  0  0  0  0  0  0  0
  153.0959  135.8236  162.0052 H   0  0  0  0  0  0  0  0  0  0  0  0
  154.6100  135.2768  160.0910 H   0  0  0  0  0  0  0  0  0  0  0  0
  153.9821  136.9048  159.9606 H   0  0  0  0  0  0  0  0  0  0  0  0
  156.7106  136.1003  161.0773 H   0  0  0  0  0  0  0  0  0  0  0  0
  156.4449  136.8512  159.5364 H   0  0  0  0  0  0  0  0  0  0  0  0
  157.2555  138.3884  161.3109 H   0  0  0  0  0  0  0  0  0  0  0  0
  154.4440  140.0002  161.8547 H   0  0  0  0  0  0  0  0  0  0  0  0
  155.0153  141.9762  159.8470 H   0  0  0  0  0  0  0  0  0  0  0  0
  153.5950  141.0505  159.4252 H   0  0  0  0  0  0  0  0  0  0  0  0
  152.6413  141.5584  161.7496 H   0  0  0  0  0  0  0  0  0  0  0  0
  153.9759  142.6483  162.0087 H   0  0  0  0  0  0  0  0  0  0  0  0
  153.4462  142.9887  158.5846 H   0  0  0  0  0  0  0  0  0  0  0  0
  152.0994  144.7871  157.4865 H   0  0  0  0  0  0  0  0  0  0  0  0
  150.4387  146.1121  158.9194 H   0  0  0  0  0  0  0  0  0  0  0  0
  151.4232  143.9709  162.3138 H   0  0  0  0  0  0  0  0  0  0  0  0
  150.2500  145.6007  161.1697 H   0  0  0  0  0  0  0  0  0  0  0  0
  1  2  1  0  0  0  0
  1 23  1  0  0  0  0
  1 24  1  0  0  0  0
  1 25  1  0  0  0  0
  2  3  1  0  0  0  0
  2 26  1  0  0  0  0
  2 27  1  0  0  0  0
  3  4  1  0  0  0  0
  3 28  1  0  0  0  0
  3 29  1  0  0  0  0
  4  5  2  0  0  0  0
  4  6  1  0  0  0  0
  6 11  1  0  0  0  0
  6  7  1  0  0  0  0
  7  8  1  0  0  0  0
  7 30  1  0  0  0  0
  7 31  1  0  0  0  0
  8  9  1  0  0  0  0
  8 32  1  0  0  0  0
  8 33  1  0  0  0  0
  9 10  1  0  0  0  0
  9 34  1  0  0  0  0
  9 35  1  0  0  0  0
 10 11  1  0  0  0  0
 10 36  1  0  0  0  0
 10 37  1  0  0  0  0
 11 12  1  0  0  0  0
 11 38  1  0  0  0  0
 12 13  2  0  0  0  0
 12 14  1  0  0  0  0
 14 15  1  0  0  0  0
 14 39  1  0  0  0  0
 15 16  1  0  0  0  0
 15 40  1  0  0  0  0
 15 41  1  0  0  0  0
 16 17  1  0  0  0  0
 16 42  1  0  0  0  0
 16 43  1  0  0  0  0
 17 22  1  0  0  0  0
 17 18  2  0  0  0  0
 18 19  1  0  0  0  0
 18 44  1  0  0  0  0
 19 20  2  0  0  0  0
 19 45  1  0  0  0  0
 20 21  1  0  0  0  0
 20 46  1  0  0  0  0
 21 22  2  0  0  0  0
 21 48  1  0  0  0  0
 22 47  1  0  0  0  0
M  CHG  1  21   1
M  END
> <s_m_source_file>
AV-unprocessed.smi

> <i_m_source_file_index>
1194

> <i_lp_mmshare_version>
43012

> <i_f3d_flags>
0

> <s_epik_input>
W0NIM11bQ0gyXVtDSDJdQyg9TylOMVtDSDJdW0NIMl1bQ0gyXVtDSDJdW0NASF0xQyg9TylbTkhdW0NIMl1bQ0gyXWMyW2NIXVtjSF1bY0hdbltjSF0y

> <s_epik_cmdline>
J2VwaWtfcHl0aG9uJywgJy1waCcsICc3LjAnLCAnLXRuJywgJzgnLCAnLW1hJywgJzIwMCcsICctbWV0YWxfYmluZGluZycsICctaW1hZScsICc8aW5maWxlLm1hZT4nLCAnLW9tYWUnLCAnPG91dGZpbGUubWFlPic=

> <r_epik_Ionization_Penalty>
2.26523

> <r_epik_Ionization_Penalty_Charging>
2.26523

> <r_epik_Ionization_Penalty_Neutral>
5.33649e-08

> <r_epik_State_Penalty>
2.41338

> <r_epik_Charging_Adjusted_Penalty>
4.67861

> <i_epik_Tot_Q>
1

> <i_epik_Tot_abs_Q>
1

> <r_epik_Metal_State_Penalty>
2.42628

> <b_epik_Metal_Only>
0

> <s_lp_Force_Field>
OPLS_2005

> <r_lp_Energy>
32.0414

> <b_lp_Chiralities_Consistent>
1

> <s_lp_Variant>
AV-unprocessed.smi:1194-3

> <Gold.Version>
5.8.1

> <Gold.Id.Protein>
6NUR|6NUR_protein|mol2

> <Gold.PLP.Fitness>
46.9712

> <Gold.PLP.PLP>
-44.8910

> <Gold.PLP.part.hbond>
-2.0000

> <Gold.PLP.part.metal>
0.0000

> <Gold.PLP.part.buried>
-5.6396

> <Gold.PLP.part.nonpolar>
-38.1426

> <Gold.PLP.part.repulsive>
0.2099

> <Gold.PLP.ligand.clash>
0.0000

> <Gold.PLP.ligand.torsion>
0.5239

> <Gold.PLP.Chemscore.Hbond>
1.0000

> <Gold.PLP.Chemscore.CHOScore>
0.0000

> <Gold.PLP.Chemscore.Metal>
0.0000

> <Gold.Chemscore.Hbonds>
donor molecule, donor type, donor heavy atom, donor atom, acceptor molecule, acceptor atom, score
      P1  H  7997  8010       L1    13  1.00

> <Gold.PLP.Chemscore.Internal.Correction>
0.1279

> <Gold.Rescore>
     Score         DG    S(hbond)    S(metal)    S(lipo)     H(rot)  DE(clash)    DE(int)     intcor
     19.28     -19.68       0.99        0.00     132.32       1.80       0.14       0.27       ----

> <Gold.Chemscore.Fitness>
19.2755

> <Gold.Chemscore.DG>
-19.6763

> <Gold.Chemscore.ZeroCoef>
-5.4800

> <Gold.Chemscore.Hbond>
0.9937

> <Gold.Chemscore.Metal>
0.0000

> <Gold.Chemscore.Lipo>
132.3190

> <Gold.Chemscore.Internal_Hbond>
0.0000

> <Gold.Chemscore.DEClash>
0.1354

> <Gold.Chemscore.DEInternal>
0.2654

> <Gold.Chemscore.Rot>
1.7985

> <Gold.Chemscore.Internal.Correction>
   9.000000E+99

> <Gold.Chemscore.Hbonds>
donor molecule, donor type, donor heavy atom, donor atom, acceptor molecule, acceptor atom, score
      P1  H  7997  8010       L1    13  0.97

> <Gold.Chemscore.Hbond.Weighted>
-3.3191

> <Gold.Chemscore.Metal.Weighted>
-0.0000

> <Gold.Chemscore.Lipo.Weighted>
-15.4813

> <Gold.Chemscore.Internal_Hbond.Weighted>
0.0000

> <Gold.Chemscore.DEClash.Weighted>
0.1354

> <Gold.Chemscore.DEInternal.Weighted>
0.2654

> <Gold.Chemscore.Rot.Weighted>
4.6041

> <Gold.Chemscore.Internal.Correction.Weighted>
   9.000000E+99

> <Gold.Protein.RotatedTorsions>
[ 6907 6896 6895 6894 ] final    5.95 input  -60.11 | X-H torsion
[ 7974 7965 7964 7962 ] final -111.42 input  175.53 | X-H torsion
[ 8008 7997 7996 7995 ] final  -26.90 input   59.86 | X-H torsion
[ 10167 10162 10161 10158 ] final   64.30 input  -65.29 | X-H torsion
[ 10718 10713 10712 10709 ] final  134.95 input   66.30 | X-H torsion
[ 10763 10752 10751 10750 ] final  -59.46 input  -60.55 | X-H torsion
[ 11005 11000 10999 10996 ] final -114.92 input  -57.11 | X-H torsion

> <Gold.Protein.ActiveResidues>
 VAL166  LYS551  ARG553  GLY616  TRP617  ASP618  TYR619  PRO620  LYS621  CYS622 
 ASP623  PHE694  ASN695  SER759  ASP760  ASP761  ALA762  ILE779  LEU786  VAL792 
 PHE793  MET794  SER795  GLU796  ALA797  LYS798  CYS799  TRP800  GLU811  SER814 

> <Gold.Protein.RotatedAtoms>
  151.6658  135.0983  160.0188 H   0  0  0  0  0  0  0  0  0  0  0  0  # atno 6907 bound_to 6896
  152.3920  133.6689  159.6254 H   0  0  0  0  0  0  0  0  0  0  0  0  # atno 6908 bound_to 6896
  150.7834  133.8854  159.3339 H   0  0  0  0  0  0  0  0  0  0  0  0  # atno 6909 bound_to 6896
  145.1563  140.8855  143.3617 H   0  0  0  0  0  0  0  0  0  0  0  0  # atno 7974 bound_to 7965
  154.4403  140.1887  156.0848 H   0  0  0  0  0  0  0  0  0  0  0  0  # atno 8008 bound_to 7997
  156.0411  140.3319  155.7218 H   0  0  0  0  0  0  0  0  0  0  0  0  # atno 8009 bound_to 7997
  155.5698  140.0611  157.2800 H   0  0  0  0  0  0  0  0  0  0  0  0  # atno 8010 bound_to 7997
  140.1237  144.4708  150.6905 H   0  0  0  0  0  0  0  0  0  0  0  0  # atno 10167 bound_to 10162
  157.4620  131.1074  150.9908 H   0  0  0  0  0  0  0  0  0  0  0  0  # atno 10718 bound_to 10713
  154.2540  135.6320  153.5250 H   0  0  0  0  0  0  0  0  0  0  0  0  # atno 10763 bound_to 10752
  152.9907  135.5571  154.5776 H   0  0  0  0  0  0  0  0  0  0  0  0  # atno 10764 bound_to 10752
  154.5310  135.2888  155.1155 H   0  0  0  0  0  0  0  0  0  0  0  0  # atno 10765 bound_to 10752
  141.0521  133.9671  157.2818 H   0  0  0  0  0  0  0  0  0  0  0  0  # atno 11005 bound_to 11000
  145.0378  139.3286  143.5992 LP  0  0  0  0  0  0  0  0  0  0  0  0  # atno 17320 bound_to 7965
  146.3488  139.9739  142.8703 LP  0  0  0  0  0  0  0  0  0  0  0  0  # atno 17321 bound_to 7965
  140.6857  143.2349  151.5266 LP  0  0  0  0  0  0  0  0  0  0  0  0  # atno 17342 bound_to 10162
  139.5555  144.2286  152.1605 LP  0  0  0  0  0  0  0  0  0  0  0  0  # atno 17343 bound_to 10162
  157.0702  130.5861  149.5401 LP  0  0  0  0  0  0  0  0  0  0  0  0  # atno 17370 bound_to 10713
  156.0033  130.5116  150.7741 LP  0  0  0  0  0  0  0  0  0  0  0  0  # atno 17371 bound_to 10713
  139.9359  135.0196  156.8553 LP  0  0  0  0  0  0  0  0  0  0  0  0  # atno 17394 bound_to 11000
  140.6035  134.0149  155.7547 LP  0  0  0  0  0  0  0  0  0  0  0  0  # atno 17395 bound_to 11000

$$$$
