AV-unprocessed.smi:110|AV-procd|sdf|1075|dock4
  -GOLD-   2262018163D 1   1.00000     0.00000
 Structure written by MMmdl.
 46 50  0  0  0  0  0  0  0  0  1 V2000
  144.4518  141.9918  155.0046 O   0  0  0  0  0  0  0  0  0  0  0  0
  145.6575  142.6974  154.8025 C   0  0  0  0  0  0  0  0  0  0  0  0
  146.6328  141.8607  153.9549 C   0  0  1  0  0  0  0  0  0  0  0  0
  147.9700  142.3378  154.0986 O   0  0  0  0  0  0  0  0  0  0  0  0
  148.8862  141.2840  154.0436 C   0  0  1  0  0  0  0  0  0  0  0  0
  149.5732  141.2138  155.3743 N   0  0  0  0  0  0  0  0  0  0  0  0
  149.2423  141.8315  156.5608 C   0  0  0  0  0  0  0  0  0  0  0  0
  150.0394  141.5783  157.5626 N   0  0  0  0  0  0  0  0  0  0  0  0
  151.0007  140.7266  157.0305 C   0  0  0  0  0  0  0  0  0  0  0  0
  152.1581  140.0778  157.5503 C   0  0  0  0  0  0  0  0  0  0  0  0
  152.5532  140.1719  158.8460 N   0  0  0  0  0  0  0  0  0  0  0  0
  153.4505  139.1473  159.4020 C   0  0  0  0  0  0  0  0  0  0  0  0
  154.1492  139.7476  160.6348 C   0  0  0  0  0  0  0  0  0  0  0  0
  153.4532  141.0640  160.7402 C   0  0  0  0  0  0  0  0  0  0  0  0
  153.6213  142.0341  161.7436 C   0  0  0  0  0  0  0  0  0  0  0  0
  152.8510  143.2134  161.6647 C   0  0  0  0  0  0  0  0  0  0  0  0
  151.9357  143.3980  160.6028 C   0  0  0  0  0  0  0  0  0  0  0  0
  151.7836  142.4093  159.6058 C   0  0  0  0  0  0  0  0  0  0  0  0
  152.5653  141.2362  159.6818 C   0  0  0  0  0  0  0  0  0  0  0  0
  152.8747  139.3060  156.6925 N   0  0  0  0  0  0  0  0  0  0  0  0
  152.4966  139.1787  155.4177 C   0  0  0  0  0  0  0  0  0  0  0  0
  151.4475  139.7246  154.8007 N   0  0  0  0  0  0  0  0  0  0  0  0
  150.7185  140.5001  155.6535 C   0  0  0  0  0  0  0  0  0  0  0  0
  148.0869  140.0032  153.7401 C   0  0  1  0  0  0  0  0  0  0  0  0
  148.6010  138.8107  154.3060 O   0  0  0  0  0  0  0  0  0  0  0  0
  146.6894  140.3504  154.2348 C   0  0  1  0  0  0  0  0  0  0  0  0
  146.5051  140.0588  155.6102 O   0  0  0  0  0  0  0  0  0  0  0  0
  146.3844  141.9959  152.9008 H   0  0  0  0  0  0  0  0  0  0  0  0
  149.6849  141.4862  153.3291 H   0  0  0  0  0  0  0  0  0  0  0  0
  148.0597  139.8911  152.6555 H   0  0  0  0  0  0  0  0  0  0  0  0
  145.9237  139.8120  153.6752 H   0  0  0  0  0  0  0  0  0  0  0  0
  144.1853  141.6109  154.1818 H   0  0  0  0  0  0  0  0  0  0  0  0
  145.4253  143.6295  154.2868 H   0  0  0  0  0  0  0  0  0  0  0  0
  146.0905  142.9697  155.7651 H   0  0  0  0  0  0  0  0  0  0  0  0
  148.3865  142.4811  156.6665 H   0  0  0  0  0  0  0  0  0  0  0  0
  152.8594  138.2800  159.6975 H   0  0  0  0  0  0  0  0  0  0  0  0
  154.1805  138.8177  158.6615 H   0  0  0  0  0  0  0  0  0  0  0  0
  154.0021  139.1444  161.5311 H   0  0  0  0  0  0  0  0  0  0  0  0
  155.2163  139.8961  160.4666 H   0  0  0  0  0  0  0  0  0  0  0  0
  154.3180  141.8796  162.5543 H   0  0  0  0  0  0  0  0  0  0  0  0
  152.9565  143.9759  162.4222 H   0  0  0  0  0  0  0  0  0  0  0  0
  151.3443  144.3003  160.5557 H   0  0  0  0  0  0  0  0  0  0  0  0
  151.0696  142.5571  158.8096 H   0  0  0  0  0  0  0  0  0  0  0  0
  153.1235  138.5473  154.8055 H   0  0  0  0  0  0  0  0  0  0  0  0
  147.8762  138.2243  154.4634 H   0  0  0  0  0  0  0  0  0  0  0  0
  147.2399  140.4102  156.0899 H   0  0  0  0  0  0  0  0  0  0  0  0
  1  2  1  0  0  0  0
  1 32  1  0  0  0  0
  2  3  1  0  0  0  0
  2 33  1  0  0  0  0
  2 34  1  0  0  0  0
  3 28  1  0  0  0  0
  3 26  1  0  0  0  0
  3  4  1  0  0  0  0
  4  5  1  0  0  0  0
  5 29  1  0  0  0  0
  5  6  1  0  0  0  0
  5 24  1  0  0  0  0
  6 23  1  0  0  0  0
  6  7  1  0  0  0  0
  7  8  2  0  0  0  0
  7 35  1  0  0  0  0
  8  9  1  0  0  0  0
  9 23  2  0  0  0  0
  9 10  1  0  0  0  0
 10 11  1  0  0  0  0
 10 20  2  0  0  0  0
 11 19  1  0  0  0  0
 11 12  1  0  0  0  0
 12 13  1  0  0  0  0
 12 36  1  0  0  0  0
 12 37  1  0  0  0  0
 13 14  1  0  0  0  0
 13 38  1  0  0  0  0
 13 39  1  0  0  0  0
 14 19  2  0  0  0  0
 14 15  1  0  0  0  0
 15 16  2  0  0  0  0
 15 40  1  0  0  0  0
 16 17  1  0  0  0  0
 16 41  1  0  0  0  0
 17 18  2  0  0  0  0
 17 42  1  0  0  0  0
 18 19  1  0  0  0  0
 18 43  1  0  0  0  0
 20 21  1  0  0  0  0
 21 22  2  0  0  0  0
 21 44  1  0  0  0  0
 22 23  1  0  0  0  0
 24 30  1  0  0  0  0
 24 25  1  0  0  0  0
 24 26  1  0  0  0  0
 25 45  1  0  0  0  0
 26 31  1  0  0  0  0
 26 27  1  0  0  0  0
 27 46  1  0  0  0  0
M  END
> <s_m_source_file>
AV-unprocessed.smi

> <i_m_source_file_index>
110

> <i_lp_mmshare_version>
43012

> <i_f3d_flags>
0

> <s_epik_input>
W09IXVtDSDJdW0NASF0xT1tDQEhdKFtDQEhdKFtPSF0pW0NAQEhdMVtPSF0pbihbY0hdbjIpYyhjMjMpbltjSF1uYzNOKFtDSDJdW0NIMl00KWMoYzQ1KVtjSF1bY0hdW2NIXVtjSF01

> <s_epik_cmdline>
J2VwaWtfcHl0aG9uJywgJy1waCcsICc3LjAnLCAnLXRuJywgJzgnLCAnLW1hJywgJzIwMCcsICctbWV0YWxfYmluZGluZycsICctaW1hZScsICc8aW5maWxlLm1hZT4nLCAnLW9tYWUnLCAnPG91dGZpbGUubWFlPic=

> <r_lp_tautomer_probability>
1

> <r_epik_Ionization_Penalty>
0.00068475

> <r_epik_Ionization_Penalty_Charging>
0

> <r_epik_Ionization_Penalty_Neutral>
0.00068475

> <r_epik_State_Penalty>
0.000417442

> <r_epik_Charging_Adjusted_Penalty>
0.000417442

> <i_epik_Tot_Q>
0

> <i_epik_Tot_abs_Q>
0

> <r_epik_Metal_State_Penalty>
-0

> <b_epik_Metal_Only>
0

> <s_epik_Chemistry_Notes>
This compound contains an acetal/aminal-like group ( X-CH(R)-Y where X, Y are N, S, or O) that may be acid/base labile, releasing an aldehyde.

> <s_lp_Force_Field>
OPLS_2005

> <r_lp_Energy>
64.6633

> <b_lp_Chiralities_Consistent>
1

> <s_lp_Variant>
AV-unprocessed.smi:110-13

> <Gold.Version>
5.8.1

> <Gold.Id.Protein>
6NUR|6NUR_protein|mol2

> <Gold.PLP.Fitness>
60.2981

> <Gold.PLP.PLP>
-50.7804

> <Gold.PLP.part.hbond>
-3.9402

> <Gold.PLP.part.metal>
0.0000

> <Gold.PLP.part.buried>
-1.7412

> <Gold.PLP.part.nonpolar>
-45.2122

> <Gold.PLP.part.repulsive>
1.1366

> <Gold.PLP.ligand.clash>
0.0000

> <Gold.PLP.ligand.torsion>
0.9409

> <Gold.PLP.Chemscore.Hbond>
2.9500

> <Gold.PLP.Chemscore.CHOScore>
0.6078

> <Gold.PLP.Chemscore.Metal>
0.0000

> <Gold.Chemscore.Hbonds>
donor molecule, donor type, donor heavy atom, donor atom, acceptor molecule, acceptor atom, score
      L1  H     1    32       P1 10175  0.77
      P1  H  7989  7998       L1    22  0.95
      P1  H  7997  8010       L1    20  1.00
      L1  C     7    35       P1  8028  0.61

> <Gold.PLP.Chemscore.Internal.Correction>
0.7261

> <Gold.Rescore>
     Score         DG    S(hbond)    S(metal)    S(lipo)     H(rot)  DE(clash)    DE(int)     intcor
     11.89     -15.30       1.92        0.00     103.15       3.38       0.26       3.16       ----

> <Gold.Chemscore.Fitness>
11.8904

> <Gold.Chemscore.DG>
-15.3027

> <Gold.Chemscore.ZeroCoef>
-5.4800

> <Gold.Chemscore.Hbond>
1.9212

> <Gold.Chemscore.Metal>
0.0000

> <Gold.Chemscore.Lipo>
103.1469

> <Gold.Chemscore.Internal_Hbond>
0.0000

> <Gold.Chemscore.DEClash>
0.2566

> <Gold.Chemscore.DEInternal>
3.1557

> <Gold.Chemscore.Rot>
3.3837

> <Gold.Chemscore.Internal.Correction>
   9.000000E+99

> <Gold.Chemscore.Hbonds>
donor molecule, donor type, donor heavy atom, donor atom, acceptor molecule, acceptor atom, score
      L1  H     1    32       P1 10175  0.13
      P1  H  7989  7998       L1    22  0.21
      P1  H  7997  8010       L1    20  0.17

> <Gold.Chemscore.Hbond.Weighted>
-6.4167

> <Gold.Chemscore.Metal.Weighted>
-0.0000

> <Gold.Chemscore.Lipo.Weighted>
-12.0682

> <Gold.Chemscore.Internal_Hbond.Weighted>
0.0000

> <Gold.Chemscore.DEClash.Weighted>
0.2566

> <Gold.Chemscore.DEInternal.Weighted>
3.1557

> <Gold.Chemscore.Rot.Weighted>
8.6622

> <Gold.Chemscore.Internal.Correction.Weighted>
   9.000000E+99

> <Gold.Protein.RotatedTorsions>
[ 6907 6896 6895 6894 ] final   65.94 input  -60.11 | X-H torsion
[ 7974 7965 7964 7962 ] final   87.98 input  175.53 | X-H torsion
[ 8008 7997 7996 7995 ] final   66.39 input   59.86 | X-H torsion
[ 10167 10162 10161 10158 ] final   94.70 input  -65.29 | X-H torsion
[ 10718 10713 10712 10709 ] final  124.44 input   66.30 | X-H torsion
[ 10763 10752 10751 10750 ] final   76.02 input  -60.55 | X-H torsion
[ 11005 11000 10999 10996 ] final  154.91 input  -57.11 | X-H torsion

> <Gold.Protein.ActiveResidues>
 VAL166  LYS551  ARG553  GLY616  TRP617  ASP618  TYR619  PRO620  LYS621  CYS622 
 ASP623  PHE694  ASN695  SER759  ASP760  ASP761  ALA762  ILE779  LEU786  VAL792 
 PHE793  MET794  SER795  GLU796  ALA797  LYS798  CYS799  TRP800  GLU811  SER814 

> <Gold.Protein.RotatedAtoms>
  152.4444  134.5524  159.9870 H   0  0  0  0  0  0  0  0  0  0  0  0  # atno 6907 bound_to 6896
  151.5613  133.3397  159.2979 H   0  0  0  0  0  0  0  0  0  0  0  0  # atno 6908 bound_to 6896
  150.8357  134.7662  159.6955 H   0  0  0  0  0  0  0  0  0  0  0  0  # atno 6909 bound_to 6896
  145.5518  139.2296  143.2508 H   0  0  0  0  0  0  0  0  0  0  0  0  # atno 7974 bound_to 7965
  155.6767  140.3497  155.4839 H   0  0  0  0  0  0  0  0  0  0  0  0  # atno 8008 bound_to 7997
  155.9642  140.1143  157.0892 H   0  0  0  0  0  0  0  0  0  0  0  0  # atno 8009 bound_to 7997
  154.4150  140.1169  156.5206 H   0  0  0  0  0  0  0  0  0  0  0  0  # atno 8010 bound_to 7997
  139.8059  144.6794  150.9704 H   0  0  0  0  0  0  0  0  0  0  0  0  # atno 10167 bound_to 10162
  157.5585  131.1091  150.8580 H   0  0  0  0  0  0  0  0  0  0  0  0  # atno 10718 bound_to 10713
  153.0696  135.4967  154.8275 H   0  0  0  0  0  0  0  0  0  0  0  0  # atno 10763 bound_to 10752
  154.7003  135.3000  154.9353 H   0  0  0  0  0  0  0  0  0  0  0  0  # atno 10764 bound_to 10752
  154.0079  135.6758  153.4816 H   0  0  0  0  0  0  0  0  0  0  0  0  # atno 10765 bound_to 10752
  140.1532  134.8660  157.2481 H   0  0  0  0  0  0  0  0  0  0  0  0  # atno 11005 bound_to 11000
  146.1912  140.6341  142.9145 LP  0  0  0  0  0  0  0  0  0  0  0  0  # atno 17320 bound_to 7965
  144.7526  140.5228  143.6791 LP  0  0  0  0  0  0  0  0  0  0  0  0  # atno 17321 bound_to 7965
  140.7819  143.4234  151.0806 LP  0  0  0  0  0  0  0  0  0  0  0  0  # atno 17342 bound_to 10162
  139.7903  143.8228  152.3151 LP  0  0  0  0  0  0  0  0  0  0  0  0  # atno 17343 bound_to 10162
  156.9084  130.5272  149.5281 LP  0  0  0  0  0  0  0  0  0  0  0  0  # atno 17370 bound_to 10713
  156.0641  130.5687  150.9252 LP  0  0  0  0  0  0  0  0  0  0  0  0  # atno 17371 bound_to 10713
  140.2579  134.3606  155.7417 LP  0  0  0  0  0  0  0  0  0  0  0  0  # atno 17394 bound_to 11000
  141.2201  133.7353  156.9035 LP  0  0  0  0  0  0  0  0  0  0  0  0  # atno 17395 bound_to 11000

$$$$
