AV-unprocessed.smi:1809|AV-procd|sdf|7316|dock2
  -GOLD-   22720 8573D 1   1.00000     0.00000
 Structure written by MMmdl.
 40 42  0  0  0  0  0  0  0  0  2 V2000
  152.9818  143.1964  160.3435 C   0  0  0  0  0  0  0  0  0  0  0  0
  152.2247  142.6305  159.1909 C   0  0  0  0  0  0  0  0  0  0  0  0
  152.3848  141.3719  158.7638 N   0  0  0  0  0  0  0  0  0  0  0  0
  151.5692  141.0760  157.6804 N   0  0  0  0  0  0  0  0  0  0  0  0
  150.8152  142.1241  157.3219 C   0  0  0  0  0  0  0  0  0  0  0  0
  149.8899  142.0991  156.2453 N   0  0  0  0  0  0  0  0  0  0  0  0
  149.7939  141.1992  155.2509 C   0  0  0  0  0  0  0  0  0  0  0  0
  150.5204  140.2158  155.1052 O   0  0  0  0  0  0  0  0  0  0  0  0
  148.7947  141.5057  154.4114 N   0  0  0  0  0  0  0  0  0  0  0  0
  148.4290  140.7297  153.2312 C   0  0  0  0  0  0  0  0  0  0  0  0
  147.0170  140.1296  153.3521 C   0  0  1  0  0  0  0  0  0  0  0  0
  146.8033  138.9571  152.3666 C   0  0  0  0  0  0  0  0  0  0  0  0
  145.4753  138.3725  152.6268 N   0  3  1  0  0  0  0  0  0  0  0  0
  145.0317  137.2414  151.7938 C   0  0  0  0  0  0  0  0  0  0  0  0
  143.9852  136.5048  152.6549 C   0  0  0  0  0  0  0  0  0  0  0  0
  144.0165  137.1935  154.0318 C   0  0  0  0  0  0  0  0  0  0  0  0
  145.3537  137.9266  154.0166 C   0  0  2  0  0  0  0  0  0  0  0  0
  145.5330  139.1327  154.9475 C   0  0  0  0  0  0  0  0  0  0  0  0
  146.8299  139.6774  154.6986 O   0  0  0  0  0  0  0  0  0  0  0  0
  151.0440  143.5718  158.2880 S   0  0  0  0  0  0  0  0  0  0  0  0
  153.7805  142.5197  160.6491 H   0  0  0  0  0  0  0  0  0  0  0  0
  152.3111  143.3510  161.1887 H   0  0  0  0  0  0  0  0  0  0  0  0
  153.4235  144.1538  160.0663 H   0  0  0  0  0  0  0  0  0  0  0  0
  149.2218  142.8554  156.2323 H   0  0  0  0  0  0  0  0  0  0  0  0
  148.2476  142.3332  154.6001 H   0  0  0  0  0  0  0  0  0  0  0  0
  148.4987  141.3616  152.3442 H   0  0  0  0  0  0  0  0  0  0  0  0
  149.1635  139.9342  153.1023 H   0  0  0  0  0  0  0  0  0  0  0  0
  146.2765  140.9029  153.1393 H   0  0  0  0  0  0  0  0  0  0  0  0
  146.8548  139.3079  151.3352 H   0  0  0  0  0  0  0  0  0  0  0  0
  147.5764  138.1975  152.4937 H   0  0  0  0  0  0  0  0  0  0  0  0
  144.6238  137.5911  150.8449 H   0  0  0  0  0  0  0  0  0  0  0  0
  145.8740  136.5813  151.5804 H   0  0  0  0  0  0  0  0  0  0  0  0
  142.9891  136.5585  152.2143 H   0  0  0  0  0  0  0  0  0  0  0  0
  144.2483  135.4503  152.7436 H   0  0  0  0  0  0  0  0  0  0  0  0
  143.1953  137.9076  154.1092 H   0  0  0  0  0  0  0  0  0  0  0  0
  143.9304  136.4899  154.8606 H   0  0  0  0  0  0  0  0  0  0  0  0
  146.1441  137.2006  154.2204 H   0  0  0  0  0  0  0  0  0  0  0  0
  144.7641  139.8883  154.7794 H   0  0  0  0  0  0  0  0  0  0  0  0
  145.4669  138.8241  155.9910 H   0  0  0  0  0  0  0  0  0  0  0  0
  144.7930  139.1065  152.5003 H   0  0  0  0  0  0  0  0  0  0  0  0
  1  2  1  0  0  0  0
  1 21  1  0  0  0  0
  1 22  1  0  0  0  0
  1 23  1  0  0  0  0
  2 20  1  0  0  0  0
  2  3  2  0  0  0  0
  3  4  1  0  0  0  0
  4  5  2  0  0  0  0
  5  6  1  0  0  0  0
  5 20  1  0  0  0  0
  6  7  1  0  0  0  0
  6 24  1  0  0  0  0
  7  8  2  0  0  0  0
  7  9  1  0  0  0  0
  9 10  1  0  0  0  0
  9 25  1  0  0  0  0
 10 11  1  0  0  0  0
 10 26  1  0  0  0  0
 10 27  1  0  0  0  0
 11 19  1  0  0  0  0
 11 12  1  0  0  0  0
 11 28  1  0  0  0  0
 12 13  1  0  0  0  0
 12 29  1  0  0  0  0
 12 30  1  0  0  0  0
 13 17  1  0  0  0  0
 13 14  1  0  0  0  0
 13 40  1  0  0  0  0
 14 15  1  0  0  0  0
 14 31  1  0  0  0  0
 14 32  1  0  0  0  0
 15 16  1  0  0  0  0
 15 33  1  0  0  0  0
 15 34  1  0  0  0  0
 16 17  1  0  0  0  0
 16 35  1  0  0  0  0
 16 36  1  0  0  0  0
 17 18  1  0  0  0  0
 17 37  1  0  0  0  0
 18 19  1  0  0  0  0
 18 38  1  0  0  0  0
 18 39  1  0  0  0  0
M  CHG  1  13   1
M  END
> <s_m_source_file>
AV-unprocessed.smi

> <i_m_source_file_index>
1809

> <i_lp_mmshare_version>
43012

> <i_f3d_flags>
0

> <s_epik_input>
W0NIM11jMW5uYyhzMSlbTkhdQyg9TylbTkhdW0NIMl1bQ0BIXShbQ0gyXTIpT1tDSDJdW0NAQEhdKE4yMylbQ0gyXVtDSDJdW0NIMl0z

> <s_epik_cmdline>
J2VwaWtfcHl0aG9uJywgJy1waCcsICc3LjAnLCAnLXRuJywgJzgnLCAnLW1hJywgJzIwMCcsICctbWV0YWxfYmluZGluZycsICctaW1hZScsICc8aW5maWxlLm1hZT4nLCAnLW9tYWUnLCAnPG91dGZpbGUubWFlPic=

> <r_lp_tautomer_probability>
1

> <r_epik_Ionization_Penalty>
0.112474

> <r_epik_Ionization_Penalty_Charging>
0.108916

> <r_epik_Ionization_Penalty_Neutral>
0.00355844

> <r_epik_State_Penalty>
0.0565397

> <r_epik_Charging_Adjusted_Penalty>
0.165456

> <i_epik_Tot_Q>
1

> <i_epik_Tot_abs_Q>
1

> <r_epik_Metal_State_Penalty>
0.422831

> <b_epik_Metal_Only>
0

> <s_lp_Force_Field>
OPLS_2005

> <r_lp_Energy>
33.8042

> <b_lp_Chiralities_Consistent>
1

> <s_lp_Variant>
AV-unprocessed.smi:1809-8

> <Gold.Version>
5.8.1

> <Gold.Id.Protein>
6NUR|6NUR_protein|mol2

> <Gold.PLP.Fitness>
39.2575

> <Gold.PLP.PLP>
-28.0062

> <Gold.PLP.part.hbond>
-3.2339

> <Gold.PLP.part.metal>
0.0000

> <Gold.PLP.part.buried>
3.2792

> <Gold.PLP.part.nonpolar>
-27.9238

> <Gold.PLP.part.repulsive>
0.4474

> <Gold.PLP.ligand.clash>
0.0000

> <Gold.PLP.ligand.torsion>
0.2437

> <Gold.PLP.Chemscore.Hbond>
3.9120

> <Gold.PLP.Chemscore.CHOScore>
0.0000

> <Gold.PLP.Chemscore.Metal>
0.0000

> <Gold.Chemscore.Hbonds>
donor molecule, donor type, donor heavy atom, donor atom, acceptor molecule, acceptor atom, score
      L1  H     6    24       P1  8028  0.91
      L1  H    13    40       P1 10175  2.00
      P1  H  7989  7998       L1     8  0.88

> <Gold.PLP.Chemscore.Internal.Correction>
0.0027

> <Gold.Rescore>
     Score         DG    S(hbond)    S(metal)    S(lipo)     H(rot)  DE(clash)    DE(int)     intcor
     15.46     -18.60       2.44        0.00      71.87       1.34       1.66       1.48       ----

> <Gold.Chemscore.Fitness>
15.4582

> <Gold.Chemscore.DG>
-18.5981

> <Gold.Chemscore.ZeroCoef>
-5.4800

> <Gold.Chemscore.Hbond>
2.4365

> <Gold.Chemscore.Metal>
0.0000

> <Gold.Chemscore.Lipo>
71.8654

> <Gold.Chemscore.Internal_Hbond>
0.0000

> <Gold.Chemscore.DEClash>
1.6624

> <Gold.Chemscore.DEInternal>
1.4776

> <Gold.Chemscore.Rot>
1.3391

> <Gold.Chemscore.Internal.Correction>
   9.000000E+99

> <Gold.Chemscore.Hbonds>
donor molecule, donor type, donor heavy atom, donor atom, acceptor molecule, acceptor atom, score
      L1  H     6    24       P1  8028  0.88
      L1  H    13    40       P1 10175  1.00
      P1  H  7989  7998       L1     8  0.19

> <Gold.Chemscore.Hbond.Weighted>
-8.1379

> <Gold.Chemscore.Metal.Weighted>
-0.0000

> <Gold.Chemscore.Lipo.Weighted>
-8.4083

> <Gold.Chemscore.Internal_Hbond.Weighted>
0.0000

> <Gold.Chemscore.DEClash.Weighted>
1.6624

> <Gold.Chemscore.DEInternal.Weighted>
1.4776

> <Gold.Chemscore.Rot.Weighted>
3.4281

> <Gold.Chemscore.Internal.Correction.Weighted>
   9.000000E+99

> <Gold.Protein.RotatedTorsions>
[ 6907 6896 6895 6894 ] final   30.29 input  -60.11 | X-H torsion
[ 7974 7965 7964 7962 ] final  106.69 input  175.53 | X-H torsion
[ 8008 7997 7996 7995 ] final   95.60 input   59.86 | X-H torsion
[ 10167 10162 10161 10158 ] final  108.19 input  -65.29 | X-H torsion
[ 10718 10713 10712 10709 ] final   56.92 input   66.30 | X-H torsion
[ 10763 10752 10751 10750 ] final  117.26 input  -60.55 | X-H torsion
[ 11005 11000 10999 10996 ] final  174.02 input  -57.11 | X-H torsion

> <Gold.Protein.ActiveResidues>
 VAL166  LYS551  ARG553  GLY616  TRP617  ASP618  TYR619  PRO620  LYS621  CYS622 
 ASP623  PHE694  ASN695  SER759  ASP760  ASP761  ALA762  ILE779  LEU786  VAL792 
 PHE793  MET794  SER795  GLU796  ALA797  LYS798  CYS799  TRP800  GLU811  SER814 

> <Gold.Protein.RotatedAtoms>
  152.0439  134.9695  160.0573 H   0  0  0  0  0  0  0  0  0  0  0  0  # atno 6907 bound_to 6896
  152.1123  133.4302  159.4645 H   0  0  0  0  0  0  0  0  0  0  0  0  # atno 6908 bound_to 6896
  150.6844  134.2552  159.4570 H   0  0  0  0  0  0  0  0  0  0  0  0  # atno 6909 bound_to 6896
  145.3033  139.2563  143.3802 H   0  0  0  0  0  0  0  0  0  0  0  0  # atno 7974 bound_to 7965
  156.0706  140.3284  155.7572 H   0  0  0  0  0  0  0  0  0  0  0  0  # atno 8008 bound_to 7997
  155.5311  140.0593  157.2906 H   0  0  0  0  0  0  0  0  0  0  0  0  # atno 8009 bound_to 7997
  154.4528  140.1927  156.0485 H   0  0  0  0  0  0  0  0  0  0  0  0  # atno 8010 bound_to 7997
  139.6866  144.7113  151.1421 H   0  0  0  0  0  0  0  0  0  0  0  0  # atno 10167 bound_to 10162
  157.5471  130.8739  149.8908 H   0  0  0  0  0  0  0  0  0  0  0  0  # atno 10718 bound_to 10713
  153.5496  135.3542  155.2754 H   0  0  0  0  0  0  0  0  0  0  0  0  # atno 10763 bound_to 10752
  154.8708  135.4110  154.2952 H   0  0  0  0  0  0  0  0  0  0  0  0  # atno 10764 bound_to 10752
  153.3675  135.7063  153.6732 H   0  0  0  0  0  0  0  0  0  0  0  0  # atno 10765 bound_to 10752
  140.3468  134.7229  157.4240 H   0  0  0  0  0  0  0  0  0  0  0  0  # atno 11005 bound_to 11000
  146.3144  140.3552  142.8660 LP  0  0  0  0  0  0  0  0  0  0  0  0  # atno 17320 bound_to 7965
  144.9076  140.7718  143.5828 LP  0  0  0  0  0  0  0  0  0  0  0  0  # atno 17321 bound_to 7965
  140.7669  143.5620  150.9088 LP  0  0  0  0  0  0  0  0  0  0  0  0  # atno 17342 bound_to 10162
  139.9295  143.6509  152.3079 LP  0  0  0  0  0  0  0  0  0  0  0  0  # atno 17343 bound_to 10162
  156.0545  130.3711  150.1123 LP  0  0  0  0  0  0  0  0  0  0  0  0  # atno 17370 bound_to 10713
  156.9299  130.9710  151.3535 LP  0  0  0  0  0  0  0  0  0  0  0  0  # atno 17371 bound_to 10713
  140.0736  134.5829  155.8615 LP  0  0  0  0  0  0  0  0  0  0  0  0  # atno 17394 bound_to 11000
  141.2023  133.6624  156.6000 LP  0  0  0  0  0  0  0  0  0  0  0  0  # atno 17395 bound_to 11000

$$$$
