#       Name:                AV-unprocessed.smi:1696
#       Creating user name   scv26
#       Creation time:       Fri Mar 27 07:57:11 2020


#       File generated by GOLD software.
#

@<TRIPOS>MOLECULE
AV-unprocessed.smi:1696
    42    43     1
SMALL
NO_CHARGES


@<TRIPOS>ATOM
      1 ****        -0.7126   1.4712   1.5026 C.3            1 S1                 0.0000
      2 ****        -1.3342   0.8336   0.2499 C.3            1 S1                 0.0000
      3 ****        -0.9214  -0.6424  -0.0002 C.3            1 S1                 0.0000
      4 ****         0.5961  -0.7996  -0.2775 C.3            1 S1                 0.0000
      5 ****         1.0358   0.0342  -1.3928 N.am           1 S1                 0.0000
      6 ****         1.9477   1.0157  -1.3472 C.2            1 S1                 0.0000
      7 ****         2.5266   1.2764  -0.2904 O.2            1 S1                 0.0000
      8 ****         2.1285   1.6367  -2.5340 N.pl3          1 S1                -1.0000
      9 ****         3.0139   2.6410  -2.6386 C.2            1 S1                 0.0000
     10 ****         2.6651   3.9313  -2.5777 N.2            1 S1                 0.0000
     11 ****         3.7452   4.8050  -2.7156 C.2            1 S1                 0.0000
     12 ****         4.9430   4.1652  -2.8947 C.2            1 S1                 0.0000
     13 ****         4.7489   2.4355  -2.8951 S.3            1 S1                 0.0000
     14 ****        -1.3776  -1.5212   1.1167 N.4            1 S1                 1.0000
     15 ****        -2.8444  -1.5392   1.3514 C.3            1 S1                 0.0000
     16 ****        -3.2281  -2.9768   1.7292 C.3            1 S1                 0.0000
     17 ****        -1.8995  -3.6826   1.9727 C.3            1 S1                 0.0000
     18 ****        -0.9430  -2.9336   1.0527 C.3            1 S1                 0.0000
     19 ****        -1.0621   2.4967   1.6228 H              1 S1                 0.0000
     20 ****         0.3745   1.5052   1.4409 H              1 S1                 0.0000
     21 ****        -0.9812   0.9250   2.4068 H              1 S1                 0.0000
     22 ****        -2.4186   0.9130   0.3211 H              1 S1                 0.0000
     23 ****        -1.0730   1.4414  -0.6167 H              1 S1                 0.0000
     24 ****        -1.4431  -0.9765  -0.8988 H              1 S1                 0.0000
     25 ****         1.1688  -0.6022   0.6297 H              1 S1                 0.0000
     26 ****         0.8310  -1.8247  -0.5630 H              1 S1                 0.0000
     27 ****         0.5986  -0.1378  -2.2865 H              1 S1                 0.0000
     28 ****         3.5690   5.8698  -2.6761 H              1 S1                 0.0000
     29 ****         5.9213   4.6018  -3.0271 H              1 S1                 0.0000
     30 ****        -3.0863  -0.8404   2.1528 H              1 S1                 0.0000
     31 ****        -3.4012  -1.2333   0.4644 H              1 S1                 0.0000
     32 ****        -3.8890  -3.0218   2.5955 H              1 S1                 0.0000
     33 ****        -3.7461  -3.4494   0.8933 H              1 S1                 0.0000
     34 ****        -1.5937  -3.5520   3.0117 H              1 S1                 0.0000
     35 ****        -1.9404  -4.7521   1.7641 H              1 S1                 0.0000
     36 ****        -1.0478  -3.3061   0.0322 H              1 S1                 0.0000
     37 ****         0.0966  -3.0559   1.3585 H              1 S1                 0.0000
     38 ****        -0.9660  -1.1507   1.9616 H              1 S1                 0.0000
     39 ****         2.3165   0.7550   0.5367 LP             1 S1                 0.0000
     40 ****         3.2062   2.0093  -0.2602 LP             1 S1                 0.0000
     41 ****         1.6028   1.3483  -3.3343 LP             1 S1                 0.0000
     42 ****         1.7229   4.2396  -2.4462 LP             1 S1                 0.0000
@<TRIPOS>BOND
    1    1    2 1     
    2    1   19 1     
    3    1   20 1     
    4    1   21 1     
    5    2    3 1     
    6    2   22 1     
    7    2   23 1     
    8    3    4 1     
    9    3   14 1     
   10    3   24 1     
   11    4    5 1     
   12    4   25 1     
   13    4   26 1     
   14    5    6 am    
   15    5   27 1     
   16    6    7 2     
   17    6    8 1     
   18    8    9 1     
   19    9   13 1     
   20    9   10 2     
   21   10   11 1     
   22   11   12 2     
   23   11   28 1     
   24   12   13 1     
   25   12   29 1     
   26   14   18 1     
   27   14   15 1     
   28   14   38 1     
   29   15   16 1     
   30   15   30 1     
   31   15   31 1     
   32   16   17 1     
   33   16   32 1     
   34   16   33 1     
   35   17   18 1     
   36   17   34 1     
   37   17   35 1     
   38   18   36 1     
   39   18   37 1     
   40    7   39 1     
   41    7   40 1     
   42    8   41 1     
   43   10   42 1     
@<TRIPOS>SUBSTRUCTURE
      1 S1             1
@<TRIPOS>SET
LONE_PAIRS      STATIC     ATOMS    <user>   **** ""
4 39 40 41 42
DONOR_HYDROGENS      STATIC     ATOMS    <user>   **** ""
2 27 38
ATOM$BLUE        STATIC     ATOMS    COLORGROUP SYSTEM
4 39 40 41 42
ATOM$RED        STATIC     ATOMS    COLORGROUP SYSTEM
2 27 38
