#       Name:                AV-unprocessed.smi:1054
#       Creating user name   scv26
#       Creation time:       Fri Mar 27 03:12:34 2020


#       File generated by GOLD software.
#

@<TRIPOS>MOLECULE
AV-unprocessed.smi:1054
    42    43     1
SMALL
NO_CHARGES


@<TRIPOS>ATOM
      1 ****        -0.1357   1.6524   0.1078 O.2            1 S1                 0.0000
      2 ****        -0.5954   0.5127   0.0350 C.2            1 S1                 0.0000
      3 ****        -1.9033   0.2094  -0.0385 N.am           1 S1                 0.0000
      4 ****        -3.0131   1.0959  -0.0460 C.ar           1 S1                 0.0000
      5 ****        -4.2773   0.4698  -0.1306 C.ar           1 S1                 0.0000
      6 ****        -5.4428   1.2602  -0.1452 C.ar           1 S1                 0.0000
      7 ****        -5.3141   2.6587  -0.0748 C.ar           1 S1                 0.0000
      8 ****        -4.0189   3.2019   0.0081 C.ar           1 S1                 0.0000
      9 ****        -2.9004   2.4462   0.0218 N.ar           1 S1                 0.0000
     10 ****         0.1560  -0.6017   0.0207 N.am           1 S1                 0.0000
     11 ****         1.6197  -0.7205   0.1067 C.3            1 S1                 0.0000
     12 ****         2.1273  -0.1530   1.4626 C.3            1 S1                 0.0000
     13 ****         1.5632  -0.8334   2.5665 O.3            1 S1                 0.0000
     14 ****         1.9569  -2.2241  -0.0512 C.3            1 S1                 0.0000
     15 ****         3.4529  -2.4791  -0.3026 C.3            1 S1                 0.0000
     16 ****         3.8793  -1.7614  -1.4522 O.3            1 S1                 0.0000
     17 ****         3.7499  -0.3551  -1.2957 C.3            1 S1                 0.0000
     18 ****         2.2727   0.0248  -1.0874 C.3            1 S1                 0.0000
     19 ****        -2.1323  -0.7717  -0.0919 H              1 S1                 0.0000
     20 ****        -4.3580  -0.6063  -0.1841 H              1 S1                 0.0000
     21 ****        -6.4179   0.8004  -0.2099 H              1 S1                 0.0000
     22 ****        -6.1844   3.2982  -0.0841 H              1 S1                 0.0000
     23 ****        -3.8765   4.2710   0.0646 H              1 S1                 0.0000
     24 ****        -0.3409  -1.4782  -0.0385 H              1 S1                 0.0000
     25 ****         3.2104  -0.2368   1.5426 H              1 S1                 0.0000
     26 ****         1.9024   0.9090   1.5588 H              1 S1                 0.0000
     27 ****         1.8837  -0.4334   3.3603 H              1 S1                 0.0000
     28 ****         1.6238  -2.7946   0.8163 H              1 S1                 0.0000
     29 ****         1.4041  -2.6300  -0.9002 H              1 S1                 0.0000
     30 ****         4.0558  -2.2022   0.5630 H              1 S1                 0.0000
     31 ****         3.6233  -3.5418  -0.4747 H              1 S1                 0.0000
     32 ****         4.3694  -0.0105  -0.4671 H              1 S1                 0.0000
     33 ****         4.1334   0.1311  -2.1928 H              1 S1                 0.0000
     34 ****         1.7316  -0.2144  -2.0043 H              1 S1                 0.0000
     35 ****         2.1953   1.1050  -0.9635 H              1 S1                 0.0000
     36 ****        -0.7514   2.4404   0.1155 LP             1 S1                 0.0000
     37 ****         0.8534   1.7903   0.1592 LP             1 S1                 0.0000
     38 ****        -1.9997   2.8765   0.0812 LP             1 S1                 0.0000
     39 ****         1.8311  -1.7965   2.5420 LP             1 S1                 0.0000
     40 ****         0.5662  -0.7637   2.5323 LP             1 S1                 0.0000
     41 ****         3.3255  -2.0492  -2.2335 LP             1 S1                 0.0000
     42 ****         4.8399  -1.9774  -1.6269 LP             1 S1                 0.0000
@<TRIPOS>BOND
    1    1    2 2     
    2    2    3 am    
    3    2   10 am    
    4    3    4 1     
    5    3   19 1     
    6    4    9 ar    
    7    4    5 ar    
    8    5    6 ar    
    9    5   20 1     
   10    6    7 ar    
   11    6   21 1     
   12    7    8 ar    
   13    7   22 1     
   14    8    9 ar    
   15    8   23 1     
   16   10   11 1     
   17   10   24 1     
   18   11   18 1     
   19   11   12 1     
   20   11   14 1     
   21   12   13 1     
   22   12   25 1     
   23   12   26 1     
   24   13   27 1     
   25   14   15 1     
   26   14   28 1     
   27   14   29 1     
   28   15   16 1     
   29   15   30 1     
   30   15   31 1     
   31   16   17 1     
   32   17   18 1     
   33   17   32 1     
   34   17   33 1     
   35   18   34 1     
   36   18   35 1     
   37    1   36 1     
   38    1   37 1     
   39    9   38 1     
   40   13   39 1     
   41   13   40 1     
   42   16   41 1     
   43   16   42 1     
@<TRIPOS>SUBSTRUCTURE
      1 S1             1
@<TRIPOS>SET
LONE_PAIRS      STATIC     ATOMS    <user>   **** ""
7 36 37 38 39 40 41 42
DONOR_HYDROGENS      STATIC     ATOMS    <user>   **** ""
3 19 24 27
ATOM$BLUE        STATIC     ATOMS    COLORGROUP SYSTEM
7 36 37 38 39 40 41 42
ATOM$RED        STATIC     ATOMS    COLORGROUP SYSTEM
3 19 24 27
