AV-unprocessed.smi:557|AV-procd|sdf|2920|dock5
  -GOLD-   2262023413D 1   1.00000     0.00000
 Structure written by MMmdl.
 47 49  0  0  0  0  0  0  0  0  2 V2000
  148.6508  140.8132  154.2196 C   0  0  0  0  0  0  0  0  0  0  0  0
  149.7027  139.8774  154.5545 N   0  0  0  0  0  0  0  0  0  0  0  0
  149.7392  138.5146  154.3510 C   0  0  0  0  0  0  0  0  0  0  0  0
  150.9359  138.0602  154.8295 C   0  0  0  0  0  0  0  0  0  0  0  0
  151.4680  136.6545  154.8515 C   0  0  0  0  0  0  0  0  0  0  0  0
  150.4530  135.6779  155.4602 C   0  0  0  0  0  0  0  0  0  0  0  0
  149.4249  135.3301  154.4828 N   0  0  0  0  0  0  0  0  0  0  0  0
  148.5592  134.3042  154.5428 C   0  0  0  0  0  0  0  0  0  0  0  0
  148.5485  133.5156  155.4859 O   0  0  0  0  0  0  0  0  0  0  0  0
  147.7172  134.2215  153.4987 N   0  0  0  0  0  0  0  0  0  0  0  0
  146.6904  133.1987  153.3239 C   0  0  2  0  0  0  0  0  0  0  0  0
  147.2633  131.7702  153.3258 C   0  0  0  0  0  0  0  0  0  0  0  0
  146.4495  131.0012  152.2668 C   0  0  0  0  0  0  0  0  0  0  0  0
  145.4161  131.9474  151.8056 N   0  3  2  0  0  0  0  0  0  0  0  0
  144.8449  131.7190  150.4605 C   0  0  0  0  0  0  0  0  0  0  0  0
  143.7280  132.7494  150.2018 C   0  0  0  0  0  0  0  0  0  0  0  0
  144.2211  134.1938  150.4240 C   0  0  0  0  0  0  0  0  0  0  0  0
  144.8929  134.3478  151.8025 C   0  0  0  0  0  0  0  0  0  0  0  0
  145.9982  133.2893  151.9610 C   0  0  1  0  0  0  0  0  0  0  0  0
  151.5694  139.2417  155.3099 C   0  0  0  0  0  0  0  0  0  0  0  0
  150.8299  140.3262  155.1441 N   0  0  0  0  0  0  0  0  0  0  0  0
  147.7450  140.2731  153.9420 H   0  0  0  0  0  0  0  0  0  0  0  0
  148.9653  141.4344  153.3806 H   0  0  0  0  0  0  0  0  0  0  0  0
  148.4328  141.4515  155.0763 H   0  0  0  0  0  0  0  0  0  0  0  0
  148.9192  137.9856  153.8881 H   0  0  0  0  0  0  0  0  0  0  0  0
  151.7216  136.3287  153.8420 H   0  0  0  0  0  0  0  0  0  0  0  0
  152.3979  136.6091  155.4200 H   0  0  0  0  0  0  0  0  0  0  0  0
  150.9616  134.7705  155.7899 H   0  0  0  0  0  0  0  0  0  0  0  0
  149.9859  136.1289  156.3374 H   0  0  0  0  0  0  0  0  0  0  0  0
  149.3593  135.9339  153.6758 H   0  0  0  0  0  0  0  0  0  0  0  0
  147.8007  134.9155  152.7700 H   0  0  0  0  0  0  0  0  0  0  0  0
  145.9426  133.2679  154.1171 H   0  0  0  0  0  0  0  0  0  0  0  0
  148.3202  131.7629  153.0550 H   0  0  0  0  0  0  0  0  0  0  0  0
  147.1761  131.3153  154.3131 H   0  0  0  0  0  0  0  0  0  0  0  0
  147.0951  130.7157  151.4349 H   0  0  0  0  0  0  0  0  0  0  0  0
  145.9938  130.0957  152.6683 H   0  0  0  0  0  0  0  0  0  0  0  0
  145.6266  131.8049  149.7043 H   0  0  0  0  0  0  0  0  0  0  0  0
  144.4449  130.7063  150.3994 H   0  0  0  0  0  0  0  0  0  0  0  0
  143.3429  132.6371  149.1879 H   0  0  0  0  0  0  0  0  0  0  0  0
  142.8908  132.5492  150.8719 H   0  0  0  0  0  0  0  0  0  0  0  0
  144.9346  134.4562  149.6418 H   0  0  0  0  0  0  0  0  0  0  0  0
  143.3897  134.8934  150.3309 H   0  0  0  0  0  0  0  0  0  0  0  0
  145.3086  135.3506  151.9004 H   0  0  0  0  0  0  0  0  0  0  0  0
  144.1495  134.2375  152.5932 H   0  0  0  0  0  0  0  0  0  0  0  0
  146.7532  133.4332  151.1844 H   0  0  0  0  0  0  0  0  0  0  0  0
  152.5398  139.3419  155.7732 H   0  0  0  0  0  0  0  0  0  0  0  0
  144.6564  131.8885  152.4689 H   0  0  0  0  0  0  0  0  0  0  0  0
  1  2  1  0  0  0  0
  1 22  1  0  0  0  0
  1 23  1  0  0  0  0
  1 24  1  0  0  0  0
  2 21  1  0  0  0  0
  2  3  1  0  0  0  0
  3  4  2  0  0  0  0
  3 25  1  0  0  0  0
  4  5  1  0  0  0  0
  4 20  1  0  0  0  0
  5  6  1  0  0  0  0
  5 26  1  0  0  0  0
  5 27  1  0  0  0  0
  6  7  1  0  0  0  0
  6 28  1  0  0  0  0
  6 29  1  0  0  0  0
  7  8  1  0  0  0  0
  7 30  1  0  0  0  0
  8  9  2  0  0  0  0
  8 10  1  0  0  0  0
 10 11  1  0  0  0  0
 10 31  1  0  0  0  0
 11 19  1  0  0  0  0
 11 12  1  0  0  0  0
 11 32  1  0  0  0  0
 12 13  1  0  0  0  0
 12 33  1  0  0  0  0
 12 34  1  0  0  0  0
 13 14  1  0  0  0  0
 13 35  1  0  0  0  0
 13 36  1  0  0  0  0
 14 19  1  0  0  0  0
 14 15  1  0  0  0  0
 14 47  1  0  0  0  0
 15 16  1  0  0  0  0
 15 37  1  0  0  0  0
 15 38  1  0  0  0  0
 16 17  1  0  0  0  0
 16 39  1  0  0  0  0
 16 40  1  0  0  0  0
 17 18  1  0  0  0  0
 17 41  1  0  0  0  0
 17 42  1  0  0  0  0
 18 19  1  0  0  0  0
 18 43  1  0  0  0  0
 18 44  1  0  0  0  0
 19 45  1  0  0  0  0
 20 21  2  0  0  0  0
 20 46  1  0  0  0  0
M  CHG  1  14   1
M  END
> <s_m_source_file>
AV-unprocessed.smi

> <i_m_source_file_index>
557

> <i_lp_mmshare_version>
43012

> <i_f3d_flags>
0

> <s_epik_input>
W0NIM11uMVtjSF1jKFtjSF1uMSlbQ0gyXVtDSDJdW05IXUMoPU8pW05IXVtDQEhdKFtDSDJdW0NIMl0yKVtDQEhdKE4yMylbQ0gyXVtDSDJdW0NIMl1bQ0gyXTM=

> <s_epik_cmdline>
J2VwaWtfcHl0aG9uJywgJy1waCcsICc3LjAnLCAnLXRuJywgJzgnLCAnLW1hJywgJzIwMCcsICctbWV0YWxfYmluZGluZycsICctaW1hZScsICc8aW5maWxlLm1hZT4nLCAnLW9tYWUnLCAnPG91dGZpbGUubWFlPic=

> <r_lp_tautomer_probability>
1

> <r_epik_Ionization_Penalty>
0.000956547

> <r_epik_Ionization_Penalty_Charging>
0.000435796

> <r_epik_Ionization_Penalty_Neutral>
0.000520752

> <r_epik_State_Penalty>
-0

> <r_epik_Charging_Adjusted_Penalty>
0.000435796

> <i_epik_Tot_Q>
1

> <i_epik_Tot_abs_Q>
1

> <r_epik_Metal_State_Penalty>
-0

> <b_epik_Metal_Only>
0

> <s_lp_Force_Field>
OPLS_2005

> <r_lp_Energy>
39.998

> <b_lp_Chiralities_Consistent>
1

> <s_lp_Variant>
AV-unprocessed.smi:557-7

> <Gold.Version>
5.8.1

> <Gold.Id.Protein>
6NUR|6NUR_protein|mol2

> <Gold.PLP.Fitness>
46.8535

> <Gold.PLP.PLP>
-36.8559

> <Gold.PLP.part.hbond>
-3.0000

> <Gold.PLP.part.metal>
0.0000

> <Gold.PLP.part.buried>
-1.0394

> <Gold.PLP.part.nonpolar>
-32.8444

> <Gold.PLP.part.repulsive>
0.1211

> <Gold.PLP.ligand.clash>
0.0000

> <Gold.PLP.ligand.torsion>
0.2889

> <Gold.PLP.Chemscore.Hbond>
2.6560

> <Gold.PLP.Chemscore.CHOScore>
0.8623

> <Gold.PLP.Chemscore.Metal>
0.0000

> <Gold.Chemscore.Hbonds>
donor molecule, donor type, donor heavy atom, donor atom, acceptor molecule, acceptor atom, score
      L1  H     7    30       P1  7948  1.00
      L1  H    10    31       P1  7948  0.94
      P1  H  7989  7998       L1    21  0.56
      L1  C     3    25       P1  7948  0.65

> <Gold.PLP.Chemscore.Internal.Correction>
0.0205

> <Gold.Rescore>
     Score         DG    S(hbond)    S(metal)    S(lipo)     H(rot)  DE(clash)    DE(int)     intcor
     17.42     -17.94       1.70        0.00      93.06       1.60       0.34       0.18       ----

> <Gold.Chemscore.Fitness>
17.4190

> <Gold.Chemscore.DG>
-17.9419

> <Gold.Chemscore.ZeroCoef>
-5.4800

> <Gold.Chemscore.Hbond>
1.6989

> <Gold.Chemscore.Metal>
0.0000

> <Gold.Chemscore.Lipo>
93.0616

> <Gold.Chemscore.Internal_Hbond>
0.0000

> <Gold.Chemscore.DEClash>
0.3402

> <Gold.Chemscore.DEInternal>
0.1827

> <Gold.Chemscore.Rot>
1.6018

> <Gold.Chemscore.Internal.Correction>
   9.000000E+99

> <Gold.Chemscore.Hbonds>
donor molecule, donor type, donor heavy atom, donor atom, acceptor molecule, acceptor atom, score
      L1  H     7    30       P1  7948  0.62
      L1  H    10    31       P1  7948  0.86
      P1  H  7989  7998       L1    21  0.01

> <Gold.Chemscore.Hbond.Weighted>
-5.6743

> <Gold.Chemscore.Metal.Weighted>
-0.0000

> <Gold.Chemscore.Lipo.Weighted>
-10.8882

> <Gold.Chemscore.Internal_Hbond.Weighted>
0.0000

> <Gold.Chemscore.DEClash.Weighted>
0.3402

> <Gold.Chemscore.DEInternal.Weighted>
0.1827

> <Gold.Chemscore.Rot.Weighted>
4.1006

> <Gold.Chemscore.Internal.Correction.Weighted>
   9.000000E+99

> <Gold.Protein.RotatedTorsions>
[ 6907 6896 6895 6894 ] final  158.91 input  -60.11 | X-H torsion
[ 7974 7965 7964 7962 ] final  158.78 input  175.53 | X-H torsion
[ 8008 7997 7996 7995 ] final  158.04 input   59.86 | X-H torsion
[ 10167 10162 10161 10158 ] final   62.68 input  -65.29 | X-H torsion
[ 10718 10713 10712 10709 ] final  100.73 input   66.30 | X-H torsion
[ 10763 10752 10751 10750 ] final  146.83 input  -60.55 | X-H torsion
[ 11005 11000 10999 10996 ] final  -95.55 input  -57.11 | X-H torsion

> <Gold.Protein.ActiveResidues>
 VAL166  LYS551  ARG553  GLY616  TRP617  ASP618  TYR619  PRO620  LYS621  CYS622 
 ASP623  PHE694  ASN695  SER759  ASP760  ASP761  ALA762  ILE779  LEU786  VAL792 
 PHE793  MET794  SER795  GLU796  ALA797  LYS798  CYS799  TRP800  GLU811  SER814 

> <Gold.Protein.RotatedAtoms>
  151.9934  133.3799  159.4153 H   0  0  0  0  0  0  0  0  0  0  0  0  # atno 6907 bound_to 6896
  150.6919  134.3912  159.5086 H   0  0  0  0  0  0  0  0  0  0  0  0  # atno 6908 bound_to 6896
  152.1648  134.8882  160.0589 H   0  0  0  0  0  0  0  0  0  0  0  0  # atno 6909 bound_to 6896
  144.7827  139.7525  143.6253 H   0  0  0  0  0  0  0  0  0  0  0  0  # atno 7974 bound_to 7965
  156.2327  140.1869  156.7200 H   0  0  0  0  0  0  0  0  0  0  0  0  # atno 8008 bound_to 7997
  154.6051  140.0630  156.9447 H   0  0  0  0  0  0  0  0  0  0  0  0  # atno 8009 bound_to 7997
  155.2109  140.3300  155.4331 H   0  0  0  0  0  0  0  0  0  0  0  0  # atno 8010 bound_to 7997
  140.1413  144.4551  150.6809 H   0  0  0  0  0  0  0  0  0  0  0  0  # atno 10167 bound_to 10162
  157.6847  131.0706  150.5145 H   0  0  0  0  0  0  0  0  0  0  0  0  # atno 10718 bound_to 10713
  154.0283  135.2900  155.3372 H   0  0  0  0  0  0  0  0  0  0  0  0  # atno 10763 bound_to 10752
  154.7003  135.5191  153.8521 H   0  0  0  0  0  0  0  0  0  0  0  0  # atno 10764 bound_to 10752
  153.0651  135.6628  154.0499 H   0  0  0  0  0  0  0  0  0  0  0  0  # atno 10765 bound_to 10752
  141.1438  133.8034  157.0451 H   0  0  0  0  0  0  0  0  0  0  0  0  # atno 11005 bound_to 11000
  146.2043  139.5357  142.9723 LP  0  0  0  0  0  0  0  0  0  0  0  0  # atno 17320 bound_to 7965
  145.6007  141.0356  143.2020 LP  0  0  0  0  0  0  0  0  0  0  0  0  # atno 17321 bound_to 7965
  140.6759  143.2305  151.5509 LP  0  0  0  0  0  0  0  0  0  0  0  0  # atno 17342 bound_to 10162
  139.5471  144.2493  152.1462 LP  0  0  0  0  0  0  0  0  0  0  0  0  # atno 17343 bound_to 10162
  156.5461  130.4220  149.6130 LP  0  0  0  0  0  0  0  0  0  0  0  0  # atno 17370 bound_to 10713
  156.2943  130.7141  151.1998 LP  0  0  0  0  0  0  0  0  0  0  0  0  # atno 17371 bound_to 10713
  140.0668  134.9724  157.1399 LP  0  0  0  0  0  0  0  0  0  0  0  0  # atno 17394 bound_to 11000
  140.3769  134.2330  155.7173 LP  0  0  0  0  0  0  0  0  0  0  0  0  # atno 17395 bound_to 11000

$$$$
