#       Name:                AV-unprocessed.smi:224
#       Creating user name   scv26
#       Creation time:       Thu Mar 26 20:19:56 2020


#       File generated by GOLD software.
#

@<TRIPOS>MOLECULE
AV-unprocessed.smi:224
    66    69     1
SMALL
NO_CHARGES


@<TRIPOS>ATOM
      1 ****        -4.9208   4.1690  -3.5683 C.3            1 S1                 0.0000
      2 ****        -3.4242   3.9761  -3.2906 C.3            1 S1                 0.0000
      3 ****        -2.7243   4.2488  -4.4883 O.3            1 S1                 0.0000
      4 ****        -3.1083   2.5386  -2.8286 C.3            1 S1                 0.0000
      5 ****        -1.6902   2.3742  -2.3972 N.4            1 S1                 1.0000
      6 ****        -1.4882   2.8917  -1.0136 C.3            1 S1                 0.0000
      7 ****        -0.0243   2.7806  -0.5576 C.3            1 S1                 0.0000
      8 ****         0.4743   1.4206  -0.7259 N.3            1 S1                 0.0000
      9 ****         0.3313   0.5208   0.2841 C.ar           1 S1                 0.0000
     10 ****        -0.5925   0.7393   1.2578 N.ar           1 S1                 0.0000
     11 ****        -0.7519  -0.1391   2.2517 C.ar           1 S1                 0.0000
     12 ****        -0.0992  -1.2822   2.4658 N.ar           1 S1                 0.0000
     13 ****         0.8413  -1.5031   1.5037 C.ar           1 S1                 0.0000
     14 ****         1.1178  -0.6631   0.3872 C.ar           1 S1                 0.0000
     15 ****         2.1463  -1.2121  -0.3698 N.2            1 S1                 0.0000
     16 ****         2.4513  -2.3162   0.2554 C.2            1 S1                 0.0000
     17 ****         1.7238  -2.5643   1.3975 N.pl3          1 S1                 0.0000
     18 ****         1.8581  -3.7116   2.2833 C.3            1 S1                 0.0000
     19 ****         3.0483  -3.6026   3.2673 C.3            1 S1                 0.0000
     20 ****         4.2544  -3.5777   2.5252 O.3            1 S1                 0.0000
     21 ****         3.0979  -4.7698   4.2562 C.3            1 S1                 0.0000
     22 ****         2.7006  -4.1340   5.5830 C.3            1 S1                 0.0000
     23 ****         3.2654  -2.8390   5.4870 O.3            1 S1                 0.0000
     24 ****         2.9877  -2.3603   4.1791 C.3            1 S1                 0.0000
     25 ****         0.3251   0.9124  -2.0837 C.3            1 S1                 0.0000
     26 ****        -1.1396   0.9911  -2.5735 C.3            1 S1                 0.0000
     27 ****        -1.1765   0.5087  -4.0389 C.3            1 S1                 0.0000
     28 ****        -5.5125   3.9815  -2.6720 H              1 S1                 0.0000
     29 ****        -5.2734   3.4915  -4.3471 H              1 S1                 0.0000
     30 ****        -5.1325   5.1884  -3.8930 H              1 S1                 0.0000
     31 ****        -3.1205   4.7065  -2.5416 H              1 S1                 0.0000
     32 ****        -1.8000   4.3019  -4.3007 H              1 S1                 0.0000
     33 ****        -3.7653   2.2532  -2.0055 H              1 S1                 0.0000
     34 ****        -3.3709   1.8706  -3.6448 H              1 S1                 0.0000
     35 ****        -1.7949   3.9344  -0.9459 H              1 S1                 0.0000
     36 ****        -2.1311   2.3368  -0.3291 H              1 S1                 0.0000
     37 ****         0.5978   3.4464  -1.1568 H              1 S1                 0.0000
     38 ****         0.0857   3.1139   0.4752 H              1 S1                 0.0000
     39 ****        -1.5102   0.1090   2.9798 H              1 S1                 0.0000
     40 ****         3.2262  -2.9815  -0.0975 H              1 S1                 0.0000
     41 ****         0.9261  -3.8281   2.8379 H              1 S1                 0.0000
     42 ****         1.9582  -4.6059   1.6672 H              1 S1                 0.0000
     43 ****         4.9753  -3.4932   3.1306 H              1 S1                 0.0000
     44 ****         2.4451  -5.5996   3.9834 H              1 S1                 0.0000
     45 ****         4.1104  -5.1673   4.3439 H              1 S1                 0.0000
     46 ****         1.6157  -4.0588   5.6736 H              1 S1                 0.0000
     47 ****         3.0845  -4.6801   6.4450 H              1 S1                 0.0000
     48 ****         3.6790  -1.5683   3.8880 H              1 S1                 0.0000
     49 ****         1.9855  -1.9318   4.1950 H              1 S1                 0.0000
     50 ****         0.9653   1.5086  -2.7353 H              1 S1                 0.0000
     51 ****         0.6838  -0.1122  -2.1693 H              1 S1                 0.0000
     52 ****        -1.7400   0.3098  -1.9680 H              1 S1                 0.0000
     53 ****        -0.6140  -0.4184  -4.1538 H              1 S1                 0.0000
     54 ****        -0.7328   1.2440  -4.7110 H              1 S1                 0.0000
     55 ****        -2.1834   0.2900  -4.3905 H              1 S1                 0.0000
     56 ****        -1.1393   2.9594  -3.0083 H              1 S1                 0.0000
     57 ****        -3.0391   5.1180  -4.8697 LP             1 S1                 0.0000
     58 ****        -2.8907   3.5157  -5.1477 LP             1 S1                 0.0000
     59 ****         1.4558   1.5593  -0.5942 LP             1 S1                 0.0000
     60 ****        -1.1571   1.5642   1.2297 LP             1 S1                 0.0000
     61 ****        -0.2768  -1.8981   3.2334 LP             1 S1                 0.0000
     62 ****         2.5585  -0.8446  -1.2035 LP             1 S1                 0.0000
     63 ****         4.2482  -2.7999   1.8967 LP             1 S1                 0.0000
     64 ****         4.3482  -4.4263   2.0046 LP             1 S1                 0.0000
     65 ****         4.2536  -2.8836   5.6337 LP             1 S1                 0.0000
     66 ****         2.8543  -2.2337   6.1687 LP             1 S1                 0.0000
@<TRIPOS>BOND
    1    1    2 1     
    2    1   28 1     
    3    1   29 1     
    4    1   30 1     
    5    2    3 1     
    6    2    4 1     
    7    2   31 1     
    8    3   32 1     
    9    4    5 1     
   10    4   33 1     
   11    4   34 1     
   12    5   26 1     
   13    5    6 1     
   14    5   56 1     
   15    6    7 1     
   16    6   35 1     
   17    6   36 1     
   18    7    8 1     
   19    7   37 1     
   20    7   38 1     
   21    8    9 1     
   22    8   25 1     
   23    9   14 ar    
   24    9   10 ar    
   25   10   11 ar    
   26   11   12 ar    
   27   11   39 1     
   28   12   13 ar    
   29   13   17 1     
   30   13   14 ar    
   31   14   15 1     
   32   15   16 2     
   33   16   17 1     
   34   16   40 1     
   35   17   18 1     
   36   18   19 1     
   37   18   41 1     
   38   18   42 1     
   39   19   24 1     
   40   19   20 1     
   41   19   21 1     
   42   20   43 1     
   43   21   22 1     
   44   21   44 1     
   45   21   45 1     
   46   22   23 1     
   47   22   46 1     
   48   22   47 1     
   49   23   24 1     
   50   24   48 1     
   51   24   49 1     
   52   25   26 1     
   53   25   50 1     
   54   25   51 1     
   55   26   27 1     
   56   26   52 1     
   57   27   53 1     
   58   27   54 1     
   59   27   55 1     
   60    3   57 1     
   61    3   58 1     
   62    8   59 1     
   63   10   60 1     
   64   12   61 1     
   65   15   62 1     
   66   20   63 1     
   67   20   64 1     
   68   23   65 1     
   69   23   66 1     
@<TRIPOS>SUBSTRUCTURE
      1 S1             1
@<TRIPOS>SET
LONE_PAIRS      STATIC     ATOMS    <user>   **** ""
10 57 58 59 60 61 62 63 64 65 66
DONOR_HYDROGENS      STATIC     ATOMS    <user>   **** ""
3 32 56 43
ATOM$BLUE        STATIC     ATOMS    COLORGROUP SYSTEM
10 57 58 59 60 61 62 63 64 65 66
ATOM$RED        STATIC     ATOMS    COLORGROUP SYSTEM
3 32 56 43
